MODEL 1
REMARK VINA RESULT:    -7.472      0.000      0.000
REMARK INTER + INTRA:          -7.909
REMARK INTER:                  -7.909
REMARK INTRA:                   0.000
REMARK UNBOUND:                 0.000
REMARK SMILES C[C@H]1CC[C@@H]2[N@@H+](C1)C[C@H]1[C@@H]3C[C@@H]4[C@@H](CC(=O)[C@H]5C[C@H](O)CC[C@]54C)[C@H]3CC[C@H]1[C@]2(C)O
REMARK SMILES IDX 5 1 6 2 8 3 7 4 4 5 29 6 3 7 28 8 30 9 2 10 27 11 9 12 1 13
REMARK SMILES IDX 26 14 10 15 25 16 11 17 13 18 12 19 14 20 23 21 15 22 17 23
REMARK SMILES IDX 22 24 24 25 16 26 18 27 21 28 19 29 31 31 20 33
REMARK H PARENT 6 30 31 32 20 34
REMARK Flexibility Score: inf
ROOT
ATOM      1  C   UNL     1       3.328  -2.338 -23.814  1.00  0.00     0.216 C 
ATOM      2  N   UNL     1       2.069  -1.715 -24.313  1.00  0.00    -0.330 N 
ATOM      3  C   UNL     1       2.183  -0.243 -24.361  1.00  0.00     0.266 C 
ATOM      4  C   UNL     1       0.892  -2.047 -23.456  1.00  0.00     0.265 C 
ATOM      5  C   UNL     1       3.201  -3.898 -23.737  1.00  0.00     0.069 C 
ATOM      6  C   UNL     1       4.581  -1.930 -24.675  1.00  0.00     0.117 C 
ATOM      7  C   UNL     1       1.759  -4.401 -23.793  1.00  0.00     0.015 C 
ATOM      8  C   UNL     1       4.682  -0.377 -24.898  1.00  0.00     0.036 C 
ATOM      9  C   UNL     1       5.865  -2.466 -23.996  1.00  0.00     0.049 C 
ATOM     10  C   UNL     1       0.867  -3.507 -22.941  1.00  0.00     0.041 C 
ATOM     11  C   UNL     1       5.366   0.456 -23.764  1.00  0.00     0.007 C 
ATOM     12  C   UNL     1       3.306   0.257 -25.292  1.00  0.00     0.054 C 
ATOM     13  C   UNL     1      -0.563  -4.057 -22.885  1.00  0.00     0.013 C 
ATOM     14  C   UNL     1       5.655   1.926 -24.194  1.00  0.00     0.004 C 
ATOM     15  C   UNL     1       3.351   1.816 -25.215  1.00  0.00     0.002 C 
ATOM     16  C   UNL     1       4.765   2.351 -25.382  1.00  0.00    -0.004 C 
ATOM     17  C   UNL     1       2.510   2.598 -26.239  1.00  0.00     0.009 C 
ATOM     18  C   UNL     1       4.565   3.836 -25.720  1.00  0.00     0.003 C 
ATOM     19  C   UNL     1       3.438   3.727 -26.759  1.00  0.00    -0.000 C 
ATOM     20  C   UNL     1       4.198   4.705 -24.482  1.00  0.00     0.080 C 
ATOM     21  C   UNL     1       2.771   5.081 -27.156  1.00  0.00    -0.020 C 
ATOM     22  C   UNL     1       3.025   5.643 -24.627  1.00  0.00     0.136 C 
ATOM     23  C   UNL     1       2.215   5.834 -25.899  1.00  0.00     0.065 C 
ATOM     24  C   UNL     1       3.799   5.973 -27.953  1.00  0.00     0.010 C 
ATOM     25  C   UNL     1       1.596   4.767 -28.125  1.00  0.00     0.012 C 
ATOM     26  O   UNL     1       2.680   6.260 -23.629  1.00  0.00    -0.299 OA
ATOM     27  C   UNL     1       2.052   7.343 -26.198  1.00  0.00     0.043 C 
ATOM     28  C   UNL     1       4.444   7.084 -27.114  1.00  0.00     0.032 C 
ATOM     29  C   UNL     1       3.398   8.041 -26.508  1.00  0.00     0.115 C 
ATOM     30  H   UNL     1       1.862  -2.059 -25.281  1.00  0.00     0.348 HD
ENDROOT
BRANCH   6  31
ATOM     31  O   UNL     1       4.527  -2.563 -25.937  1.00  0.00    -0.384 OA
ATOM     32  H   UNL     1       4.022  -1.992 -26.568  1.00  0.00     0.211 HD
ENDBRANCH   6  31
BRANCH  29  33
ATOM     33  O   UNL     1       3.182   9.113 -27.390  1.00  0.00    -0.393 OA
ATOM     34  H   UNL     1       2.255   9.432 -27.233  1.00  0.00     0.210 HD
ENDBRANCH  29  33
TORSDOF 2
ENDMDL
MODEL 2
REMARK VINA RESULT:    -6.690      1.607      2.042
REMARK INTER + INTRA:          -7.081
REMARK INTER:                  -7.081
REMARK INTRA:                   0.000
REMARK UNBOUND:                 0.000
REMARK SMILES C[C@H]1CC[C@@H]2[N@@H+](C1)C[C@H]1[C@@H]3C[C@@H]4[C@@H](CC(=O)[C@H]5C[C@H](O)CC[C@]54C)[C@H]3CC[C@H]1[C@]2(C)O
REMARK SMILES IDX 5 1 6 2 8 3 7 4 4 5 29 6 3 7 28 8 30 9 2 10 27 11 9 12 1 13
REMARK SMILES IDX 26 14 10 15 25 16 11 17 13 18 12 19 14 20 23 21 15 22 17 23
REMARK SMILES IDX 22 24 24 25 16 26 18 27 21 28 19 29 31 31 20 33
REMARK H PARENT 6 30 31 32 20 34
REMARK Flexibility Score: inf
ROOT
ATOM      1  C   UNL     1       4.080  -1.489 -24.948  1.00  0.00     0.216 C 
ATOM      2  N   UNL     1       2.814  -0.936 -24.387  1.00  0.00    -0.330 N 
ATOM      3  C   UNL     1       2.780   0.537 -24.495  1.00  0.00     0.266 C 
ATOM      4  C   UNL     1       2.630  -1.285 -22.947  1.00  0.00     0.265 C 
ATOM      5  C   UNL     1       4.132  -3.048 -24.810  1.00  0.00     0.069 C 
ATOM      6  C   UNL     1       4.311  -1.061 -26.444  1.00  0.00     0.117 C 
ATOM      7  C   UNL     1       3.117  -3.612 -23.816  1.00  0.00     0.015 C 
ATOM      8  C   UNL     1       4.137   0.486 -26.665  1.00  0.00     0.036 C 
ATOM      9  C   UNL     1       5.719  -1.518 -26.897  1.00  0.00     0.049 C 
ATOM     10  C   UNL     1       3.061  -2.726 -22.578  1.00  0.00     0.041 C 
ATOM     11  C   UNL     1       5.381   1.386 -26.363  1.00  0.00     0.007 C 
ATOM     12  C   UNL     1       2.865   1.049 -25.947  1.00  0.00     0.054 C 
ATOM     13  C   UNL     1       2.138  -3.331 -21.514  1.00  0.00     0.013 C 
ATOM     14  C   UNL     1       5.194   2.851 -26.863  1.00  0.00     0.004 C 
ATOM     15  C   UNL     1       2.867   2.611 -25.919  1.00  0.00     0.002 C 
ATOM     16  C   UNL     1       3.701   3.197 -27.048  1.00  0.00    -0.004 C 
ATOM     17  C   UNL     1       1.506   3.321 -26.022  1.00  0.00     0.009 C 
ATOM     18  C   UNL     1       3.239   4.660 -27.133  1.00  0.00     0.003 C 
ATOM     19  C   UNL     1       1.716   4.467 -27.046  1.00  0.00    -0.000 C 
ATOM     20  C   UNL     1       3.825   5.557 -26.003  1.00  0.00     0.080 C 
ATOM     21  C   UNL     1       0.895   5.778 -26.836  1.00  0.00    -0.020 C 
ATOM     22  C   UNL     1       2.856   6.440 -25.257  1.00  0.00     0.136 C 
ATOM     23  C   UNL     1       1.370   6.552 -25.559  1.00  0.00     0.065 C 
ATOM     24  C   UNL     1       0.989   6.683 -28.125  1.00  0.00     0.010 C 
ATOM     25  C   UNL     1      -0.599   5.382 -26.668  1.00  0.00     0.012 C 
ATOM     26  O   UNL     1       3.299   7.077 -24.312  1.00  0.00    -0.299 OA
ATOM     27  C   UNL     1       0.960   8.042 -25.643  1.00  0.00     0.043 C 
ATOM     28  C   UNL     1       1.979   7.848 -27.999  1.00  0.00     0.032 C 
ATOM     29  C   UNL     1       1.635   8.782 -26.822  1.00  0.00     0.115 C 
ATOM     30  H   UNL     1       1.995  -1.322 -24.913  1.00  0.00     0.348 HD
ENDROOT
BRANCH   6  31
ATOM     31  O   UNL     1       3.402  -1.739 -27.287  1.00  0.00    -0.384 OA
ATOM     32  H   UNL     1       3.741  -2.652 -27.467  1.00  0.00     0.211 HD
ENDBRANCH   6  31
BRANCH  29  33
ATOM     33  O   UNL     1       0.795   9.813 -27.275  1.00  0.00    -0.393 OA
ATOM     34  H   UNL     1       1.355  10.631 -27.341  1.00  0.00     0.210 HD
ENDBRANCH  29  33
TORSDOF 2
ENDMDL
MODEL 3
REMARK VINA RESULT:    -5.852      2.335      8.542
REMARK INTER + INTRA:          -6.194
REMARK INTER:                  -6.194
REMARK INTRA:                   0.000
REMARK UNBOUND:                 0.000
REMARK SMILES C[C@H]1CC[C@@H]2[N@@H+](C1)C[C@H]1[C@@H]3C[C@@H]4[C@@H](CC(=O)[C@H]5C[C@H](O)CC[C@]54C)[C@H]3CC[C@H]1[C@]2(C)O
REMARK SMILES IDX 5 1 6 2 8 3 7 4 4 5 29 6 3 7 28 8 30 9 2 10 27 11 9 12 1 13
REMARK SMILES IDX 26 14 10 15 25 16 11 17 13 18 12 19 14 20 23 21 15 22 17 23
REMARK SMILES IDX 22 24 24 25 16 26 18 27 21 28 19 29 31 31 20 33
REMARK H PARENT 6 30 31 32 20 34
REMARK Flexibility Score: inf
ROOT
ATOM      1  C   UNL     1       3.756   5.745 -27.005  1.00  0.00     0.216 C 
ATOM      2  N   UNL     1       2.817   5.553 -25.862  1.00  0.00    -0.330 N 
ATOM      3  C   UNL     1       2.505   4.123 -25.662  1.00  0.00     0.266 C 
ATOM      4  C   UNL     1       1.524   6.272 -26.063  1.00  0.00     0.265 C 
ATOM      5  C   UNL     1       4.068   7.262 -27.237  1.00  0.00     0.069 C 
ATOM      6  C   UNL     1       5.090   4.929 -26.829  1.00  0.00     0.117 C 
ATOM      7  C   UNL     1       3.083   8.206 -26.549  1.00  0.00     0.015 C 
ATOM      8  C   UNL     1       4.834   3.423 -26.459  1.00  0.00     0.036 C 
ATOM      9  C   UNL     1       5.930   5.035 -28.125  1.00  0.00     0.049 C 
ATOM     10  C   UNL     1       1.664   7.673 -26.706  1.00  0.00     0.041 C 
ATOM     11  C   UNL     1       4.557   2.442 -27.647  1.00  0.00     0.007 C 
ATOM     12  C   UNL     1       3.744   3.261 -25.347  1.00  0.00     0.054 C 
ATOM     13  C   UNL     1       0.643   8.660 -26.126  1.00  0.00     0.013 C 
ATOM     14  C   UNL     1       4.584   0.947 -27.205  1.00  0.00     0.004 C 
ATOM     15  C   UNL     1       3.286   1.774 -25.206  1.00  0.00     0.002 C 
ATOM     16  C   UNL     1       4.356   0.804 -25.685  1.00  0.00    -0.004 C 
ATOM     17  C   UNL     1       2.909   1.283 -23.798  1.00  0.00     0.009 C 
ATOM     18  C   UNL     1       3.936  -0.543 -25.078  1.00  0.00     0.003 C 
ATOM     19  C   UNL     1       3.596  -0.100 -23.646  1.00  0.00    -0.000 C 
ATOM     20  C   UNL     1       2.748  -1.213 -25.828  1.00  0.00     0.080 C 
ATOM     21  C   UNL     1       2.869  -1.173 -22.777  1.00  0.00    -0.020 C 
ATOM     22  C   UNL     1       1.605  -1.722 -24.985  1.00  0.00     0.136 C 
ATOM     23  C   UNL     1       1.553  -1.671 -23.467  1.00  0.00     0.065 C 
ATOM     24  C   UNL     1       3.848  -2.372 -22.473  1.00  0.00     0.010 C 
ATOM     25  C   UNL     1       2.514  -0.519 -21.411  1.00  0.00     0.012 C 
ATOM     26  O   UNL     1       0.633  -2.166 -25.579  1.00  0.00    -0.299 OA
ATOM     27  C   UNL     1       1.136  -3.052 -22.908  1.00  0.00     0.043 C 
ATOM     28  C   UNL     1       3.611  -3.610 -23.347  1.00  0.00     0.032 C 
ATOM     29  C   UNL     1       2.177  -4.158 -23.207  1.00  0.00     0.115 C 
ATOM     30  H   UNL     1       3.250   5.920 -24.982  1.00  0.00     0.348 HD
ENDROOT
BRANCH   6  31
ATOM     31  O   UNL     1       5.883   5.512 -25.814  1.00  0.00    -0.384 OA
ATOM     32  H   UNL     1       6.366   4.799 -25.326  1.00  0.00     0.211 HD
ENDBRANCH   6  31
BRANCH  29  33
ATOM     33  O   UNL     1       2.146  -5.125 -22.187  1.00  0.00    -0.393 OA
ATOM     34  H   UNL     1       2.909  -4.929 -21.583  1.00  0.00     0.210 HD
ENDBRANCH  29  33
TORSDOF 2
ENDMDL
MODEL 4
REMARK VINA RESULT:    -5.194      1.226      1.432
REMARK INTER + INTRA:          -5.498
REMARK INTER:                  -5.498
REMARK INTRA:                   0.000
REMARK UNBOUND:                 0.000
REMARK SMILES C[C@H]1CC[C@@H]2[N@@H+](C1)C[C@H]1[C@@H]3C[C@@H]4[C@@H](CC(=O)[C@H]5C[C@H](O)CC[C@]54C)[C@H]3CC[C@H]1[C@]2(C)O
REMARK SMILES IDX 5 1 6 2 8 3 7 4 4 5 29 6 3 7 28 8 30 9 2 10 27 11 9 12 1 13
REMARK SMILES IDX 26 14 10 15 25 16 11 17 13 18 12 19 14 20 23 21 15 22 17 23
REMARK SMILES IDX 22 24 24 25 16 26 18 27 21 28 19 29 31 31 20 33
REMARK H PARENT 6 30 31 32 20 34
REMARK Flexibility Score: inf
ROOT
ATOM      1  C   UNL     1       2.724  -3.273 -23.557  1.00  0.00     0.216 C 
ATOM      2  N   UNL     1       1.648  -2.457 -24.189  1.00  0.00    -0.330 N 
ATOM      3  C   UNL     1       1.916  -1.012 -24.043  1.00  0.00     0.266 C 
ATOM      4  C   UNL     1       0.306  -2.728 -23.593  1.00  0.00     0.265 C 
ATOM      5  C   UNL     1       2.429  -4.805 -23.686  1.00  0.00     0.069 C 
ATOM      6  C   UNL     1       4.149  -2.936 -24.133  1.00  0.00     0.117 C 
ATOM      7  C   UNL     1       0.980  -5.125 -24.050  1.00  0.00     0.015 C 
ATOM      8  C   UNL     1       4.445  -1.392 -24.152  1.00  0.00     0.036 C 
ATOM      9  C   UNL     1       5.225  -3.685 -23.310  1.00  0.00     0.049 C 
ATOM     10  C   UNL     1       0.039  -4.217 -23.265  1.00  0.00     0.041 C 
ATOM     11  C   UNL     1       4.988  -0.761 -22.827  1.00  0.00     0.007 C 
ATOM     12  C   UNL     1       3.236  -0.562 -24.701  1.00  0.00     0.054 C 
ATOM     13  C   UNL     1      -1.424  -4.595 -23.522  1.00  0.00     0.013 C 
ATOM     14  C   UNL     1       5.498   0.699 -23.025  1.00  0.00     0.004 C 
ATOM     15  C   UNL     1       3.423   0.966 -24.435  1.00  0.00     0.002 C 
ATOM     16  C   UNL     1       4.889   1.341 -24.290  1.00  0.00    -0.004 C 
ATOM     17  C   UNL     1       2.868   1.939 -25.489  1.00  0.00     0.009 C 
ATOM     18  C   UNL     1       4.906   2.865 -24.481  1.00  0.00     0.003 C 
ATOM     19  C   UNL     1       3.985   2.993 -25.705  1.00  0.00    -0.000 C 
ATOM     20  C   UNL     1       4.405   3.647 -23.232  1.00  0.00     0.080 C 
ATOM     21  C   UNL     1       3.542   4.450 -26.049  1.00  0.00    -0.020 C 
ATOM     22  C   UNL     1       3.379   4.729 -23.466  1.00  0.00     0.136 C 
ATOM     23  C   UNL     1       2.842   5.138 -24.828  1.00  0.00     0.065 C 
ATOM     24  C   UNL     1       4.784   5.286 -26.546  1.00  0.00     0.010 C 
ATOM     25  C   UNL     1       2.540   4.375 -27.237  1.00  0.00     0.012 C 
ATOM     26  O   UNL     1       2.919   5.282 -22.477  1.00  0.00    -0.299 OA
ATOM     27  C   UNL     1       2.889   6.678 -24.971  1.00  0.00     0.043 C 
ATOM     28  C   UNL     1       5.371   6.224 -25.483  1.00  0.00     0.032 C 
ATOM     29  C   UNL     1       4.332   7.236 -24.960  1.00  0.00     0.115 C 
ATOM     30  H   UNL     1       1.590  -2.677 -25.211  1.00  0.00     0.348 HD
ENDROOT
BRANCH   6  31
ATOM     31  O   UNL     1       4.267  -3.432 -25.452  1.00  0.00    -0.384 OA
ATOM     32  H   UNL     1       3.797  -2.821 -26.074  1.00  0.00     0.211 HD
ENDBRANCH   6  31
BRANCH  29  33
ATOM     33  O   UNL     1       4.392   8.408 -25.733  1.00  0.00    -0.393 OA
ATOM     34  H   UNL     1       4.842   9.096 -25.177  1.00  0.00     0.210 HD
ENDBRANCH  29  33
TORSDOF 2
ENDMDL
