MODEL 1
REMARK VINA RESULT:    -4.112      0.000      0.000
REMARK INTER + INTRA:          -4.758
REMARK INTER:                  -4.713
REMARK INTRA:                  -0.045
REMARK UNBOUND:                -0.045
REMARK SMILES O=C([O-])c1cc(O)c(O)c(O)c1
REMARK SMILES IDX 4 1 5 2 12 3 6 4 10 5 8 6 2 7 1 8 3 9 7 10 11 12 9 14
REMARK H PARENT 7 11 11 13 9 15
REMARK Flexibility Score: inf
ROOT
ATOM      1  C   UNL     1      15.691  -5.218   6.461  1.00  0.00     0.005 A 
ATOM      2  C   UNL     1      16.345  -4.130   5.860  1.00  0.00     0.060 A 
ATOM      3  C   UNL     1      16.457  -6.198   7.116  1.00  0.00     0.060 A 
ATOM      4  C   UNL     1      17.738  -4.018   5.911  1.00  0.00     0.162 A 
ATOM      5  C   UNL     1      17.853  -6.093   7.172  1.00  0.00     0.162 A 
ATOM      6  C   UNL     1      18.499  -5.000   6.568  1.00  0.00     0.200 A 
ENDROOT
BRANCH   1   7
ATOM      7  C   UNL     1      14.216  -5.328   6.401  1.00  0.00     0.072 C 
ATOM      8  O   UNL     1      13.665  -6.140   5.610  1.00  0.00    -0.545 OA
ATOM      9  O   UNL     1      13.416  -4.537   7.218  1.00  0.00    -0.545 OA
ENDBRANCH   1   7
BRANCH   4  10
ATOM     10  O   UNL     1      18.350  -2.922   5.303  1.00  0.00    -0.504 OA
ATOM     11  H   UNL     1      17.946  -2.456   4.499  1.00  0.00     0.293 HD
ENDBRANCH   4  10
BRANCH   5  12
ATOM     12  O   UNL     1      18.602  -7.071   7.824  1.00  0.00    -0.504 OA
ATOM     13  H   UNL     1      18.824  -7.955   7.381  1.00  0.00     0.293 HD
ENDBRANCH   5  12
BRANCH   6  14
ATOM     14  O   UNL     1      19.888  -4.881   6.614  1.00  0.00    -0.502 OA
ATOM     15  H   UNL     1      20.348  -4.047   6.961  1.00  0.00     0.293 HD
ENDBRANCH   6  14
TORSDOF 4
ENDMDL
MODEL 2
REMARK VINA RESULT:    -4.106      0.041      2.429
REMARK INTER + INTRA:          -4.751
REMARK INTER:                  -4.706
REMARK INTRA:                  -0.045
REMARK UNBOUND:                -0.045
REMARK SMILES O=C([O-])c1cc(O)c(O)c(O)c1
REMARK SMILES IDX 4 1 5 2 12 3 6 4 10 5 8 6 2 7 1 8 3 9 7 10 11 12 9 14
REMARK H PARENT 7 11 11 13 9 15
REMARK Flexibility Score: inf
ROOT
ATOM      1  C   UNL     1      15.706  -5.230   6.432  1.00  0.00     0.005 A 
ATOM      2  C   UNL     1      16.473  -6.196   7.102  1.00  0.00     0.060 A 
ATOM      3  C   UNL     1      16.357  -4.145   5.820  1.00  0.00     0.060 A 
ATOM      4  C   UNL     1      17.866  -6.087   7.162  1.00  0.00     0.162 A 
ATOM      5  C   UNL     1      17.753  -4.028   5.875  1.00  0.00     0.162 A 
ATOM      6  C   UNL     1      18.512  -5.001   6.548  1.00  0.00     0.200 A 
ENDROOT
BRANCH   1   7
ATOM      7  C   UNL     1      14.232  -5.354   6.375  1.00  0.00     0.072 C 
ATOM      8  O   UNL     1      13.686  -6.140   5.554  1.00  0.00    -0.545 OA
ATOM      9  O   UNL     1      13.427  -4.605   7.226  1.00  0.00    -0.545 OA
ENDBRANCH   1   7
BRANCH   4  10
ATOM     10  O   UNL     1      18.592  -7.068   7.837  1.00  0.00    -0.504 OA
ATOM     11  H   UNL     1      18.334  -8.047   7.806  1.00  0.00     0.293 HD
ENDBRANCH   4  10
BRANCH   5  12
ATOM     12  O   UNL     1      18.388  -2.948   5.264  1.00  0.00    -0.504 OA
ATOM     13  H   UNL     1      19.022  -2.346   5.775  1.00  0.00     0.293 HD
ENDBRANCH   5  12
BRANCH   6  14
ATOM     14  O   UNL     1      19.902  -4.899   6.612  1.00  0.00    -0.502 OA
ATOM     15  H   UNL     1      20.448  -4.472   5.873  1.00  0.00     0.293 HD
ENDBRANCH   6  14
TORSDOF 4
ENDMDL
MODEL 3
REMARK VINA RESULT:    -3.818      1.415      2.854
REMARK INTER + INTRA:          -4.420
REMARK INTER:                  -4.376
REMARK INTRA:                  -0.045
REMARK UNBOUND:                -0.045
REMARK SMILES O=C([O-])c1cc(O)c(O)c(O)c1
REMARK SMILES IDX 4 1 5 2 12 3 6 4 10 5 8 6 2 7 1 8 3 9 7 10 11 12 9 14
REMARK H PARENT 7 11 11 13 9 15
REMARK Flexibility Score: inf
ROOT
ATOM      1  C   UNL     1      14.608  -5.428   6.978  1.00  0.00     0.005 A 
ATOM      2  C   UNL     1      14.924  -6.211   8.099  1.00  0.00     0.060 A 
ATOM      3  C   UNL     1      15.631  -5.078   6.079  1.00  0.00     0.060 A 
ATOM      4  C   UNL     1      16.235  -6.641   8.324  1.00  0.00     0.162 A 
ATOM      5  C   UNL     1      16.948  -5.505   6.297  1.00  0.00     0.162 A 
ATOM      6  C   UNL     1      17.254  -6.289   7.422  1.00  0.00     0.200 A 
ENDROOT
BRANCH   1   7
ATOM      7  C   UNL     1      13.217  -4.977   6.749  1.00  0.00     0.072 C 
ATOM      8  O   UNL     1      12.473  -5.582   5.930  1.00  0.00    -0.545 OA
ATOM      9  O   UNL     1      12.709  -3.880   7.434  1.00  0.00    -0.545 OA
ENDBRANCH   1   7
BRANCH   4  10
ATOM     10  O   UNL     1      16.508  -7.418   9.449  1.00  0.00    -0.504 OA
ATOM     11  H   UNL     1      15.788  -7.676  10.114  1.00  0.00     0.293 HD
ENDBRANCH   4  10
BRANCH   5  12
ATOM     12  O   UNL     1      17.954  -5.152   5.399  1.00  0.00    -0.504 OA
ATOM     13  H   UNL     1      18.935  -5.259   5.631  1.00  0.00     0.293 HD
ENDBRANCH   5  12
BRANCH   6  14
ATOM     14  O   UNL     1      18.560  -6.722   7.654  1.00  0.00    -0.502 OA
ATOM     15  H   UNL     1      19.361  -6.113   7.532  1.00  0.00     0.293 HD
ENDBRANCH   6  14
TORSDOF 4
ENDMDL
MODEL 4
REMARK VINA RESULT:    -3.808      1.383      2.010
REMARK INTER + INTRA:          -4.409
REMARK INTER:                  -4.365
REMARK INTRA:                  -0.045
REMARK UNBOUND:                -0.045
REMARK SMILES O=C([O-])c1cc(O)c(O)c(O)c1
REMARK SMILES IDX 4 1 5 2 12 3 6 4 10 5 8 6 2 7 1 8 3 9 7 10 11 12 9 14
REMARK H PARENT 7 11 11 13 9 15
REMARK Flexibility Score: inf
ROOT
ATOM      1  C   UNL     1      14.638  -5.483   6.883  1.00  0.00     0.005 A 
ATOM      2  C   UNL     1      15.680  -5.128   6.012  1.00  0.00     0.060 A 
ATOM      3  C   UNL     1      14.932  -6.255   8.020  1.00  0.00     0.060 A 
ATOM      4  C   UNL     1      16.994  -5.532   6.268  1.00  0.00     0.162 A 
ATOM      5  C   UNL     1      16.246  -6.665   8.284  1.00  0.00     0.162 A 
ATOM      6  C   UNL     1      17.283  -6.304   7.406  1.00  0.00     0.200 A 
ENDROOT
BRANCH   1   7
ATOM      7  C   UNL     1      13.250  -5.050   6.603  1.00  0.00     0.072 C 
ATOM      8  O   UNL     1      12.792  -3.994   7.115  1.00  0.00    -0.545 OA
ATOM      9  O   UNL     1      12.431  -5.804   5.770  1.00  0.00    -0.545 OA
ENDBRANCH   1   7
BRANCH   4  10
ATOM     10  O   UNL     1      18.001  -5.158   5.379  1.00  0.00    -0.504 OA
ATOM     11  H   UNL     1      18.193  -4.188   5.158  1.00  0.00     0.293 HD
ENDBRANCH   4  10
BRANCH   5  12
ATOM     12  O   UNL     1      16.525  -7.431   9.415  1.00  0.00    -0.504 OA
ATOM     13  H   UNL     1      16.066  -7.256  10.301  1.00  0.00     0.293 HD
ENDBRANCH   5  12
BRANCH   6  14
ATOM     14  O   UNL     1      18.596  -6.704   7.655  1.00  0.00    -0.502 OA
ATOM     15  H   UNL     1      19.357  -6.484   7.022  1.00  0.00     0.293 HD
ENDBRANCH   6  14
TORSDOF 4
ENDMDL
MODEL 5
REMARK VINA RESULT:    -3.729     16.119     17.816
REMARK INTER + INTRA:          -4.319
REMARK INTER:                  -4.267
REMARK INTRA:                  -0.052
REMARK UNBOUND:                -0.045
REMARK SMILES O=C([O-])c1cc(O)c(O)c(O)c1
REMARK SMILES IDX 4 1 5 2 12 3 6 4 10 5 8 6 2 7 1 8 3 9 7 10 11 12 9 14
REMARK H PARENT 7 11 11 13 9 15
REMARK Flexibility Score: inf
ROOT
ATOM      1  C   UNL     1      25.243 -14.542  17.661  1.00  0.00     0.005 A 
ATOM      2  C   UNL     1      23.950 -14.403  18.190  1.00  0.00     0.060 A 
ATOM      3  C   UNL     1      25.875 -15.796  17.723  1.00  0.00     0.060 A 
ATOM      4  C   UNL     1      23.295 -15.494  18.771  1.00  0.00     0.162 A 
ATOM      5  C   UNL     1      25.226 -16.894  18.304  1.00  0.00     0.162 A 
ATOM      6  C   UNL     1      23.932 -16.745  18.831  1.00  0.00     0.200 A 
ENDROOT
BRANCH   1   7
ATOM      7  C   UNL     1      25.927 -13.382  17.047  1.00  0.00     0.072 C 
ATOM      8  O   UNL     1      26.952 -13.546  16.333  1.00  0.00    -0.545 OA
ATOM      9  O   UNL     1      25.449 -12.092  17.252  1.00  0.00    -0.545 OA
ENDBRANCH   1   7
BRANCH   4  10
ATOM     10  O   UNL     1      22.011 -15.315  19.285  1.00  0.00    -0.504 OA
ATOM     11  H   UNL     1      21.190 -15.298  18.691  1.00  0.00     0.293 HD
ENDBRANCH   4  10
BRANCH   5  12
ATOM     12  O   UNL     1      25.863 -18.132  18.360  1.00  0.00    -0.504 OA
ATOM     13  H   UNL     1      25.532 -18.925  17.824  1.00  0.00     0.293 HD
ENDBRANCH   5  12
BRANCH   6  14
ATOM     14  O   UNL     1      23.272 -17.828  19.412  1.00  0.00    -0.502 OA
ATOM     15  H   UNL     1      23.224 -18.736  18.965  1.00  0.00     0.293 HD
ENDBRANCH   6  14
TORSDOF 4
ENDMDL
MODEL 6
REMARK VINA RESULT:    -3.724     16.126     17.906
REMARK INTER + INTRA:          -4.313
REMARK INTER:                  -4.260
REMARK INTRA:                  -0.052
REMARK UNBOUND:                -0.045
REMARK SMILES O=C([O-])c1cc(O)c(O)c(O)c1
REMARK SMILES IDX 4 1 5 2 12 3 6 4 10 5 8 6 2 7 1 8 3 9 7 10 11 12 9 14
REMARK H PARENT 7 11 11 13 9 15
REMARK Flexibility Score: inf
ROOT
ATOM      1  C   UNL     1      25.277 -14.569  17.638  1.00  0.00     0.005 A 
ATOM      2  C   UNL     1      25.911 -15.818  17.726  1.00  0.00     0.060 A 
ATOM      3  C   UNL     1      23.973 -14.428  18.144  1.00  0.00     0.060 A 
ATOM      4  C   UNL     1      25.261 -16.910  18.310  1.00  0.00     0.162 A 
ATOM      5  C   UNL     1      23.314 -15.517  18.731  1.00  0.00     0.162 A 
ATOM      6  C   UNL     1      23.958 -16.763  18.815  1.00  0.00     0.200 A 
ENDROOT
BRANCH   1   7
ATOM      7  C   UNL     1      25.974 -13.419  17.018  1.00  0.00     0.072 C 
ATOM      8  O   UNL     1      27.021 -13.594  16.339  1.00  0.00    -0.545 OA
ATOM      9  O   UNL     1      25.482 -12.128  17.176  1.00  0.00    -0.545 OA
ENDBRANCH   1   7
BRANCH   4  10
ATOM     10  O   UNL     1      25.926 -18.134  18.380  1.00  0.00    -0.504 OA
ATOM     11  H   UNL     1      25.950 -18.780  17.599  1.00  0.00     0.293 HD
ENDBRANCH   4  10
BRANCH   5  12
ATOM     12  O   UNL     1      22.021 -15.365  19.229  1.00  0.00    -0.504 OA
ATOM     13  H   UNL     1      21.848 -15.187  20.212  1.00  0.00     0.293 HD
ENDBRANCH   5  12
BRANCH   6  14
ATOM     14  O   UNL     1      23.316 -17.857  19.395  1.00  0.00    -0.502 OA
ATOM     15  H   UNL     1      23.071 -18.685  18.865  1.00  0.00     0.293 HD
ENDBRANCH   6  14
TORSDOF 4
ENDMDL
MODEL 7
REMARK VINA RESULT:    -3.617      9.999     11.671
REMARK INTER + INTRA:          -4.191
REMARK INTER:                  -4.139
REMARK INTRA:                  -0.052
REMARK UNBOUND:                -0.045
REMARK SMILES O=C([O-])c1cc(O)c(O)c(O)c1
REMARK SMILES IDX 4 1 5 2 12 3 6 4 10 5 8 6 2 7 1 8 3 9 7 10 11 12 9 14
REMARK H PARENT 7 11 11 13 9 15
REMARK Flexibility Score: inf
ROOT
ATOM      1  C   UNL     1      18.892 -15.968   9.408  1.00  0.00     0.005 A 
ATOM      2  C   UNL     1      19.903 -16.851   9.821  1.00  0.00     0.060 A 
ATOM      3  C   UNL     1      19.231 -14.640   9.094  1.00  0.00     0.060 A 
ATOM      4  C   UNL     1      21.230 -16.421   9.919  1.00  0.00     0.162 A 
ATOM      5  C   UNL     1      20.558 -14.201   9.191  1.00  0.00     0.162 A 
ATOM      6  C   UNL     1      21.563 -15.092   9.605  1.00  0.00     0.200 A 
ENDROOT
BRANCH   1   7
ATOM      7  C   UNL     1      17.490 -16.433   9.307  1.00  0.00     0.072 C 
ATOM      8  O   UNL     1      16.641 -15.772   8.650  1.00  0.00    -0.545 OA
ATOM      9  O   UNL     1      17.089 -17.606   9.936  1.00  0.00    -0.545 OA
ENDBRANCH   1   7
BRANCH   4  10
ATOM     10  O   UNL     1      22.205 -17.328  10.333  1.00  0.00    -0.504 OA
ATOM     11  H   UNL     1      23.163 -17.049  10.508  1.00  0.00     0.293 HD
ENDBRANCH   4  10
BRANCH   5  12
ATOM     12  O   UNL     1      20.882 -12.882   8.877  1.00  0.00    -0.504 OA
ATOM     13  H   UNL     1      20.477 -12.102   9.381  1.00  0.00     0.293 HD
ENDBRANCH   5  12
BRANCH   6  14
ATOM     14  O   UNL     1      22.889 -14.672   9.706  1.00  0.00    -0.502 OA
ATOM     15  H   UNL     1      23.261 -13.914   9.145  1.00  0.00     0.293 HD
ENDBRANCH   6  14
TORSDOF 4
ENDMDL
MODEL 8
REMARK VINA RESULT:    -3.615     19.161     19.898
REMARK INTER + INTRA:          -4.189
REMARK INTER:                  -4.137
REMARK INTRA:                  -0.052
REMARK UNBOUND:                -0.045
REMARK SMILES O=C([O-])c1cc(O)c(O)c(O)c1
REMARK SMILES IDX 4 1 5 2 12 3 6 4 10 5 8 6 2 7 1 8 3 9 7 10 11 12 9 14
REMARK H PARENT 7 11 11 13 9 15
REMARK Flexibility Score: inf
ROOT
ATOM      1  C   UNL     1      13.535 -17.813  21.558  1.00  0.00     0.005 A 
ATOM      2  C   UNL     1      14.260 -17.352  22.669  1.00  0.00     0.060 A 
ATOM      3  C   UNL     1      14.234 -18.296  20.438  1.00  0.00     0.060 A 
ATOM      4  C   UNL     1      15.659 -17.372  22.666  1.00  0.00     0.162 A 
ATOM      5  C   UNL     1      15.635 -18.318  20.427  1.00  0.00     0.162 A 
ATOM      6  C   UNL     1      16.353 -17.855  21.543  1.00  0.00     0.200 A 
ENDROOT
BRANCH   1   7
ATOM      7  C   UNL     1      12.055 -17.788  21.571  1.00  0.00     0.072 C 
ATOM      8  O   UNL     1      11.395 -18.458  20.731  1.00  0.00    -0.545 OA
ATOM      9  O   UNL     1      11.370 -17.025  22.510  1.00  0.00    -0.545 OA
ENDBRANCH   1   7
BRANCH   4  10
ATOM     10  O   UNL     1      16.342 -16.906  23.788  1.00  0.00    -0.504 OA
ATOM     11  H   UNL     1      16.994 -16.131  23.741  1.00  0.00     0.293 HD
ENDBRANCH   4  10
BRANCH   5  12
ATOM     12  O   UNL     1      16.317 -18.799  19.311  1.00  0.00    -0.504 OA
ATOM     13  H   UNL     1      16.957 -18.214  18.787  1.00  0.00     0.293 HD
ENDBRANCH   5  12
BRANCH   6  14
ATOM     14  O   UNL     1      17.747 -17.871  21.549  1.00  0.00    -0.502 OA
ATOM     15  H   UNL     1      18.296 -17.434  20.817  1.00  0.00     0.293 HD
ENDBRANCH   6  14
TORSDOF 4
ENDMDL
MODEL 9
REMARK VINA RESULT:    -3.601      9.972     11.356
REMARK INTER + INTRA:          -4.173
REMARK INTER:                  -4.120
REMARK INTRA:                  -0.053
REMARK UNBOUND:                -0.045
REMARK SMILES O=C([O-])c1cc(O)c(O)c(O)c1
REMARK SMILES IDX 4 1 5 2 12 3 6 4 10 5 8 6 2 7 1 8 3 9 7 10 11 12 9 14
REMARK H PARENT 7 11 11 13 9 15
REMARK Flexibility Score: inf
ROOT
ATOM      1  C   UNL     1      18.876 -15.915   9.415  1.00  0.00     0.005 A 
ATOM      2  C   UNL     1      19.245 -14.599   9.094  1.00  0.00     0.060 A 
ATOM      3  C   UNL     1      19.865 -16.816   9.846  1.00  0.00     0.060 A 
ATOM      4  C   UNL     1      20.576 -14.185   9.200  1.00  0.00     0.162 A 
ATOM      5  C   UNL     1      21.202 -16.409   9.955  1.00  0.00     0.162 A 
ATOM      6  C   UNL     1      21.562 -15.089   9.631  1.00  0.00     0.200 A 
ENDROOT
BRANCH   1   7
ATOM      7  C   UNL     1      17.464 -16.345   9.299  1.00  0.00     0.072 C 
ATOM      8  O   UNL     1      17.132 -17.534   9.553  1.00  0.00    -0.545 OA
ATOM      9  O   UNL     1      16.482 -15.441   8.907  1.00  0.00    -0.545 OA
ENDBRANCH   1   7
BRANCH   4  10
ATOM     10  O   UNL     1      20.902 -12.869   8.872  1.00  0.00    -0.504 OA
ATOM     11  H   UNL     1      21.847 -12.589   8.637  1.00  0.00     0.293 HD
ENDBRANCH   4  10
BRANCH   5  12
ATOM     12  O   UNL     1      22.174 -17.311  10.383  1.00  0.00    -0.504 OA
ATOM     13  H   UNL     1      22.158 -18.284  10.100  1.00  0.00     0.293 HD
ENDBRANCH   5  12
BRANCH   6  14
ATOM     14  O   UNL     1      22.887 -14.668   9.734  1.00  0.00    -0.502 OA
ATOM     15  H   UNL     1      23.342 -14.527  10.629  1.00  0.00     0.293 HD
ENDBRANCH   6  14
TORSDOF 4
ENDMDL
