MODEL 1
REMARK VINA RESULT:    -3.391      0.000      0.000
REMARK INTER + INTRA:          -4.066
REMARK INTER:                  -3.985
REMARK INTRA:                  -0.081
REMARK UNBOUND:                -0.081
REMARK SMILES O=C([O-])CCC(=O)[O-]
REMARK SMILES IDX 4 1 2 2 1 3 3 4 5 5 6 6 7 7 8 8
REMARK H PARENT
REMARK Flexibility Score: inf
ROOT
ATOM      1  C   UNL     1      20.811 -10.461 -47.206  1.00  0.00     0.059 C 
ENDROOT
BRANCH   1   2
ATOM      2  C   UNL     1      19.698  -9.802 -46.454  1.00  0.00     0.042 C 
ATOM      3  O   UNL     1      19.953  -9.015 -45.506  1.00  0.00    -0.550 OA
ATOM      4  O   UNL     1      18.379 -10.020 -46.833  1.00  0.00    -0.550 OA
ENDBRANCH   1   2
BRANCH   1   5
ATOM      5  C   UNL     1      20.440 -10.618 -48.682  1.00  0.00     0.059 C 
BRANCH   5   6
ATOM      6  C   UNL     1      20.350  -9.280 -49.344  1.00  0.00     0.042 C 
ATOM      7  O   UNL     1      21.355  -8.523 -49.382  1.00  0.00    -0.550 OA
ATOM      8  O   UNL     1      19.141  -8.848 -49.876  1.00  0.00    -0.550 OA
ENDBRANCH   5   6
ENDBRANCH   1   5
TORSDOF 3
ENDMDL
MODEL 2
REMARK VINA RESULT:    -3.369      9.321     10.523
REMARK INTER + INTRA:          -4.041
REMARK INTER:                  -3.959
REMARK INTRA:                  -0.083
REMARK UNBOUND:                -0.081
REMARK SMILES O=C([O-])CCC(=O)[O-]
REMARK SMILES IDX 4 1 2 2 1 3 3 4 5 5 6 6 7 7 8 8
REMARK H PARENT
REMARK Flexibility Score: inf
ROOT
ATOM      1  C   UNL     1      26.408  -2.663 -49.580  1.00  0.00     0.059 C 
ENDROOT
BRANCH   1   2
ATOM      2  C   UNL     1      25.105  -2.023 -49.221  1.00  0.00     0.042 C 
ATOM      3  O   UNL     1      24.356  -1.562 -50.122  1.00  0.00    -0.550 OA
ATOM      4  O   UNL     1      24.694  -1.978 -47.895  1.00  0.00    -0.550 OA
ENDBRANCH   1   2
BRANCH   1   5
ATOM      5  C   UNL     1      27.563  -1.683 -49.365  1.00  0.00     0.059 C 
BRANCH   5   6
ATOM      6  C   UNL     1      28.037  -1.735 -47.948  1.00  0.00     0.042 C 
ATOM      7  O   UNL     1      28.030  -0.695 -47.239  1.00  0.00    -0.550 OA
ATOM      8  O   UNL     1      28.533  -2.922 -47.423  1.00  0.00    -0.550 OA
ENDBRANCH   5   6
ENDBRANCH   1   5
TORSDOF 3
ENDMDL
MODEL 3
REMARK VINA RESULT:    -3.340     10.989     11.504
REMARK INTER + INTRA:          -4.007
REMARK INTER:                  -3.886
REMARK INTRA:                  -0.120
REMARK UNBOUND:                -0.081
REMARK SMILES O=C([O-])CCC(=O)[O-]
REMARK SMILES IDX 4 1 2 2 1 3 3 4 5 5 6 6 7 7 8 8
REMARK H PARENT
REMARK Flexibility Score: inf
ROOT
ATOM      1  C   UNL     1      16.436   1.611 -48.072  1.00  0.00     0.059 C 
ENDROOT
BRANCH   1   2
ATOM      2  C   UNL     1      16.873   1.776 -46.652  1.00  0.00     0.042 C 
ATOM      3  O   UNL     1      18.097   1.852 -46.370  1.00  0.00    -0.550 OA
ATOM      4  O   UNL     1      15.925   1.895 -45.642  1.00  0.00    -0.550 OA
ENDBRANCH   1   2
BRANCH   1   5
ATOM      5  C   UNL     1      16.175   0.136 -48.385  1.00  0.00     0.059 C 
BRANCH   5   6
ATOM      6  C   UNL     1      14.715  -0.103 -48.598  1.00  0.00     0.042 C 
ATOM      7  O   UNL     1      14.277  -0.368 -49.748  1.00  0.00    -0.550 OA
ATOM      8  O   UNL     1      13.828   0.014 -47.534  1.00  0.00    -0.550 OA
ENDBRANCH   5   6
ENDBRANCH   1   5
TORSDOF 3
ENDMDL
MODEL 4
REMARK VINA RESULT:    -3.330     15.108     16.802
REMARK INTER + INTRA:          -3.995
REMARK INTER:                  -3.948
REMARK INTRA:                  -0.047
REMARK UNBOUND:                -0.081
REMARK SMILES O=C([O-])CCC(=O)[O-]
REMARK SMILES IDX 4 1 2 2 1 3 3 4 5 5 6 6 7 7 8 8
REMARK H PARENT
REMARK Flexibility Score: inf
ROOT
ATOM      1  C   UNL     1      17.001  -4.688 -31.491  1.00  0.00     0.059 C 
ENDROOT
BRANCH   1   2
ATOM      2  C   UNL     1      18.285  -3.969 -31.225  1.00  0.00     0.042 C 
ATOM      3  O   UNL     1      19.225  -4.021 -32.060  1.00  0.00    -0.550 OA
ATOM      4  O   UNL     1      18.426  -3.200 -30.077  1.00  0.00    -0.550 OA
ENDBRANCH   1   2
BRANCH   1   5
ATOM      5  C   UNL     1      16.635  -4.600 -32.974  1.00  0.00     0.059 C 
BRANCH   5   6
ATOM      6  C   UNL     1      15.784  -5.763 -33.373  1.00  0.00     0.042 C 
ATOM      7  O   UNL     1      15.233  -6.476 -32.495  1.00  0.00    -0.550 OA
ATOM      8  O   UNL     1      15.640  -6.090 -34.716  1.00  0.00    -0.550 OA
ENDBRANCH   5   6
ENDBRANCH   1   5
TORSDOF 3
ENDMDL
MODEL 5
REMARK VINA RESULT:    -3.327     10.990     11.644
REMARK INTER + INTRA:          -3.992
REMARK INTER:                  -3.870
REMARK INTRA:                  -0.122
REMARK UNBOUND:                -0.081
REMARK SMILES O=C([O-])CCC(=O)[O-]
REMARK SMILES IDX 4 1 2 2 1 3 3 4 5 5 6 6 7 7 8 8
REMARK H PARENT
REMARK Flexibility Score: inf
ROOT
ATOM      1  C   UNL     1      16.141   0.084 -48.337  1.00  0.00     0.059 C 
ENDROOT
BRANCH   1   2
ATOM      2  C   UNL     1      14.680  -0.055 -48.624  1.00  0.00     0.042 C 
ATOM      3  O   UNL     1      14.282  -0.270 -49.798  1.00  0.00    -0.550 OA
ATOM      4  O   UNL     1      13.759   0.003 -47.584  1.00  0.00    -0.550 OA
ENDBRANCH   1   2
BRANCH   1   5
ATOM      5  C   UNL     1      16.500   1.551 -48.089  1.00  0.00     0.059 C 
BRANCH   5   6
ATOM      6  C   UNL     1      16.849   1.768 -46.651  1.00  0.00     0.042 C 
ATOM      7  O   UNL     1      18.054   1.812 -46.291  1.00  0.00    -0.550 OA
ATOM      8  O   UNL     1      15.841   1.874 -45.700  1.00  0.00    -0.550 OA
ENDBRANCH   5   6
ENDBRANCH   1   5
TORSDOF 3
ENDMDL
MODEL 6
REMARK VINA RESULT:    -3.322     11.170     11.914
REMARK INTER + INTRA:          -3.986
REMARK INTER:                  -3.865
REMARK INTRA:                  -0.121
REMARK UNBOUND:                -0.081
REMARK SMILES O=C([O-])CCC(=O)[O-]
REMARK SMILES IDX 4 1 2 2 1 3 3 4 5 5 6 6 7 7 8 8
REMARK H PARENT
REMARK Flexibility Score: inf
ROOT
ATOM      1  C   UNL     1      16.120   0.315 -48.248  1.00  0.00     0.059 C 
ENDROOT
BRANCH   1   2
ATOM      2  C   UNL     1      14.753   0.476 -48.834  1.00  0.00     0.042 C 
ATOM      3  O   UNL     1      14.060   1.490 -48.558  1.00  0.00    -0.550 OA
ATOM      4  O   UNL     1      14.263  -0.471 -49.726  1.00  0.00    -0.550 OA
ENDBRANCH   1   2
BRANCH   1   5
ATOM      5  C   UNL     1      16.709   1.679 -47.884  1.00  0.00     0.059 C 
BRANCH   5   6
ATOM      6  C   UNL     1      16.933   1.775 -46.408  1.00  0.00     0.042 C 
ATOM      7  O   UNL     1      15.955   1.907 -45.626  1.00  0.00    -0.550 OA
ATOM      8  O   UNL     1      18.226   1.767 -45.899  1.00  0.00    -0.550 OA
ENDBRANCH   5   6
ENDBRANCH   1   5
TORSDOF 3
ENDMDL
MODEL 7
REMARK VINA RESULT:    -3.252      9.460     10.625
REMARK INTER + INTRA:          -3.903
REMARK INTER:                  -3.785
REMARK INTRA:                  -0.118
REMARK UNBOUND:                -0.081
REMARK SMILES O=C([O-])CCC(=O)[O-]
REMARK SMILES IDX 4 1 2 2 1 3 3 4 5 5 6 6 7 7 8 8
REMARK H PARENT
REMARK Flexibility Score: inf
ROOT
ATOM      1  C   UNL     1      27.520  -1.587 -49.661  1.00  0.00     0.059 C 
ENDROOT
BRANCH   1   2
ATOM      2  C   UNL     1      28.152  -1.446 -48.313  1.00  0.00     0.042 C 
ATOM      3  O   UNL     1      28.413  -0.305 -47.851  1.00  0.00    -0.550 OA
ATOM      4  O   UNL     1      28.409  -2.575 -47.544  1.00  0.00    -0.550 OA
ENDBRANCH   1   2
BRANCH   1   5
ATOM      5  C   UNL     1      26.396  -2.624 -49.619  1.00  0.00     0.059 C 
BRANCH   5   6
ATOM      6  C   UNL     1      25.102  -1.979 -49.237  1.00  0.00     0.042 C 
ATOM      7  O   UNL     1      24.349  -1.495 -50.122  1.00  0.00    -0.550 OA
ATOM      8  O   UNL     1      24.749  -1.867 -47.897  1.00  0.00    -0.550 OA
ENDBRANCH   5   6
ENDBRANCH   1   5
TORSDOF 3
ENDMDL
MODEL 8
REMARK VINA RESULT:    -3.228     14.458     16.269
REMARK INTER + INTRA:          -3.876
REMARK INTER:                  -3.749
REMARK INTRA:                  -0.126
REMARK UNBOUND:                -0.081
REMARK SMILES O=C([O-])CCC(=O)[O-]
REMARK SMILES IDX 4 1 2 2 1 3 3 4 5 5 6 6 7 7 8 8
REMARK H PARENT
REMARK Flexibility Score: inf
ROOT
ATOM      1  C   UNL     1      13.626  -5.292 -33.002  1.00  0.00     0.059 C 
ENDROOT
BRANCH   1   2
ATOM      2  C   UNL     1      13.869  -5.941 -31.676  1.00  0.00     0.042 C 
ATOM      3  O   UNL     1      14.324  -5.268 -30.715  1.00  0.00    -0.550 OA
ATOM      4  O   UNL     1      13.547  -7.280 -31.488  1.00  0.00    -0.550 OA
ENDBRANCH   1   2
BRANCH   1   5
ATOM      5  C   UNL     1      13.826  -6.300 -34.135  1.00  0.00     0.059 C 
BRANCH   5   6
ATOM      6  C   UNL     1      15.281  -6.467 -34.436  1.00  0.00     0.042 C 
ATOM      7  O   UNL     1      15.737  -7.595 -34.759  1.00  0.00    -0.550 OA
ATOM      8  O   UNL     1      16.145  -5.385 -34.314  1.00  0.00    -0.550 OA
ENDBRANCH   5   6
ENDBRANCH   1   5
TORSDOF 3
ENDMDL
MODEL 9
REMARK VINA RESULT:    -3.210     14.489     16.606
REMARK INTER + INTRA:          -3.854
REMARK INTER:                  -3.735
REMARK INTRA:                  -0.120
REMARK UNBOUND:                -0.081
REMARK SMILES O=C([O-])CCC(=O)[O-]
REMARK SMILES IDX 4 1 2 2 1 3 3 4 5 5 6 6 7 7 8 8
REMARK H PARENT
REMARK Flexibility Score: inf
ROOT
ATOM      1  C   UNL     1      13.854  -6.361 -34.054  1.00  0.00     0.059 C 
ENDROOT
BRANCH   1   2
ATOM      2  C   UNL     1      15.304  -6.476 -34.403  1.00  0.00     0.042 C 
ATOM      3  O   UNL     1      15.770  -7.567 -34.824  1.00  0.00    -0.550 OA
ATOM      4  O   UNL     1      16.132  -5.364 -34.309  1.00  0.00    -0.550 OA
ENDBRANCH   1   2
BRANCH   1   5
ATOM      5  C   UNL     1      13.651  -5.328 -32.943  1.00  0.00     0.059 C 
BRANCH   5   6
ATOM      6  C   UNL     1      13.856  -5.956 -31.601  1.00  0.00     0.042 C 
ATOM      7  O   UNL     1      14.306  -5.273 -30.644  1.00  0.00    -0.550 OA
ATOM      8  O   UNL     1      13.595  -7.309 -31.419  1.00  0.00    -0.550 OA
ENDBRANCH   5   6
ENDBRANCH   1   5
TORSDOF 3
ENDMDL
