MODEL 1
REMARK VINA RESULT:    -2.785      0.000      0.000
REMARK INTER + INTRA:          -3.578
REMARK INTER:                  -3.273
REMARK INTRA:                  -0.305
REMARK UNBOUND:                -0.305
REMARK SMILES O=c1cc(-c2ccc(O)c(O)c2)oc2cc(O)cc(O)c12
REMARK SMILES IDX 4 1 3 2 2 3 1 4 21 5 19 6 18 7 16 8 15 9 14 10 13 11 5 12
REMARK SMILES IDX 6 13 7 14 8 15 12 16 10 17 9 18 11 20 20 22 17 24
REMARK H PARENT 9 19 11 21 20 23 17 25
REMARK Flexibility Score: inf
ROOT
ATOM      1  C   UNL     1      20.416 -15.772   2.627  1.00  0.00     0.138 A 
ATOM      2  C   UNL     1      20.387 -15.138   1.378  1.00  0.00     0.100 A 
ATOM      3  C   UNL     1      20.299 -15.905   0.216  1.00  0.00     0.197 A 
ATOM      4  O   UNL     1      20.337 -15.311  -0.893  1.00  0.00    -0.289 OA
ATOM      5  C   UNL     1      20.206 -17.315   0.309  1.00  0.00     0.107 A 
ATOM      6  C   UNL     1      20.071 -18.195  -0.806  1.00  0.00     0.134 A 
ATOM      7  C   UNL     1      20.106 -19.580  -0.599  1.00  0.00     0.093 A 
ATOM      8  C   UNL     1      20.212 -20.114   0.688  1.00  0.00     0.123 A 
ATOM      9  C   UNL     1      20.290 -19.262   1.787  1.00  0.00     0.094 A 
ATOM     10  C   UNL     1      20.293 -17.876   1.610  1.00  0.00     0.146 A 
ATOM     11  O   UNL     1      20.384 -17.100   2.684  1.00  0.00    -0.456 OA
ENDROOT
BRANCH   1  12
ATOM     12  C   UNL     1      20.509 -15.004   3.895  1.00  0.00     0.021 A 
ATOM     13  C   UNL     1      19.916 -13.735   4.036  1.00  0.00     0.016 A 
ATOM     14  C   UNL     1      20.010 -13.038   5.243  1.00  0.00     0.051 A 
ATOM     15  C   UNL     1      20.687 -13.596   6.331  1.00  0.00     0.157 A 
ATOM     16  C   UNL     1      21.176 -15.566   4.998  1.00  0.00     0.062 A 
ATOM     17  C   UNL     1      21.271 -14.867   6.211  1.00  0.00     0.158 A 
BRANCH  15  18
ATOM     18  O   UNL     1      20.764 -12.876   7.523  1.00  0.00    -0.504 OA
ATOM     19  H   UNL     1      20.270 -12.003   7.658  1.00  0.00     0.293 HD
ENDBRANCH  15  18
BRANCH  17  20
ATOM     20  O   UNL     1      21.945 -15.431   7.293  1.00  0.00    -0.504 OA
ATOM     21  H   UNL     1      22.956 -15.417   7.355  1.00  0.00     0.293 HD
ENDBRANCH  17  20
ENDBRANCH   1  12
BRANCH   6  22
ATOM     22  O   UNL     1      19.876 -17.765  -2.122  1.00  0.00    -0.507 OA
ATOM     23  H   UNL     1      20.043 -16.828  -2.453  1.00  0.00     0.293 HD
ENDBRANCH   6  22
BRANCH   8  24
ATOM     24  O   UNL     1      20.231 -21.493   0.884  1.00  0.00    -0.508 OA
ATOM     25  H   UNL     1      21.094 -21.991   1.068  1.00  0.00     0.293 HD
ENDBRANCH   8  24
TORSDOF 5
ENDMDL
MODEL 2
REMARK VINA RESULT:    -2.596      1.687      6.803
REMARK INTER + INTRA:          -3.356
REMARK INTER:                  -3.043
REMARK INTRA:                  -0.312
REMARK UNBOUND:                -0.305
REMARK SMILES O=c1cc(-c2ccc(O)c(O)c2)oc2cc(O)cc(O)c12
REMARK SMILES IDX 4 1 3 2 2 3 1 4 21 5 19 6 18 7 16 8 15 9 14 10 13 11 5 12
REMARK SMILES IDX 6 13 7 14 8 15 12 16 10 17 9 18 11 20 20 22 17 24
REMARK H PARENT 9 19 11 21 20 23 17 25
REMARK Flexibility Score: inf
ROOT
ATOM      1  C   UNL     1      20.174 -17.669   1.202  1.00  0.00     0.138 A 
ATOM      2  C   UNL     1      20.092 -16.421   0.571  1.00  0.00     0.100 A 
ATOM      3  C   UNL     1      20.009 -15.261   1.342  1.00  0.00     0.197 A 
ATOM      4  O   UNL     1      19.875 -14.160   0.747  1.00  0.00    -0.289 OA
ATOM      5  C   UNL     1      20.042 -15.351   2.754  1.00  0.00     0.107 A 
ATOM      6  C   UNL     1      20.006 -14.234   3.641  1.00  0.00     0.134 A 
ATOM      7  C   UNL     1      19.926 -14.452   5.022  1.00  0.00     0.093 A 
ATOM      8  C   UNL     1      19.941 -15.746   5.550  1.00  0.00     0.123 A 
ATOM      9  C   UNL     1      20.030 -16.841   4.695  1.00  0.00     0.094 A 
ATOM     10  C   UNL     1      20.076 -16.658   3.311  1.00  0.00     0.146 A 
ATOM     11  O   UNL     1      20.147 -17.730   2.530  1.00  0.00    -0.456 OA
ENDROOT
BRANCH   1  12
ATOM     12  C   UNL     1      20.264 -18.934   0.430  1.00  0.00     0.021 A 
ATOM     13  C   UNL     1      19.887 -19.003  -0.925  1.00  0.00     0.016 A 
ATOM     14  C   UNL     1      19.991 -20.204  -1.630  1.00  0.00     0.051 A 
ATOM     15  C   UNL     1      20.479 -21.353  -1.002  1.00  0.00     0.157 A 
ATOM     16  C   UNL     1      20.767 -20.092   1.052  1.00  0.00     0.062 A 
ATOM     17  C   UNL     1      20.872 -21.298   0.345  1.00  0.00     0.158 A 
BRANCH  15  18
ATOM     18  O   UNL     1      20.571 -22.538  -1.733  1.00  0.00    -0.504 OA
ATOM     19  H   UNL     1      21.410 -23.106  -1.733  1.00  0.00     0.293 HD
ENDBRANCH  15  18
BRANCH  17  20
ATOM     20  O   UNL     1      21.362 -22.440   0.976  1.00  0.00    -0.504 OA
ATOM     21  H   UNL     1      22.295 -22.789   0.791  1.00  0.00     0.293 HD
ENDBRANCH  17  20
ENDBRANCH   1  12
BRANCH   6  22
ATOM     22  O   UNL     1      20.072 -12.902   3.222  1.00  0.00    -0.507 OA
ATOM     23  H   UNL     1      20.764 -12.235   3.526  1.00  0.00     0.293 HD
ENDBRANCH   6  22
BRANCH   8  24
ATOM     24  O   UNL     1      19.876 -15.951   6.926  1.00  0.00    -0.508 OA
ATOM     25  H   UNL     1      19.612 -16.848   7.317  1.00  0.00     0.293 HD
ENDBRANCH   8  24
TORSDOF 5
ENDMDL
MODEL 3
REMARK VINA RESULT:    -2.541      1.803      3.343
REMARK INTER + INTRA:          -3.291
REMARK INTER:                  -3.018
REMARK INTRA:                  -0.273
REMARK UNBOUND:                -0.305
REMARK SMILES O=c1cc(-c2ccc(O)c(O)c2)oc2cc(O)cc(O)c12
REMARK SMILES IDX 4 1 3 2 2 3 1 4 21 5 19 6 18 7 16 8 15 9 14 10 13 11 5 12
REMARK SMILES IDX 6 13 7 14 8 15 12 16 10 17 9 18 11 20 20 22 17 24
REMARK H PARENT 9 19 11 21 20 23 17 25
REMARK Flexibility Score: inf
ROOT
ATOM      1  C   UNL     1      20.954 -15.211   3.780  1.00  0.00     0.138 A 
ATOM      2  C   UNL     1      20.685 -16.582   3.665  1.00  0.00     0.100 A 
ATOM      3  C   UNL     1      20.350 -17.117   2.421  1.00  0.00     0.197 A 
ATOM      4  O   UNL     1      20.053 -18.339   2.361  1.00  0.00    -0.289 OA
ATOM      5  C   UNL     1      20.316 -16.280   1.280  1.00  0.00     0.107 A 
ATOM      6  C   UNL     1      20.027 -16.724  -0.044  1.00  0.00     0.134 A 
ATOM      7  C   UNL     1      19.907 -15.784  -1.076  1.00  0.00     0.093 A 
ATOM      8  C   UNL     1      20.124 -14.424  -0.840  1.00  0.00     0.123 A 
ATOM      9  C   UNL     1      20.460 -13.988   0.439  1.00  0.00     0.094 A 
ATOM     10  C   UNL     1      20.553 -14.896   1.496  1.00  0.00     0.146 A 
ATOM     11  O   UNL     1      20.861 -14.437   2.703  1.00  0.00    -0.456 OA
ENDROOT
BRANCH   1  12
ATOM     12  C   UNL     1      21.316 -14.589   5.079  1.00  0.00     0.021 A 
ATOM     13  C   UNL     1      20.662 -13.436   5.555  1.00  0.00     0.016 A 
ATOM     14  C   UNL     1      21.015 -12.877   6.784  1.00  0.00     0.051 A 
ATOM     15  C   UNL     1      22.019 -13.458   7.564  1.00  0.00     0.157 A 
ATOM     16  C   UNL     1      22.316 -15.177   5.875  1.00  0.00     0.062 A 
ATOM     17  C   UNL     1      22.672 -14.616   7.110  1.00  0.00     0.158 A 
BRANCH  15  18
ATOM     18  O   UNL     1      22.350 -12.876   8.788  1.00  0.00    -0.504 OA
ATOM     19  H   UNL     1      22.252 -11.882   8.956  1.00  0.00     0.293 HD
ENDBRANCH  15  18
BRANCH  17  20
ATOM     20  O   UNL     1      23.670 -15.203   7.885  1.00  0.00    -0.504 OA
ATOM     21  H   UNL     1      24.205 -14.667   8.558  1.00  0.00     0.293 HD
ENDBRANCH  17  20
ENDBRANCH   1  12
BRANCH   6  22
ATOM     22  O   UNL     1      19.875 -18.066  -0.403  1.00  0.00    -0.507 OA
ATOM     23  H   UNL     1      18.991 -18.537  -0.517  1.00  0.00     0.293 HD
ENDBRANCH   6  22
BRANCH   8  24
ATOM     24  O   UNL     1      20.018 -13.499  -1.876  1.00  0.00    -0.508 OA
ATOM     25  H   UNL     1      20.831 -13.023  -2.249  1.00  0.00     0.293 HD
ENDBRANCH   8  24
TORSDOF 5
ENDMDL
MODEL 4
REMARK VINA RESULT:    -2.369      1.564      6.987
REMARK INTER + INTRA:          -3.089
REMARK INTER:                  -2.782
REMARK INTRA:                  -0.307
REMARK UNBOUND:                -0.305
REMARK SMILES O=c1cc(-c2ccc(O)c(O)c2)oc2cc(O)cc(O)c12
REMARK SMILES IDX 4 1 3 2 2 3 1 4 21 5 19 6 18 7 16 8 15 9 14 10 13 11 5 12
REMARK SMILES IDX 6 13 7 14 8 15 12 16 10 17 9 18 11 20 20 22 17 24
REMARK H PARENT 9 19 11 21 20 23 17 25
REMARK Flexibility Score: inf
ROOT
ATOM      1  C   UNL     1      20.878 -15.600   3.682  1.00  0.00     0.138 A 
ATOM      2  C   UNL     1      20.251 -14.424   4.112  1.00  0.00     0.100 A 
ATOM      3  C   UNL     1      20.543 -13.907   5.375  1.00  0.00     0.197 A 
ATOM      4  O   UNL     1      19.918 -12.884   5.758  1.00  0.00    -0.289 OA
ATOM      5  C   UNL     1      21.494 -14.557   6.198  1.00  0.00     0.107 A 
ATOM      6  C   UNL     1      21.900 -14.098   7.487  1.00  0.00     0.134 A 
ATOM      7  C   UNL     1      22.762 -14.887   8.259  1.00  0.00     0.093 A 
ATOM      8  C   UNL     1      23.278 -16.088   7.764  1.00  0.00     0.123 A 
ATOM      9  C   UNL     1      22.929 -16.517   6.486  1.00  0.00     0.094 A 
ATOM     10  C   UNL     1      22.044 -15.770   5.705  1.00  0.00     0.146 A 
ATOM     11  O   UNL     1      21.726 -16.222   4.497  1.00  0.00    -0.456 OA
ENDROOT
BRANCH   1  12
ATOM     12  C   UNL     1      20.605 -16.193   2.349  1.00  0.00     0.021 A 
ATOM     13  C   UNL     1      20.244 -15.397   1.245  1.00  0.00     0.016 A 
ATOM     14  C   UNL     1      20.003 -15.979  -0.001  1.00  0.00     0.051 A 
ATOM     15  C   UNL     1      20.123 -17.361  -0.172  1.00  0.00     0.157 A 
ATOM     16  C   UNL     1      20.738 -17.582   2.166  1.00  0.00     0.062 A 
ATOM     17  C   UNL     1      20.495 -18.168   0.915  1.00  0.00     0.158 A 
BRANCH  15  18
ATOM     18  O   UNL     1      19.875 -17.914  -1.429  1.00  0.00    -0.504 OA
ATOM     19  H   UNL     1      19.998 -18.902  -1.615  1.00  0.00     0.293 HD
ENDBRANCH  15  18
BRANCH  17  20
ATOM     20  O   UNL     1      20.621 -19.546   0.752  1.00  0.00    -0.504 OA
ATOM     21  H   UNL     1      20.282 -20.015  -0.080  1.00  0.00     0.293 HD
ENDBRANCH  17  20
ENDBRANCH   1  12
BRANCH   6  22
ATOM     22  O   UNL     1      21.511 -12.875   8.040  1.00  0.00    -0.507 OA
ATOM     23  H   UNL     1      22.132 -12.104   8.228  1.00  0.00     0.293 HD
ENDBRANCH   6  22
BRANCH   8  24
ATOM     24  O   UNL     1      24.147 -16.858   8.534  1.00  0.00    -0.508 OA
ATOM     25  H   UNL     1      24.190 -17.866   8.438  1.00  0.00     0.293 HD
ENDBRANCH   8  24
TORSDOF 5
ENDMDL
MODEL 5
REMARK VINA RESULT:    -1.118      2.066      3.241
REMARK INTER + INTRA:          -1.619
REMARK INTER:                  -1.324
REMARK INTRA:                  -0.295
REMARK UNBOUND:                -0.305
REMARK SMILES O=c1cc(-c2ccc(O)c(O)c2)oc2cc(O)cc(O)c12
REMARK SMILES IDX 4 1 3 2 2 3 1 4 21 5 19 6 18 7 16 8 15 9 14 10 13 11 5 12
REMARK SMILES IDX 6 13 7 14 8 15 12 16 10 17 9 18 11 20 20 22 17 24
REMARK H PARENT 9 19 11 21 20 23 17 25
REMARK Flexibility Score: inf
ROOT
ATOM      1  C   UNL     1      21.854 -15.180   4.455  1.00  0.00     0.138 A 
ATOM      2  C   UNL     1      21.735 -13.973   3.752  1.00  0.00     0.100 A 
ATOM      3  C   UNL     1      21.221 -13.978   2.455  1.00  0.00     0.197 A 
ATOM      4  O   UNL     1      21.184 -12.888   1.827  1.00  0.00    -0.289 OA
ATOM      5  C   UNL     1      20.795 -15.195   1.871  1.00  0.00     0.107 A 
ATOM      6  C   UNL     1      20.218 -15.313   0.571  1.00  0.00     0.134 A 
ATOM      7  C   UNL     1      19.942 -16.585   0.053  1.00  0.00     0.093 A 
ATOM      8  C   UNL     1      20.167 -17.737   0.812  1.00  0.00     0.123 A 
ATOM      9  C   UNL     1      20.679 -17.627   2.102  1.00  0.00     0.094 A 
ATOM     10  C   UNL     1      20.998 -16.375   2.634  1.00  0.00     0.146 A 
ATOM     11  O   UNL     1      21.498 -16.316   3.863  1.00  0.00    -0.456 OA
ENDROOT
BRANCH   1  12
ATOM     12  C   UNL     1      22.393 -15.233   5.837  1.00  0.00     0.021 A 
ATOM     13  C   UNL     1      22.531 -16.450   6.531  1.00  0.00     0.016 A 
ATOM     14  C   UNL     1      23.050 -16.472   7.827  1.00  0.00     0.051 A 
ATOM     15  C   UNL     1      23.448 -15.287   8.451  1.00  0.00     0.157 A 
ATOM     16  C   UNL     1      22.809 -14.045   6.465  1.00  0.00     0.062 A 
ATOM     17  C   UNL     1      23.330 -14.066   7.767  1.00  0.00     0.158 A 
BRANCH  15  18
ATOM     18  O   UNL     1      23.963 -15.341   9.747  1.00  0.00    -0.504 OA
ATOM     19  H   UNL     1      24.930 -15.119   9.951  1.00  0.00     0.293 HD
ENDBRANCH  15  18
BRANCH  17  20
ATOM     20  O   UNL     1      23.729 -12.881   8.382  1.00  0.00    -0.504 OA
ATOM     21  H   UNL     1      23.055 -12.227   8.763  1.00  0.00     0.293 HD
ENDBRANCH  17  20
ENDBRANCH   1  12
BRANCH   6  22
ATOM     22  O   UNL     1      19.876 -14.224  -0.235  1.00  0.00    -0.507 OA
ATOM     23  H   UNL     1      19.988 -13.256   0.026  1.00  0.00     0.293 HD
ENDBRANCH   6  22
BRANCH   8  24
ATOM     24  O   UNL     1      19.875 -18.997   0.293  1.00  0.00    -0.508 OA
ATOM     25  H   UNL     1      19.124 -19.564   0.669  1.00  0.00     0.293 HD
ENDBRANCH   8  24
TORSDOF 5
ENDMDL
MODEL 6
REMARK VINA RESULT:    -0.336     21.335     22.589
REMARK INTER + INTRA:          -0.699
REMARK INTER:                  -0.429
REMARK INTRA:                  -0.270
REMARK UNBOUND:                -0.305
REMARK SMILES O=c1cc(-c2ccc(O)c(O)c2)oc2cc(O)cc(O)c12
REMARK SMILES IDX 4 1 3 2 2 3 1 4 21 5 19 6 18 7 16 8 15 9 14 10 13 11 5 12
REMARK SMILES IDX 6 13 7 14 8 15 12 16 10 17 9 18 11 20 20 22 17 24
REMARK H PARENT 9 19 11 21 20 23 17 25
REMARK Flexibility Score: inf
ROOT
ATOM      1  C   UNL     1      35.030 -31.516  10.658  1.00  0.00     0.138 A 
ATOM      2  C   UNL     1      36.420 -31.686  10.728  1.00  0.00     0.100 A 
ATOM      3  C   UNL     1      37.124 -32.095   9.595  1.00  0.00     0.197 A 
ATOM      4  O   UNL     1      38.361 -32.298   9.705  1.00  0.00    -0.289 OA
ATOM      5  C   UNL     1      36.435 -32.305   8.376  1.00  0.00     0.107 A 
ATOM      6  C   UNL     1      37.055 -32.683   7.148  1.00  0.00     0.134 A 
ATOM      7  C   UNL     1      36.257 -32.975   6.035  1.00  0.00     0.093 A 
ATOM      8  C   UNL     1      34.867 -32.845   6.090  1.00  0.00     0.123 A 
ATOM      9  C   UNL     1      34.257 -32.424   7.269  1.00  0.00     0.094 A 
ATOM     10  C   UNL     1      35.023 -32.158   8.407  1.00  0.00     0.146 A 
ATOM     11  O   UNL     1      34.400 -31.773   9.515  1.00  0.00    -0.456 OA
ENDROOT
BRANCH   1  12
ATOM     12  C   UNL     1      34.232 -31.082  11.832  1.00  0.00     0.021 A 
ATOM     13  C   UNL     1      34.273 -29.756  12.305  1.00  0.00     0.016 A 
ATOM     14  C   UNL     1      33.504 -29.372  13.405  1.00  0.00     0.051 A 
ATOM     15  C   UNL     1      32.677 -30.297  14.049  1.00  0.00     0.157 A 
ATOM     16  C   UNL     1      33.388 -32.005  12.476  1.00  0.00     0.062 A 
ATOM     17  C   UNL     1      32.615 -31.620  13.582  1.00  0.00     0.158 A 
BRANCH  15  18
ATOM     18  O   UNL     1      31.921 -29.884  15.146  1.00  0.00    -0.504 OA
ATOM     19  H   UNL     1      31.485 -28.970  15.186  1.00  0.00     0.293 HD
ENDBRANCH  15  18
BRANCH  17  20
ATOM     20  O   UNL     1      31.790 -32.546  14.216  1.00  0.00    -0.504 OA
ATOM     21  H   UNL     1      30.942 -32.889  13.779  1.00  0.00     0.293 HD
ENDBRANCH  17  20
ENDBRANCH   1  12
BRANCH   6  22
ATOM     22  O   UNL     1      38.438 -32.762   6.963  1.00  0.00    -0.507 OA
ATOM     23  H   UNL     1      38.948 -33.611   6.776  1.00  0.00     0.293 HD
ENDBRANCH   6  22
BRANCH   8  24
ATOM     24  O   UNL     1      34.083 -33.123   4.972  1.00  0.00    -0.508 OA
ATOM     25  H   UNL     1      33.137 -32.770   4.886  1.00  0.00     0.293 HD
ENDBRANCH   8  24
TORSDOF 5
ENDMDL
