MODEL 1
REMARK VINA RESULT:     7.603      0.000      0.000
REMARK INTER + INTRA:           9.965
REMARK INTER:                   9.603
REMARK INTRA:                   0.362
REMARK UNBOUND:                 0.362
REMARK SMILES O=C(C=Cc1ccc(O)cc1)c1ccc(O)cc1O
REMARK SMILES IDX 4 1 3 2 5 3 6 4 7 5 8 6 11 7 10 8 9 9 2 11 1 12 12 13 18 14
REMARK SMILES IDX 13 15 17 16 14 17 15 18 19 19 16 21
REMARK H PARENT 9 10 19 20 16 22
REMARK Flexibility Score: inf
ROOT
ATOM      1  C   UNL     1      23.702  33.472  -0.119  1.00  0.00     0.012 C 
ATOM      2  C   UNL     1      24.675  32.564   0.064  1.00  0.00     0.053 C 
ENDROOT
BRANCH   1   3
ATOM      3  C   UNL     1      22.373  33.445   0.528  1.00  0.00    -0.025 A 
ATOM      4  C   UNL     1      22.183  33.952   1.826  1.00  0.00     0.012 A 
ATOM      5  C   UNL     1      20.928  33.872   2.437  1.00  0.00     0.047 A 
ATOM      6  C   UNL     1      19.859  33.268   1.770  1.00  0.00     0.115 A 
ATOM      7  C   UNL     1      21.304  32.814  -0.125  1.00  0.00     0.012 A 
ATOM      8  C   UNL     1      20.050  32.735   0.489  1.00  0.00     0.047 A 
BRANCH   6   9
ATOM      9  O   UNL     1      18.613  33.198   2.391  1.00  0.00    -0.508 OA
ATOM     10  H   UNL     1      18.113  34.034   2.671  1.00  0.00     0.293 HD
ENDBRANCH   6   9
ENDBRANCH   1   3
BRANCH   2  11
ATOM     11  C   UNL     1      24.660  31.486   1.084  1.00  0.00     0.189 C 
ATOM     12  O   UNL     1      23.771  31.476   1.979  1.00  0.00    -0.289 OA
BRANCH  11  13
ATOM     13  C   UNL     1      25.698  30.428   1.094  1.00  0.00     0.064 A 
ATOM     14  C   UNL     1      25.867  29.604   2.227  1.00  0.00     0.130 A 
ATOM     15  C   UNL     1      26.544  30.244  -0.016  1.00  0.00     0.020 A 
ATOM     16  C   UNL     1      26.862  28.615   2.233  1.00  0.00     0.093 A 
ATOM     17  C   UNL     1      27.530  29.255  -0.001  1.00  0.00     0.047 A 
ATOM     18  C   UNL     1      27.690  28.437   1.122  1.00  0.00     0.119 A 
BRANCH  14  19
ATOM     19  O   UNL     1      25.037  29.756   3.338  1.00  0.00    -0.507 OA
ATOM     20  H   UNL     1      25.336  29.482   4.267  1.00  0.00     0.293 HD
ENDBRANCH  14  19
BRANCH  18  21
ATOM     21  O   UNL     1      28.671  27.449   1.148  1.00  0.00    -0.508 OA
ATOM     22  H   UNL     1      28.557  26.576   0.647  1.00  0.00     0.293 HD
ENDBRANCH  18  21
ENDBRANCH  11  13
ENDBRANCH   2  11
TORSDOF 6
ENDMDL
MODEL 2
REMARK VINA RESULT:     9.405      4.057      5.884
REMARK INTER + INTRA:          12.242
REMARK INTER:                  11.983
REMARK INTRA:                   0.259
REMARK UNBOUND:                 0.362
REMARK SMILES O=C(C=Cc1ccc(O)cc1)c1ccc(O)cc1O
REMARK SMILES IDX 4 1 3 2 5 3 6 4 7 5 8 6 11 7 10 8 9 9 2 11 1 12 12 13 18 14
REMARK SMILES IDX 13 15 17 16 14 17 15 18 19 19 16 21
REMARK H PARENT 9 10 19 20 16 22
REMARK Flexibility Score: inf
ROOT
ATOM      1  C   UNL     1      26.084  31.379   0.007  1.00  0.00     0.012 C 
ATOM      2  C   UNL     1      25.760  30.406   0.875  1.00  0.00     0.053 C 
ENDROOT
BRANCH   1   3
ATOM      3  C   UNL     1      27.395  32.057  -0.070  1.00  0.00    -0.025 A 
ATOM      4  C   UNL     1      28.595  31.323  -0.086  1.00  0.00     0.012 A 
ATOM      5  C   UNL     1      29.825  31.987  -0.109  1.00  0.00     0.047 A 
ATOM      6  C   UNL     1      29.872  33.383  -0.095  1.00  0.00     0.115 A 
ATOM      7  C   UNL     1      27.448  33.458  -0.025  1.00  0.00     0.012 A 
ATOM      8  C   UNL     1      28.681  34.119  -0.049  1.00  0.00     0.047 A 
BRANCH   6   9
ATOM      9  O   UNL     1      31.106  34.031  -0.121  1.00  0.00    -0.508 OA
ATOM     10  H   UNL     1      31.871  33.737   0.475  1.00  0.00     0.293 HD
ENDBRANCH   6   9
ENDBRANCH   1   3
BRANCH   2  11
ATOM     11  C   UNL     1      26.711  29.713   1.779  1.00  0.00     0.189 C 
ATOM     12  O   UNL     1      27.529  30.382   2.468  1.00  0.00    -0.289 OA
BRANCH  11  13
ATOM     13  C   UNL     1      26.745  28.234   1.864  1.00  0.00     0.064 A 
ATOM     14  C   UNL     1      26.059  27.563   2.899  1.00  0.00     0.130 A 
ATOM     15  C   UNL     1      27.478  27.479   0.930  1.00  0.00     0.020 A 
ATOM     16  C   UNL     1      26.109  26.163   2.981  1.00  0.00     0.093 A 
ATOM     17  C   UNL     1      27.520  26.085   1.018  1.00  0.00     0.047 A 
ATOM     18  C   UNL     1      26.834  25.424   2.042  1.00  0.00     0.119 A 
BRANCH  14  19
ATOM     19  O   UNL     1      25.317  28.283   3.835  1.00  0.00    -0.507 OA
ATOM     20  H   UNL     1      25.602  28.346   4.806  1.00  0.00     0.293 HD
ENDBRANCH  14  19
BRANCH  18  21
ATOM     21  O   UNL     1      26.870  24.035   2.140  1.00  0.00    -0.508 OA
ATOM     22  H   UNL     1      26.078  23.464   1.870  1.00  0.00     0.293 HD
ENDBRANCH  18  21
ENDBRANCH  11  13
ENDBRANCH   2  11
TORSDOF 6
ENDMDL
MODEL 3
REMARK VINA RESULT:    10.142      4.128      6.965
REMARK INTER + INTRA:          13.171
REMARK INTER:                  13.820
REMARK INTRA:                  -0.649
REMARK UNBOUND:                 0.362
REMARK SMILES O=C(C=Cc1ccc(O)cc1)c1ccc(O)cc1O
REMARK SMILES IDX 4 1 3 2 5 3 6 4 7 5 8 6 11 7 10 8 9 9 2 11 1 12 12 13 18 14
REMARK SMILES IDX 13 15 17 16 14 17 15 18 19 19 16 21
REMARK H PARENT 9 10 19 20 16 22
REMARK Flexibility Score: inf
ROOT
ATOM      1  C   UNL     1      29.856  26.871   1.723  1.00  0.00     0.012 C 
ATOM      2  C   UNL     1      30.332  27.952   2.364  1.00  0.00     0.053 C 
ENDROOT
BRANCH   1   3
ATOM      3  C   UNL     1      28.433  26.486   1.634  1.00  0.00    -0.025 A 
ATOM      4  C   UNL     1      27.874  25.548   2.521  1.00  0.00     0.012 A 
ATOM      5  C   UNL     1      26.537  25.162   2.387  1.00  0.00     0.047 A 
ATOM      6  C   UNL     1      25.752  25.689   1.358  1.00  0.00     0.115 A 
ATOM      7  C   UNL     1      27.650  26.990   0.585  1.00  0.00     0.012 A 
ATOM      8  C   UNL     1      26.312  26.602   0.454  1.00  0.00     0.047 A 
BRANCH   6   9
ATOM      9  O   UNL     1      24.420  25.297   1.238  1.00  0.00    -0.508 OA
ATOM     10  H   UNL     1      24.167  24.385   0.876  1.00  0.00     0.293 HD
ENDBRANCH   6   9
ENDBRANCH   1   3
BRANCH   2  11
ATOM     11  C   UNL     1      29.504  29.045   2.930  1.00  0.00     0.189 C 
ATOM     12  O   UNL     1      29.699  29.436   4.114  1.00  0.00    -0.289 OA
BRANCH  11  13
ATOM     13  C   UNL     1      28.418  29.671   2.140  1.00  0.00     0.064 A 
ATOM     14  C   UNL     1      27.067  29.471   2.499  1.00  0.00     0.130 A 
ATOM     15  C   UNL     1      28.714  30.453   1.008  1.00  0.00     0.020 A 
ATOM     16  C   UNL     1      26.045  30.055   1.736  1.00  0.00     0.093 A 
ATOM     17  C   UNL     1      27.689  31.033   0.256  1.00  0.00     0.047 A 
ATOM     18  C   UNL     1      26.353  30.836   0.619  1.00  0.00     0.119 A 
BRANCH  14  19
ATOM     19  O   UNL     1      26.742  28.708   3.621  1.00  0.00    -0.507 OA
ATOM     20  H   UNL     1      26.261  29.111   4.418  1.00  0.00     0.293 HD
ENDBRANCH  14  19
BRANCH  18  21
ATOM     21  O   UNL     1      25.323  31.408  -0.124  1.00  0.00    -0.508 OA
ATOM     22  H   UNL     1      25.476  32.231  -0.695  1.00  0.00     0.293 HD
ENDBRANCH  18  21
ENDBRANCH  11  13
ENDBRANCH   2  11
TORSDOF 6
ENDMDL
MODEL 4
REMARK VINA RESULT:    10.231      1.640      2.496
REMARK INTER + INTRA:          13.284
REMARK INTER:                  12.414
REMARK INTRA:                   0.871
REMARK UNBOUND:                 0.362
REMARK SMILES O=C(C=Cc1ccc(O)cc1)c1ccc(O)cc1O
REMARK SMILES IDX 4 1 3 2 5 3 6 4 7 5 8 6 11 7 10 8 9 9 2 11 1 12 12 13 18 14
REMARK SMILES IDX 13 15 17 16 14 17 15 18 19 19 16 21
REMARK H PARENT 9 10 19 20 16 22
REMARK Flexibility Score: inf
ROOT
ATOM      1  C   UNL     1      25.741  31.887  -0.125  1.00  0.00     0.012 C 
ATOM      2  C   UNL     1      26.541  30.913   0.339  1.00  0.00     0.053 C 
ENDROOT
BRANCH   1   3
ATOM      3  C   UNL     1      24.492  32.347   0.517  1.00  0.00    -0.025 A 
ATOM      4  C   UNL     1      23.953  31.676   1.629  1.00  0.00     0.012 A 
ATOM      5  C   UNL     1      22.745  32.100   2.190  1.00  0.00     0.047 A 
ATOM      6  C   UNL     1      22.052  33.179   1.636  1.00  0.00     0.115 A 
ATOM      7  C   UNL     1      23.778  33.412  -0.054  1.00  0.00     0.012 A 
ATOM      8  C   UNL     1      22.569  33.833   0.510  1.00  0.00     0.047 A 
BRANCH   6   9
ATOM      9  O   UNL     1      20.849  33.592   2.207  1.00  0.00    -0.508 OA
ATOM     10  H   UNL     1      19.986  33.087   2.045  1.00  0.00     0.293 HD
ENDBRANCH   6   9
ENDBRANCH   1   3
BRANCH   2  11
ATOM     11  C   UNL     1      26.416  30.260   1.666  1.00  0.00     0.189 C 
ATOM     12  O   UNL     1      26.314  30.964   2.708  1.00  0.00    -0.289 OA
BRANCH  11  13
ATOM     13  C   UNL     1      26.442  28.785   1.798  1.00  0.00     0.064 A 
ATOM     14  C   UNL     1      25.873  28.158   2.927  1.00  0.00     0.130 A 
ATOM     15  C   UNL     1      27.054  27.988   0.812  1.00  0.00     0.020 A 
ATOM     16  C   UNL     1      25.916  26.761   3.050  1.00  0.00     0.093 A 
ATOM     17  C   UNL     1      27.090  26.597   0.942  1.00  0.00     0.047 A 
ATOM     18  C   UNL     1      26.519  25.981   2.061  1.00  0.00     0.119 A 
BRANCH  14  19
ATOM     19  O   UNL     1      25.251  28.920   3.916  1.00  0.00    -0.507 OA
ATOM     20  H   UNL     1      24.308  28.719   4.229  1.00  0.00     0.293 HD
ENDBRANCH  14  19
BRANCH  18  21
ATOM     21  O   UNL     1      26.551  24.596   2.202  1.00  0.00    -0.508 OA
ATOM     22  H   UNL     1      25.904  24.111   2.813  1.00  0.00     0.293 HD
ENDBRANCH  18  21
ENDBRANCH  11  13
ENDBRANCH   2  11
TORSDOF 6
ENDMDL
