MODEL 1
REMARK VINA RESULT:    -4.343      0.000      0.000
REMARK INTER + INTRA:         -13.307
REMARK INTER:                  -9.421
REMARK INTRA:                  -3.886
REMARK UNBOUND:                -3.886
REMARK SMILES CCCCCCCCCCCCCCCCCCCCCC(=O)[O-]
REMARK SMILES IDX 12 1 11 2 10 3 9 4 8 5 7 6 6 7 5 8 4 9 3 10 2 11 1 12 13 13
REMARK SMILES IDX 14 14 15 15 16 16 17 17 18 18 19 19 20 20 21 21 22 22 23 23
REMARK SMILES IDX 24 24
REMARK H PARENT
REMARK Flexibility Score: inf
ROOT
ATOM      1  C   UNL     1       6.377 -20.556  23.617  1.00  0.00     0.000 C 
ENDROOT
BRANCH   1   2
ATOM      2  C   UNL     1       7.158 -20.437  22.292  1.00  0.00     0.000 C 
BRANCH   2   3
ATOM      3  C   UNL     1       8.524 -21.152  22.264  1.00  0.00     0.000 C 
BRANCH   3   4
ATOM      4  C   UNL     1       8.485 -22.621  21.803  1.00  0.00    -0.000 C 
BRANCH   4   5
ATOM      5  C   UNL     1       9.834 -23.109  21.246  1.00  0.00    -0.000 C 
BRANCH   5   6
ATOM      6  C   UNL     1      11.022 -22.672  22.118  1.00  0.00    -0.000 C 
BRANCH   6   7
ATOM      7  C   UNL     1      11.971 -21.703  21.393  1.00  0.00    -0.000 C 
BRANCH   7   8
ATOM      8  C   UNL     1      11.737 -21.664  19.873  1.00  0.00    -0.000 C 
BRANCH   8   9
ATOM      9  C   UNL     1      11.583 -20.234  19.312  1.00  0.00    -0.000 C 
BRANCH   9  10
ATOM     10  C   UNL     1      10.687 -20.192  18.064  1.00  0.00    -0.000 C 
BRANCH  10  11
ATOM     11  C   UNL     1       9.330 -20.849  18.337  1.00  0.00    -0.003 C 
ATOM     12  C   UNL     1       8.289 -19.815  18.755  1.00  0.00     0.004 C 
ENDBRANCH  10  11
ENDBRANCH   9  10
ENDBRANCH   8   9
ENDBRANCH   7   8
ENDBRANCH   6   7
ENDBRANCH   5   6
ENDBRANCH   4   5
ENDBRANCH   3   4
ENDBRANCH   2   3
ENDBRANCH   1   2
BRANCH   1  13
ATOM     13  C   UNL     1       6.833 -19.594  24.729  1.00  0.00     0.000 C 
BRANCH  13  14
ATOM     14  C   UNL     1       6.520 -18.125  24.412  1.00  0.00     0.000 C 
BRANCH  14  15
ATOM     15  C   UNL     1       7.766 -17.249  24.596  1.00  0.00     0.000 C 
BRANCH  15  16
ATOM     16  C   UNL     1       7.950 -16.294  23.406  1.00  0.00     0.000 C 
BRANCH  16  17
ATOM     17  C   UNL     1       7.792 -17.007  22.051  1.00  0.00     0.000 C 
BRANCH  17  18
ATOM     18  C   UNL     1       9.126 -17.197  21.292  1.00  0.00     0.000 C 
BRANCH  18  19
ATOM     19  C   UNL     1      10.372 -17.058  22.187  1.00  0.00     0.000 C 
BRANCH  19  20
ATOM     20  C   UNL     1      11.090 -18.384  22.503  1.00  0.00     0.006 C 
BRANCH  20  21
ATOM     21  C   UNL     1      10.898 -18.880  23.946  1.00  0.00     0.053 C 
BRANCH  21  22
ATOM     22  C   UNL     1      11.694 -18.074  24.925  1.00  0.00     0.041 C 
ATOM     23  O   UNL     1      11.132 -17.560  25.928  1.00  0.00    -0.550 OA
ATOM     24  O   UNL     1      13.051 -17.864  24.713  1.00  0.00    -0.550 OA
ENDBRANCH  21  22
ENDBRANCH  20  21
ENDBRANCH  19  20
ENDBRANCH  18  19
ENDBRANCH  17  18
ENDBRANCH  16  17
ENDBRANCH  15  16
ENDBRANCH  14  15
ENDBRANCH  13  14
ENDBRANCH   1  13
TORSDOF 20
ENDMDL
MODEL 2
REMARK VINA RESULT:    -4.313      1.185      4.484
REMARK INTER + INTRA:         -13.242
REMARK INTER:                  -9.394
REMARK INTRA:                  -3.848
REMARK UNBOUND:                -3.886
REMARK SMILES CCCCCCCCCCCCCCCCCCCCCC(=O)[O-]
REMARK SMILES IDX 12 1 11 2 10 3 9 4 8 5 7 6 6 7 5 8 4 9 3 10 2 11 1 12 13 13
REMARK SMILES IDX 14 14 15 15 16 16 17 17 18 18 19 19 20 20 21 21 22 22 23 23
REMARK SMILES IDX 24 24
REMARK H PARENT
REMARK Flexibility Score: inf
ROOT
ATOM      1  C   UNL     1       7.418 -20.316  23.144  1.00  0.00     0.000 C 
ENDROOT
BRANCH   1   2
ATOM      2  C   UNL     1       6.485 -19.807  24.261  1.00  0.00     0.000 C 
BRANCH   2   3
ATOM      3  C   UNL     1       6.375 -18.272  24.381  1.00  0.00     0.000 C 
BRANCH   3   4
ATOM      4  C   UNL     1       7.637 -17.565  24.906  1.00  0.00    -0.000 C 
BRANCH   4   5
ATOM      5  C   UNL     1       8.017 -16.325  24.076  1.00  0.00    -0.000 C 
BRANCH   5   6
ATOM      6  C   UNL     1       7.347 -16.317  22.693  1.00  0.00    -0.000 C 
BRANCH   6   7
ATOM      7  C   UNL     1       8.311 -16.706  21.560  1.00  0.00    -0.000 C 
BRANCH   7   8
ATOM      8  C   UNL     1       7.589 -16.979  20.230  1.00  0.00    -0.000 C 
BRANCH   8   9
ATOM      9  C   UNL     1       7.473 -18.480  19.891  1.00  0.00    -0.000 C 
BRANCH   9  10
ATOM     10  C   UNL     1       7.982 -18.799  18.477  1.00  0.00    -0.000 C 
BRANCH  10  11
ATOM     11  C   UNL     1       9.464 -19.187  18.499  1.00  0.00    -0.003 C 
ATOM     12  C   UNL     1       9.650 -20.678  18.229  1.00  0.00     0.004 C 
ENDBRANCH  10  11
ENDBRANCH   9  10
ENDBRANCH   8   9
ENDBRANCH   7   8
ENDBRANCH   6   7
ENDBRANCH   5   6
ENDBRANCH   4   5
ENDBRANCH   3   4
ENDBRANCH   2   3
ENDBRANCH   1   2
BRANCH   1  13
ATOM     13  C   UNL     1       6.745 -21.223  22.098  1.00  0.00     0.000 C 
BRANCH  13  14
ATOM     14  C   UNL     1       7.748 -21.855  21.123  1.00  0.00     0.000 C 
BRANCH  14  15
ATOM     15  C   UNL     1       8.554 -22.963  21.814  1.00  0.00     0.000 C 
BRANCH  15  16
ATOM     16  C   UNL     1      10.023 -22.942  21.361  1.00  0.00     0.000 C 
BRANCH  16  17
ATOM     17  C   UNL     1      10.892 -22.018  22.232  1.00  0.00     0.000 C 
BRANCH  17  18
ATOM     18  C   UNL     1      11.386 -20.754  21.491  1.00  0.00     0.000 C 
BRANCH  18  19
ATOM     19  C   UNL     1      10.719 -19.452  21.974  1.00  0.00     0.000 C 
BRANCH  19  20
ATOM     20  C   UNL     1      10.705 -19.264  23.503  1.00  0.00     0.006 C 
BRANCH  20  21
ATOM     21  C   UNL     1      11.911 -18.486  24.056  1.00  0.00     0.053 C 
BRANCH  21  22
ATOM     22  C   UNL     1      11.508 -17.161  24.626  1.00  0.00     0.041 C 
ATOM     23  O   UNL     1      11.075 -17.084  25.807  1.00  0.00    -0.550 OA
ATOM     24  O   UNL     1      11.579 -16.015  23.844  1.00  0.00    -0.550 OA
ENDBRANCH  21  22
ENDBRANCH  20  21
ENDBRANCH  19  20
ENDBRANCH  18  19
ENDBRANCH  17  18
ENDBRANCH  16  17
ENDBRANCH  15  16
ENDBRANCH  14  15
ENDBRANCH  13  14
ENDBRANCH   1  13
TORSDOF 20
ENDMDL
MODEL 3
REMARK VINA RESULT:    -4.306      1.325      4.888
REMARK INTER + INTRA:         -13.226
REMARK INTER:                  -9.130
REMARK INTRA:                  -4.097
REMARK UNBOUND:                -3.886
REMARK SMILES CCCCCCCCCCCCCCCCCCCCCC(=O)[O-]
REMARK SMILES IDX 12 1 11 2 10 3 9 4 8 5 7 6 6 7 5 8 4 9 3 10 2 11 1 12 13 13
REMARK SMILES IDX 14 14 15 15 16 16 17 17 18 18 19 19 20 20 21 21 22 22 23 23
REMARK SMILES IDX 24 24
REMARK H PARENT
REMARK Flexibility Score: inf
ROOT
ATOM      1  C   UNL     1       9.579 -21.966  20.755  1.00  0.00     0.000 C 
ENDROOT
BRANCH   1   2
ATOM      2  C   UNL     1       8.129 -22.478  20.641  1.00  0.00     0.000 C 
BRANCH   2   3
ATOM      3  C   UNL     1       7.084 -21.688  21.457  1.00  0.00     0.000 C 
BRANCH   3   4
ATOM      4  C   UNL     1       7.605 -21.078  22.771  1.00  0.00    -0.000 C 
BRANCH   4   5
ATOM      5  C   UNL     1       6.495 -20.414  23.603  1.00  0.00    -0.000 C 
BRANCH   5   6
ATOM      6  C   UNL     1       6.859 -20.313  25.093  1.00  0.00    -0.000 C 
BRANCH   6   7
ATOM      7  C   UNL     1       6.856 -18.866  25.613  1.00  0.00    -0.000 C 
BRANCH   7   8
ATOM      8  C   UNL     1       8.273 -18.300  25.809  1.00  0.00    -0.000 C 
BRANCH   8   9
ATOM      9  C   UNL     1       8.519 -16.982  25.044  1.00  0.00    -0.000 C 
BRANCH   9  10
ATOM     10  C   UNL     1       7.514 -16.774  23.902  1.00  0.00    -0.000 C 
BRANCH  10  11
ATOM     11  C   UNL     1       7.691 -15.396  23.255  1.00  0.00    -0.003 C 
ATOM     12  C   UNL     1       6.702 -15.191  22.111  1.00  0.00     0.004 C 
ENDBRANCH  10  11
ENDBRANCH   9  10
ENDBRANCH   8   9
ENDBRANCH   7   8
ENDBRANCH   6   7
ENDBRANCH   5   6
ENDBRANCH   4   5
ENDBRANCH   3   4
ENDBRANCH   2   3
ENDBRANCH   1   2
BRANCH   1  13
ATOM     13  C   UNL     1      10.134 -21.296  19.485  1.00  0.00     0.000 C 
BRANCH  13  14
ATOM     14  C   UNL     1       9.034 -20.903  18.489  1.00  0.00     0.000 C 
BRANCH  14  15
ATOM     15  C   UNL     1       8.867 -19.379  18.435  1.00  0.00     0.000 C 
BRANCH  15  16
ATOM     16  C   UNL     1       7.668 -18.924  19.282  1.00  0.00     0.000 C 
BRANCH  16  17
ATOM     17  C   UNL     1       8.099 -18.155  20.543  1.00  0.00     0.000 C 
BRANCH  17  18
ATOM     18  C   UNL     1       9.477 -17.465  20.407  1.00  0.00     0.000 C 
BRANCH  18  19
ATOM     19  C   UNL     1      10.311 -17.488  21.702  1.00  0.00     0.000 C 
BRANCH  19  20
ATOM     20  C   UNL     1      11.061 -18.808  21.962  1.00  0.00     0.006 C 
BRANCH  20  21
ATOM     21  C   UNL     1      10.817 -19.410  23.356  1.00  0.00     0.053 C 
BRANCH  21  22
ATOM     22  C   UNL     1      11.973 -19.171  24.278  1.00  0.00     0.041 C 
ATOM     23  O   UNL     1      11.803 -18.547  25.359  1.00  0.00    -0.550 OA
ATOM     24  O   UNL     1      13.245 -19.608  23.929  1.00  0.00    -0.550 OA
ENDBRANCH  21  22
ENDBRANCH  20  21
ENDBRANCH  19  20
ENDBRANCH  18  19
ENDBRANCH  17  18
ENDBRANCH  16  17
ENDBRANCH  15  16
ENDBRANCH  14  15
ENDBRANCH  13  14
ENDBRANCH   1  13
TORSDOF 20
ENDMDL
MODEL 4
REMARK VINA RESULT:    -4.304      1.761      4.168
REMARK INTER + INTRA:         -13.222
REMARK INTER:                  -9.069
REMARK INTRA:                  -4.153
REMARK UNBOUND:                -3.886
REMARK SMILES CCCCCCCCCCCCCCCCCCCCCC(=O)[O-]
REMARK SMILES IDX 12 1 11 2 10 3 9 4 8 5 7 6 6 7 5 8 4 9 3 10 2 11 1 12 13 13
REMARK SMILES IDX 14 14 15 15 16 16 17 17 18 18 19 19 20 20 21 21 22 22 23 23
REMARK SMILES IDX 24 24
REMARK H PARENT
REMARK Flexibility Score: inf
ROOT
ATOM      1  C   UNL     1       8.552 -19.454  19.614  1.00  0.00     0.000 C 
ENDROOT
BRANCH   1   2
ATOM      2  C   UNL     1       7.806 -18.388  20.442  1.00  0.00     0.000 C 
BRANCH   2   3
ATOM      3  C   UNL     1       8.698 -17.301  21.076  1.00  0.00     0.000 C 
BRANCH   3   4
ATOM      4  C   UNL     1      10.149 -17.729  21.359  1.00  0.00    -0.000 C 
BRANCH   4   5
ATOM      5  C   UNL     1      10.262 -18.725  22.526  1.00  0.00    -0.000 C 
BRANCH   5   6
ATOM      6  C   UNL     1      11.660 -18.725  23.166  1.00  0.00    -0.000 C 
BRANCH   6   7
ATOM      7  C   UNL     1      12.789 -18.571  22.133  1.00  0.00    -0.000 C 
BRANCH   7   8
ATOM      8  C   UNL     1      13.909 -19.610  22.314  1.00  0.00    -0.000 C 
BRANCH   8   9
ATOM      9  C   UNL     1      13.446 -21.062  22.068  1.00  0.00    -0.000 C 
BRANCH   9  10
ATOM     10  C   UNL     1      12.655 -21.207  20.760  1.00  0.00    -0.000 C 
BRANCH  10  11
ATOM     11  C   UNL     1      11.401 -22.064  20.966  1.00  0.00    -0.003 C 
ATOM     12  C   UNL     1      11.318 -22.586  22.398  1.00  0.00     0.004 C 
ENDBRANCH  10  11
ENDBRANCH   9  10
ENDBRANCH   8   9
ENDBRANCH   7   8
ENDBRANCH   6   7
ENDBRANCH   5   6
ENDBRANCH   4   5
ENDBRANCH   3   4
ENDBRANCH   2   3
ENDBRANCH   1   2
BRANCH   1  13
ATOM     13  C   UNL     1       8.180 -20.911  19.944  1.00  0.00     0.000 C 
BRANCH  13  14
ATOM     14  C   UNL     1       7.131 -21.021  21.060  1.00  0.00     0.000 C 
BRANCH  14  15
ATOM     15  C   UNL     1       7.717 -21.727  22.290  1.00  0.00     0.000 C 
BRANCH  15  16
ATOM     16  C   UNL     1       7.783 -20.773  23.494  1.00  0.00     0.000 C 
BRANCH  16  17
ATOM     17  C   UNL     1       6.527 -19.893  23.615  1.00  0.00     0.000 C 
BRANCH  17  18
ATOM     18  C   UNL     1       6.818 -18.468  24.142  1.00  0.00     0.000 C 
BRANCH  18  19
ATOM     19  C   UNL     1       7.833 -18.433  25.300  1.00  0.00     0.000 C 
BRANCH  19  20
ATOM     20  C   UNL     1       8.165 -17.022  25.823  1.00  0.00     0.006 C 
BRANCH  20  21
ATOM     21  C   UNL     1       9.552 -16.504  25.410  1.00  0.00     0.053 C 
BRANCH  21  22
ATOM     22  C   UNL     1       9.468 -15.507  24.296  1.00  0.00     0.041 C 
ATOM     23  O   UNL     1       8.348 -15.068  23.922  1.00  0.00    -0.550 OA
ATOM     24  O   UNL     1      10.623 -15.086  23.648  1.00  0.00    -0.550 OA
ENDBRANCH  21  22
ENDBRANCH  20  21
ENDBRANCH  19  20
ENDBRANCH  18  19
ENDBRANCH  17  18
ENDBRANCH  16  17
ENDBRANCH  15  16
ENDBRANCH  14  15
ENDBRANCH  13  14
ENDBRANCH   1  13
TORSDOF 20
ENDMDL
MODEL 5
REMARK VINA RESULT:    -4.263      2.451      4.051
REMARK INTER + INTRA:         -13.133
REMARK INTER:                  -9.578
REMARK INTRA:                  -3.556
REMARK UNBOUND:                -3.886
REMARK SMILES CCCCCCCCCCCCCCCCCCCCCC(=O)[O-]
REMARK SMILES IDX 12 1 11 2 10 3 9 4 8 5 7 6 6 7 5 8 4 9 3 10 2 11 1 12 13 13
REMARK SMILES IDX 14 14 15 15 16 16 17 17 18 18 19 19 20 20 21 21 22 22 23 23
REMARK SMILES IDX 24 24
REMARK H PARENT
REMARK Flexibility Score: inf
ROOT
ATOM      1  C   UNL     1       7.850 -16.237  22.174  1.00  0.00     0.000 C 
ENDROOT
BRANCH   1   2
ATOM      2  C   UNL     1       8.050 -17.765  22.212  1.00  0.00     0.000 C 
BRANCH   2   3
ATOM      3  C   UNL     1       7.301 -18.502  23.342  1.00  0.00     0.000 C 
BRANCH   3   4
ATOM      4  C   UNL     1       7.959 -19.809  23.820  1.00  0.00    -0.000 C 
BRANCH   4   5
ATOM      5  C   UNL     1       7.219 -21.065  23.331  1.00  0.00    -0.000 C 
BRANCH   5   6
ATOM      6  C   UNL     1       7.519 -21.389  21.859  1.00  0.00    -0.000 C 
BRANCH   6   7
ATOM      7  C   UNL     1       7.916 -22.859  21.639  1.00  0.00    -0.000 C 
BRANCH   7   8
ATOM      8  C   UNL     1       9.340 -23.016  21.080  1.00  0.00    -0.000 C 
BRANCH   8   9
ATOM      9  C   UNL     1      10.441 -22.859  22.150  1.00  0.00    -0.000 C 
BRANCH   9  10
ATOM     10  C   UNL     1      11.508 -21.832  21.741  1.00  0.00    -0.000 C 
BRANCH  10  11
ATOM     11  C   UNL     1      11.171 -20.441  22.288  1.00  0.00    -0.003 C 
ATOM     12  C   UNL     1      11.155 -19.398  21.173  1.00  0.00     0.004 C 
ENDBRANCH  10  11
ENDBRANCH   9  10
ENDBRANCH   8   9
ENDBRANCH   7   8
ENDBRANCH   6   7
ENDBRANCH   5   6
ENDBRANCH   4   5
ENDBRANCH   3   4
ENDBRANCH   2   3
ENDBRANCH   1   2
BRANCH   1  13
ATOM     13  C   UNL     1       7.718 -15.564  23.552  1.00  0.00     0.000 C 
BRANCH  13  14
ATOM     14  C   UNL     1       9.076 -15.268  24.204  1.00  0.00     0.000 C 
BRANCH  14  15
ATOM     15  C   UNL     1       9.286 -16.142  25.447  1.00  0.00     0.000 C 
BRANCH  15  16
ATOM     16  C   UNL     1      10.498 -17.071  25.272  1.00  0.00     0.000 C 
BRANCH  16  17
ATOM     17  C   UNL     1      11.338 -16.710  24.034  1.00  0.00     0.000 C 
BRANCH  17  18
ATOM     18  C   UNL     1      12.732 -17.380  24.015  1.00  0.00     0.000 C 
BRANCH  18  19
ATOM     19  C   UNL     1      13.651 -16.863  22.892  1.00  0.00     0.000 C 
BRANCH  19  20
ATOM     20  C   UNL     1      14.497 -17.949  22.201  1.00  0.00     0.006 C 
BRANCH  20  21
ATOM     21  C   UNL     1      14.603 -19.266  22.988  1.00  0.00     0.053 C 
BRANCH  21  22
ATOM     22  C   UNL     1      14.986 -20.415  22.107  1.00  0.00     0.041 C 
ATOM     23  O   UNL     1      15.705 -21.347  22.557  1.00  0.00    -0.550 OA
ATOM     24  O   UNL     1      14.577 -20.442  20.779  1.00  0.00    -0.550 OA
ENDBRANCH  21  22
ENDBRANCH  20  21
ENDBRANCH  19  20
ENDBRANCH  18  19
ENDBRANCH  17  18
ENDBRANCH  16  17
ENDBRANCH  15  16
ENDBRANCH  14  15
ENDBRANCH  13  14
ENDBRANCH   1  13
TORSDOF 20
ENDMDL
MODEL 6
REMARK VINA RESULT:    -4.255      2.767      4.678
REMARK INTER + INTRA:         -13.116
REMARK INTER:                  -8.938
REMARK INTRA:                  -4.178
REMARK UNBOUND:                -3.886
REMARK SMILES CCCCCCCCCCCCCCCCCCCCCC(=O)[O-]
REMARK SMILES IDX 12 1 11 2 10 3 9 4 8 5 7 6 6 7 5 8 4 9 3 10 2 11 1 12 13 13
REMARK SMILES IDX 14 14 15 15 16 16 17 17 18 18 19 19 20 20 21 21 22 22 23 23
REMARK SMILES IDX 24 24
REMARK H PARENT
REMARK Flexibility Score: inf
ROOT
ATOM      1  C   UNL     1      11.377 -16.285  23.533  1.00  0.00     0.000 C 
ENDROOT
BRANCH   1   2
ATOM      2  C   UNL     1      11.275 -17.310  24.681  1.00  0.00     0.000 C 
BRANCH   2   3
ATOM      3  C   UNL     1      12.393 -18.373  24.718  1.00  0.00     0.000 C 
BRANCH   3   4
ATOM      4  C   UNL     1      12.037 -19.720  24.062  1.00  0.00    -0.000 C 
BRANCH   4   5
ATOM      5  C   UNL     1      12.324 -19.744  22.551  1.00  0.00    -0.000 C 
BRANCH   5   6
ATOM      6  C   UNL     1      11.301 -20.585  21.772  1.00  0.00    -0.000 C 
BRANCH   6   7
ATOM      7  C   UNL     1      10.745 -19.857  20.537  1.00  0.00    -0.000 C 
BRANCH   7   8
ATOM      8  C   UNL     1      11.001 -18.341  20.572  1.00  0.00    -0.000 C 
BRANCH   8   9
ATOM      9  C   UNL     1       9.762 -17.499  20.202  1.00  0.00    -0.000 C 
BRANCH   9  10
ATOM     10  C   UNL     1       8.726 -18.306  19.405  1.00  0.00    -0.000 C 
BRANCH  10  11
ATOM     11  C   UNL     1       7.326 -17.700  19.550  1.00  0.00    -0.003 C 
ATOM     12  C   UNL     1       7.348 -16.193  19.310  1.00  0.00     0.004 C 
ENDBRANCH  10  11
ENDBRANCH   9  10
ENDBRANCH   8   9
ENDBRANCH   7   8
ENDBRANCH   6   7
ENDBRANCH   5   6
ENDBRANCH   4   5
ENDBRANCH   3   4
ENDBRANCH   2   3
ENDBRANCH   1   2
BRANCH   1  13
ATOM     13  C   UNL     1      10.409 -15.093  23.637  1.00  0.00     0.000 C 
BRANCH  13  14
ATOM     14  C   UNL     1       9.150 -15.418  24.454  1.00  0.00     0.000 C 
BRANCH  14  15
ATOM     15  C   UNL     1       7.882 -15.135  23.637  1.00  0.00     0.000 C 
BRANCH  15  16
ATOM     16  C   UNL     1       7.369 -16.413  22.954  1.00  0.00     0.000 C 
BRANCH  16  17
ATOM     17  C   UNL     1       7.528 -17.658  23.844  1.00  0.00     0.000 C 
BRANCH  17  18
ATOM     18  C   UNL     1       8.325 -18.801  23.173  1.00  0.00     0.000 C 
BRANCH  18  19
ATOM     19  C   UNL     1       8.028 -20.192  23.765  1.00  0.00     0.000 C 
BRANCH  19  20
ATOM     20  C   UNL     1       6.970 -21.007  22.997  1.00  0.00     0.006 C 
BRANCH  20  21
ATOM     21  C   UNL     1       7.122 -20.959  21.468  1.00  0.00     0.053 C 
BRANCH  21  22
ATOM     22  C   UNL     1       7.887 -22.135  20.945  1.00  0.00     0.041 C 
ATOM     23  O   UNL     1       8.235 -23.062  21.723  1.00  0.00    -0.550 OA
ATOM     24  O   UNL     1       8.246 -22.192  19.603  1.00  0.00    -0.550 OA
ENDBRANCH  21  22
ENDBRANCH  20  21
ENDBRANCH  19  20
ENDBRANCH  18  19
ENDBRANCH  17  18
ENDBRANCH  16  17
ENDBRANCH  15  16
ENDBRANCH  14  15
ENDBRANCH  13  14
ENDBRANCH   1  13
TORSDOF 20
ENDMDL
MODEL 7
REMARK VINA RESULT:    -4.243      1.709      4.793
REMARK INTER + INTRA:         -13.089
REMARK INTER:                  -9.046
REMARK INTRA:                  -4.043
REMARK UNBOUND:                -3.886
REMARK SMILES CCCCCCCCCCCCCCCCCCCCCC(=O)[O-]
REMARK SMILES IDX 12 1 11 2 10 3 9 4 8 5 7 6 6 7 5 8 4 9 3 10 2 11 1 12 13 13
REMARK SMILES IDX 14 14 15 15 16 16 17 17 18 18 19 19 20 20 21 21 22 22 23 23
REMARK SMILES IDX 24 24
REMARK H PARENT
REMARK Flexibility Score: inf
ROOT
ATOM      1  C   UNL     1       7.572 -18.136  19.445  1.00  0.00     0.000 C 
ENDROOT
BRANCH   1   2
ATOM      2  C   UNL     1       8.071 -17.041  20.409  1.00  0.00     0.000 C 
BRANCH   2   3
ATOM      3  C   UNL     1       8.152 -17.454  21.893  1.00  0.00     0.000 C 
BRANCH   3   4
ATOM      4  C   UNL     1       8.372 -18.957  22.143  1.00  0.00    -0.000 C 
BRANCH   4   5
ATOM      5  C   UNL     1       7.381 -19.546  23.162  1.00  0.00    -0.000 C 
BRANCH   5   6
ATOM      6  C   UNL     1       7.045 -21.018  22.871  1.00  0.00    -0.000 C 
BRANCH   6   7
ATOM      7  C   UNL     1       6.959 -21.325  21.366  1.00  0.00    -0.000 C 
BRANCH   7   8
ATOM      8  C   UNL     1       7.518 -22.713  21.008  1.00  0.00    -0.000 C 
BRANCH   8   9
ATOM      9  C   UNL     1       8.816 -23.067  21.764  1.00  0.00    -0.000 C 
BRANCH   9  10
ATOM     10  C   UNL     1      10.073 -22.605  21.010  1.00  0.00    -0.000 C 
BRANCH  10  11
ATOM     11  C   UNL     1      11.265 -22.463  21.962  1.00  0.00    -0.003 C 
ATOM     12  C   UNL     1      11.111 -21.242  22.863  1.00  0.00     0.004 C 
ENDBRANCH  10  11
ENDBRANCH   9  10
ENDBRANCH   8   9
ENDBRANCH   7   8
ENDBRANCH   6   7
ENDBRANCH   5   6
ENDBRANCH   4   5
ENDBRANCH   3   4
ENDBRANCH   2   3
ENDBRANCH   1   2
BRANCH   1  13
ATOM     13  C   UNL     1       8.638 -18.695  18.486  1.00  0.00     0.000 C 
BRANCH  13  14
ATOM     14  C   UNL     1       8.821 -20.213  18.616  1.00  0.00     0.000 C 
BRANCH  14  15
ATOM     15  C   UNL     1       9.973 -20.702  17.730  1.00  0.00     0.000 C 
BRANCH  15  16
ATOM     16  C   UNL     1      11.220 -19.822  17.909  1.00  0.00     0.000 C 
BRANCH  16  17
ATOM     17  C   UNL     1      12.233 -20.434  18.894  1.00  0.00     0.000 C 
BRANCH  17  18
ATOM     18  C   UNL     1      12.786 -19.421  19.923  1.00  0.00     0.000 C 
BRANCH  18  19
ATOM     19  C   UNL     1      11.694 -18.583  20.615  1.00  0.00     0.000 C 
BRANCH  19  20
ATOM     20  C   UNL     1      12.205 -17.307  21.311  1.00  0.00     0.006 C 
BRANCH  20  21
ATOM     21  C   UNL     1      11.712 -17.134  22.757  1.00  0.00     0.053 C 
BRANCH  21  22
ATOM     22  C   UNL     1      11.577 -15.691  23.133  1.00  0.00     0.041 C 
ATOM     23  O   UNL     1      10.572 -15.296  23.783  1.00  0.00    -0.550 OA
ATOM     24  O   UNL     1      12.545 -14.775  22.739  1.00  0.00    -0.550 OA
ENDBRANCH  21  22
ENDBRANCH  20  21
ENDBRANCH  19  20
ENDBRANCH  18  19
ENDBRANCH  17  18
ENDBRANCH  16  17
ENDBRANCH  15  16
ENDBRANCH  14  15
ENDBRANCH  13  14
ENDBRANCH   1  13
TORSDOF 20
ENDMDL
MODEL 8
REMARK VINA RESULT:    -4.234      1.421      3.496
REMARK INTER + INTRA:         -13.069
REMARK INTER:                  -9.281
REMARK INTRA:                  -3.788
REMARK UNBOUND:                -3.886
REMARK SMILES CCCCCCCCCCCCCCCCCCCCCC(=O)[O-]
REMARK SMILES IDX 12 1 11 2 10 3 9 4 8 5 7 6 6 7 5 8 4 9 3 10 2 11 1 12 13 13
REMARK SMILES IDX 14 14 15 15 16 16 17 17 18 18 19 19 20 20 21 21 22 22 23 23
REMARK SMILES IDX 24 24
REMARK H PARENT
REMARK Flexibility Score: inf
ROOT
ATOM      1  C   UNL     1       8.136 -16.008  23.560  1.00  0.00     0.000 C 
ENDROOT
BRANCH   1   2
ATOM      2  C   UNL     1       7.256 -17.158  24.091  1.00  0.00     0.000 C 
BRANCH   2   3
ATOM      3  C   UNL     1       7.818 -18.577  23.867  1.00  0.00     0.000 C 
BRANCH   3   4
ATOM      4  C   UNL     1       6.780 -19.711  23.939  1.00  0.00    -0.000 C 
BRANCH   4   5
ATOM      5  C   UNL     1       7.258 -21.004  23.255  1.00  0.00    -0.000 C 
BRANCH   5   6
ATOM      6  C   UNL     1       6.726 -21.141  21.820  1.00  0.00    -0.000 C 
BRANCH   6   7
ATOM      7  C   UNL     1       7.738 -21.804  20.869  1.00  0.00    -0.000 C 
BRANCH   7   8
ATOM      8  C   UNL     1       8.345 -23.093  21.447  1.00  0.00    -0.000 C 
BRANCH   8   9
ATOM      9  C   UNL     1       9.887 -23.074  21.507  1.00  0.00    -0.000 C 
BRANCH   9  10
ATOM     10  C   UNL     1      10.460 -21.661  21.318  1.00  0.00    -0.000 C 
BRANCH  10  11
ATOM     11  C   UNL     1      11.329 -21.583  20.058  1.00  0.00    -0.003 C 
ATOM     12  C   UNL     1      12.779 -21.256  20.407  1.00  0.00     0.004 C 
ENDBRANCH  10  11
ENDBRANCH   9  10
ENDBRANCH   8   9
ENDBRANCH   7   8
ENDBRANCH   6   7
ENDBRANCH   5   6
ENDBRANCH   4   5
ENDBRANCH   3   4
ENDBRANCH   2   3
ENDBRANCH   1   2
BRANCH   1  13
ATOM     13  C   UNL     1       7.456 -15.093  22.526  1.00  0.00     0.000 C 
BRANCH  13  14
ATOM     14  C   UNL     1       6.514 -15.854  21.583  1.00  0.00     0.000 C 
BRANCH  14  15
ATOM     15  C   UNL     1       6.780 -15.472  20.122  1.00  0.00     0.000 C 
BRANCH  15  16
ATOM     16  C   UNL     1       7.497 -16.609  19.375  1.00  0.00     0.000 C 
BRANCH  16  17
ATOM     17  C   UNL     1       7.595 -17.893  20.218  1.00  0.00     0.000 C 
BRANCH  17  18
ATOM     18  C   UNL     1       9.049 -18.329  20.514  1.00  0.00     0.000 C 
BRANCH  18  19
ATOM     19  C   UNL     1      10.055 -17.163  20.527  1.00  0.00     0.000 C 
BRANCH  19  20
ATOM     20  C   UNL     1      11.383 -17.465  21.247  1.00  0.00     0.006 C 
BRANCH  20  21
ATOM     21  C   UNL     1      11.222 -18.176  22.601  1.00  0.00     0.053 C 
BRANCH  21  22
ATOM     22  C   UNL     1      11.919 -17.442  23.704  1.00  0.00     0.041 C 
ATOM     23  O   UNL     1      11.264 -17.006  24.688  1.00  0.00    -0.550 OA
ATOM     24  O   UNL     1      13.287 -17.211  23.632  1.00  0.00    -0.550 OA
ENDBRANCH  21  22
ENDBRANCH  20  21
ENDBRANCH  19  20
ENDBRANCH  18  19
ENDBRANCH  17  18
ENDBRANCH  16  17
ENDBRANCH  15  16
ENDBRANCH  14  15
ENDBRANCH  13  14
ENDBRANCH   1  13
TORSDOF 20
ENDMDL
MODEL 9
REMARK VINA RESULT:    -4.231      2.284      5.326
REMARK INTER + INTRA:         -13.064
REMARK INTER:                  -9.573
REMARK INTRA:                  -3.491
REMARK UNBOUND:                -3.886
REMARK SMILES CCCCCCCCCCCCCCCCCCCCCC(=O)[O-]
REMARK SMILES IDX 12 1 11 2 10 3 9 4 8 5 7 6 6 7 5 8 4 9 3 10 2 11 1 12 13 13
REMARK SMILES IDX 14 14 15 15 16 16 17 17 18 18 19 19 20 20 21 21 22 22 23 23
REMARK SMILES IDX 24 24
REMARK H PARENT
REMARK Flexibility Score: inf
ROOT
ATOM      1  C   UNL     1      11.723 -21.617  21.480  1.00  0.00     0.000 C 
ENDROOT
BRANCH   1   2
ATOM      2  C   UNL     1      11.303 -20.159  21.755  1.00  0.00     0.000 C 
BRANCH   2   3
ATOM      3  C   UNL     1      10.718 -19.893  23.157  1.00  0.00     0.000 C 
BRANCH   3   4
ATOM      4  C   UNL     1      11.642 -19.123  24.117  1.00  0.00    -0.000 C 
BRANCH   4   5
ATOM      5  C   UNL     1      11.665 -17.610  23.840  1.00  0.00    -0.000 C 
BRANCH   5   6
ATOM      6  C   UNL     1      13.094 -17.046  23.773  1.00  0.00    -0.000 C 
BRANCH   6   7
ATOM      7  C   UNL     1      13.416 -16.392  22.418  1.00  0.00    -0.000 C 
BRANCH   7   8
ATOM      8  C   UNL     1      14.632 -17.027  21.723  1.00  0.00    -0.000 C 
BRANCH   8   9
ATOM      9  C   UNL     1      14.255 -18.123  20.704  1.00  0.00    -0.000 C 
BRANCH   9  10
ATOM     10  C   UNL     1      14.879 -19.483  21.054  1.00  0.00    -0.000 C 
BRANCH  10  11
ATOM     11  C   UNL     1      15.626 -19.419  22.390  1.00  0.00    -0.003 C 
ATOM     12  C   UNL     1      15.019 -20.380  23.409  1.00  0.00     0.004 C 
ENDBRANCH  10  11
ENDBRANCH   9  10
ENDBRANCH   8   9
ENDBRANCH   7   8
ENDBRANCH   6   7
ENDBRANCH   5   6
ENDBRANCH   4   5
ENDBRANCH   3   4
ENDBRANCH   2   3
ENDBRANCH   1   2
BRANCH   1  13
ATOM     13  C   UNL     1      10.792 -22.686  22.080  1.00  0.00     0.000 C 
BRANCH  13  14
ATOM     14  C   UNL     1       9.638 -23.066  21.141  1.00  0.00     0.000 C 
BRANCH  14  15
ATOM     15  C   UNL     1       8.284 -22.857  21.830  1.00  0.00     0.000 C 
BRANCH  15  16
ATOM     16  C   UNL     1       7.468 -21.762  21.124  1.00  0.00     0.000 C 
BRANCH  16  17
ATOM     17  C   UNL     1       7.329 -20.490  21.979  1.00  0.00     0.000 C 
BRANCH  17  18
ATOM     18  C   UNL     1       7.158 -20.776  23.490  1.00  0.00     0.000 C 
BRANCH  18  19
ATOM     19  C   UNL     1       6.605 -19.579  24.287  1.00  0.00     0.000 C 
BRANCH  19  20
ATOM     20  C   UNL     1       7.679 -18.675  24.921  1.00  0.00     0.006 C 
BRANCH  20  21
ATOM     21  C   UNL     1       7.976 -17.392  24.127  1.00  0.00     0.053 C 
BRANCH  21  22
ATOM     22  C   UNL     1       8.490 -16.296  25.008  1.00  0.00     0.041 C 
ATOM     23  O   UNL     1       8.341 -16.364  26.257  1.00  0.00    -0.550 OA
ATOM     24  O   UNL     1       9.105 -15.182  24.449  1.00  0.00    -0.550 OA
ENDBRANCH  21  22
ENDBRANCH  20  21
ENDBRANCH  19  20
ENDBRANCH  18  19
ENDBRANCH  17  18
ENDBRANCH  16  17
ENDBRANCH  15  16
ENDBRANCH  14  15
ENDBRANCH  13  14
ENDBRANCH   1  13
TORSDOF 20
ENDMDL
