MODEL 1
REMARK VINA RESULT:    -4.913      0.000      0.000
REMARK INTER + INTRA:          -9.089
REMARK INTER:                  -7.785
REMARK INTRA:                  -1.304
REMARK UNBOUND:                -1.304
REMARK SMILES CCCCCCCCCCCC(=O)[O-]
REMARK SMILES IDX 7 1 8 2 9 3 10 4 11 5 12 6 13 7 14 8 6 9 5 10 4 11 3 12 2 13
REMARK SMILES IDX 1 14
REMARK H PARENT
REMARK Flexibility Score: inf
ROOT
ATOM      1  C   UNL     1     -29.648  64.709  82.546  1.00  0.00     0.000 C 
ENDROOT
BRANCH   1   2
ATOM      2  C   UNL     1     -28.346  65.283  81.968  1.00  0.00     0.000 C 
BRANCH   2   3
ATOM      3  C   UNL     1     -28.220  66.805  82.166  1.00  0.00     0.000 C 
BRANCH   3   4
ATOM      4  C   UNL     1     -28.584  67.310  83.574  1.00  0.00     0.006 C 
BRANCH   4   5
ATOM      5  C   UNL     1     -27.499  67.011  84.615  1.00  0.00     0.053 C 
BRANCH   5   6
ATOM      6  C   UNL     1     -27.424  68.114  85.624  1.00  0.00     0.041 C 
ATOM      7  O   UNL     1     -26.365  68.783  85.752  1.00  0.00    -0.550 OA
ATOM      8  O   UNL     1     -28.539  68.436  86.387  1.00  0.00    -0.550 OA
ENDBRANCH   5   6
ENDBRANCH   4   5
ENDBRANCH   3   4
ENDBRANCH   2   3
ENDBRANCH   1   2
BRANCH   1   9
ATOM      9  C   UNL     1     -29.378  63.427  83.342  1.00  0.00     0.000 C 
BRANCH   9  10
ATOM     10  C   UNL     1     -28.925  63.749  84.771  1.00  0.00    -0.000 C 
BRANCH  10  11
ATOM     11  C   UNL     1     -30.130  63.879  85.714  1.00  0.00    -0.000 C 
BRANCH  11  12
ATOM     12  C   UNL     1     -30.260  65.286  86.319  1.00  0.00    -0.000 C 
BRANCH  12  13
ATOM     13  C   UNL     1     -31.260  66.168  85.556  1.00  0.00    -0.003 C 
ATOM     14  C   UNL     1     -31.872  67.223  86.473  1.00  0.00     0.004 C 
ENDBRANCH  12  13
ENDBRANCH  11  12
ENDBRANCH  10  11
ENDBRANCH   9  10
ENDBRANCH   1   9
TORSDOF 10
ENDMDL
MODEL 2
REMARK VINA RESULT:    -4.827      2.386      4.284
REMARK INTER + INTRA:          -8.952
REMARK INTER:                  -7.785
REMARK INTRA:                  -1.167
REMARK UNBOUND:                -1.304
REMARK SMILES CCCCCCCCCCCC(=O)[O-]
REMARK SMILES IDX 7 1 8 2 9 3 10 4 11 5 12 6 13 7 14 8 6 9 5 10 4 11 3 12 2 13
REMARK SMILES IDX 1 14
REMARK H PARENT
REMARK Flexibility Score: inf
ROOT
ATOM      1  C   UNL     1     -28.241  68.205  86.909  1.00  0.00     0.000 C 
ENDROOT
BRANCH   1   2
ATOM      2  C   UNL     1     -27.313  68.522  85.727  1.00  0.00     0.000 C 
BRANCH   2   3
ATOM      3  C   UNL     1     -26.579  67.279  85.190  1.00  0.00     0.000 C 
BRANCH   3   4
ATOM      4  C   UNL     1     -27.487  66.208  84.563  1.00  0.00     0.006 C 
BRANCH   4   5
ATOM      5  C   UNL     1     -28.228  66.708  83.316  1.00  0.00     0.053 C 
BRANCH   5   6
ATOM      6  C   UNL     1     -28.490  65.575  82.374  1.00  0.00     0.041 C 
ATOM      7  O   UNL     1     -27.894  65.523  81.266  1.00  0.00    -0.550 OA
ATOM      8  O   UNL     1     -29.356  64.552  82.739  1.00  0.00    -0.550 OA
ENDBRANCH   5   6
ENDBRANCH   4   5
ENDBRANCH   3   4
ENDBRANCH   2   3
ENDBRANCH   1   2
BRANCH   1   9
ATOM      9  C   UNL     1     -29.582  68.937  86.767  1.00  0.00     0.000 C 
BRANCH   9  10
ATOM     10  C   UNL     1     -30.489  68.236  85.749  1.00  0.00    -0.000 C 
BRANCH  10  11
ATOM     11  C   UNL     1     -31.160  67.001  86.369  1.00  0.00    -0.000 C 
BRANCH  11  12
ATOM     12  C   UNL     1     -30.880  65.714  85.577  1.00  0.00    -0.000 C 
BRANCH  12  13
ATOM     13  C   UNL     1     -29.935  64.757  86.318  1.00  0.00    -0.003 C 
ATOM     14  C   UNL     1     -30.382  63.308  86.155  1.00  0.00     0.004 C 
ENDBRANCH  12  13
ENDBRANCH  11  12
ENDBRANCH  10  11
ENDBRANCH   9  10
ENDBRANCH   1   9
TORSDOF 10
ENDMDL
MODEL 3
REMARK VINA RESULT:    -4.805      1.201      3.883
REMARK INTER + INTRA:          -8.917
REMARK INTER:                  -7.707
REMARK INTRA:                  -1.210
REMARK UNBOUND:                -1.304
REMARK SMILES CCCCCCCCCCCC(=O)[O-]
REMARK SMILES IDX 7 1 8 2 9 3 10 4 11 5 12 6 13 7 14 8 6 9 5 10 4 11 3 12 2 13
REMARK SMILES IDX 1 14
REMARK H PARENT
REMARK Flexibility Score: inf
ROOT
ATOM      1  C   UNL     1     -29.075  63.400  83.379  1.00  0.00     0.000 C 
ENDROOT
BRANCH   1   2
ATOM      2  C   UNL     1     -28.891  63.567  84.895  1.00  0.00     0.000 C 
BRANCH   2   3
ATOM      3  C   UNL     1     -30.216  63.827  85.635  1.00  0.00     0.000 C 
BRANCH   3   4
ATOM      4  C   UNL     1     -30.275  65.151  86.417  1.00  0.00     0.006 C 
BRANCH   4   5
ATOM      5  C   UNL     1     -31.129  66.218  85.721  1.00  0.00     0.053 C 
BRANCH   5   6
ATOM      6  C   UNL     1     -31.196  67.459  86.554  1.00  0.00     0.041 C 
ATOM      7  O   UNL     1     -30.156  68.137  86.764  1.00  0.00    -0.550 OA
ATOM      8  O   UNL     1     -32.415  67.895  87.058  1.00  0.00    -0.550 OA
ENDBRANCH   5   6
ENDBRANCH   4   5
ENDBRANCH   3   4
ENDBRANCH   2   3
ENDBRANCH   1   2
BRANCH   1   9
ATOM      9  C   UNL     1     -29.478  64.728  82.725  1.00  0.00     0.000 C 
BRANCH   9  10
ATOM     10  C   UNL     1     -28.283  65.382  82.022  1.00  0.00    -0.000 C 
BRANCH  10  11
ATOM     11  C   UNL     1     -28.202  66.880  82.355  1.00  0.00    -0.000 C 
BRANCH  11  12
ATOM     12  C   UNL     1     -28.525  67.178  83.827  1.00  0.00    -0.000 C 
BRANCH  12  13
ATOM     13  C   UNL     1     -27.360  66.840  84.769  1.00  0.00    -0.003 C 
ATOM     14  C   UNL     1     -26.758  68.104  85.374  1.00  0.00     0.004 C 
ENDBRANCH  12  13
ENDBRANCH  11  12
ENDBRANCH  10  11
ENDBRANCH   9  10
ENDBRANCH   1   9
TORSDOF 10
ENDMDL
MODEL 4
REMARK VINA RESULT:    -4.744      2.420      5.196
REMARK INTER + INTRA:          -8.821
REMARK INTER:                  -7.619
REMARK INTRA:                  -1.202
REMARK UNBOUND:                -1.304
REMARK SMILES CCCCCCCCCCCC(=O)[O-]
REMARK SMILES IDX 7 1 8 2 9 3 10 4 11 5 12 6 13 7 14 8 6 9 5 10 4 11 3 12 2 13
REMARK SMILES IDX 1 14
REMARK H PARENT
REMARK Flexibility Score: inf
ROOT
ATOM      1  C   UNL     1     -29.460  68.930  86.921  1.00  0.00     0.000 C 
ENDROOT
BRANCH   1   2
ATOM      2  C   UNL     1     -30.525  68.510  85.898  1.00  0.00     0.000 C 
BRANCH   2   3
ATOM      3  C   UNL     1     -31.357  67.299  86.360  1.00  0.00     0.000 C 
BRANCH   3   4
ATOM      4  C   UNL     1     -31.133  66.010  85.550  1.00  0.00     0.006 C 
BRANCH   4   5
ATOM      5  C   UNL     1     -30.133  65.054  86.212  1.00  0.00     0.053 C 
BRANCH   5   6
ATOM      6  C   UNL     1     -30.096  63.748  85.483  1.00  0.00     0.041 C 
ATOM      7  O   UNL     1     -30.500  62.697  86.047  1.00  0.00    -0.550 OA
ATOM      8  O   UNL     1     -29.663  63.698  84.164  1.00  0.00    -0.550 OA
ENDBRANCH   5   6
ENDBRANCH   4   5
ENDBRANCH   3   4
ENDBRANCH   2   3
ENDBRANCH   1   2
BRANCH   1   9
ATOM      9  C   UNL     1     -28.236  68.008  86.851  1.00  0.00     0.000 C 
BRANCH   9  10
ATOM     10  C   UNL     1     -27.185  68.559  85.880  1.00  0.00    -0.000 C 
BRANCH  10  11
ATOM     11  C   UNL     1     -26.523  67.424  85.084  1.00  0.00    -0.000 C 
BRANCH  11  12
ATOM     12  C   UNL     1     -27.543  66.420  84.525  1.00  0.00    -0.000 C 
BRANCH  12  13
ATOM     13  C   UNL     1     -28.334  66.981  83.334  1.00  0.00    -0.003 C 
ATOM     14  C   UNL     1     -28.156  66.107  82.096  1.00  0.00     0.004 C 
ENDBRANCH  12  13
ENDBRANCH  11  12
ENDBRANCH  10  11
ENDBRANCH   9  10
ENDBRANCH   1   9
TORSDOF 10
ENDMDL
MODEL 5
REMARK VINA RESULT:    -4.659      2.037      4.913
REMARK INTER + INTRA:          -8.686
REMARK INTER:                  -7.481
REMARK INTRA:                  -1.205
REMARK UNBOUND:                -1.304
REMARK SMILES CCCCCCCCCCCC(=O)[O-]
REMARK SMILES IDX 7 1 8 2 9 3 10 4 11 5 12 6 13 7 14 8 6 9 5 10 4 11 3 12 2 13
REMARK SMILES IDX 1 14
REMARK H PARENT
REMARK Flexibility Score: inf
ROOT
ATOM      1  C   UNL     1     -28.221  68.116  86.821  1.00  0.00     0.000 C 
ENDROOT
BRANCH   1   2
ATOM      2  C   UNL     1     -29.482  68.980  86.667  1.00  0.00     0.000 C 
BRANCH   2   3
ATOM      3  C   UNL     1     -30.570  68.307  85.809  1.00  0.00     0.000 C 
BRANCH   3   4
ATOM      4  C   UNL     1     -31.141  67.002  86.390  1.00  0.00     0.006 C 
BRANCH   4   5
ATOM      5  C   UNL     1     -31.141  65.848  85.379  1.00  0.00     0.053 C 
BRANCH   5   6
ATOM      6  C   UNL     1     -30.335  64.699  85.898  1.00  0.00     0.041 C 
ATOM      7  O   UNL     1     -30.348  63.594  85.294  1.00  0.00    -0.550 OA
ATOM      8  O   UNL     1     -29.531  64.862  87.018  1.00  0.00    -0.550 OA
ENDBRANCH   5   6
ENDBRANCH   4   5
ENDBRANCH   3   4
ENDBRANCH   2   3
ENDBRANCH   1   2
BRANCH   1   9
ATOM      9  C   UNL     1     -27.120  68.573  85.855  1.00  0.00     0.000 C 
BRANCH   9  10
ATOM     10  C   UNL     1     -26.534  67.385  85.085  1.00  0.00    -0.000 C 
BRANCH  10  11
ATOM     11  C   UNL     1     -27.648  66.473  84.548  1.00  0.00    -0.000 C 
BRANCH  11  12
ATOM     12  C   UNL     1     -28.311  67.033  83.279  1.00  0.00    -0.000 C 
BRANCH  12  13
ATOM     13  C   UNL     1     -28.178  66.088  82.076  1.00  0.00    -0.003 C 
ATOM     14  C   UNL     1     -28.911  64.774  82.326  1.00  0.00     0.004 C 
ENDBRANCH  12  13
ENDBRANCH  11  12
ENDBRANCH  10  11
ENDBRANCH   9  10
ENDBRANCH   1   9
TORSDOF 10
ENDMDL
MODEL 6
REMARK VINA RESULT:    -4.640      1.799      3.454
REMARK INTER + INTRA:          -8.656
REMARK INTER:                  -7.536
REMARK INTRA:                  -1.120
REMARK UNBOUND:                -1.304
REMARK SMILES CCCCCCCCCCCC(=O)[O-]
REMARK SMILES IDX 7 1 8 2 9 3 10 4 11 5 12 6 13 7 14 8 6 9 5 10 4 11 3 12 2 13
REMARK SMILES IDX 1 14
REMARK H PARENT
REMARK Flexibility Score: inf
ROOT
ATOM      1  C   UNL     1     -28.339  67.167  83.465  1.00  0.00     0.000 C 
ENDROOT
BRANCH   1   2
ATOM      2  C   UNL     1     -27.510  66.974  84.744  1.00  0.00     0.000 C 
BRANCH   2   3
ATOM      3  C   UNL     1     -27.597  68.176  85.703  1.00  0.00     0.000 C 
BRANCH   3   4
ATOM      4  C   UNL     1     -28.671  68.058  86.798  1.00  0.00     0.006 C 
BRANCH   4   5
ATOM      5  C   UNL     1     -29.961  68.814  86.454  1.00  0.00     0.053 C 
BRANCH   5   6
ATOM      6  C   UNL     1     -31.099  67.858  86.283  1.00  0.00     0.041 C 
ATOM      7  O   UNL     1     -31.979  67.756  87.178  1.00  0.00    -0.550 OA
ATOM      8  O   UNL     1     -31.215  67.114  85.115  1.00  0.00    -0.550 OA
ENDBRANCH   5   6
ENDBRANCH   4   5
ENDBRANCH   3   4
ENDBRANCH   2   3
ENDBRANCH   1   2
BRANCH   1   9
ATOM      9  C   UNL     1     -28.346  65.889  82.616  1.00  0.00     0.000 C 
BRANCH   9  10
ATOM     10  C   UNL     1     -29.646  65.102  82.816  1.00  0.00    -0.000 C 
BRANCH  10  11
ATOM     11  C   UNL     1     -29.356  63.618  83.082  1.00  0.00    -0.000 C 
BRANCH  11  12
ATOM     12  C   UNL     1     -28.985  63.340  84.547  1.00  0.00    -0.000 C 
BRANCH  12  13
ATOM     13  C   UNL     1     -30.141  63.631  85.516  1.00  0.00    -0.003 C 
ATOM     14  C   UNL     1     -29.691  64.550  86.647  1.00  0.00     0.004 C 
ENDBRANCH  12  13
ENDBRANCH  11  12
ENDBRANCH  10  11
ENDBRANCH   9  10
ENDBRANCH   1   9
TORSDOF 10
ENDMDL
MODEL 7
REMARK VINA RESULT:    -4.631      2.120      4.559
REMARK INTER + INTRA:          -8.643
REMARK INTER:                  -7.391
REMARK INTRA:                  -1.252
REMARK UNBOUND:                -1.304
REMARK SMILES CCCCCCCCCCCC(=O)[O-]
REMARK SMILES IDX 7 1 8 2 9 3 10 4 11 5 12 6 13 7 14 8 6 9 5 10 4 11 3 12 2 13
REMARK SMILES IDX 1 14
REMARK H PARENT
REMARK Flexibility Score: inf
ROOT
ATOM      1  C   UNL     1     -31.243  66.011  85.597  1.00  0.00     0.000 C 
ENDROOT
BRANCH   1   2
ATOM      2  C   UNL     1     -30.131  65.105  86.144  1.00  0.00     0.000 C 
BRANCH   2   3
ATOM      3  C   UNL     1     -30.025  63.764  85.395  1.00  0.00     0.000 C 
BRANCH   3   4
ATOM      4  C   UNL     1     -28.973  63.728  84.273  1.00  0.00     0.006 C 
BRANCH   4   5
ATOM      5  C   UNL     1     -29.537  64.149  82.910  1.00  0.00     0.053 C 
BRANCH   5   6
ATOM      6  C   UNL     1     -28.858  65.391  82.424  1.00  0.00     0.041 C 
ATOM      7  O   UNL     1     -27.882  65.310  81.633  1.00  0.00    -0.550 OA
ATOM      8  O   UNL     1     -29.335  66.639  82.804  1.00  0.00    -0.550 OA
ENDBRANCH   5   6
ENDBRANCH   4   5
ENDBRANCH   3   4
ENDBRANCH   2   3
ENDBRANCH   1   2
BRANCH   1   9
ATOM      9  C   UNL     1     -31.365  67.295  86.428  1.00  0.00     0.000 C 
BRANCH   9  10
ATOM     10  C   UNL     1     -30.455  68.398  85.876  1.00  0.00    -0.000 C 
BRANCH  10  11
ATOM     11  C   UNL     1     -29.475  68.892  86.950  1.00  0.00    -0.000 C 
BRANCH  11  12
ATOM     12  C   UNL     1     -28.086  68.245  86.828  1.00  0.00    -0.000 C 
BRANCH  12  13
ATOM     13  C   UNL     1     -27.668  68.015  85.368  1.00  0.00    -0.003 C 
ATOM     14  C   UNL     1     -26.898  66.706  85.218  1.00  0.00     0.004 C 
ENDBRANCH  12  13
ENDBRANCH  11  12
ENDBRANCH  10  11
ENDBRANCH   9  10
ENDBRANCH   1   9
TORSDOF 10
ENDMDL
MODEL 8
REMARK VINA RESULT:    -4.586      1.307      4.261
REMARK INTER + INTRA:          -8.571
REMARK INTER:                  -7.480
REMARK INTRA:                  -1.092
REMARK UNBOUND:                -1.304
REMARK SMILES CCCCCCCCCCCC(=O)[O-]
REMARK SMILES IDX 7 1 8 2 9 3 10 4 11 5 12 6 13 7 14 8 6 9 5 10 4 11 3 12 2 13
REMARK SMILES IDX 1 14
REMARK H PARENT
REMARK Flexibility Score: inf
ROOT
ATOM      1  C   UNL     1     -28.205  65.186  85.293  1.00  0.00     0.000 C 
ENDROOT
BRANCH   1   2
ATOM      2  C   UNL     1     -29.208  65.294  86.451  1.00  0.00     0.000 C 
BRANCH   2   3
ATOM      3  C   UNL     1     -30.674  65.233  85.984  1.00  0.00     0.000 C 
BRANCH   3   4
ATOM      4  C   UNL     1     -31.281  66.585  85.569  1.00  0.00     0.006 C 
BRANCH   4   5
ATOM      5  C   UNL     1     -31.460  67.547  86.749  1.00  0.00     0.053 C 
BRANCH   5   6
ATOM      6  C   UNL     1     -30.538  68.718  86.614  1.00  0.00     0.041 C 
ATOM      7  O   UNL     1     -30.918  69.757  86.013  1.00  0.00    -0.550 OA
ATOM      8  O   UNL     1     -29.277  68.682  87.196  1.00  0.00    -0.550 OA
ENDBRANCH   5   6
ENDBRANCH   4   5
ENDBRANCH   3   4
ENDBRANCH   2   3
ENDBRANCH   1   2
BRANCH   1   9
ATOM      9  C   UNL     1     -27.256  66.391  85.273  1.00  0.00     0.000 C 
BRANCH   9  10
ATOM     10  C   UNL     1     -27.811  67.517  84.394  1.00  0.00    -0.000 C 
BRANCH  10  11
ATOM     11  C   UNL     1     -28.795  66.966  83.350  1.00  0.00    -0.000 C 
BRANCH  11  12
ATOM     12  C   UNL     1     -28.137  66.734  81.981  1.00  0.00    -0.000 C 
BRANCH  12  13
ATOM     13  C   UNL     1     -28.159  65.258  81.556  1.00  0.00    -0.003 C 
ATOM     14  C   UNL     1     -29.430  64.567  82.040  1.00  0.00     0.004 C 
ENDBRANCH  12  13
ENDBRANCH  11  12
ENDBRANCH  10  11
ENDBRANCH   9  10
ENDBRANCH   1   9
TORSDOF 10
ENDMDL
MODEL 9
REMARK VINA RESULT:    -4.534      2.476      3.797
REMARK INTER + INTRA:          -8.488
REMARK INTER:                  -7.336
REMARK INTRA:                  -1.152
REMARK UNBOUND:                -1.304
REMARK SMILES CCCCCCCCCCCC(=O)[O-]
REMARK SMILES IDX 7 1 8 2 9 3 10 4 11 5 12 6 13 7 14 8 6 9 5 10 4 11 3 12 2 13
REMARK SMILES IDX 1 14
REMARK H PARENT
REMARK Flexibility Score: inf
ROOT
ATOM      1  C   UNL     1     -27.613  67.496  84.261  1.00  0.00     0.000 C 
ENDROOT
BRANCH   1   2
ATOM      2  C   UNL     1     -28.636  67.102  83.185  1.00  0.00     0.000 C 
BRANCH   2   3
ATOM      3  C   UNL     1     -28.247  65.819  82.428  1.00  0.00     0.000 C 
BRANCH   3   4
ATOM      4  C   UNL     1     -29.304  64.701  82.457  1.00  0.00     0.006 C 
BRANCH   4   5
ATOM      5  C   UNL     1     -30.152  64.714  83.735  1.00  0.00     0.053 C 
BRANCH   5   6
ATOM      6  C   UNL     1     -29.687  63.651  84.682  1.00  0.00     0.041 C 
ATOM      7  O   UNL     1     -28.713  62.915  84.377  1.00  0.00    -0.550 OA
ATOM      8  O   UNL     1     -30.298  63.508  85.921  1.00  0.00    -0.550 OA
ENDBRANCH   5   6
ENDBRANCH   4   5
ENDBRANCH   3   4
ENDBRANCH   2   3
ENDBRANCH   1   2
BRANCH   1   9
ATOM      9  C   UNL     1     -27.468  66.389  85.314  1.00  0.00     0.000 C 
BRANCH   9  10
ATOM     10  C   UNL     1     -28.384  66.647  86.515  1.00  0.00    -0.000 C 
BRANCH  10  11
ATOM     11  C   UNL     1     -28.537  68.153  86.777  1.00  0.00    -0.000 C 
BRANCH  11  12
ATOM     12  C   UNL     1     -29.967  68.656  86.527  1.00  0.00    -0.000 C 
BRANCH  12  13
ATOM     13  C   UNL     1     -30.908  67.545  86.039  1.00  0.00    -0.003 C 
ATOM     14  C   UNL     1     -32.148  67.449  86.922  1.00  0.00     0.004 C 
ENDBRANCH  12  13
ENDBRANCH  11  12
ENDBRANCH  10  11
ENDBRANCH   9  10
ENDBRANCH   1   9
TORSDOF 10
ENDMDL
