MODEL 1
REMARK VINA RESULT:    -5.640      0.000      0.000
REMARK INTER + INTRA:         -12.384
REMARK INTER:                 -10.257
REMARK INTRA:                  -2.127
REMARK UNBOUND:                -2.127
REMARK SMILES CCCCCCCCCCCCCC[C@H](C)C(=O)[O-]
REMARK SMILES IDX 9 1 10 2 11 3 12 4 13 5 14 6 15 7 16 8 17 9 18 10 19 11 8 12
REMARK SMILES IDX 7 13 6 14 5 15 4 16 3 17 2 18 1 19
REMARK H PARENT
REMARK Flexibility Score: inf
ROOT
ATOM      1  C   UNL     1      65.068   2.894  18.888  1.00  0.00     0.000 C 
ENDROOT
BRANCH   1   2
ATOM      2  C   UNL     1      64.997   4.426  18.795  1.00  0.00     0.000 C 
BRANCH   2   3
ATOM      3  C   UNL     1      64.781   5.090  20.167  1.00  0.00     0.000 C 
BRANCH   3   4
ATOM      4  C   UNL     1      66.015   5.872  20.646  1.00  0.00     0.000 C 
BRANCH   4   5
ATOM      5  C   UNL     1      66.925   5.043  21.565  1.00  0.00     0.001 C 
BRANCH   5   6
ATOM      6  C   UNL     1      66.767   5.478  23.031  1.00  0.00     0.009 C 
BRANCH   6   7
ATOM      7  C   UNL     1      67.616   4.617  23.989  1.00  0.00     0.032 C 
ATOM      8  C   UNL     1      68.437   3.590  23.205  1.00  0.00     0.014 C 
BRANCH   7   9
ATOM      9  C   UNL     1      66.754   3.912  25.002  1.00  0.00     0.044 C 
ATOM     10  O   UNL     1      66.006   2.964  24.644  1.00  0.00    -0.550 OA
ATOM     11  O   UNL     1      66.772   4.304  26.335  1.00  0.00    -0.550 OA
ENDBRANCH   7   9
ENDBRANCH   6   7
ENDBRANCH   5   6
ENDBRANCH   4   5
ENDBRANCH   3   4
ENDBRANCH   2   3
ENDBRANCH   1   2
BRANCH   1  12
ATOM     12  C   UNL     1      64.671   2.366  20.278  1.00  0.00     0.000 C 
BRANCH  12  13
ATOM     13  C   UNL     1      63.882   1.048  20.205  1.00  0.00    -0.000 C 
BRANCH  13  14
ATOM     14  C   UNL     1      62.692   1.123  19.232  1.00  0.00    -0.000 C 
BRANCH  14  15
ATOM     15  C   UNL     1      61.416   1.656  19.916  1.00  0.00    -0.000 C 
BRANCH  15  16
ATOM     16  C   UNL     1      61.160   3.152  19.664  1.00  0.00    -0.000 C 
BRANCH  16  17
ATOM     17  C   UNL     1      60.931   3.945  20.961  1.00  0.00    -0.000 C 
BRANCH  17  18
ATOM     18  C   UNL     1      61.454   3.205  22.203  1.00  0.00    -0.003 C 
ATOM     19  C   UNL     1      62.550   3.978  22.934  1.00  0.00     0.004 C 
ENDBRANCH  17  18
ENDBRANCH  16  17
ENDBRANCH  15  16
ENDBRANCH  14  15
ENDBRANCH  13  14
ENDBRANCH  12  13
ENDBRANCH   1  12
TORSDOF 14
ENDMDL
MODEL 2
REMARK VINA RESULT:    -5.434      3.203      4.865
REMARK INTER + INTRA:         -12.008
REMARK INTER:                 -10.190
REMARK INTRA:                  -1.818
REMARK UNBOUND:                -2.127
REMARK SMILES CCCCCCCCCCCCCC[C@H](C)C(=O)[O-]
REMARK SMILES IDX 9 1 10 2 11 3 12 4 13 5 14 6 15 7 16 8 17 9 18 10 19 11 8 12
REMARK SMILES IDX 7 13 6 14 5 15 4 16 3 17 2 18 1 19
REMARK H PARENT
REMARK Flexibility Score: inf
ROOT
ATOM      1  C   UNL     1      63.903   4.436  22.342  1.00  0.00     0.000 C 
ENDROOT
BRANCH   1   2
ATOM      2  C   UNL     1      64.915   4.396  23.498  1.00  0.00     0.000 C 
BRANCH   2   3
ATOM      3  C   UNL     1      66.230   5.118  23.155  1.00  0.00     0.000 C 
BRANCH   3   4
ATOM      4  C   UNL     1      66.794   4.699  21.787  1.00  0.00     0.000 C 
BRANCH   4   5
ATOM      5  C   UNL     1      67.376   5.881  20.998  1.00  0.00     0.001 C 
BRANCH   5   6
ATOM      6  C   UNL     1      66.270   6.868  20.591  1.00  0.00     0.009 C 
BRANCH   6   7
ATOM      7  C   UNL     1      66.831   8.262  20.241  1.00  0.00     0.032 C 
ATOM      8  C   UNL     1      67.256   9.006  21.510  1.00  0.00     0.014 C 
BRANCH   7   9
ATOM      9  C   UNL     1      65.823   9.084  19.483  1.00  0.00     0.044 C 
ATOM     10  O   UNL     1      64.609   8.752  19.482  1.00  0.00    -0.550 OA
ATOM     11  O   UNL     1      66.226  10.211  18.775  1.00  0.00    -0.550 OA
ENDBRANCH   7   9
ENDBRANCH   6   7
ENDBRANCH   5   6
ENDBRANCH   4   5
ENDBRANCH   3   4
ENDBRANCH   2   3
ENDBRANCH   1   2
BRANCH   1  12
ATOM     12  C   UNL     1      62.472   4.099  22.795  1.00  0.00     0.000 C 
BRANCH  12  13
ATOM     13  C   UNL     1      61.420   4.432  21.724  1.00  0.00    -0.000 C 
BRANCH  13  14
ATOM     14  C   UNL     1      60.881   3.178  21.013  1.00  0.00    -0.000 C 
BRANCH  14  15
ATOM     15  C   UNL     1      61.603   2.915  19.675  1.00  0.00    -0.000 C 
BRANCH  15  16
ATOM     16  C   UNL     1      62.442   1.625  19.670  1.00  0.00    -0.000 C 
BRANCH  16  17
ATOM     17  C   UNL     1      63.948   1.893  19.531  1.00  0.00    -0.000 C 
BRANCH  17  18
ATOM     18  C   UNL     1      64.248   3.295  18.977  1.00  0.00    -0.003 C 
ATOM     19  C   UNL     1      65.667   3.423  18.427  1.00  0.00     0.004 C 
ENDBRANCH  17  18
ENDBRANCH  16  17
ENDBRANCH  15  16
ENDBRANCH  14  15
ENDBRANCH  13  14
ENDBRANCH  12  13
ENDBRANCH   1  12
TORSDOF 14
ENDMDL
MODEL 3
REMARK VINA RESULT:    -5.421     11.337     14.168
REMARK INTER + INTRA:         -11.984
REMARK INTER:                  -9.303
REMARK INTRA:                  -2.681
REMARK UNBOUND:                -2.127
REMARK SMILES CCCCCCCCCCCCCC[C@H](C)C(=O)[O-]
REMARK SMILES IDX 9 1 10 2 11 3 12 4 13 5 14 6 15 7 16 8 17 9 18 10 19 11 8 12
REMARK SMILES IDX 7 13 6 14 5 15 4 16 3 17 2 18 1 19
REMARK H PARENT
REMARK Flexibility Score: inf
ROOT
ATOM      1  C   UNL     1      75.358   8.532  25.863  1.00  0.00     0.000 C 
ENDROOT
BRANCH   1   2
ATOM      2  C   UNL     1      74.762   8.104  24.512  1.00  0.00     0.000 C 
BRANCH   2   3
ATOM      3  C   UNL     1      75.028   9.132  23.399  1.00  0.00     0.000 C 
BRANCH   3   4
ATOM      4  C   UNL     1      75.606   8.490  22.127  1.00  0.00     0.000 C 
BRANCH   4   5
ATOM      5  C   UNL     1      74.899   7.179  21.750  1.00  0.00     0.001 C 
BRANCH   5   6
ATOM      6  C   UNL     1      75.796   6.311  20.852  1.00  0.00     0.009 C 
BRANCH   6   7
ATOM      7  C   UNL     1      76.967   5.680  21.634  1.00  0.00     0.032 C 
ATOM      8  C   UNL     1      78.290   5.906  20.897  1.00  0.00     0.014 C 
BRANCH   7   9
ATOM      9  C   UNL     1      76.750   4.206  21.849  1.00  0.00     0.044 C 
ATOM     10  O   UNL     1      75.806   3.806  22.579  1.00  0.00    -0.550 OA
ATOM     11  O   UNL     1      77.593   3.277  21.249  1.00  0.00    -0.550 OA
ENDBRANCH   7   9
ENDBRANCH   6   7
ENDBRANCH   5   6
ENDBRANCH   4   5
ENDBRANCH   3   4
ENDBRANCH   2   3
ENDBRANCH   1   2
BRANCH   1  12
ATOM     12  C   UNL     1      76.686   7.820  26.176  1.00  0.00     0.000 C 
BRANCH  12  13
ATOM     13  C   UNL     1      77.044   6.753  25.129  1.00  0.00    -0.000 C 
BRANCH  13  14
ATOM     14  C   UNL     1      78.513   6.837  24.676  1.00  0.00    -0.000 C 
BRANCH  14  15
ATOM     15  C   UNL     1      78.806   8.135  23.894  1.00  0.00    -0.000 C 
BRANCH  15  16
ATOM     16  C   UNL     1      79.823   9.057  24.589  1.00  0.00    -0.000 C 
BRANCH  16  17
ATOM     17  C   UNL     1      79.511  10.548  24.388  1.00  0.00    -0.000 C 
BRANCH  17  18
ATOM     18  C   UNL     1      78.002  10.826  24.293  1.00  0.00    -0.003 C 
ATOM     19  C   UNL     1      77.442  11.490  25.550  1.00  0.00     0.004 C 
ENDBRANCH  17  18
ENDBRANCH  16  17
ENDBRANCH  15  16
ENDBRANCH  14  15
ENDBRANCH  13  14
ENDBRANCH  12  13
ENDBRANCH   1  12
TORSDOF 14
ENDMDL
MODEL 4
REMARK VINA RESULT:    -5.359      1.651      2.243
REMARK INTER + INTRA:         -11.873
REMARK INTER:                  -9.513
REMARK INTRA:                  -2.360
REMARK UNBOUND:                -2.127
REMARK SMILES CCCCCCCCCCCCCC[C@H](C)C(=O)[O-]
REMARK SMILES IDX 9 1 10 2 11 3 12 4 13 5 14 6 15 7 16 8 17 9 18 10 19 11 8 12
REMARK SMILES IDX 7 13 6 14 5 15 4 16 3 17 2 18 1 19
REMARK H PARENT
REMARK Flexibility Score: inf
ROOT
ATOM      1  C   UNL     1      64.507   2.909  18.768  1.00  0.00     0.000 C 
ENDROOT
BRANCH   1   2
ATOM      2  C   UNL     1      65.642   3.785  19.321  1.00  0.00     0.000 C 
BRANCH   2   3
ATOM      3  C   UNL     1      65.120   4.943  20.191  1.00  0.00     0.000 C 
BRANCH   3   4
ATOM      4  C   UNL     1      66.232   5.924  20.598  1.00  0.00     0.000 C 
BRANCH   4   5
ATOM      5  C   UNL     1      66.616   5.805  22.080  1.00  0.00     0.001 C 
BRANCH   5   6
ATOM      6  C   UNL     1      67.467   4.548  22.328  1.00  0.00     0.009 C 
BRANCH   6   7
ATOM      7  C   UNL     1      67.804   4.358  23.821  1.00  0.00     0.032 C 
ATOM      8  C   UNL     1      66.817   5.132  24.699  1.00  0.00     0.014 C 
BRANCH   7   9
ATOM      9  C   UNL     1      69.210   4.800  24.126  1.00  0.00     0.044 C 
ATOM     10  O   UNL     1      69.525   5.144  25.295  1.00  0.00    -0.550 OA
ATOM     11  O   UNL     1      70.168   4.839  23.119  1.00  0.00    -0.550 OA
ENDBRANCH   7   9
ENDBRANCH   6   7
ENDBRANCH   5   6
ENDBRANCH   4   5
ENDBRANCH   3   4
ENDBRANCH   2   3
ENDBRANCH   1   2
BRANCH   1  12
ATOM     12  C   UNL     1      64.102   1.783  19.736  1.00  0.00     0.000 C 
BRANCH  12  13
ATOM     13  C   UNL     1      62.578   1.602  19.825  1.00  0.00    -0.000 C 
BRANCH  13  14
ATOM     14  C   UNL     1      61.810   2.911  19.571  1.00  0.00    -0.000 C 
BRANCH  14  15
ATOM     15  C   UNL     1      60.986   3.349  20.800  1.00  0.00    -0.000 C 
BRANCH  15  16
ATOM     16  C   UNL     1      61.749   4.287  21.752  1.00  0.00    -0.000 C 
BRANCH  16  17
ATOM     17  C   UNL     1      62.286   3.565  22.997  1.00  0.00    -0.000 C 
BRANCH  17  18
ATOM     18  C   UNL     1      63.819   3.625  23.097  1.00  0.00    -0.003 C 
ATOM     19  C   UNL     1      64.445   2.268  23.415  1.00  0.00     0.004 C 
ENDBRANCH  17  18
ENDBRANCH  16  17
ENDBRANCH  15  16
ENDBRANCH  14  15
ENDBRANCH  13  14
ENDBRANCH  12  13
ENDBRANCH   1  12
TORSDOF 14
ENDMDL
MODEL 5
REMARK VINA RESULT:    -5.351      2.057      3.692
REMARK INTER + INTRA:         -11.857
REMARK INTER:                  -9.596
REMARK INTRA:                  -2.261
REMARK UNBOUND:                -2.127
REMARK SMILES CCCCCCCCCCCCCC[C@H](C)C(=O)[O-]
REMARK SMILES IDX 9 1 10 2 11 3 12 4 13 5 14 6 15 7 16 8 17 9 18 10 19 11 8 12
REMARK SMILES IDX 7 13 6 14 5 15 4 16 3 17 2 18 1 19
REMARK H PARENT
REMARK Flexibility Score: inf
ROOT
ATOM      1  C   UNL     1      61.802   4.771  22.122  1.00  0.00     0.000 C 
ENDROOT
BRANCH   1   2
ATOM      2  C   UNL     1      62.686   3.981  23.100  1.00  0.00     0.000 C 
BRANCH   2   3
ATOM      3  C   UNL     1      64.186   4.243  22.880  1.00  0.00     0.000 C 
BRANCH   3   4
ATOM      4  C   UNL     1      65.053   3.011  23.186  1.00  0.00     0.000 C 
BRANCH   4   5
ATOM      5  C   UNL     1      66.553   3.338  23.241  1.00  0.00     0.001 C 
BRANCH   5   6
ATOM      6  C   UNL     1      66.971   4.199  22.038  1.00  0.00     0.009 C 
BRANCH   6   7
ATOM      7  C   UNL     1      68.445   4.645  22.125  1.00  0.00     0.032 C 
ATOM      8  C   UNL     1      69.166   3.904  23.254  1.00  0.00     0.014 C 
BRANCH   7   9
ATOM      9  C   UNL     1      68.556   6.131  22.340  1.00  0.00     0.044 C 
ATOM     10  O   UNL     1      67.611   6.763  22.882  1.00  0.00    -0.550 OA
ATOM     11  O   UNL     1      69.697   6.816  21.939  1.00  0.00    -0.550 OA
ENDBRANCH   7   9
ENDBRANCH   6   7
ENDBRANCH   5   6
ENDBRANCH   4   5
ENDBRANCH   3   4
ENDBRANCH   2   3
ENDBRANCH   1   2
BRANCH   1  12
ATOM     12  C   UNL     1      60.977   3.857  21.199  1.00  0.00     0.000 C 
BRANCH  12  13
ATOM     13  C   UNL     1      61.141   2.368  21.545  1.00  0.00    -0.000 C 
BRANCH  13  14
ATOM     14  C   UNL     1      60.883   1.448  20.339  1.00  0.00    -0.000 C 
BRANCH  14  15
ATOM     15  C   UNL     1      62.155   1.233  19.491  1.00  0.00    -0.000 C 
BRANCH  15  16
ATOM     16  C   UNL     1      63.455   1.249  20.314  1.00  0.00    -0.000 C 
BRANCH  16  17
ATOM     17  C   UNL     1      64.552   2.118  19.680  1.00  0.00    -0.000 C 
BRANCH  17  18
ATOM     18  C   UNL     1      64.022   3.477  19.198  1.00  0.00    -0.003 C 
ATOM     19  C   UNL     1      65.050   4.260  18.384  1.00  0.00     0.004 C 
ENDBRANCH  17  18
ENDBRANCH  16  17
ENDBRANCH  15  16
ENDBRANCH  14  15
ENDBRANCH  13  14
ENDBRANCH  12  13
ENDBRANCH   1  12
TORSDOF 14
ENDMDL
MODEL 6
REMARK VINA RESULT:    -5.315      3.257      4.354
REMARK INTER + INTRA:         -11.791
REMARK INTER:                  -9.635
REMARK INTRA:                  -2.156
REMARK UNBOUND:                -2.127
REMARK SMILES CCCCCCCCCCCCCC[C@H](C)C(=O)[O-]
REMARK SMILES IDX 9 1 10 2 11 3 12 4 13 5 14 6 15 7 16 8 17 9 18 10 19 11 8 12
REMARK SMILES IDX 7 13 6 14 5 15 4 16 3 17 2 18 1 19
REMARK H PARENT
REMARK Flexibility Score: inf
ROOT
ATOM      1  C   UNL     1      63.837   1.472  19.307  1.00  0.00     0.000 C 
ENDROOT
BRANCH   1   2
ATOM      2  C   UNL     1      63.875   2.988  19.060  1.00  0.00     0.000 C 
BRANCH   2   3
ATOM      3  C   UNL     1      65.288   3.575  19.223  1.00  0.00     0.000 C 
BRANCH   3   4
ATOM      4  C   UNL     1      65.298   5.112  19.189  1.00  0.00     0.000 C 
BRANCH   4   5
ATOM      5  C   UNL     1      65.544   5.736  20.571  1.00  0.00     0.001 C 
BRANCH   5   6
ATOM      6  C   UNL     1      65.247   7.245  20.553  1.00  0.00     0.009 C 
BRANCH   6   7
ATOM      7  C   UNL     1      66.492   8.079  20.186  1.00  0.00     0.032 C 
ATOM      8  C   UNL     1      67.529   8.021  21.311  1.00  0.00     0.014 C 
BRANCH   7   9
ATOM      9  C   UNL     1      66.127   9.512  19.904  1.00  0.00     0.044 C 
ATOM     10  O   UNL     1      65.632   9.831  18.791  1.00  0.00    -0.550 OA
ATOM     11  O   UNL     1      66.340  10.493  20.866  1.00  0.00    -0.550 OA
ENDBRANCH   7   9
ENDBRANCH   6   7
ENDBRANCH   5   6
ENDBRANCH   4   5
ENDBRANCH   3   4
ENDBRANCH   2   3
ENDBRANCH   1   2
BRANCH   1  12
ATOM     12  C   UNL     1      62.527   1.013  19.972  1.00  0.00     0.000 C 
BRANCH  12  13
ATOM     13  C   UNL     1      61.413   2.068  19.869  1.00  0.00    -0.000 C 
BRANCH  13  14
ATOM     14  C   UNL     1      60.930   2.556  21.246  1.00  0.00    -0.000 C 
BRANCH  14  15
ATOM     15  C   UNL     1      61.191   4.063  21.451  1.00  0.00    -0.000 C 
BRANCH  15  16
ATOM     16  C   UNL     1      62.435   4.362  22.306  1.00  0.00    -0.000 C 
BRANCH  16  17
ATOM     17  C   UNL     1      63.001   3.110  22.995  1.00  0.00    -0.000 C 
BRANCH  17  18
ATOM     18  C   UNL     1      64.511   2.943  22.764  1.00  0.00    -0.003 C 
ATOM     19  C   UNL     1      65.035   1.588  23.237  1.00  0.00     0.004 C 
ENDBRANCH  17  18
ENDBRANCH  16  17
ENDBRANCH  15  16
ENDBRANCH  14  15
ENDBRANCH  13  14
ENDBRANCH  12  13
ENDBRANCH   1  12
TORSDOF 14
ENDMDL
MODEL 7
REMARK VINA RESULT:    -5.238      9.072     13.171
REMARK INTER + INTRA:         -11.652
REMARK INTER:                  -9.286
REMARK INTRA:                  -2.366
REMARK UNBOUND:                -2.127
REMARK SMILES CCCCCCCCCCCCCC[C@H](C)C(=O)[O-]
REMARK SMILES IDX 9 1 10 2 11 3 12 4 13 5 14 6 15 7 16 8 17 9 18 10 19 11 8 12
REMARK SMILES IDX 7 13 6 14 5 15 4 16 3 17 2 18 1 19
REMARK H PARENT
REMARK Flexibility Score: inf
ROOT
ATOM      1  C   UNL     1      78.225   6.155  21.337  1.00  0.00     0.000 C 
ENDROOT
BRANCH   1   2
ATOM      2  C   UNL     1      79.250   5.027  21.537  1.00  0.00     0.000 C 
BRANCH   2   3
ATOM      3  C   UNL     1      78.634   3.630  21.340  1.00  0.00     0.000 C 
BRANCH   3   4
ATOM      4  C   UNL     1      77.700   3.228  22.494  1.00  0.00     0.000 C 
BRANCH   4   5
ATOM      5  C   UNL     1      76.268   2.934  22.024  1.00  0.00     0.001 C 
BRANCH   5   6
ATOM      6  C   UNL     1      75.342   4.129  22.306  1.00  0.00     0.009 C 
BRANCH   6   7
ATOM      7  C   UNL     1      74.546   4.558  21.056  1.00  0.00     0.032 C 
ATOM      8  C   UNL     1      74.757   6.047  20.768  1.00  0.00     0.014 C 
BRANCH   7   9
ATOM      9  C   UNL     1      73.076   4.274  21.218  1.00  0.00     0.044 C 
ATOM     10  O   UNL     1      72.352   5.058  21.887  1.00  0.00    -0.550 OA
ATOM     11  O   UNL     1      72.510   3.145  20.638  1.00  0.00    -0.550 OA
ENDBRANCH   7   9
ENDBRANCH   6   7
ENDBRANCH   5   6
ENDBRANCH   4   5
ENDBRANCH   3   4
ENDBRANCH   2   3
ENDBRANCH   1   2
BRANCH   1  12
ATOM     12  C   UNL     1      78.197   7.145  22.515  1.00  0.00     0.000 C 
BRANCH  12  13
ATOM     13  C   UNL     1      78.477   6.463  23.864  1.00  0.00    -0.000 C 
BRANCH  13  14
ATOM     14  C   UNL     1      77.331   6.654  24.874  1.00  0.00    -0.000 C 
BRANCH  14  15
ATOM     15  C   UNL     1      76.024   7.107  24.189  1.00  0.00    -0.000 C 
BRANCH  15  16
ATOM     16  C   UNL     1      75.237   8.155  24.995  1.00  0.00    -0.000 C 
BRANCH  16  17
ATOM     17  C   UNL     1      76.128   9.286  25.533  1.00  0.00    -0.000 C 
BRANCH  17  18
ATOM     18  C   UNL     1      76.524  10.294  24.442  1.00  0.00    -0.003 C 
ATOM     19  C   UNL     1      78.034  10.502  24.348  1.00  0.00     0.004 C 
ENDBRANCH  17  18
ENDBRANCH  16  17
ENDBRANCH  15  16
ENDBRANCH  14  15
ENDBRANCH  13  14
ENDBRANCH  12  13
ENDBRANCH   1  12
TORSDOF 14
ENDMDL
MODEL 8
REMARK VINA RESULT:    -5.202      9.056     12.054
REMARK INTER + INTRA:         -11.586
REMARK INTER:                  -9.176
REMARK INTRA:                  -2.410
REMARK UNBOUND:                -2.127
REMARK SMILES CCCCCCCCCCCCCC[C@H](C)C(=O)[O-]
REMARK SMILES IDX 9 1 10 2 11 3 12 4 13 5 14 6 15 7 16 8 17 9 18 10 19 11 8 12
REMARK SMILES IDX 7 13 6 14 5 15 4 16 3 17 2 18 1 19
REMARK H PARENT
REMARK Flexibility Score: inf
ROOT
ATOM      1  C   UNL     1      77.041   3.038  21.372  1.00  0.00     0.000 C 
ENDROOT
BRANCH   1   2
ATOM      2  C   UNL     1      78.514   3.214  21.776  1.00  0.00     0.000 C 
BRANCH   2   3
ATOM      3  C   UNL     1      78.794   4.596  22.392  1.00  0.00     0.000 C 
BRANCH   3   4
ATOM      4  C   UNL     1      78.513   5.748  21.413  1.00  0.00     0.000 C 
BRANCH   4   5
ATOM      5  C   UNL     1      77.826   6.945  22.086  1.00  0.00     0.001 C 
BRANCH   5   6
ATOM      6  C   UNL     1      77.219   6.541  23.440  1.00  0.00     0.009 C 
BRANCH   6   7
ATOM      7  C   UNL     1      76.595   7.741  24.181  1.00  0.00     0.032 C 
ATOM      8  C   UNL     1      76.611   8.989  23.294  1.00  0.00     0.014 C 
BRANCH   7   9
ATOM      9  C   UNL     1      77.317   8.025  25.471  1.00  0.00     0.044 C 
ATOM     10  O   UNL     1      76.677   8.086  26.554  1.00  0.00    -0.550 OA
ATOM     11  O   UNL     1      78.693   8.226  25.476  1.00  0.00    -0.550 OA
ENDBRANCH   7   9
ENDBRANCH   6   7
ENDBRANCH   5   6
ENDBRANCH   4   5
ENDBRANCH   3   4
ENDBRANCH   2   3
ENDBRANCH   1   2
BRANCH   1  12
ATOM     12  C   UNL     1      76.075   3.231  22.554  1.00  0.00     0.000 C 
BRANCH  12  13
ATOM     13  C   UNL     1      74.854   4.088  22.183  1.00  0.00    -0.000 C 
BRANCH  13  14
ATOM     14  C   UNL     1      74.750   4.347  20.670  1.00  0.00    -0.000 C 
BRANCH  14  15
ATOM     15  C   UNL     1      74.759   5.854  20.338  1.00  0.00    -0.000 C 
BRANCH  15  16
ATOM     16  C   UNL     1      74.144   6.733  21.441  1.00  0.00    -0.000 C 
BRANCH  16  17
ATOM     17  C   UNL     1      73.254   7.855  20.884  1.00  0.00    -0.000 C 
BRANCH  17  18
ATOM     18  C   UNL     1      71.828   7.375  20.572  1.00  0.00    -0.003 C 
ATOM     19  C   UNL     1      71.512   7.387  19.078  1.00  0.00     0.004 C 
ENDBRANCH  17  18
ENDBRANCH  16  17
ENDBRANCH  15  16
ENDBRANCH  14  15
ENDBRANCH  13  14
ENDBRANCH  12  13
ENDBRANCH   1  12
TORSDOF 14
ENDMDL
