MODEL 1
REMARK VINA RESULT:    -4.451      0.000      0.000
REMARK INTER + INTRA:          -5.439
REMARK INTER:                  -5.101
REMARK INTRA:                  -0.338
REMARK UNBOUND:                -0.338
REMARK SMILES COc1ccc(C(C)=O)c(O)c1
REMARK SMILES IDX 6 1 10 2 12 3 3 4 4 5 5 6 7 7 8 8 9 9 11 10 2 12 1 13
REMARK H PARENT 11 11
REMARK Flexibility Score: inf
ROOT
ATOM      1  C   UNL     1      67.933  51.896  18.780  1.00  0.00     0.059 A 
ATOM      2  C   UNL     1      68.973  51.849  19.737  1.00  0.00     0.130 A 
ATOM      3  C   UNL     1      70.223  52.416  19.444  1.00  0.00     0.093 A 
ATOM      4  C   UNL     1      70.462  53.020  18.197  1.00  0.00     0.122 A 
ATOM      5  C   UNL     1      69.437  53.049  17.248  1.00  0.00     0.047 A 
ATOM      6  C   UNL     1      68.190  52.493  17.532  1.00  0.00     0.019 A 
ENDROOT
BRANCH   1   7
ATOM      7  C   UNL     1      66.582  51.330  19.038  1.00  0.00     0.163 C 
ATOM      8  C   UNL     1      65.324  52.013  18.594  1.00  0.00     0.093 C 
ATOM      9  O   UNL     1      66.479  50.233  19.653  1.00  0.00    -0.294 OA
ENDBRANCH   1   7
BRANCH   2  10
ATOM     10  O   UNL     1      68.782  51.222  20.969  1.00  0.00    -0.507 OA
ATOM     11  H   UNL     1      68.024  51.484  21.589  1.00  0.00     0.293 HD
ENDBRANCH   2  10
BRANCH   4  12
ATOM     12  O   UNL     1      71.696  53.596  17.863  1.00  0.00    -0.497 OA
ATOM     13  C   UNL     1      71.990  54.197  16.605  1.00  0.00     0.278 C 
ENDBRANCH   4  12
TORSDOF 3
ENDMDL
MODEL 2
REMARK VINA RESULT:    -4.291     11.335     14.321
REMARK INTER + INTRA:          -5.255
REMARK INTER:                  -4.912
REMARK INTRA:                  -0.344
REMARK UNBOUND:                -0.338
REMARK SMILES COc1ccc(C(C)=O)c(O)c1
REMARK SMILES IDX 6 1 10 2 12 3 3 4 4 5 5 6 7 7 8 8 9 9 11 10 2 12 1 13
REMARK H PARENT 11 11
REMARK Flexibility Score: inf
ROOT
ATOM      1  C   UNL     1      60.163  49.044  27.049  1.00  0.00     0.059 A 
ATOM      2  C   UNL     1      58.996  49.200  26.266  1.00  0.00     0.130 A 
ATOM      3  C   UNL     1      57.736  48.936  26.824  1.00  0.00     0.093 A 
ATOM      4  C   UNL     1      57.618  48.501  28.156  1.00  0.00     0.122 A 
ATOM      5  C   UNL     1      58.774  48.331  28.920  1.00  0.00     0.047 A 
ATOM      6  C   UNL     1      60.032  48.595  28.376  1.00  0.00     0.019 A 
ENDROOT
BRANCH   1   7
ATOM      7  C   UNL     1      61.525  49.325  26.520  1.00  0.00     0.163 C 
ATOM      8  C   UNL     1      62.668  48.370  26.690  1.00  0.00     0.093 C 
ATOM      9  O   UNL     1      61.738  50.404  25.903  1.00  0.00    -0.294 OA
ENDBRANCH   1   7
BRANCH   2  10
ATOM     10  O   UNL     1      59.080  49.592  24.930  1.00  0.00    -0.507 OA
ATOM     11  H   UNL     1      59.748  50.288  24.619  1.00  0.00     0.293 HD
ENDBRANCH   2  10
BRANCH   4  12
ATOM     12  O   UNL     1      56.379  48.225  28.752  1.00  0.00    -0.497 OA
ATOM     13  C   UNL     1      56.077  48.453  30.125  1.00  0.00     0.278 C 
ENDBRANCH   4  12
TORSDOF 3
ENDMDL
MODEL 3
REMARK VINA RESULT:    -4.096      1.087      4.721
REMARK INTER + INTRA:          -5.032
REMARK INTER:                  -4.729
REMARK INTRA:                  -0.303
REMARK UNBOUND:                -0.338
REMARK SMILES COc1ccc(C(C)=O)c(O)c1
REMARK SMILES IDX 6 1 10 2 12 3 3 4 4 5 5 6 7 7 8 8 9 9 11 10 2 12 1 13
REMARK H PARENT 11 11
REMARK Flexibility Score: inf
ROOT
ATOM      1  C   UNL     1      70.544  53.411  17.754  1.00  0.00     0.059 A 
ATOM      2  C   UNL     1      70.521  53.188  19.151  1.00  0.00     0.130 A 
ATOM      3  C   UNL     1      69.367  52.670  19.759  1.00  0.00     0.093 A 
ATOM      4  C   UNL     1      68.221  52.381  18.996  1.00  0.00     0.122 A 
ATOM      5  C   UNL     1      68.244  52.619  17.620  1.00  0.00     0.047 A 
ATOM      6  C   UNL     1      69.387  53.130  17.006  1.00  0.00     0.019 A 
ENDROOT
BRANCH   1   7
ATOM      7  C   UNL     1      71.743  53.941  17.049  1.00  0.00     0.163 C 
ATOM      8  C   UNL     1      71.653  54.651  15.733  1.00  0.00     0.093 C 
ATOM      9  O   UNL     1      72.882  53.793  17.570  1.00  0.00    -0.294 OA
ENDBRANCH   1   7
BRANCH   2  10
ATOM     10  O   UNL     1      71.626  53.500  19.943  1.00  0.00    -0.507 OA
ATOM     11  H   UNL     1      71.644  54.324  20.533  1.00  0.00     0.293 HD
ENDBRANCH   2  10
BRANCH   4  12
ATOM     12  O   UNL     1      67.048  51.864  19.564  1.00  0.00    -0.497 OA
ATOM     13  C   UNL     1      66.009  51.228  18.827  1.00  0.00     0.278 C 
ENDBRANCH   4  12
TORSDOF 3
ENDMDL
MODEL 4
REMARK VINA RESULT:    -4.044      1.756      1.861
REMARK INTER + INTRA:          -4.973
REMARK INTER:                  -4.658
REMARK INTRA:                  -0.315
REMARK UNBOUND:                -0.338
REMARK SMILES COc1ccc(C(C)=O)c(O)c1
REMARK SMILES IDX 6 1 10 2 12 3 3 4 4 5 5 6 7 7 8 8 9 9 11 10 2 12 1 13
REMARK H PARENT 11 11
REMARK Flexibility Score: inf
ROOT
ATOM      1  C   UNL     1      67.693  52.854  18.766  1.00  0.00     0.059 A 
ATOM      2  C   UNL     1      68.125  54.051  19.384  1.00  0.00     0.130 A 
ATOM      3  C   UNL     1      69.286  54.696  18.928  1.00  0.00     0.093 A 
ATOM      4  C   UNL     1      70.038  54.156  17.870  1.00  0.00     0.122 A 
ATOM      5  C   UNL     1      69.617  52.965  17.275  1.00  0.00     0.047 A 
ATOM      6  C   UNL     1      68.463  52.319  17.717  1.00  0.00     0.019 A 
ENDROOT
BRANCH   1   7
ATOM      7  C   UNL     1      66.463  52.134  19.191  1.00  0.00     0.163 C 
ATOM      8  C   UNL     1      66.302  50.653  19.033  1.00  0.00     0.093 C 
ATOM      9  O   UNL     1      65.513  52.785  19.707  1.00  0.00    -0.294 OA
ENDBRANCH   1   7
BRANCH   2  10
ATOM     10  O   UNL     1      67.425  54.592  20.462  1.00  0.00    -0.507 OA
ATOM     11  H   UNL     1      67.833  54.652  21.387  1.00  0.00     0.293 HD
ENDBRANCH   2  10
BRANCH   4  12
ATOM     12  O   UNL     1      71.204  54.768  17.386  1.00  0.00    -0.497 OA
ATOM     13  C   UNL     1      71.780  54.506  16.110  1.00  0.00     0.278 C 
ENDBRANCH   4  12
TORSDOF 3
ENDMDL
MODEL 5
REMARK VINA RESULT:    -4.007      2.484      3.745
REMARK INTER + INTRA:          -4.931
REMARK INTER:                  -4.592
REMARK INTRA:                  -0.338
REMARK UNBOUND:                -0.338
REMARK SMILES COc1ccc(C(C)=O)c(O)c1
REMARK SMILES IDX 6 1 10 2 12 3 3 4 4 5 5 6 7 7 8 8 9 9 11 10 2 12 1 13
REMARK H PARENT 11 11
REMARK Flexibility Score: inf
ROOT
ATOM      1  C   UNL     1      68.377  52.001  19.919  1.00  0.00     0.059 A 
ATOM      2  C   UNL     1      69.149  53.132  20.267  1.00  0.00     0.130 A 
ATOM      3  C   UNL     1      70.029  53.072  21.360  1.00  0.00     0.093 A 
ATOM      4  C   UNL     1      70.141  51.898  22.127  1.00  0.00     0.122 A 
ATOM      5  C   UNL     1      69.362  50.789  21.790  1.00  0.00     0.047 A 
ATOM      6  C   UNL     1      68.489  50.838  20.702  1.00  0.00     0.019 A 
ENDROOT
BRANCH   1   7
ATOM      7  C   UNL     1      67.441  51.997  18.762  1.00  0.00     0.163 C 
ATOM      8  C   UNL     1      66.030  51.505  18.870  1.00  0.00     0.093 C 
ATOM      9  O   UNL     1      67.840  52.422  17.643  1.00  0.00    -0.294 OA
ENDBRANCH   1   7
BRANCH   2  10
ATOM     10  O   UNL     1      69.034  54.324  19.552  1.00  0.00    -0.507 OA
ATOM     11  H   UNL     1      68.563  55.134  19.938  1.00  0.00     0.293 HD
ENDBRANCH   2  10
BRANCH   4  12
ATOM     12  O   UNL     1      71.005  51.796  23.226  1.00  0.00    -0.497 OA
ATOM     13  C   UNL     1      72.254  52.472  23.334  1.00  0.00     0.278 C 
ENDBRANCH   4  12
TORSDOF 3
ENDMDL
MODEL 6
REMARK VINA RESULT:    -3.848      2.999      4.123
REMARK INTER + INTRA:          -4.748
REMARK INTER:                  -4.431
REMARK INTRA:                  -0.318
REMARK UNBOUND:                -0.338
REMARK SMILES COc1ccc(C(C)=O)c(O)c1
REMARK SMILES IDX 6 1 10 2 12 3 3 4 4 5 5 6 7 7 8 8 9 9 11 10 2 12 1 13
REMARK H PARENT 11 11
REMARK Flexibility Score: inf
ROOT
ATOM      1  C   UNL     1      67.684  52.785  19.936  1.00  0.00     0.059 A 
ATOM      2  C   UNL     1      68.782  52.416  20.748  1.00  0.00     0.130 A 
ATOM      3  C   UNL     1      69.070  53.146  21.912  1.00  0.00     0.093 A 
ATOM      4  C   UNL     1      68.287  54.257  22.275  1.00  0.00     0.122 A 
ATOM      5  C   UNL     1      67.216  54.628  21.461  1.00  0.00     0.047 A 
ATOM      6  C   UNL     1      66.917  53.906  20.305  1.00  0.00     0.019 A 
ENDROOT
BRANCH   1   7
ATOM      7  C   UNL     1      67.316  52.041  18.702  1.00  0.00     0.163 C 
ATOM      8  C   UNL     1      66.001  51.341  18.546  1.00  0.00     0.093 C 
ATOM      9  O   UNL     1      68.135  51.991  17.744  1.00  0.00    -0.294 OA
ENDBRANCH   1   7
BRANCH   2  10
ATOM     10  O   UNL     1      69.602  51.345  20.396  1.00  0.00    -0.507 OA
ATOM     11  H   UNL     1      70.092  50.796  21.093  1.00  0.00     0.293 HD
ENDBRANCH   2  10
BRANCH   4  12
ATOM     12  O   UNL     1      68.543  55.014  23.427  1.00  0.00    -0.497 OA
ATOM     13  C   UNL     1      68.624  54.475  24.743  1.00  0.00     0.278 C 
ENDBRANCH   4  12
TORSDOF 3
ENDMDL
MODEL 7
REMARK VINA RESULT:    -3.847      2.677      4.938
REMARK INTER + INTRA:          -4.747
REMARK INTER:                  -4.431
REMARK INTRA:                  -0.317
REMARK UNBOUND:                -0.338
REMARK SMILES COc1ccc(C(C)=O)c(O)c1
REMARK SMILES IDX 6 1 10 2 12 3 3 4 4 5 5 6 7 7 8 8 9 9 11 10 2 12 1 13
REMARK H PARENT 11 11
REMARK Flexibility Score: inf
ROOT
ATOM      1  C   UNL     1      70.273  52.210  21.447  1.00  0.00     0.059 A 
ATOM      2  C   UNL     1      69.724  50.945  21.759  1.00  0.00     0.130 A 
ATOM      3  C   UNL     1      68.545  50.517  21.129  1.00  0.00     0.093 A 
ATOM      4  C   UNL     1      67.890  51.342  20.196  1.00  0.00     0.122 A 
ATOM      5  C   UNL     1      68.427  52.597  19.904  1.00  0.00     0.047 A 
ATOM      6  C   UNL     1      69.601  53.029  20.522  1.00  0.00     0.019 A 
ENDROOT
BRANCH   1   7
ATOM      7  C   UNL     1      71.529  52.712  22.068  1.00  0.00     0.163 C 
ATOM      8  C   UNL     1      72.465  53.640  21.354  1.00  0.00     0.093 C 
ATOM      9  O   UNL     1      71.827  52.349  23.239  1.00  0.00    -0.294 OA
ENDBRANCH   1   7
BRANCH   2  10
ATOM     10  O   UNL     1      70.326  50.119  22.708  1.00  0.00    -0.507 OA
ATOM     11  H   UNL     1      71.230  50.339  23.111  1.00  0.00     0.293 HD
ENDBRANCH   2  10
BRANCH   4  12
ATOM     12  O   UNL     1      66.711  50.953  19.545  1.00  0.00    -0.497 OA
ATOM     13  C   UNL     1      65.852  51.842  18.837  1.00  0.00     0.278 C 
ENDBRANCH   4  12
TORSDOF 3
ENDMDL
MODEL 8
REMARK VINA RESULT:    -3.815      1.470      2.801
REMARK INTER + INTRA:          -4.710
REMARK INTER:                  -4.364
REMARK INTRA:                  -0.346
REMARK UNBOUND:                -0.338
REMARK SMILES COc1ccc(C(C)=O)c(O)c1
REMARK SMILES IDX 6 1 10 2 12 3 3 4 4 5 5 6 7 7 8 8 9 9 11 10 2 12 1 13
REMARK H PARENT 11 11
REMARK Flexibility Score: inf
ROOT
ATOM      1  C   UNL     1      69.260  51.844  20.303  1.00  0.00     0.059 A 
ATOM      2  C   UNL     1      68.232  51.895  19.334  1.00  0.00     0.130 A 
ATOM      3  C   UNL     1      68.436  52.585  18.129  1.00  0.00     0.093 A 
ATOM      4  C   UNL     1      69.652  53.245  17.877  1.00  0.00     0.122 A 
ATOM      5  C   UNL     1      70.658  53.207  18.844  1.00  0.00     0.047 A 
ATOM      6  C   UNL     1      70.467  52.520  20.043  1.00  0.00     0.019 A 
ENDROOT
BRANCH   1   7
ATOM      7  C   UNL     1      69.112  51.114  21.590  1.00  0.00     0.163 C 
ATOM      8  C   UNL     1      69.442  51.738  22.912  1.00  0.00     0.093 C 
ATOM      9  O   UNL     1      68.691  49.925  21.581  1.00  0.00    -0.294 OA
ENDBRANCH   1   7
BRANCH   2  10
ATOM     10  O   UNL     1      66.999  51.284  19.568  1.00  0.00    -0.507 OA
ATOM     11  H   UNL     1      66.909  50.278  19.651  1.00  0.00     0.293 HD
ENDBRANCH   2  10
BRANCH   4  12
ATOM     12  O   UNL     1      69.896  53.947  16.688  1.00  0.00    -0.497 OA
ATOM     13  C   UNL     1      71.187  54.348  16.240  1.00  0.00     0.278 C 
ENDBRANCH   4  12
TORSDOF 3
ENDMDL
MODEL 9
REMARK VINA RESULT:    -3.798      2.174      3.121
REMARK INTER + INTRA:          -4.691
REMARK INTER:                  -4.365
REMARK INTRA:                  -0.326
REMARK UNBOUND:                -0.338
REMARK SMILES COc1ccc(C(C)=O)c(O)c1
REMARK SMILES IDX 6 1 10 2 12 3 3 4 4 5 5 6 7 7 8 8 9 9 11 10 2 12 1 13
REMARK H PARENT 11 11
REMARK Flexibility Score: inf
ROOT
ATOM      1  C   UNL     1      69.382  51.797  20.921  1.00  0.00     0.059 A 
ATOM      2  C   UNL     1      70.508  52.562  20.536  1.00  0.00     0.130 A 
ATOM      3  C   UNL     1      70.561  53.136  19.257  1.00  0.00     0.093 A 
ATOM      4  C   UNL     1      69.510  52.948  18.341  1.00  0.00     0.122 A 
ATOM      5  C   UNL     1      68.409  52.178  18.720  1.00  0.00     0.047 A 
ATOM      6  C   UNL     1      68.345  51.607  19.991  1.00  0.00     0.019 A 
ENDROOT
BRANCH   1   7
ATOM      7  C   UNL     1      69.259  51.178  22.269  1.00  0.00     0.163 C 
ATOM      8  C   UNL     1      69.096  49.702  22.464  1.00  0.00     0.093 C 
ATOM      9  O   UNL     1      69.292  51.915  23.292  1.00  0.00    -0.294 OA
ENDBRANCH   1   7
BRANCH   2  10
ATOM     10  O   UNL     1      71.585  52.735  21.406  1.00  0.00    -0.507 OA
ATOM     11  H   UNL     1      71.823  52.042  22.105  1.00  0.00     0.293 HD
ENDBRANCH   2  10
BRANCH   4  12
ATOM     12  O   UNL     1      69.525  53.503  17.054  1.00  0.00    -0.497 OA
ATOM     13  C   UNL     1      70.471  54.466  16.602  1.00  0.00     0.278 C 
ENDBRANCH   4  12
TORSDOF 3
ENDMDL
