MODEL 1
REMARK VINA RESULT:    -5.697      0.000      0.000
REMARK INTER + INTRA:          -6.196
REMARK INTER:                  -6.196
REMARK INTRA:                   0.000
REMARK UNBOUND:                 0.000
REMARK SMILES Cc1cc(O)c2c(c1)C(=O)c1cc(O)cc(O)c1C2=O
REMARK SMILES IDX 1 1 2 2 8 3 7 4 6 5 4 6 3 7 19 8 20 9 18 10 11 11 9 12 10 13
REMARK SMILES IDX 12 14 13 15 15 16 16 17 5 18 17 20 14 22
REMARK H PARENT 5 19 17 21 14 23
REMARK Flexibility Score: inf
ROOT
ATOM      1  C   UNL     1      43.450  18.233  -4.980  1.00  0.00     0.044 C 
ATOM      2  C   UNL     1      44.677  17.379  -4.845  1.00  0.00    -0.047 A 
ATOM      3  C   UNL     1      45.819  17.664  -5.601  1.00  0.00     0.016 A 
ATOM      4  C   UNL     1      46.982  16.885  -5.465  1.00  0.00     0.038 A 
ATOM      5  C   UNL     1      47.002  15.803  -4.555  1.00  0.00     0.076 A 
ATOM      6  C   UNL     1      45.873  15.584  -3.721  1.00  0.00     0.127 A 
ATOM      7  C   UNL     1      44.720  16.355  -3.895  1.00  0.00     0.050 A 
ATOM      8  C   UNL     1      48.191  14.904  -4.550  1.00  0.00     0.201 C 
ATOM      9  O   UNL     1      48.098  13.734  -4.092  1.00  0.00    -0.288 OA
ATOM     10  C   UNL     1      49.460  15.341  -5.190  1.00  0.00     0.076 A 
ATOM     11  C   UNL     1      49.447  16.463  -6.045  1.00  0.00     0.041 A 
ATOM     12  C   UNL     1      48.187  17.209  -6.265  1.00  0.00     0.194 C 
ATOM     13  O   UNL     1      48.145  18.134  -7.123  1.00  0.00    -0.289 OA
ATOM     14  C   UNL     1      50.631  16.865  -6.687  1.00  0.00     0.059 A 
ATOM     15  C   UNL     1      51.824  16.167  -6.479  1.00  0.00     0.120 A 
ATOM     16  C   UNL     1      51.842  15.062  -5.629  1.00  0.00     0.093 A 
ATOM     17  C   UNL     1      50.672  14.643  -4.981  1.00  0.00     0.131 A 
ENDROOT
BRANCH   6  18
ATOM     18  O   UNL     1      45.862  14.646  -2.685  1.00  0.00    -0.507 OA
ATOM     19  H   UNL     1      45.654  14.874  -1.724  1.00  0.00     0.293 HD
ENDBRANCH   6  18
BRANCH  17  20
ATOM     20  O   UNL     1      50.722  13.542  -4.125  1.00  0.00    -0.507 OA
ATOM     21  H   UNL     1      51.600  13.183  -3.768  1.00  0.00     0.293 HD
ENDBRANCH  17  20
BRANCH  15  22
ATOM     22  O   UNL     1      53.000  16.564  -7.114  1.00  0.00    -0.508 OA
ATOM     23  H   UNL     1      53.811  16.863  -6.587  1.00  0.00     0.293 HD
ENDBRANCH  15  22
TORSDOF 3
ENDMDL
MODEL 2
REMARK VINA RESULT:    -5.389      1.301      5.476
REMARK INTER + INTRA:          -5.862
REMARK INTER:                  -5.862
REMARK INTRA:                   0.000
REMARK UNBOUND:                 0.000
REMARK SMILES Cc1cc(O)c2c(c1)C(=O)c1cc(O)cc(O)c1C2=O
REMARK SMILES IDX 1 1 2 2 8 3 7 4 6 5 4 6 3 7 19 8 20 9 18 10 11 11 9 12 10 13
REMARK SMILES IDX 12 14 13 15 15 16 16 17 5 18 17 20 14 22
REMARK H PARENT 5 19 17 21 14 23
REMARK Flexibility Score: inf
ROOT
ATOM      1  C   UNL     1      53.005  15.090  -6.796  1.00  0.00     0.044 C 
ATOM      2  C   UNL     1      51.680  15.040  -6.093  1.00  0.00    -0.047 A 
ATOM      3  C   UNL     1      50.705  16.007  -6.358  1.00  0.00     0.016 A 
ATOM      4  C   UNL     1      49.452  15.956  -5.723  1.00  0.00     0.038 A 
ATOM      5  C   UNL     1      49.169  14.918  -4.806  1.00  0.00     0.076 A 
ATOM      6  C   UNL     1      50.127  13.885  -4.619  1.00  0.00     0.127 A 
ATOM      7  C   UNL     1      51.375  13.974  -5.241  1.00  0.00     0.050 A 
ATOM      8  C   UNL     1      47.895  14.981  -4.035  1.00  0.00     0.201 C 
ATOM      9  O   UNL     1      47.781  14.352  -2.949  1.00  0.00    -0.288 OA
ATOM     10  C   UNL     1      46.797  15.879  -4.480  1.00  0.00     0.076 A 
ATOM     11  C   UNL     1      47.069  16.871  -5.445  1.00  0.00     0.041 A 
ATOM     12  C   UNL     1      48.426  16.983  -6.026  1.00  0.00     0.194 C 
ATOM     13  O   UNL     1      48.705  17.945  -6.794  1.00  0.00    -0.289 OA
ATOM     14  C   UNL     1      46.050  17.751  -5.848  1.00  0.00     0.059 A 
ATOM     15  C   UNL     1      44.765  17.647  -5.306  1.00  0.00     0.120 A 
ATOM     16  C   UNL     1      44.491  16.662  -4.357  1.00  0.00     0.093 A 
ATOM     17  C   UNL     1      45.493  15.776  -3.940  1.00  0.00     0.131 A 
ENDROOT
BRANCH   6  18
ATOM     18  O   UNL     1      49.872  12.739  -3.862  1.00  0.00    -0.507 OA
ATOM     19  H   UNL     1      49.015  12.583  -3.349  1.00  0.00     0.293 HD
ENDBRANCH   6  18
BRANCH  17  20
ATOM     20  O   UNL     1      45.187  14.792  -2.999  1.00  0.00    -0.507 OA
ATOM     21  H   UNL     1      45.894  14.164  -2.635  1.00  0.00     0.293 HD
ENDBRANCH  17  20
BRANCH  15  22
ATOM     22  O   UNL     1      43.753  18.517  -5.704  1.00  0.00    -0.508 OA
ATOM     23  H   UNL     1      43.225  19.060  -5.031  1.00  0.00     0.293 HD
ENDBRANCH  15  22
TORSDOF 3
ENDMDL
MODEL 3
REMARK VINA RESULT:    -5.273      1.943      2.923
REMARK INTER + INTRA:          -5.735
REMARK INTER:                  -5.735
REMARK INTRA:                   0.000
REMARK UNBOUND:                 0.000
REMARK SMILES Cc1cc(O)c2c(c1)C(=O)c1cc(O)cc(O)c1C2=O
REMARK SMILES IDX 1 1 2 2 8 3 7 4 6 5 4 6 3 7 19 8 20 9 18 10 11 11 9 12 10 13
REMARK SMILES IDX 12 14 13 15 15 16 16 17 5 18 17 20 14 22
REMARK H PARENT 5 19 17 21 14 23
REMARK Flexibility Score: inf
ROOT
ATOM      1  C   UNL     1      42.912  19.523  -4.874  1.00  0.00     0.044 C 
ATOM      2  C   UNL     1      43.568  18.227  -4.496  1.00  0.00    -0.047 A 
ATOM      3  C   UNL     1      44.885  17.965  -4.887  1.00  0.00     0.016 A 
ATOM      4  C   UNL     1      45.518  16.765  -4.517  1.00  0.00     0.038 A 
ATOM      5  C   UNL     1      44.820  15.811  -3.741  1.00  0.00     0.076 A 
ATOM      6  C   UNL     1      43.519  16.129  -3.265  1.00  0.00     0.127 A 
ATOM      7  C   UNL     1      42.903  17.317  -3.670  1.00  0.00     0.050 A 
ATOM      8  C   UNL     1      45.461  14.487  -3.501  1.00  0.00     0.201 C 
ATOM      9  O   UNL     1      44.755  13.488  -3.197  1.00  0.00    -0.288 OA
ATOM     10  C   UNL     1      46.918  14.310  -3.733  1.00  0.00     0.076 A 
ATOM     11  C   UNL     1      47.624  15.299  -4.451  1.00  0.00     0.041 A 
ATOM     12  C   UNL     1      46.918  16.508  -4.929  1.00  0.00     0.194 C 
ATOM     13  O   UNL     1      47.516  17.331  -5.676  1.00  0.00    -0.289 OA
ATOM     14  C   UNL     1      48.995  15.127  -4.709  1.00  0.00     0.059 A 
ATOM     15  C   UNL     1      49.667  13.989  -4.255  1.00  0.00     0.120 A 
ATOM     16  C   UNL     1      48.974  13.014  -3.539  1.00  0.00     0.093 A 
ATOM     17  C   UNL     1      47.607  13.164  -3.271  1.00  0.00     0.131 A 
ENDROOT
BRANCH   6  18
ATOM     18  O   UNL     1      42.820  15.323  -2.364  1.00  0.00    -0.507 OA
ATOM     19  H   UNL     1      43.264  14.764  -1.650  1.00  0.00     0.293 HD
ENDBRANCH   6  18
BRANCH  17  20
ATOM     20  O   UNL     1      46.941  12.178  -2.542  1.00  0.00    -0.507 OA
ATOM     21  H   UNL     1      46.789  11.249  -2.916  1.00  0.00     0.293 HD
ENDBRANCH  17  20
BRANCH  15  22
ATOM     22  O   UNL     1      51.026  13.817  -4.511  1.00  0.00    -0.508 OA
ATOM     23  H   UNL     1      51.720  14.460  -4.147  1.00  0.00     0.293 HD
ENDBRANCH  15  22
TORSDOF 3
ENDMDL
MODEL 4
REMARK VINA RESULT:    -5.214      1.854      6.694
REMARK INTER + INTRA:          -5.672
REMARK INTER:                  -5.672
REMARK INTRA:                   0.000
REMARK UNBOUND:                 0.000
REMARK SMILES Cc1cc(O)c2c(c1)C(=O)c1cc(O)cc(O)c1C2=O
REMARK SMILES IDX 1 1 2 2 8 3 7 4 6 5 4 6 3 7 19 8 20 9 18 10 11 11 9 12 10 13
REMARK SMILES IDX 12 14 13 15 15 16 16 17 5 18 17 20 14 22
REMARK H PARENT 5 19 17 21 14 23
REMARK Flexibility Score: inf
ROOT
ATOM      1  C   UNL     1      50.780  13.863  -4.898  1.00  0.00     0.044 C 
ATOM      2  C   UNL     1      49.578  14.758  -4.985  1.00  0.00    -0.047 A 
ATOM      3  C   UNL     1      48.433  14.475  -4.235  1.00  0.00     0.016 A 
ATOM      4  C   UNL     1      47.311  15.320  -4.290  1.00  0.00     0.038 A 
ATOM      5  C   UNL     1      47.336  16.471  -5.112  1.00  0.00     0.076 A 
ATOM      6  C   UNL     1      48.538  16.803  -5.794  1.00  0.00     0.127 A 
ATOM      7  C   UNL     1      49.630  15.932  -5.743  1.00  0.00     0.050 A 
ATOM      8  C   UNL     1      46.079  17.256  -5.271  1.00  0.00     0.201 C 
ATOM      9  O   UNL     1      45.923  18.006  -6.271  1.00  0.00    -0.288 OA
ATOM     10  C   UNL     1      44.957  17.070  -4.314  1.00  0.00     0.076 A 
ATOM     11  C   UNL     1      44.970  15.956  -3.448  1.00  0.00     0.041 A 
ATOM     12  C   UNL     1      46.110  15.012  -3.478  1.00  0.00     0.194 C 
ATOM     13  O   UNL     1      46.066  13.951  -2.796  1.00  0.00    -0.289 OA
ATOM     14  C   UNL     1      43.898  15.747  -2.563  1.00  0.00     0.059 A 
ATOM     15  C   UNL     1      42.822  16.638  -2.528  1.00  0.00     0.120 A 
ATOM     16  C   UNL     1      42.810  17.744  -3.378  1.00  0.00     0.093 A 
ATOM     17  C   UNL     1      43.867  17.970  -4.268  1.00  0.00     0.131 A 
ENDROOT
BRANCH   6  18
ATOM     18  O   UNL     1      48.709  17.999  -6.496  1.00  0.00    -0.507 OA
ATOM     19  H   UNL     1      49.598  18.466  -6.600  1.00  0.00     0.293 HD
ENDBRANCH   6  18
BRANCH  17  20
ATOM     20  O   UNL     1      43.835  19.093  -5.097  1.00  0.00    -0.507 OA
ATOM     21  H   UNL     1      43.942  19.016  -6.102  1.00  0.00     0.293 HD
ENDBRANCH  17  20
BRANCH  15  22
ATOM     22  O   UNL     1      41.758  16.433  -1.652  1.00  0.00    -0.508 OA
ATOM     23  H   UNL     1      41.893  16.417  -0.649  1.00  0.00     0.293 HD
ENDBRANCH  15  22
TORSDOF 3
ENDMDL
MODEL 5
REMARK VINA RESULT:    -5.109      1.491      3.267
REMARK INTER + INTRA:          -5.557
REMARK INTER:                  -5.557
REMARK INTRA:                   0.000
REMARK UNBOUND:                 0.000
REMARK SMILES Cc1cc(O)c2c(c1)C(=O)c1cc(O)cc(O)c1C2=O
REMARK SMILES IDX 1 1 2 2 8 3 7 4 6 5 4 6 3 7 19 8 20 9 18 10 11 11 9 12 10 13
REMARK SMILES IDX 12 14 13 15 15 16 16 17 5 18 17 20 14 22
REMARK H PARENT 5 19 17 21 14 23
REMARK Flexibility Score: inf
ROOT
ATOM      1  C   UNL     1      43.784  14.346  -3.268  1.00  0.00     0.044 C 
ATOM      2  C   UNL     1      45.018  14.919  -3.903  1.00  0.00    -0.047 A 
ATOM      3  C   UNL     1      46.223  14.212  -3.862  1.00  0.00     0.016 A 
ATOM      4  C   UNL     1      47.379  14.727  -4.475  1.00  0.00     0.038 A 
ATOM      5  C   UNL     1      47.327  15.973  -5.141  1.00  0.00     0.076 A 
ATOM      6  C   UNL     1      46.076  16.636  -5.263  1.00  0.00     0.127 A 
ATOM      7  C   UNL     1      44.948  16.116  -4.622  1.00  0.00     0.050 A 
ATOM      8  C   UNL     1      48.601  16.563  -5.641  1.00  0.00     0.201 C 
ATOM      9  O   UNL     1      48.684  17.802  -5.854  1.00  0.00    -0.288 OA
ATOM     10  C   UNL     1      49.813  15.714  -5.780  1.00  0.00     0.076 A 
ATOM     11  C   UNL     1      49.835  14.443  -5.169  1.00  0.00     0.041 A 
ATOM     12  C   UNL     1      48.646  13.958  -4.432  1.00  0.00     0.194 C 
ATOM     13  O   UNL     1      48.706  12.878  -3.781  1.00  0.00    -0.289 OA
ATOM     14  C   UNL     1      50.988  13.644  -5.261  1.00  0.00     0.059 A 
ATOM     15  C   UNL     1      52.111  14.096  -5.959  1.00  0.00     0.120 A 
ATOM     16  C   UNL     1      52.090  15.349  -6.571  1.00  0.00     0.093 A 
ATOM     17  C   UNL     1      50.952  16.162  -6.490  1.00  0.00     0.131 A 
ENDROOT
BRANCH   6  18
ATOM     18  O   UNL     1      45.895  17.784  -6.039  1.00  0.00    -0.507 OA
ATOM     19  H   UNL     1      44.993  18.115  -6.350  1.00  0.00     0.293 HD
ENDBRANCH   6  18
BRANCH  17  20
ATOM     20  O   UNL     1      50.954  17.406  -7.123  1.00  0.00    -0.507 OA
ATOM     21  H   UNL     1      51.767  17.749  -7.621  1.00  0.00     0.293 HD
ENDBRANCH  17  20
BRANCH  15  22
ATOM     22  O   UNL     1      53.255  13.306  -6.052  1.00  0.00    -0.508 OA
ATOM     23  H   UNL     1      53.248  12.328  -5.786  1.00  0.00     0.293 HD
ENDBRANCH  15  22
TORSDOF 3
ENDMDL
MODEL 6
REMARK VINA RESULT:    -5.084      1.913      3.364
REMARK INTER + INTRA:          -5.530
REMARK INTER:                  -5.530
REMARK INTRA:                   0.000
REMARK UNBOUND:                 0.000
REMARK SMILES Cc1cc(O)c2c(c1)C(=O)c1cc(O)cc(O)c1C2=O
REMARK SMILES IDX 1 1 2 2 8 3 7 4 6 5 4 6 3 7 19 8 20 9 18 10 11 11 9 12 10 13
REMARK SMILES IDX 12 14 13 15 15 16 16 17 5 18 17 20 14 22
REMARK H PARENT 5 19 17 21 14 23
REMARK Flexibility Score: inf
ROOT
ATOM      1  C   UNL     1      41.187  20.609  -5.021  1.00  0.00     0.044 C 
ATOM      2  C   UNL     1      42.192  19.548  -4.679  1.00  0.00    -0.047 A 
ATOM      3  C   UNL     1      43.318  19.359  -5.485  1.00  0.00     0.016 A 
ATOM      4  C   UNL     1      44.278  18.385  -5.161  1.00  0.00     0.038 A 
ATOM      5  C   UNL     1      44.108  17.584  -4.008  1.00  0.00     0.076 A 
ATOM      6  C   UNL     1      43.012  17.850  -3.142  1.00  0.00     0.127 A 
ATOM      7  C   UNL     1      42.058  18.806  -3.502  1.00  0.00     0.050 A 
ATOM      8  C   UNL     1      45.057  16.458  -3.779  1.00  0.00     0.201 C 
ATOM      9  O   UNL     1      44.727  15.493  -3.041  1.00  0.00    -0.288 OA
ATOM     10  C   UNL     1      46.349  16.411  -4.513  1.00  0.00     0.076 A 
ATOM     11  C   UNL     1      46.540  17.260  -5.623  1.00  0.00     0.041 A 
ATOM     12  C   UNL     1      45.473  18.207  -6.020  1.00  0.00     0.194 C 
ATOM     13  O   UNL     1      45.590  18.877  -7.083  1.00  0.00    -0.289 OA
ATOM     14  C   UNL     1      47.742  17.200  -6.349  1.00  0.00     0.059 A 
ATOM     15  C   UNL     1      48.754  16.311  -5.975  1.00  0.00     0.120 A 
ATOM     16  C   UNL     1      48.571  15.476  -4.873  1.00  0.00     0.093 A 
ATOM     17  C   UNL     1      47.380  15.518  -4.137  1.00  0.00     0.131 A 
ENDROOT
BRANCH   6  18
ATOM     18  O   UNL     1      42.852  17.225  -1.903  1.00  0.00    -0.507 OA
ATOM     19  H   UNL     1      43.525  17.287  -1.152  1.00  0.00     0.293 HD
ENDBRANCH   6  18
BRANCH  17  20
ATOM     20  O   UNL     1      47.230  14.680  -3.031  1.00  0.00    -0.507 OA
ATOM     21  H   UNL     1      46.415  14.089  -2.918  1.00  0.00     0.293 HD
ENDBRANCH  17  20
BRANCH  15  22
ATOM     22  O   UNL     1      49.947  16.250  -6.693  1.00  0.00    -0.508 OA
ATOM     23  H   UNL     1      50.372  15.365  -6.939  1.00  0.00     0.293 HD
ENDBRANCH  15  22
TORSDOF 3
ENDMDL
MODEL 7
REMARK VINA RESULT:    -5.035      2.029      5.798
REMARK INTER + INTRA:          -5.476
REMARK INTER:                  -5.476
REMARK INTRA:                   0.000
REMARK UNBOUND:                 0.000
REMARK SMILES Cc1cc(O)c2c(c1)C(=O)c1cc(O)cc(O)c1C2=O
REMARK SMILES IDX 1 1 2 2 8 3 7 4 6 5 4 6 3 7 19 8 20 9 18 10 11 11 9 12 10 13
REMARK SMILES IDX 12 14 13 15 15 16 16 17 5 18 17 20 14 22
REMARK H PARENT 5 19 17 21 14 23
REMARK Flexibility Score: inf
ROOT
ATOM      1  C   UNL     1      52.119  16.037  -6.051  1.00  0.00     0.044 C 
ATOM      2  C   UNL     1      50.925  15.374  -5.429  1.00  0.00    -0.047 A 
ATOM      3  C   UNL     1      49.695  16.038  -5.386  1.00  0.00     0.016 A 
ATOM      4  C   UNL     1      48.564  15.418  -4.827  1.00  0.00     0.038 A 
ATOM      5  C   UNL     1      48.666  14.108  -4.303  1.00  0.00     0.076 A 
ATOM      6  C   UNL     1      49.893  13.405  -4.442  1.00  0.00     0.127 A 
ATOM      7  C   UNL     1      51.009  14.055  -4.976  1.00  0.00     0.050 A 
ATOM      8  C   UNL     1      47.493  13.542  -3.579  1.00  0.00     0.201 C 
ATOM      9  O   UNL     1      47.651  12.599  -2.759  1.00  0.00    -0.288 OA
ATOM     10  C   UNL     1      46.151  14.163  -3.730  1.00  0.00     0.076 A 
ATOM     11  C   UNL     1      46.048  15.443  -4.315  1.00  0.00     0.041 A 
ATOM     12  C   UNL     1      47.265  16.132  -4.801  1.00  0.00     0.194 C 
ATOM     13  O   UNL     1      47.192  17.324  -5.209  1.00  0.00    -0.289 OA
ATOM     14  C   UNL     1      44.790  16.058  -4.431  1.00  0.00     0.059 A 
ATOM     15  C   UNL     1      43.637  15.409  -3.979  1.00  0.00     0.120 A 
ATOM     16  C   UNL     1      43.735  14.141  -3.407  1.00  0.00     0.093 A 
ATOM     17  C   UNL     1      44.979  13.510  -3.280  1.00  0.00     0.131 A 
ENDROOT
BRANCH   6  18
ATOM     18  O   UNL     1      50.041  12.058  -4.103  1.00  0.00    -0.507 OA
ATOM     19  H   UNL     1      50.781  11.468  -4.456  1.00  0.00     0.293 HD
ENDBRANCH   6  18
BRANCH  17  20
ATOM     20  O   UNL     1      45.046  12.236  -2.715  1.00  0.00    -0.507 OA
ATOM     21  H   UNL     1      45.466  11.456  -3.208  1.00  0.00     0.293 HD
ENDBRANCH  17  20
BRANCH  15  22
ATOM     22  O   UNL     1      42.388  16.016  -4.093  1.00  0.00    -0.508 OA
ATOM     23  H   UNL     1      41.875  16.330  -3.278  1.00  0.00     0.293 HD
ENDBRANCH  15  22
TORSDOF 3
ENDMDL
MODEL 8
REMARK VINA RESULT:    -5.018      1.738      3.761
REMARK INTER + INTRA:          -5.458
REMARK INTER:                  -5.458
REMARK INTRA:                   0.000
REMARK UNBOUND:                 0.000
REMARK SMILES Cc1cc(O)c2c(c1)C(=O)c1cc(O)cc(O)c1C2=O
REMARK SMILES IDX 1 1 2 2 8 3 7 4 6 5 4 6 3 7 19 8 20 9 18 10 11 11 9 12 10 13
REMARK SMILES IDX 12 14 13 15 15 16 16 17 5 18 17 20 14 22
REMARK H PARENT 5 19 17 21 14 23
REMARK Flexibility Score: inf
ROOT
ATOM      1  C   UNL     1      42.477  18.398  -4.399  1.00  0.00     0.044 C 
ATOM      2  C   UNL     1      43.864  17.899  -4.684  1.00  0.00    -0.047 A 
ATOM      3  C   UNL     1      44.372  16.797  -3.989  1.00  0.00     0.016 A 
ATOM      4  C   UNL     1      45.661  16.307  -4.265  1.00  0.00     0.038 A 
ATOM      5  C   UNL     1      46.455  16.931  -5.255  1.00  0.00     0.076 A 
ATOM      6  C   UNL     1      45.893  17.986  -6.023  1.00  0.00     0.127 A 
ATOM      7  C   UNL     1      44.620  18.472  -5.711  1.00  0.00     0.050 A 
ATOM      8  C   UNL     1      47.869  16.488  -5.411  1.00  0.00     0.201 C 
ATOM      9  O   UNL     1      48.715  17.250  -5.950  1.00  0.00    -0.288 OA
ATOM     10  C   UNL     1      48.316  15.196  -4.828  1.00  0.00     0.076 A 
ATOM     11  C   UNL     1      47.488  14.542  -3.891  1.00  0.00     0.041 A 
ATOM     12  C   UNL     1      46.178  15.130  -3.528  1.00  0.00     0.194 C 
ATOM     13  O   UNL     1      45.494  14.616  -2.600  1.00  0.00    -0.289 OA
ATOM     14  C   UNL     1      47.914  13.339  -3.303  1.00  0.00     0.059 A 
ATOM     15  C   UNL     1      49.148  12.778  -3.646  1.00  0.00     0.120 A 
ATOM     16  C   UNL     1      49.965  13.417  -4.579  1.00  0.00     0.093 A 
ATOM     17  C   UNL     1      49.560  14.619  -5.175  1.00  0.00     0.131 A 
ENDROOT
BRANCH   6  18
ATOM     18  O   UNL     1      46.539  18.553  -7.125  1.00  0.00    -0.507 OA
ATOM     19  H   UNL     1      47.104  19.388  -7.075  1.00  0.00     0.293 HD
ENDBRANCH   6  18
BRANCH  17  20
ATOM     20  O   UNL     1      50.392  15.230  -6.114  1.00  0.00    -0.507 OA
ATOM     21  H   UNL     1      51.367  14.971  -6.210  1.00  0.00     0.293 HD
ENDBRANCH  17  20
BRANCH  15  22
ATOM     22  O   UNL     1      49.572  11.584  -3.066  1.00  0.00    -0.508 OA
ATOM     23  H   UNL     1      50.058  10.877  -3.603  1.00  0.00     0.293 HD
ENDBRANCH  15  22
TORSDOF 3
ENDMDL
MODEL 9
REMARK VINA RESULT:    -4.886      4.206      7.786
REMARK INTER + INTRA:          -5.314
REMARK INTER:                  -5.314
REMARK INTRA:                   0.000
REMARK UNBOUND:                 0.000
REMARK SMILES Cc1cc(O)c2c(c1)C(=O)c1cc(O)cc(O)c1C2=O
REMARK SMILES IDX 1 1 2 2 8 3 7 4 6 5 4 6 3 7 19 8 20 9 18 10 11 11 9 12 10 13
REMARK SMILES IDX 12 14 13 15 15 16 16 17 5 18 17 20 14 22
REMARK H PARENT 5 19 17 21 14 23
REMARK Flexibility Score: inf
ROOT
ATOM      1  C   UNL     1      44.506  12.341  -4.050  1.00  0.00     0.044 C 
ATOM      2  C   UNL     1      44.382  13.831  -4.187  1.00  0.00    -0.047 A 
ATOM      3  C   UNL     1      43.513  14.543  -3.354  1.00  0.00     0.016 A 
ATOM      4  C   UNL     1      43.406  15.941  -3.457  1.00  0.00     0.038 A 
ATOM      5  C   UNL     1      44.183  16.639  -4.411  1.00  0.00     0.076 A 
ATOM      6  C   UNL     1      45.135  15.919  -5.183  1.00  0.00     0.127 A 
ATOM      7  C   UNL     1      45.202  14.526  -5.080  1.00  0.00     0.050 A 
ATOM      8  C   UNL     1      43.931  18.095  -4.602  1.00  0.00     0.201 C 
ATOM      9  O   UNL     1      44.269  18.661  -5.676  1.00  0.00    -0.288 OA
ATOM     10  C   UNL     1      43.175  18.863  -3.578  1.00  0.00     0.076 A 
ATOM     11  C   UNL     1      42.455  18.162  -2.587  1.00  0.00     0.041 A 
ATOM     12  C   UNL     1      42.489  16.682  -2.558  1.00  0.00     0.194 C 
ATOM     13  O   UNL     1      41.749  16.052  -1.754  1.00  0.00    -0.289 OA
ATOM     14  C   UNL     1      41.706  18.874  -1.634  1.00  0.00     0.059 A 
ATOM     15  C   UNL     1      41.674  20.271  -1.655  1.00  0.00     0.120 A 
ATOM     16  C   UNL     1      42.391  20.967  -2.628  1.00  0.00     0.093 A 
ATOM     17  C   UNL     1      43.143  20.277  -3.588  1.00  0.00     0.131 A 
ENDROOT
BRANCH   6  18
ATOM     18  O   UNL     1      46.056  16.541  -6.029  1.00  0.00    -0.507 OA
ATOM     19  H   UNL     1      46.064  16.423  -7.032  1.00  0.00     0.293 HD
ENDBRANCH   6  18
BRANCH  17  20
ATOM     20  O   UNL     1      43.861  20.999  -4.542  1.00  0.00    -0.507 OA
ATOM     21  H   UNL     1      43.409  21.664  -5.158  1.00  0.00     0.293 HD
ENDBRANCH  17  20
BRANCH  15  22
ATOM     22  O   UNL     1      40.932  20.979  -0.711  1.00  0.00    -0.508 OA
ATOM     23  H   UNL     1      41.334  21.265   0.173  1.00  0.00     0.293 HD
ENDBRANCH  15  22
TORSDOF 3
ENDMDL
