MODEL 1
REMARK VINA RESULT:    -7.291      0.000      0.000
REMARK INTER + INTRA:          -8.939
REMARK INTER:                  -8.357
REMARK INTRA:                  -0.582
REMARK UNBOUND:                -0.582
REMARK SMILES C=C(C)[C@@H]1CC[C@]2(C(=O)[O-])CC[C@]3(C)[C@@H](CC[C@@H]4[C@@]5(C)CC[C@H](O)C(C)(C)[C@H]5CC[C@]43C)[C@H]12
REMARK SMILES IDX 7 1 6 2 33 3 11 4 5 5 15 6 4 7 12 8 16 9 13 10 17 11 31 12
REMARK SMILES IDX 14 13 18 14 30 15 32 16 19 17 29 18 21 19 20 20 28 21 22 22
REMARK SMILES IDX 25 23 23 24 26 25 27 26 8 27 9 28 10 29 2 30 3 31 1 32 24 33
REMARK H PARENT 24 34
REMARK Flexibility Score: inf
ROOT
ATOM      1  C   UNL     1      51.307  24.312  18.353  1.00  0.00     0.014 C 
ATOM      2  C   UNL     1      52.187  23.085  18.660  1.00  0.00     0.014 C 
ATOM      3  C   UNL     1      49.935  23.937  18.984  1.00  0.00     0.012 C 
ATOM      4  C   UNL     1      51.951  25.605  18.878  1.00  0.00     0.014 C 
ATOM      5  C   UNL     1      51.284  21.879  18.473  1.00  0.00     0.009 C 
ATOM      6  C   UNL     1      49.812  24.258  20.525  1.00  0.00     0.000 C 
ATOM      7  C   UNL     1      49.845  22.409  18.607  1.00  0.00     0.018 C 
ATOM      8  C   UNL     1      51.915  25.777  20.397  1.00  0.00     0.008 C 
ATOM      9  C   UNL     1      48.336  24.144  21.014  1.00  0.00     0.005 C 
ATOM     10  C   UNL     1      50.530  25.566  21.105  1.00  0.00    -0.024 C 
ATOM     11  C   UNL     1      47.523  25.428  20.877  1.00  0.00     0.005 C 
ATOM     12  C   UNL     1      49.598  26.907  21.070  1.00  0.00    -0.024 C 
ATOM     13  C   UNL     1      50.903  25.214  22.596  1.00  0.00     0.012 C 
ATOM     14  C   UNL     1      48.180  26.564  21.690  1.00  0.00     0.002 C 
ATOM     15  C   UNL     1      50.252  28.108  21.861  1.00  0.00     0.008 C 
ATOM     16  C   UNL     1      49.430  27.415  19.607  1.00  0.00     0.012 C 
ATOM     17  C   UNL     1      47.204  27.761  22.123  1.00  0.00    -0.026 C 
ATOM     18  C   UNL     1      49.474  28.569  23.089  1.00  0.00     0.005 C 
ATOM     19  C   UNL     1      46.214  27.209  23.227  1.00  0.00     0.010 C 
ATOM     20  C   UNL     1      46.322  28.235  20.921  1.00  0.00     0.012 C 
ATOM     21  C   UNL     1      48.032  28.998  22.698  1.00  0.00     0.003 C 
ATOM     22  C   UNL     1      46.723  27.372  24.660  1.00  0.00     0.033 C 
ATOM     23  C   UNL     1      47.306  29.795  23.864  1.00  0.00    -0.006 C 
ATOM     24  C   UNL     1      46.979  28.842  25.066  1.00  0.00     0.120 C 
ATOM     25  C   UNL     1      48.196  30.961  24.387  1.00  0.00     0.014 C 
ATOM     26  C   UNL     1      46.019  30.489  23.321  1.00  0.00     0.014 C 
ENDROOT
BRANCH   1  27
ATOM     27  C   UNL     1      51.157  24.481  16.839  1.00  0.00     0.048 C 
ATOM     28  O   UNL     1      50.138  25.050  16.362  1.00  0.00    -0.550 OA
ATOM     29  O   UNL     1      52.171  24.092  15.970  1.00  0.00    -0.550 OA
ENDBRANCH   1  27
BRANCH   7  30
ATOM     30  C   UNL     1      48.937  21.478  19.417  1.00  0.00    -0.077 C 
ATOM     31  C   UNL     1      49.387  20.795  20.689  1.00  0.00     0.039 C 
ATOM     32  C   UNL     1      47.684  21.241  18.990  1.00  0.00     0.008 C 
ENDBRANCH   7  30
BRANCH  24  33
ATOM     33  O   UNL     1      45.887  29.338  25.802  1.00  0.00    -0.393 OA
ATOM     34  H   UNL     1      45.392  29.962  25.209  1.00  0.00     0.210 HD
ENDBRANCH  24  33
TORSDOF 3
ENDMDL
MODEL 2
REMARK VINA RESULT:    -6.336      4.090      7.324
REMARK INTER + INTRA:          -7.844
REMARK INTER:                  -7.235
REMARK INTRA:                  -0.609
REMARK UNBOUND:                -0.582
REMARK SMILES C=C(C)[C@@H]1CC[C@]2(C(=O)[O-])CC[C@]3(C)[C@@H](CC[C@@H]4[C@@]5(C)CC[C@H](O)C(C)(C)[C@H]5CC[C@]43C)[C@H]12
REMARK SMILES IDX 7 1 6 2 33 3 11 4 5 5 15 6 4 7 12 8 16 9 13 10 17 11 31 12
REMARK SMILES IDX 14 13 18 14 30 15 32 16 19 17 29 18 21 19 20 20 28 21 22 22
REMARK SMILES IDX 25 23 23 24 26 25 27 26 8 27 9 28 10 29 2 30 3 31 1 32 24 33
REMARK H PARENT 24 34
REMARK Flexibility Score: inf
ROOT
ATOM      1  C   UNL     1      50.505  24.996  20.550  1.00  0.00     0.014 C 
ATOM      2  C   UNL     1      50.249  25.139  22.063  1.00  0.00     0.014 C 
ATOM      3  C   UNL     1      49.731  26.201  19.940  1.00  0.00     0.012 C 
ATOM      4  C   UNL     1      52.009  24.946  20.243  1.00  0.00     0.014 C 
ATOM      5  C   UNL     1      48.802  25.582  22.192  1.00  0.00     0.009 C 
ATOM      6  C   UNL     1      50.535  27.559  19.929  1.00  0.00     0.000 C 
ATOM      7  C   UNL     1      48.430  26.197  20.831  1.00  0.00     0.018 C 
ATOM      8  C   UNL     1      52.747  26.278  20.388  1.00  0.00     0.008 C 
ATOM      9  C   UNL     1      49.830  28.630  19.041  1.00  0.00     0.005 C 
ATOM     10  C   UNL     1      52.115  27.523  19.673  1.00  0.00    -0.024 C 
ATOM     11  C   UNL     1      50.236  28.599  17.570  1.00  0.00     0.005 C 
ATOM     12  C   UNL     1      52.537  27.622  18.099  1.00  0.00    -0.024 C 
ATOM     13  C   UNL     1      52.695  28.761  20.460  1.00  0.00     0.012 C 
ATOM     14  C   UNL     1      51.755  28.829  17.431  1.00  0.00     0.002 C 
ATOM     15  C   UNL     1      54.092  27.821  17.910  1.00  0.00     0.008 C 
ATOM     16  C   UNL     1      52.195  26.294  17.359  1.00  0.00     0.012 C 
ATOM     17  C   UNL     1      52.245  29.390  16.011  1.00  0.00    -0.026 C 
ATOM     18  C   UNL     1      54.499  29.148  17.276  1.00  0.00     0.005 C 
ATOM     19  C   UNL     1      51.757  30.890  15.882  1.00  0.00     0.010 C 
ATOM     20  C   UNL     1      51.587  28.598  14.833  1.00  0.00     0.012 C 
ATOM     21  C   UNL     1      53.834  29.317  15.881  1.00  0.00     0.003 C 
ATOM     22  C   UNL     1      52.757  31.920  16.408  1.00  0.00     0.033 C 
ATOM     23  C   UNL     1      54.483  30.502  15.046  1.00  0.00    -0.006 C 
ATOM     24  C   UNL     1      54.120  31.890  15.681  1.00  0.00     0.120 C 
ATOM     25  C   UNL     1      56.035  30.372  14.999  1.00  0.00     0.014 C 
ATOM     26  C   UNL     1      54.031  30.422  13.556  1.00  0.00     0.014 C 
ENDROOT
BRANCH   1  27
ATOM     27  C   UNL     1      49.909  23.681  20.042  1.00  0.00     0.048 C 
ATOM     28  O   UNL     1      49.646  23.534  18.819  1.00  0.00    -0.550 OA
ATOM     29  O   UNL     1      49.728  22.599  20.897  1.00  0.00    -0.550 OA
ENDBRANCH   1  27
BRANCH   7  30
ATOM     30  C   UNL     1      47.593  27.474  20.960  1.00  0.00    -0.077 C 
ATOM     31  C   UNL     1      47.767  28.458  22.096  1.00  0.00     0.039 C 
ATOM     32  C   UNL     1      46.656  27.746  20.035  1.00  0.00     0.008 C 
ENDBRANCH   7  30
BRANCH  24  33
ATOM     33  O   UNL     1      54.170  32.904  14.705  1.00  0.00    -0.393 OA
ATOM     34  H   UNL     1      54.697  33.654  15.088  1.00  0.00     0.210 HD
ENDBRANCH  24  33
TORSDOF 3
ENDMDL
MODEL 3
REMARK VINA RESULT:    -6.084      2.268      8.308
REMARK INTER + INTRA:          -7.555
REMARK INTER:                  -7.054
REMARK INTRA:                  -0.501
REMARK UNBOUND:                -0.582
REMARK SMILES C=C(C)[C@@H]1CC[C@]2(C(=O)[O-])CC[C@]3(C)[C@@H](CC[C@@H]4[C@@]5(C)CC[C@H](O)C(C)(C)[C@H]5CC[C@]43C)[C@H]12
REMARK SMILES IDX 7 1 6 2 33 3 11 4 5 5 15 6 4 7 12 8 16 9 13 10 17 11 31 12
REMARK SMILES IDX 14 13 18 14 30 15 32 16 19 17 29 18 21 19 20 20 28 21 22 22
REMARK SMILES IDX 25 23 23 24 26 25 27 26 8 27 9 28 10 29 2 30 3 31 1 32 24 33
REMARK H PARENT 24 34
REMARK Flexibility Score: inf
ROOT
ATOM      1  C   UNL     1      46.996  31.210  22.915  1.00  0.00     0.014 C 
ATOM      2  C   UNL     1      46.287  31.108  24.280  1.00  0.00     0.014 C 
ATOM      3  C   UNL     1      48.466  30.821  23.245  1.00  0.00     0.012 C 
ATOM      4  C   UNL     1      46.297  30.340  21.859  1.00  0.00     0.014 C 
ATOM      5  C   UNL     1      47.275  31.657  25.294  1.00  0.00     0.009 C 
ATOM      6  C   UNL     1      48.748  29.268  23.254  1.00  0.00     0.000 C 
ATOM      7  C   UNL     1      48.661  31.548  24.630  1.00  0.00     0.018 C 
ATOM      8  C   UNL     1      46.506  28.833  22.018  1.00  0.00     0.008 C 
ATOM      9  C   UNL     1      50.278  28.967  23.286  1.00  0.00     0.005 C 
ATOM     10  C   UNL     1      47.982  28.334  22.204  1.00  0.00    -0.024 C 
ATOM     11  C   UNL     1      50.935  28.885  21.912  1.00  0.00     0.005 C 
ATOM     12  C   UNL     1      48.764  28.151  20.782  1.00  0.00    -0.024 C 
ATOM     13  C   UNL     1      47.835  26.935  22.916  1.00  0.00     0.012 C 
ATOM     14  C   UNL     1      50.276  27.771  21.071  1.00  0.00     0.002 C 
ATOM     15  C   UNL     1      48.099  27.044  19.874  1.00  0.00     0.008 C 
ATOM     16  C   UNL     1      48.697  29.467  19.951  1.00  0.00     0.012 C 
ATOM     17  C   UNL     1      51.175  27.172  19.886  1.00  0.00    -0.026 C 
ATOM     18  C   UNL     1      48.974  25.826  19.597  1.00  0.00     0.005 C 
ATOM     19  C   UNL     1      52.345  26.329  20.536  1.00  0.00     0.010 C 
ATOM     20  C   UNL     1      51.849  28.314  19.055  1.00  0.00     0.012 C 
ATOM     21  C   UNL     1      50.306  26.249  18.916  1.00  0.00     0.003 C 
ATOM     22  C   UNL     1      52.005  24.854  20.754  1.00  0.00     0.033 C 
ATOM     23  C   UNL     1      51.090  25.008  18.308  1.00  0.00    -0.006 C 
ATOM     24  C   UNL     1      51.657  24.097  19.452  1.00  0.00     0.120 C 
ATOM     25  C   UNL     1      50.160  24.145  17.405  1.00  0.00     0.014 C 
ATOM     26  C   UNL     1      52.223  25.502  17.358  1.00  0.00     0.014 C 
ENDROOT
BRANCH   1  27
ATOM     27  C   UNL     1      46.939  32.651  22.404  1.00  0.00     0.048 C 
ATOM     28  O   UNL     1      47.973  33.200  21.937  1.00  0.00    -0.550 OA
ATOM     29  O   UNL     1      45.736  33.350  22.363  1.00  0.00    -0.550 OA
ENDBRANCH   1  27
BRANCH   7  30
ATOM     30  C   UNL     1      49.750  31.069  25.595  1.00  0.00    -0.077 C 
ATOM     31  C   UNL     1      49.472  30.131  26.748  1.00  0.00     0.039 C 
ATOM     32  C   UNL     1      51.015  31.494  25.427  1.00  0.00     0.008 C 
ENDBRANCH   7  30
BRANCH  24  33
ATOM     33  O   UNL     1      52.778  23.378  18.996  1.00  0.00    -0.393 OA
ATOM     34  H   UNL     1      52.468  22.787  18.260  1.00  0.00     0.210 HD
ENDBRANCH  24  33
TORSDOF 3
ENDMDL
MODEL 4
REMARK VINA RESULT:    -6.046      2.362      8.056
REMARK INTER + INTRA:          -7.511
REMARK INTER:                  -7.012
REMARK INTRA:                  -0.499
REMARK UNBOUND:                -0.582
REMARK SMILES C=C(C)[C@@H]1CC[C@]2(C(=O)[O-])CC[C@]3(C)[C@@H](CC[C@@H]4[C@@]5(C)CC[C@H](O)C(C)(C)[C@H]5CC[C@]43C)[C@H]12
REMARK SMILES IDX 7 1 6 2 33 3 11 4 5 5 15 6 4 7 12 8 16 9 13 10 17 11 31 12
REMARK SMILES IDX 14 13 18 14 30 15 32 16 19 17 29 18 21 19 20 20 28 21 22 22
REMARK SMILES IDX 25 23 23 24 26 25 27 26 8 27 9 28 10 29 2 30 3 31 1 32 24 33
REMARK H PARENT 24 34
REMARK Flexibility Score: inf
ROOT
ATOM      1  C   UNL     1      44.241  29.301  23.994  1.00  0.00     0.014 C 
ATOM      2  C   UNL     1      43.517  30.636  23.731  1.00  0.00     0.014 C 
ATOM      3  C   UNL     1      44.333  28.659  22.579  1.00  0.00     0.012 C 
ATOM      4  C   UNL     1      45.580  29.526  24.712  1.00  0.00     0.014 C 
ATOM      5  C   UNL     1      42.456  30.327  22.690  1.00  0.00     0.009 C 
ATOM      6  C   UNL     1      45.567  29.137  21.720  1.00  0.00     0.000 C 
ATOM      7  C   UNL     1      42.919  29.034  21.992  1.00  0.00     0.018 C 
ATOM      8  C   UNL     1      46.690  30.123  23.844  1.00  0.00     0.008 C 
ATOM      9  C   UNL     1      45.766  28.240  20.460  1.00  0.00     0.005 C 
ATOM     10  C   UNL     1      46.956  29.438  22.458  1.00  0.00    -0.024 C 
ATOM     11  C   UNL     1      46.643  27.012  20.689  1.00  0.00     0.005 C 
ATOM     12  C   UNL     1      47.940  28.141  22.579  1.00  0.00    -0.024 C 
ATOM     13  C   UNL     1      47.654  30.559  21.596  1.00  0.00     0.012 C 
ATOM     14  C   UNL     1      48.049  27.443  21.160  1.00  0.00     0.002 C 
ATOM     15  C   UNL     1      49.381  28.532  23.094  1.00  0.00     0.008 C 
ATOM     16  C   UNL     1      47.384  27.131  23.627  1.00  0.00     0.012 C 
ATOM     17  C   UNL     1      49.223  26.384  20.895  1.00  0.00    -0.026 C 
ATOM     18  C   UNL     1      50.509  28.292  22.096  1.00  0.00     0.005 C 
ATOM     19  C   UNL     1      49.493  26.331  19.337  1.00  0.00     0.010 C 
ATOM     20  C   UNL     1      48.794  24.943  21.328  1.00  0.00     0.012 C 
ATOM     21  C   UNL     1      50.557  26.799  21.668  1.00  0.00     0.003 C 
ATOM     22  C   UNL     1      50.550  27.323  18.851  1.00  0.00     0.033 C 
ATOM     23  C   UNL     1      51.902  26.435  20.907  1.00  0.00    -0.006 C 
ATOM     24  C   UNL     1      51.940  27.115  19.494  1.00  0.00     0.120 C 
ATOM     25  C   UNL     1      53.149  26.905  21.714  1.00  0.00     0.014 C 
ATOM     26  C   UNL     1      52.058  24.887  20.799  1.00  0.00     0.014 C 
ENDROOT
BRANCH   1  27
ATOM     27  C   UNL     1      43.392  28.420  24.914  1.00  0.00     0.048 C 
ATOM     28  O   UNL     1      43.495  27.165  24.863  1.00  0.00    -0.550 OA
ATOM     29  O   UNL     1      42.562  28.982  25.878  1.00  0.00    -0.550 OA
ENDBRANCH   1  27
BRANCH   7  30
ATOM     30  C   UNL     1      42.709  29.066  20.474  1.00  0.00    -0.077 C 
ATOM     31  C   UNL     1      42.662  27.815  19.626  1.00  0.00     0.039 C 
ATOM     32  C   UNL     1      42.565  30.249  19.852  1.00  0.00     0.008 C 
ENDBRANCH   7  30
BRANCH  24  33
ATOM     33  O   UNL     1      52.772  26.387  18.622  1.00  0.00    -0.393 OA
ATOM     34  H   UNL     1      52.370  26.447  17.715  1.00  0.00     0.210 HD
ENDBRANCH  24  33
TORSDOF 3
ENDMDL
MODEL 5
REMARK VINA RESULT:    -6.029      4.146      6.249
REMARK INTER + INTRA:          -7.492
REMARK INTER:                  -6.919
REMARK INTRA:                  -0.574
REMARK UNBOUND:                -0.582
REMARK SMILES C=C(C)[C@@H]1CC[C@]2(C(=O)[O-])CC[C@]3(C)[C@@H](CC[C@@H]4[C@@]5(C)CC[C@H](O)C(C)(C)[C@H]5CC[C@]43C)[C@H]12
REMARK SMILES IDX 7 1 6 2 33 3 11 4 5 5 15 6 4 7 12 8 16 9 13 10 17 11 31 12
REMARK SMILES IDX 14 13 18 14 30 15 32 16 19 17 29 18 21 19 20 20 28 21 22 22
REMARK SMILES IDX 25 23 23 24 26 25 27 26 8 27 9 28 10 29 2 30 3 31 1 32 24 33
REMARK H PARENT 24 34
REMARK Flexibility Score: inf
ROOT
ATOM      1  C   UNL     1      50.624  24.669  19.595  1.00  0.00     0.014 C 
ATOM      2  C   UNL     1      50.605  24.168  21.051  1.00  0.00     0.014 C 
ATOM      3  C   UNL     1      49.644  25.878  19.619  1.00  0.00     0.012 C 
ATOM      4  C   UNL     1      52.056  24.981  19.132  1.00  0.00     0.014 C 
ATOM      5  C   UNL     1      49.162  24.291  21.507  1.00  0.00     0.009 C 
ATOM      6  C   UNL     1      50.296  27.241  20.077  1.00  0.00     0.000 C 
ATOM      7  C   UNL     1      48.513  25.322  20.566  1.00  0.00     0.018 C 
ATOM      8  C   UNL     1      52.670  26.248  19.728  1.00  0.00     0.008 C 
ATOM      9  C   UNL     1      49.352  28.448  19.787  1.00  0.00     0.005 C 
ATOM     10  C   UNL     1      51.808  27.557  19.659  1.00  0.00    -0.024 C 
ATOM     11  C   UNL     1      49.513  29.058  18.398  1.00  0.00     0.005 C 
ATOM     12  C   UNL     1      51.956  28.329  18.227  1.00  0.00    -0.024 C 
ATOM     13  C   UNL     1      52.382  28.464  20.814  1.00  0.00     0.012 C 
ATOM     14  C   UNL     1      50.959  29.561  18.201  1.00  0.00     0.002 C 
ATOM     15  C   UNL     1      53.431  28.828  17.968  1.00  0.00     0.008 C 
ATOM     16  C   UNL     1      51.632  27.359  17.051  1.00  0.00     0.012 C 
ATOM     17  C   UNL     1      51.151  30.702  17.090  1.00  0.00    -0.026 C 
ATOM     18  C   UNL     1      53.594  30.343  17.892  1.00  0.00     0.005 C 
ATOM     19  C   UNL     1      50.501  32.035  17.640  1.00  0.00     0.010 C 
ATOM     20  C   UNL     1      50.393  30.340  15.770  1.00  0.00     0.012 C 
ATOM     21  C   UNL     1      52.697  30.937  16.769  1.00  0.00     0.003 C 
ATOM     22  C   UNL     1      51.465  32.921  18.430  1.00  0.00     0.033 C 
ATOM     23  C   UNL     1      53.080  32.440  16.428  1.00  0.00    -0.006 C 
ATOM     24  C   UNL     1      52.688  33.393  17.610  1.00  0.00     0.120 C 
ATOM     25  C   UNL     1      54.608  32.585  16.163  1.00  0.00     0.014 C 
ATOM     26  C   UNL     1      52.401  32.878  15.094  1.00  0.00     0.014 C 
ENDROOT
BRANCH   1  27
ATOM     27  C   UNL     1      50.088  23.581  18.661  1.00  0.00     0.048 C 
ATOM     28  O   UNL     1      49.759  23.865  17.478  1.00  0.00    -0.550 OA
ATOM     29  O   UNL     1      50.035  22.251  19.067  1.00  0.00    -0.550 OA
ENDBRANCH   1  27
BRANCH   7  30
ATOM     30  C   UNL     1      47.585  26.298  21.297  1.00  0.00    -0.077 C 
ATOM     31  C   UNL     1      47.856  26.794  22.699  1.00  0.00     0.039 C 
ATOM     32  C   UNL     1      46.474  26.740  20.681  1.00  0.00     0.008 C 
ENDBRANCH   7  30
BRANCH  24  33
ATOM     33  O   UNL     1      52.476  34.702  17.135  1.00  0.00    -0.393 OA
ATOM     34  H   UNL     1      53.281  34.958  16.613  1.00  0.00     0.210 HD
ENDBRANCH  24  33
TORSDOF 3
ENDMDL
MODEL 6
REMARK VINA RESULT:    -5.973      2.543      4.786
REMARK INTER + INTRA:          -7.428
REMARK INTER:                  -6.841
REMARK INTRA:                  -0.587
REMARK UNBOUND:                -0.582
REMARK SMILES C=C(C)[C@@H]1CC[C@]2(C(=O)[O-])CC[C@]3(C)[C@@H](CC[C@@H]4[C@@]5(C)CC[C@H](O)C(C)(C)[C@H]5CC[C@]43C)[C@H]12
REMARK SMILES IDX 7 1 6 2 33 3 11 4 5 5 15 6 4 7 12 8 16 9 13 10 17 11 31 12
REMARK SMILES IDX 14 13 18 14 30 15 32 16 19 17 29 18 21 19 20 20 28 21 22 22
REMARK SMILES IDX 25 23 23 24 26 25 27 26 8 27 9 28 10 29 2 30 3 31 1 32 24 33
REMARK H PARENT 24 34
REMARK Flexibility Score: inf
ROOT
ATOM      1  C   UNL     1      50.779  24.422  18.609  1.00  0.00     0.014 C 
ATOM      2  C   UNL     1      50.030  24.248  17.274  1.00  0.00     0.014 C 
ATOM      3  C   UNL     1      51.645  25.693  18.371  1.00  0.00     0.012 C 
ATOM      4  C   UNL     1      49.800  24.494  19.791  1.00  0.00     0.014 C 
ATOM      5  C   UNL     1      51.037  24.597  16.192  1.00  0.00     0.009 C 
ATOM      6  C   UNL     1      50.896  27.056  18.635  1.00  0.00     0.000 C 
ATOM      7  C   UNL     1      52.111  25.458  16.883  1.00  0.00     0.018 C 
ATOM      8  C   UNL     1      49.008  25.798  19.899  1.00  0.00     0.008 C 
ATOM      9  C   UNL     1      51.893  28.255  18.676  1.00  0.00     0.005 C 
ATOM     10  C   UNL     1      49.824  27.136  19.822  1.00  0.00    -0.024 C 
ATOM     11  C   UNL     1      52.489  28.536  20.052  1.00  0.00     0.005 C 
ATOM     12  C   UNL     1      50.459  27.566  21.264  1.00  0.00    -0.024 C 
ATOM     13  C   UNL     1      48.768  28.213  19.362  1.00  0.00     0.012 C 
ATOM     14  C   UNL     1      51.366  28.850  21.065  1.00  0.00     0.002 C 
ATOM     15  C   UNL     1      49.343  27.861  22.342  1.00  0.00     0.008 C 
ATOM     16  C   UNL     1      51.309  26.401  21.853  1.00  0.00     0.012 C 
ATOM     17  C   UNL     1      51.809  29.704  22.348  1.00  0.00    -0.026 C 
ATOM     18  C   UNL     1      49.291  29.303  22.837  1.00  0.00     0.005 C 
ATOM     19  C   UNL     1      52.127  31.178  21.869  1.00  0.00     0.010 C 
ATOM     20  C   UNL     1      53.126  29.139  22.977  1.00  0.00     0.012 C 
ATOM     21  C   UNL     1      50.656  29.722  23.452  1.00  0.00     0.003 C 
ATOM     22  C   UNL     1      50.924  32.121  21.906  1.00  0.00     0.033 C 
ATOM     23  C   UNL     1      50.552  31.076  24.276  1.00  0.00    -0.006 C 
ATOM     24  C   UNL     1      50.311  32.292  23.315  1.00  0.00     0.120 C 
ATOM     25  C   UNL     1      49.383  31.020  25.303  1.00  0.00     0.014 C 
ATOM     26  C   UNL     1      51.834  31.279  25.141  1.00  0.00     0.014 C 
ENDROOT
BRANCH   1  27
ATOM     27  C   UNL     1      51.683  23.213  18.862  1.00  0.00     0.048 C 
ATOM     28  O   UNL     1      52.770  23.353  19.485  1.00  0.00    -0.550 OA
ATOM     29  O   UNL     1      51.287  21.932  18.491  1.00  0.00    -0.550 OA
ENDBRANCH   1  27
BRANCH   7  30
ATOM     30  C   UNL     1      52.563  26.649  16.031  1.00  0.00    -0.077 C 
ATOM     31  C   UNL     1      51.601  27.491  15.222  1.00  0.00     0.039 C 
ATOM     32  C   UNL     1      53.867  26.971  15.984  1.00  0.00     0.008 C 
ENDBRANCH   7  30
BRANCH  24  33
ATOM     33  O   UNL     1      50.779  33.483  23.904  1.00  0.00    -0.393 OA
ATOM     34  H   UNL     1      50.957  34.124  23.167  1.00  0.00     0.210 HD
ENDBRANCH  24  33
TORSDOF 3
ENDMDL
MODEL 7
REMARK VINA RESULT:    -5.810      2.654      8.390
REMARK INTER + INTRA:          -7.242
REMARK INTER:                  -6.725
REMARK INTRA:                  -0.517
REMARK UNBOUND:                -0.582
REMARK SMILES C=C(C)[C@@H]1CC[C@]2(C(=O)[O-])CC[C@]3(C)[C@@H](CC[C@@H]4[C@@]5(C)CC[C@H](O)C(C)(C)[C@H]5CC[C@]43C)[C@H]12
REMARK SMILES IDX 7 1 6 2 33 3 11 4 5 5 15 6 4 7 12 8 16 9 13 10 17 11 31 12
REMARK SMILES IDX 14 13 18 14 30 15 32 16 19 17 29 18 21 19 20 20 28 21 22 22
REMARK SMILES IDX 25 23 23 24 26 25 27 26 8 27 9 28 10 29 2 30 3 31 1 32 24 33
REMARK H PARENT 24 34
REMARK Flexibility Score: inf
ROOT
ATOM      1  C   UNL     1      43.461  29.575  22.090  1.00  0.00     0.014 C 
ATOM      2  C   UNL     1      42.917  30.050  23.452  1.00  0.00     0.014 C 
ATOM      3  C   UNL     1      44.789  30.372  21.937  1.00  0.00     0.012 C 
ATOM      4  C   UNL     1      43.592  28.045  22.047  1.00  0.00     0.014 C 
ATOM      5  C   UNL     1      43.217  31.537  23.515  1.00  0.00     0.009 C 
ATOM      6  C   UNL     1      46.036  29.711  22.643  1.00  0.00     0.000 C 
ATOM      7  C   UNL     1      44.358  31.777  22.508  1.00  0.00     0.018 C 
ATOM      8  C   UNL     1      44.745  27.469  22.870  1.00  0.00     0.008 C 
ATOM      9  C   UNL     1      47.368  30.388  22.197  1.00  0.00     0.005 C 
ATOM     10  C   UNL     1      46.160  28.115  22.665  1.00  0.00    -0.024 C 
ATOM     11  C   UNL     1      47.997  29.783  20.946  1.00  0.00     0.005 C 
ATOM     12  C   UNL     1      46.953  27.492  21.380  1.00  0.00    -0.024 C 
ATOM     13  C   UNL     1      46.942  27.773  23.991  1.00  0.00     0.012 C 
ATOM     14  C   UNL     1      48.307  28.289  21.175  1.00  0.00     0.002 C 
ATOM     15  C   UNL     1      47.258  25.953  21.557  1.00  0.00     0.008 C 
ATOM     16  C   UNL     1      46.075  27.597  20.097  1.00  0.00     0.012 C 
ATOM     17  C   UNL     1      49.449  27.666  20.236  1.00  0.00    -0.026 C 
ATOM     18  C   UNL     1      48.739  25.594  21.631  1.00  0.00     0.005 C 
ATOM     19  C   UNL     1      50.838  28.276  20.684  1.00  0.00     0.010 C 
ATOM     20  C   UNL     1      49.237  28.074  18.741  1.00  0.00     0.012 C 
ATOM     21  C   UNL     1      49.485  26.074  20.355  1.00  0.00     0.003 C 
ATOM     22  C   UNL     1      51.560  27.464  21.760  1.00  0.00     0.033 C 
ATOM     23  C   UNL     1      50.934  25.436  20.231  1.00  0.00    -0.006 C 
ATOM     24  C   UNL     1      51.891  26.017  21.330  1.00  0.00     0.120 C 
ATOM     25  C   UNL     1      50.881  23.887  20.392  1.00  0.00     0.014 C 
ATOM     26  C   UNL     1      51.504  25.668  18.798  1.00  0.00     0.014 C 
ENDROOT
BRANCH   1  27
ATOM     27  C   UNL     1      42.487  29.964  20.976  1.00  0.00     0.048 C 
ATOM     28  O   UNL     1      42.804  29.794  19.768  1.00  0.00    -0.550 OA
ATOM     29  O   UNL     1      41.208  30.426  21.270  1.00  0.00    -0.550 OA
ENDBRANCH   1  27
BRANCH   7  30
ATOM     30  C   UNL     1      45.424  32.744  23.032  1.00  0.00    -0.077 C 
ATOM     31  C   UNL     1      45.863  32.778  24.479  1.00  0.00     0.039 C 
ATOM     32  C   UNL     1      46.003  33.612  22.183  1.00  0.00     0.008 C 
ENDBRANCH   7  30
BRANCH  24  33
ATOM     33  O   UNL     1      53.231  25.933  20.907  1.00  0.00    -0.393 OA
ATOM     34  H   UNL     1      53.223  25.878  19.915  1.00  0.00     0.210 HD
ENDBRANCH  24  33
TORSDOF 3
ENDMDL
MODEL 8
REMARK VINA RESULT:    -5.779      7.474      9.954
REMARK INTER + INTRA:          -7.206
REMARK INTER:                  -6.583
REMARK INTRA:                  -0.623
REMARK UNBOUND:                -0.582
REMARK SMILES C=C(C)[C@@H]1CC[C@]2(C(=O)[O-])CC[C@]3(C)[C@@H](CC[C@@H]4[C@@]5(C)CC[C@H](O)C(C)(C)[C@H]5CC[C@]43C)[C@H]12
REMARK SMILES IDX 7 1 6 2 33 3 11 4 5 5 15 6 4 7 12 8 16 9 13 10 17 11 31 12
REMARK SMILES IDX 14 13 18 14 30 15 32 16 19 17 29 18 21 19 20 20 28 21 22 22
REMARK SMILES IDX 25 23 23 24 26 25 27 26 8 27 9 28 10 29 2 30 3 31 1 32 24 33
REMARK H PARENT 24 34
REMARK Flexibility Score: inf
ROOT
ATOM      1  C   UNL     1      40.434  25.288  25.850  1.00  0.00     0.014 C 
ATOM      2  C   UNL     1      39.042  24.635  25.758  1.00  0.00     0.014 C 
ATOM      3  C   UNL     1      40.878  25.399  24.363  1.00  0.00     0.012 C 
ATOM      4  C   UNL     1      40.378  26.611  26.629  1.00  0.00     0.014 C 
ATOM      5  C   UNL     1      39.150  23.597  24.655  1.00  0.00     0.009 C 
ATOM      6  C   UNL     1      40.347  26.682  23.614  1.00  0.00     0.000 C 
ATOM      7  C   UNL     1      40.355  24.024  23.795  1.00  0.00     0.018 C 
ATOM      8  C   UNL     1      39.722  27.775  25.885  1.00  0.00     0.008 C 
ATOM      9  C   UNL     1      41.068  26.883  22.246  1.00  0.00     0.005 C 
ATOM     10  C   UNL     1      40.219  28.057  24.424  1.00  0.00    -0.024 C 
ATOM     11  C   UNL     1      42.357  27.696  22.324  1.00  0.00     0.005 C 
ATOM     12  C   UNL     1      41.567  28.978  24.388  1.00  0.00    -0.024 C 
ATOM     13  C   UNL     1      39.025  28.834  23.748  1.00  0.00     0.012 C 
ATOM     14  C   UNL     1      42.067  29.103  22.889  1.00  0.00     0.002 C 
ATOM     15  C   UNL     1      41.324  30.416  24.993  1.00  0.00     0.008 C 
ATOM     16  C   UNL     1      42.685  28.341  25.268  1.00  0.00     0.012 C 
ATOM     17  C   UNL     1      43.135  30.237  22.510  1.00  0.00    -0.026 C 
ATOM     18  C   UNL     1      41.478  31.566  24.002  1.00  0.00     0.005 C 
ATOM     19  C   UNL     1      42.984  30.556  20.968  1.00  0.00     0.010 C 
ATOM     20  C   UNL     1      44.599  29.729  22.725  1.00  0.00     0.012 C 
ATOM     21  C   UNL     1      42.898  31.560  23.370  1.00  0.00     0.003 C 
ATOM     22  C   UNL     1      41.987  31.673  20.655  1.00  0.00     0.033 C 
ATOM     23  C   UNL     1      43.218  32.913  22.603  1.00  0.00    -0.006 C 
ATOM     24  C   UNL     1      42.351  33.029  21.301  1.00  0.00     0.120 C 
ATOM     25  C   UNL     1      42.927  34.152  23.501  1.00  0.00     0.014 C 
ATOM     26  C   UNL     1      44.742  33.002  22.283  1.00  0.00     0.014 C 
ENDROOT
BRANCH   1  27
ATOM     27  C   UNL     1      41.391  24.370  26.614  1.00  0.00     0.048 C 
ATOM     28  O   UNL     1      42.626  24.389  26.361  1.00  0.00    -0.550 OA
ATOM     29  O   UNL     1      40.937  23.566  27.654  1.00  0.00    -0.550 OA
ENDBRANCH   1  27
BRANCH   7  30
ATOM     30  C   UNL     1      40.102  23.868  22.292  1.00  0.00    -0.077 C 
ATOM     31  C   UNL     1      38.753  24.119  21.656  1.00  0.00     0.039 C 
ATOM     32  C   UNL     1      41.111  23.488  21.489  1.00  0.00     0.008 C 
ENDBRANCH   7  30
BRANCH  24  33
ATOM     33  O   UNL     1      42.991  33.857  20.358  1.00  0.00    -0.393 OA
ATOM     34  H   UNL     1      43.970  33.744  20.485  1.00  0.00     0.210 HD
ENDBRANCH  24  33
TORSDOF 3
ENDMDL
MODEL 9
REMARK VINA RESULT:    -5.768      3.536      8.065
REMARK INTER + INTRA:          -7.193
REMARK INTER:                  -6.581
REMARK INTRA:                  -0.611
REMARK UNBOUND:                -0.582
REMARK SMILES C=C(C)[C@@H]1CC[C@]2(C(=O)[O-])CC[C@]3(C)[C@@H](CC[C@@H]4[C@@]5(C)CC[C@H](O)C(C)(C)[C@H]5CC[C@]43C)[C@H]12
REMARK SMILES IDX 7 1 6 2 33 3 11 4 5 5 15 6 4 7 12 8 16 9 13 10 17 11 31 12
REMARK SMILES IDX 14 13 18 14 30 15 32 16 19 17 29 18 21 19 20 20 28 21 22 22
REMARK SMILES IDX 25 23 23 24 26 25 27 26 8 27 9 28 10 29 2 30 3 31 1 32 24 33
REMARK H PARENT 24 34
REMARK Flexibility Score: inf
ROOT
ATOM      1  C   UNL     1      51.110  32.532  20.924  1.00  0.00     0.014 C 
ATOM      2  C   UNL     1      49.994  33.525  21.302  1.00  0.00     0.014 C 
ATOM      3  C   UNL     1      51.046  31.470  22.060  1.00  0.00     0.012 C 
ATOM      4  C   UNL     1      50.917  31.995  19.497  1.00  0.00     0.014 C 
ATOM      5  C   UNL     1      50.059  33.656  22.813  1.00  0.00     0.009 C 
ATOM      6  C   UNL     1      49.979  30.329  21.831  1.00  0.00     0.000 C 
ATOM      7  C   UNL     1      50.786  32.393  23.312  1.00  0.00     0.018 C 
ATOM      8  C   UNL     1      49.772  30.995  19.330  1.00  0.00     0.008 C 
ATOM      9  C   UNL     1      50.179  29.154  22.837  1.00  0.00     0.005 C 
ATOM     10  C   UNL     1      49.716  29.799  20.344  1.00  0.00    -0.024 C 
ATOM     11  C   UNL     1      51.151  28.077  22.366  1.00  0.00     0.005 C 
ATOM     12  C   UNL     1      50.679  28.557  19.901  1.00  0.00    -0.024 C 
ATOM     13  C   UNL     1      48.208  29.338  20.323  1.00  0.00     0.012 C 
ATOM     14  C   UNL     1      50.657  27.456  21.041  1.00  0.00     0.002 C 
ATOM     15  C   UNL     1      50.231  27.915  18.529  1.00  0.00     0.008 C 
ATOM     16  C   UNL     1      52.137  29.054  19.670  1.00  0.00     0.012 C 
ATOM     17  C   UNL     1      51.204  25.983  20.720  1.00  0.00    -0.026 C 
ATOM     18  C   UNL     1      49.757  26.468  18.619  1.00  0.00     0.005 C 
ATOM     19  C   UNL     1      50.521  24.976  21.732  1.00  0.00     0.010 C 
ATOM     20  C   UNL     1      52.747  25.887  20.959  1.00  0.00     0.012 C 
ATOM     21  C   UNL     1      50.869  25.561  19.217  1.00  0.00     0.003 C 
ATOM     22  C   UNL     1      49.205  24.381  21.229  1.00  0.00     0.033 C 
ATOM     23  C   UNL     1      50.556  24.017  19.019  1.00  0.00    -0.006 C 
ATOM     24  C   UNL     1      49.347  23.578  19.917  1.00  0.00     0.120 C 
ATOM     25  C   UNL     1      50.208  23.701  17.533  1.00  0.00     0.014 C 
ATOM     26  C   UNL     1      51.828  23.167  19.319  1.00  0.00     0.014 C 
ENDROOT
BRANCH   1  27
ATOM     27  C   UNL     1      52.467  33.239  20.946  1.00  0.00     0.048 C 
ATOM     28  O   UNL     1      53.522  32.583  21.161  1.00  0.00    -0.550 OA
ATOM     29  O   UNL     1      52.575  34.593  20.646  1.00  0.00    -0.550 OA
ENDBRANCH   1  27
BRANCH   7  30
ATOM     30  C   UNL     1      50.156  31.800  24.576  1.00  0.00    -0.077 C 
ATOM     31  C   UNL     1      48.661  31.749  24.802  1.00  0.00     0.039 C 
ATOM     32  C   UNL     1      50.951  31.303  25.540  1.00  0.00     0.008 C 
ENDBRANCH   7  30
BRANCH  24  33
ATOM     33  O   UNL     1      49.422  22.200  20.199  1.00  0.00    -0.393 OA
ATOM     34  H   UNL     1      48.728  21.750  19.648  1.00  0.00     0.210 HD
ENDBRANCH  24  33
TORSDOF 3
ENDMDL
