MODEL 1
REMARK VINA RESULT:    -5.226      0.000      0.000
REMARK INTER + INTRA:          -7.562
REMARK INTER:                  -6.448
REMARK INTRA:                  -1.114
REMARK UNBOUND:                -1.114
REMARK SMILES CC(C)=CCC[C@H](C)c1ccc(C)cc1
REMARK SMILES IDX 6 1 7 2 8 3 9 4 13 5 12 6 11 7 14 8 10 9 15 10 5 11 4 12
REMARK SMILES IDX 2 13 1 14 3 15
REMARK H PARENT
REMARK Flexibility Score: inf
ROOT
ATOM      1  C   UNL     1       5.505 -16.188   7.621  1.00  0.00     0.012 C 
ENDROOT
BRANCH   1   2
ATOM      2  C   UNL     1       5.870 -17.133   6.454  1.00  0.00     0.016 C 
ATOM      3  C   UNL     1       5.238 -16.692   5.124  1.00  0.00     0.013 C 
BRANCH   2   4
ATOM      4  C   UNL     1       5.464 -18.559   6.783  1.00  0.00    -0.045 A 
ATOM      5  C   UNL     1       4.356 -22.633   7.695  1.00  0.00     0.044 C 
ATOM      6  C   UNL     1       4.712 -21.212   7.373  1.00  0.00    -0.051 A 
ATOM      7  C   UNL     1       5.083 -20.855   6.068  1.00  0.00     0.004 A 
ATOM      8  C   UNL     1       4.743 -20.245   8.387  1.00  0.00     0.004 A 
ATOM      9  C   UNL     1       5.450 -19.539   5.775  1.00  0.00     0.004 A 
ATOM     10  C   UNL     1       5.110 -18.928   8.095  1.00  0.00     0.004 A 
ENDBRANCH   2   4
ENDBRANCH   1   2
BRANCH   1  11
ATOM     11  C   UNL     1       4.472 -15.123   7.221  1.00  0.00     0.028 C 
BRANCH  11  12
ATOM     12  C   UNL     1       3.337 -15.064   8.215  1.00  0.00    -0.028 C 
ATOM     13  C   UNL     1       2.205 -15.788   8.085  1.00  0.00    -0.080 C 
ATOM     14  C   UNL     1       1.135 -15.654   9.137  1.00  0.00     0.039 C 
ATOM     15  C   UNL     1       1.995 -16.722   6.918  1.00  0.00     0.039 C 
ENDBRANCH  11  12
ENDBRANCH   1  11
TORSDOF 4
ENDMDL
MODEL 2
REMARK VINA RESULT:    -5.167      1.778      6.303
REMARK INTER + INTRA:          -7.489
REMARK INTER:                  -6.995
REMARK INTRA:                  -0.495
REMARK UNBOUND:                -1.114
REMARK SMILES CC(C)=CCC[C@H](C)c1ccc(C)cc1
REMARK SMILES IDX 6 1 7 2 8 3 9 4 13 5 12 6 11 7 14 8 10 9 15 10 5 11 4 12
REMARK SMILES IDX 2 13 1 14 3 15
REMARK H PARENT
REMARK Flexibility Score: inf
ROOT
ATOM      1  C   UNL     1       4.578 -17.053   7.016  1.00  0.00     0.012 C 
ENDROOT
BRANCH   1   2
ATOM      2  C   UNL     1       5.401 -15.920   7.668  1.00  0.00     0.016 C 
ATOM      3  C   UNL     1       6.075 -16.364   8.977  1.00  0.00     0.013 C 
BRANCH   2   4
ATOM      4  C   UNL     1       4.525 -14.703   7.912  1.00  0.00    -0.045 A 
ATOM      5  C   UNL     1       2.019 -11.265   8.655  1.00  0.00     0.044 C 
ATOM      6  C   UNL     1       2.883 -12.457   8.367  1.00  0.00    -0.051 A 
ATOM      7  C   UNL     1       2.348 -13.751   8.440  1.00  0.00     0.004 A 
ATOM      8  C   UNL     1       4.247 -12.290   8.092  1.00  0.00     0.004 A 
ATOM      9  C   UNL     1       3.161 -14.864   8.209  1.00  0.00     0.004 A 
ATOM     10  C   UNL     1       5.062 -13.403   7.860  1.00  0.00     0.004 A 
ENDBRANCH   2   4
ENDBRANCH   1   2
BRANCH   1  11
ATOM     11  C   UNL     1       5.348 -18.381   6.945  1.00  0.00     0.028 C 
BRANCH  11  12
ATOM     12  C   UNL     1       4.609 -19.481   7.669  1.00  0.00    -0.028 C 
ATOM     13  C   UNL     1       4.964 -20.781   7.591  1.00  0.00    -0.080 C 
ATOM     14  C   UNL     1       4.157 -21.798   8.355  1.00  0.00     0.039 C 
ATOM     15  C   UNL     1       6.143 -21.230   6.761  1.00  0.00     0.039 C 
ENDBRANCH  11  12
ENDBRANCH   1  11
TORSDOF 4
ENDMDL
MODEL 3
REMARK VINA RESULT:    -5.158      1.590      5.930
REMARK INTER + INTRA:          -7.478
REMARK INTER:                  -6.801
REMARK INTRA:                  -0.678
REMARK UNBOUND:                -1.114
REMARK SMILES CC(C)=CCC[C@H](C)c1ccc(C)cc1
REMARK SMILES IDX 6 1 7 2 8 3 9 4 13 5 12 6 11 7 14 8 10 9 15 10 5 11 4 12
REMARK SMILES IDX 2 13 1 14 3 15
REMARK H PARENT
REMARK Flexibility Score: inf
ROOT
ATOM      1  C   UNL     1       5.355 -17.708   7.352  1.00  0.00     0.012 C 
ENDROOT
BRANCH   1   2
ATOM      2  C   UNL     1       3.926 -17.224   7.688  1.00  0.00     0.016 C 
ATOM      3  C   UNL     1       2.911 -17.595   6.594  1.00  0.00     0.013 C 
BRANCH   2   4
ATOM      4  C   UNL     1       3.918 -15.725   7.928  1.00  0.00    -0.045 A 
ATOM      5  C   UNL     1       3.918 -11.452   8.562  1.00  0.00     0.044 C 
ATOM      6  C   UNL     1       3.922 -12.941   8.372  1.00  0.00    -0.051 A 
ATOM      7  C   UNL     1       5.113 -13.608   8.052  1.00  0.00     0.004 A 
ATOM      8  C   UNL     1       2.724 -13.665   8.443  1.00  0.00     0.004 A 
ATOM      9  C   UNL     1       5.112 -14.989   7.838  1.00  0.00     0.004 A 
ATOM     10  C   UNL     1       2.722 -15.046   8.229  1.00  0.00     0.004 A 
ENDBRANCH   2   4
ENDBRANCH   1   2
BRANCH   1  11
ATOM     11  C   UNL     1       5.395 -19.178   6.906  1.00  0.00     0.028 C 
BRANCH  11  12
ATOM     12  C   UNL     1       4.979 -20.100   8.026  1.00  0.00    -0.028 C 
ATOM     13  C   UNL     1       4.216 -21.197   7.831  1.00  0.00    -0.080 C 
ATOM     14  C   UNL     1       3.858 -22.050   9.021  1.00  0.00     0.039 C 
ATOM     15  C   UNL     1       3.721 -21.582   6.457  1.00  0.00     0.039 C 
ENDBRANCH  11  12
ENDBRANCH   1  11
TORSDOF 4
ENDMDL
MODEL 4
REMARK VINA RESULT:    -5.039      2.595      6.813
REMARK INTER + INTRA:          -7.332
REMARK INTER:                  -6.228
REMARK INTRA:                  -1.104
REMARK UNBOUND:                -1.114
REMARK SMILES CC(C)=CCC[C@H](C)c1ccc(C)cc1
REMARK SMILES IDX 6 1 7 2 8 3 9 4 13 5 12 6 11 7 14 8 10 9 15 10 5 11 4 12
REMARK SMILES IDX 2 13 1 14 3 15
REMARK H PARENT
REMARK Flexibility Score: inf
ROOT
ATOM      1  C   UNL     1       5.009 -15.680   8.510  1.00  0.00     0.012 C 
ENDROOT
BRANCH   1   2
ATOM      2  C   UNL     1       3.752 -14.880   8.916  1.00  0.00     0.016 C 
ATOM      3  C   UNL     1       2.450 -15.614   8.556  1.00  0.00     0.013 C 
BRANCH   2   4
ATOM      4  C   UNL     1       3.773 -13.502   8.279  1.00  0.00    -0.045 A 
ATOM      5  C   UNL     1       3.856  -9.602   6.423  1.00  0.00     0.044 C 
ATOM      6  C   UNL     1       3.832 -10.944   7.095  1.00  0.00    -0.051 A 
ATOM      7  C   UNL     1       5.008 -11.700   7.204  1.00  0.00     0.004 A 
ATOM      8  C   UNL     1       2.622 -11.480   7.555  1.00  0.00     0.004 A 
ATOM      9  C   UNL     1       4.979 -12.966   7.796  1.00  0.00     0.004 A 
ATOM     10  C   UNL     1       2.592 -12.746   8.148  1.00  0.00     0.004 A 
ENDBRANCH   2   4
ENDBRANCH   1   2
BRANCH   1  11
ATOM     11  C   UNL     1       4.673 -16.951   7.714  1.00  0.00     0.028 C 
BRANCH  11  12
ATOM     12  C   UNL     1       5.516 -17.052   6.465  1.00  0.00    -0.028 C 
ATOM     13  C   UNL     1       5.157 -16.496   5.288  1.00  0.00    -0.080 C 
ATOM     14  C   UNL     1       6.073 -16.657   4.103  1.00  0.00     0.039 C 
ATOM     15  C   UNL     1       3.868 -15.724   5.140  1.00  0.00     0.039 C 
ENDBRANCH  11  12
ENDBRANCH   1  11
TORSDOF 4
ENDMDL
MODEL 5
REMARK VINA RESULT:    -4.972      1.320      1.857
REMARK INTER + INTRA:          -7.248
REMARK INTER:                  -6.508
REMARK INTRA:                  -0.740
REMARK UNBOUND:                -1.114
REMARK SMILES CC(C)=CCC[C@H](C)c1ccc(C)cc1
REMARK SMILES IDX 6 1 7 2 8 3 9 4 13 5 12 6 11 7 14 8 10 9 15 10 5 11 4 12
REMARK SMILES IDX 2 13 1 14 3 15
REMARK H PARENT
REMARK Flexibility Score: inf
ROOT
ATOM      1  C   UNL     1       5.307 -16.770   8.156  1.00  0.00     0.012 C 
ENDROOT
BRANCH   1   2
ATOM      2  C   UNL     1       5.799 -17.502   6.888  1.00  0.00     0.016 C 
ATOM      3  C   UNL     1       5.375 -16.785   5.596  1.00  0.00     0.013 C 
BRANCH   2   4
ATOM      4  C   UNL     1       5.305 -18.938   6.880  1.00  0.00    -0.045 A 
ATOM      5  C   UNL     1       3.943 -23.037   6.829  1.00  0.00     0.044 C 
ATOM      6  C   UNL     1       4.387 -21.604   6.845  1.00  0.00    -0.051 A 
ATOM      7  C   UNL     1       4.714 -20.952   5.647  1.00  0.00     0.004 A 
ATOM      8  C   UNL     1       4.545 -20.928   8.063  1.00  0.00     0.004 A 
ATOM      9  C   UNL     1       5.163 -19.629   5.664  1.00  0.00     0.004 A 
ATOM     10  C   UNL     1       4.995 -19.604   8.081  1.00  0.00     0.004 A 
ENDBRANCH   2   4
ENDBRANCH   1   2
BRANCH   1  11
ATOM     11  C   UNL     1       4.044 -15.932   7.906  1.00  0.00     0.028 C 
BRANCH  11  12
ATOM     12  C   UNL     1       4.161 -14.567   8.539  1.00  0.00    -0.028 C 
ATOM     13  C   UNL     1       3.999 -13.418   7.847  1.00  0.00    -0.080 C 
ATOM     14  C   UNL     1       4.137 -12.108   8.579  1.00  0.00     0.039 C 
ATOM     15  C   UNL     1       3.686 -13.422   6.371  1.00  0.00     0.039 C 
ENDBRANCH  11  12
ENDBRANCH   1  11
TORSDOF 4
ENDMDL
MODEL 6
REMARK VINA RESULT:    -4.961      1.535      2.561
REMARK INTER + INTRA:          -7.235
REMARK INTER:                  -5.907
REMARK INTRA:                  -1.328
REMARK UNBOUND:                -1.114
REMARK SMILES CC(C)=CCC[C@H](C)c1ccc(C)cc1
REMARK SMILES IDX 6 1 7 2 8 3 9 4 13 5 12 6 11 7 14 8 10 9 15 10 5 11 4 12
REMARK SMILES IDX 2 13 1 14 3 15
REMARK H PARENT
REMARK Flexibility Score: inf
ROOT
ATOM      1  C   UNL     1       4.933 -17.451   4.491  1.00  0.00     0.012 C 
ENDROOT
BRANCH   1   2
ATOM      2  C   UNL     1       5.377 -18.917   4.292  1.00  0.00     0.016 C 
ATOM      3  C   UNL     1       4.793 -19.537   3.013  1.00  0.00     0.013 C 
BRANCH   2   4
ATOM      4  C   UNL     1       4.999 -19.753   5.503  1.00  0.00    -0.045 A 
ATOM      5  C   UNL     1       3.885 -22.154   8.916  1.00  0.00     0.044 C 
ATOM      6  C   UNL     1       4.278 -21.297   7.749  1.00  0.00    -0.051 A 
ATOM      7  C   UNL     1       3.308 -20.557   7.058  1.00  0.00     0.004 A 
ATOM      8  C   UNL     1       5.605 -21.283   7.298  1.00  0.00     0.004 A 
ATOM      9  C   UNL     1       3.666 -19.787   5.949  1.00  0.00     0.004 A 
ATOM     10  C   UNL     1       5.965 -20.513   6.188  1.00  0.00     0.004 A 
ENDBRANCH   2   4
ENDBRANCH   1   2
BRANCH   1  11
ATOM     11  C   UNL     1       5.825 -16.688   5.483  1.00  0.00     0.028 C 
BRANCH  11  12
ATOM     12  C   UNL     1       4.999 -15.839   6.418  1.00  0.00    -0.028 C 
ATOM     13  C   UNL     1       4.778 -16.168   7.709  1.00  0.00    -0.080 C 
ATOM     14  C   UNL     1       3.938 -15.248   8.557  1.00  0.00     0.039 C 
ATOM     15  C   UNL     1       5.351 -17.428   8.313  1.00  0.00     0.039 C 
ENDBRANCH  11  12
ENDBRANCH   1  11
TORSDOF 4
ENDMDL
MODEL 7
REMARK VINA RESULT:    -4.947      1.975      5.244
REMARK INTER + INTRA:          -7.218
REMARK INTER:                  -5.694
REMARK INTRA:                  -1.524
REMARK UNBOUND:                -1.114
REMARK SMILES CC(C)=CCC[C@H](C)c1ccc(C)cc1
REMARK SMILES IDX 6 1 7 2 8 3 9 4 13 5 12 6 11 7 14 8 10 9 15 10 5 11 4 12
REMARK SMILES IDX 2 13 1 14 3 15
REMARK H PARENT
REMARK Flexibility Score: inf
ROOT
ATOM      1  C   UNL     1       6.252 -16.917   6.274  1.00  0.00     0.012 C 
ENDROOT
BRANCH   1   2
ATOM      2  C   UNL     1       5.531 -17.030   7.635  1.00  0.00     0.016 C 
ATOM      3  C   UNL     1       4.731 -18.336   7.768  1.00  0.00     0.013 C 
BRANCH   2   4
ATOM      4  C   UNL     1       4.624 -15.832   7.855  1.00  0.00    -0.045 A 
ATOM      5  C   UNL     1       2.060 -12.404   8.430  1.00  0.00     0.044 C 
ATOM      6  C   UNL     1       2.955 -13.595   8.260  1.00  0.00    -0.051 A 
ATOM      7  C   UNL     1       4.318 -13.420   7.980  1.00  0.00     0.004 A 
ATOM      8  C   UNL     1       2.424 -14.891   8.311  1.00  0.00     0.004 A 
ATOM      9  C   UNL     1       5.146 -14.529   7.785  1.00  0.00     0.004 A 
ATOM     10  C   UNL     1       3.251 -16.001   8.116  1.00  0.00     0.004 A 
ENDBRANCH   2   4
ENDBRANCH   1   2
BRANCH   1  11
ATOM     11  C   UNL     1       5.354 -17.315   5.092  1.00  0.00     0.028 C 
BRANCH  11  12
ATOM     12  C   UNL     1       4.736 -16.101   4.443  1.00  0.00    -0.028 C 
ATOM     13  C   UNL     1       3.402 -15.930   4.320  1.00  0.00    -0.080 C 
ATOM     14  C   UNL     1       2.890 -14.679   3.655  1.00  0.00     0.039 C 
ATOM     15  C   UNL     1       2.424 -16.960   4.833  1.00  0.00     0.039 C 
ENDBRANCH  11  12
ENDBRANCH   1  11
TORSDOF 4
ENDMDL
MODEL 8
REMARK VINA RESULT:    -4.930      1.090      5.079
REMARK INTER + INTRA:          -7.197
REMARK INTER:                  -6.051
REMARK INTRA:                  -1.146
REMARK UNBOUND:                -1.114
REMARK SMILES CC(C)=CCC[C@H](C)c1ccc(C)cc1
REMARK SMILES IDX 6 1 7 2 8 3 9 4 13 5 12 6 11 7 14 8 10 9 15 10 5 11 4 12
REMARK SMILES IDX 2 13 1 14 3 15
REMARK H PARENT
REMARK Flexibility Score: inf
ROOT
ATOM      1  C   UNL     1       5.223 -16.261   6.051  1.00  0.00     0.012 C 
ENDROOT
BRANCH   1   2
ATOM      2  C   UNL     1       4.932 -15.520   7.375  1.00  0.00     0.016 C 
ATOM      3  C   UNL     1       5.783 -16.048   8.541  1.00  0.00     0.013 C 
BRANCH   2   4
ATOM      4  C   UNL     1       3.455 -15.611   7.718  1.00  0.00    -0.045 A 
ATOM      5  C   UNL     1      -0.738 -15.922   8.707  1.00  0.00     0.044 C 
ATOM      6  C   UNL     1       0.711 -15.795   8.341  1.00  0.00    -0.051 A 
ATOM      7  C   UNL     1       1.295 -16.701   7.444  1.00  0.00     0.004 A 
ATOM      8  C   UNL     1       1.508 -14.813   8.946  1.00  0.00     0.004 A 
ATOM      9  C   UNL     1       2.654 -16.606   7.131  1.00  0.00     0.004 A 
ATOM     10  C   UNL     1       2.868 -14.717   8.634  1.00  0.00     0.004 A 
ENDBRANCH   2   4
ENDBRANCH   1   2
BRANCH   1  11
ATOM     11  C   UNL     1       6.050 -17.539   6.255  1.00  0.00     0.028 C 
BRANCH  11  12
ATOM     12  C   UNL     1       5.291 -18.760   5.793  1.00  0.00    -0.028 C 
ATOM     13  C   UNL     1       4.813 -19.695   6.642  1.00  0.00    -0.080 C 
ATOM     14  C   UNL     1       4.068 -20.875   6.074  1.00  0.00     0.039 C 
ATOM     15  C   UNL     1       5.008 -19.580   8.135  1.00  0.00     0.039 C 
ENDBRANCH  11  12
ENDBRANCH   1  11
TORSDOF 4
ENDMDL
MODEL 9
REMARK VINA RESULT:    -4.850      1.947      3.985
REMARK INTER + INTRA:          -7.098
REMARK INTER:                  -5.618
REMARK INTRA:                  -1.480
REMARK UNBOUND:                -1.114
REMARK SMILES CC(C)=CCC[C@H](C)c1ccc(C)cc1
REMARK SMILES IDX 6 1 7 2 8 3 9 4 13 5 12 6 11 7 14 8 10 9 15 10 5 11 4 12
REMARK SMILES IDX 2 13 1 14 3 15
REMARK H PARENT
REMARK Flexibility Score: inf
ROOT
ATOM      1  C   UNL     1       2.709 -12.382   8.169  1.00  0.00     0.012 C 
ENDROOT
BRANCH   1   2
ATOM      2  C   UNL     1       3.920 -12.651   7.249  1.00  0.00     0.016 C 
ATOM      3  C   UNL     1       3.683 -12.159   5.812  1.00  0.00     0.013 C 
BRANCH   2   4
ATOM      4  C   UNL     1       4.268 -14.129   7.249  1.00  0.00    -0.045 A 
ATOM      5  C   UNL     1       5.292 -18.325   7.212  1.00  0.00     0.044 C 
ATOM      6  C   UNL     1       4.907 -16.875   7.231  1.00  0.00    -0.051 A 
ATOM      7  C   UNL     1       4.546 -16.225   6.042  1.00  0.00     0.004 A 
ATOM      8  C   UNL     1       4.974 -16.143   8.424  1.00  0.00     0.004 A 
ATOM      9  C   UNL     1       4.223 -14.865   6.053  1.00  0.00     0.004 A 
ATOM     10  C   UNL     1       4.651 -14.782   8.436  1.00  0.00     0.004 A 
ENDBRANCH   2   4
ENDBRANCH   1   2
BRANCH   1  11
ATOM     11  C   UNL     1       1.449 -13.146   7.732  1.00  0.00     0.028 C 
BRANCH  11  12
ATOM     12  C   UNL     1       0.844 -13.906   8.887  1.00  0.00    -0.028 C 
ATOM     13  C   UNL     1       0.715 -15.250   8.897  1.00  0.00    -0.080 C 
ATOM     14  C   UNL     1       0.096 -15.909  10.103  1.00  0.00     0.039 C 
ATOM     15  C   UNL     1       1.176 -16.097   7.735  1.00  0.00     0.039 C 
ENDBRANCH  11  12
ENDBRANCH   1  11
TORSDOF 4
ENDMDL
