MODEL 1
REMARK VINA RESULT:     6.840      0.000      0.000
REMARK INTER + INTRA:          11.481
REMARK INTER:                  12.038
REMARK INTRA:                  -0.557
REMARK UNBOUND:                -0.557
REMARK SMILES CCCCCCCCCCCCCCC(=O)[O-]
REMARK SMILES IDX 9 1 10 2 11 3 12 4 13 5 14 6 15 7 16 8 17 9 8 10 7 11 6 12
REMARK SMILES IDX 5 13 4 14 3 15 2 16 1 17
REMARK H PARENT
REMARK Flexibility Score: inf
ROOT
ATOM      1  C   UNL     1      28.988  44.587   3.487  1.00  0.00     0.000 C 
ENDROOT
BRANCH   1   2
ATOM      2  C   UNL     1      29.410  44.732   2.014  1.00  0.00     0.000 C 
BRANCH   2   3
ATOM      3  C   UNL     1      29.749  43.385   1.353  1.00  0.00     0.000 C 
BRANCH   3   4
ATOM      4  C   UNL     1      30.423  43.545  -0.022  1.00  0.00     0.000 C 
BRANCH   4   5
ATOM      5  C   UNL     1      30.094  42.441  -1.048  1.00  0.00     0.006 C 
BRANCH   5   6
ATOM      6  C   UNL     1      29.756  42.955  -2.456  1.00  0.00     0.053 C 
BRANCH   6   7
ATOM      7  C   UNL     1      28.936  41.969  -3.231  1.00  0.00     0.041 C 
ATOM      8  O   UNL     1      27.961  41.388  -2.686  1.00  0.00    -0.550 OA
ATOM      9  O   UNL     1      29.269  41.668  -4.546  1.00  0.00    -0.550 OA
ENDBRANCH   6   7
ENDBRANCH   5   6
ENDBRANCH   4   5
ENDBRANCH   3   4
ENDBRANCH   2   3
ENDBRANCH   1   2
BRANCH   1  10
ATOM     10  C   UNL     1      27.579  45.113   3.827  1.00  0.00     0.000 C 
BRANCH  10  11
ATOM     11  C   UNL     1      27.090  44.802   5.252  1.00  0.00    -0.000 C 
BRANCH  11  12
ATOM     12  C   UNL     1      26.199  43.552   5.317  1.00  0.00    -0.000 C 
BRANCH  12  13
ATOM     13  C   UNL     1      25.626  43.214   3.936  1.00  0.00    -0.000 C 
BRANCH  13  14
ATOM     14  C   UNL     1      24.535  42.143   4.039  1.00  0.00    -0.000 C 
BRANCH  14  15
ATOM     15  C   UNL     1      23.144  42.782   4.134  1.00  0.00    -0.000 C 
BRANCH  15  16
ATOM     16  C   UNL     1      22.306  42.464   2.890  1.00  0.00    -0.003 C 
ATOM     17  C   UNL     1      23.143  41.749   1.832  1.00  0.00     0.004 C 
ENDBRANCH  15  16
ENDBRANCH  14  15
ENDBRANCH  13  14
ENDBRANCH  12  13
ENDBRANCH  11  12
ENDBRANCH  10  11
ENDBRANCH   1  10
TORSDOF 13
ENDMDL
MODEL 2
REMARK VINA RESULT:     7.814      2.609      6.815
REMARK INTER + INTRA:          13.197
REMARK INTER:                  13.078
REMARK INTRA:                   0.119
REMARK UNBOUND:                -0.557
REMARK SMILES CCCCCCCCCCCCCCC(=O)[O-]
REMARK SMILES IDX 9 1 10 2 11 3 12 4 13 5 14 6 15 7 16 8 17 9 8 10 7 11 6 12
REMARK SMILES IDX 5 13 4 14 3 15 2 16 1 17
REMARK H PARENT
REMARK Flexibility Score: inf
ROOT
ATOM      1  C   UNL     1      28.245  45.501   3.931  1.00  0.00     0.000 C 
ENDROOT
BRANCH   1   2
ATOM      2  C   UNL     1      27.083  45.226   4.903  1.00  0.00     0.000 C 
BRANCH   2   3
ATOM      3  C   UNL     1      26.742  43.732   5.021  1.00  0.00     0.000 C 
BRANCH   3   4
ATOM      4  C   UNL     1      25.622  43.295   4.059  1.00  0.00     0.000 C 
BRANCH   4   5
ATOM      5  C   UNL     1      24.645  42.242   4.621  1.00  0.00     0.006 C 
BRANCH   5   6
ATOM      6  C   UNL     1      23.239  42.280   4.004  1.00  0.00     0.053 C 
BRANCH   6   7
ATOM      7  C   UNL     1      23.282  42.267   2.507  1.00  0.00     0.041 C 
ATOM      8  O   UNL     1      23.988  43.104   1.886  1.00  0.00    -0.550 OA
ATOM      9  O   UNL     1      22.516  41.351   1.796  1.00  0.00    -0.550 OA
ENDBRANCH   6   7
ENDBRANCH   5   6
ENDBRANCH   4   5
ENDBRANCH   3   4
ENDBRANCH   2   3
ENDBRANCH   1   2
BRANCH   1  10
ATOM     10  C   UNL     1      28.888  44.249   3.299  1.00  0.00     0.000 C 
BRANCH  10  11
ATOM     11  C   UNL     1      29.513  44.465   1.910  1.00  0.00    -0.000 C 
BRANCH  11  12
ATOM     12  C   UNL     1      29.619  43.167   1.095  1.00  0.00    -0.000 C 
BRANCH  12  13
ATOM     13  C   UNL     1      30.640  43.312  -0.039  1.00  0.00    -0.000 C 
BRANCH  13  14
ATOM     14  C   UNL     1      30.295  42.388  -1.213  1.00  0.00    -0.000 C 
BRANCH  14  15
ATOM     15  C   UNL     1      29.733  43.186  -2.396  1.00  0.00    -0.000 C 
BRANCH  15  16
ATOM     16  C   UNL     1      29.238  42.250  -3.504  1.00  0.00    -0.003 C 
ATOM     17  C   UNL     1      28.081  41.382  -3.016  1.00  0.00     0.004 C 
ENDBRANCH  15  16
ENDBRANCH  14  15
ENDBRANCH  13  14
ENDBRANCH  12  13
ENDBRANCH  11  12
ENDBRANCH  10  11
ENDBRANCH   1  10
TORSDOF 13
ENDMDL
MODEL 3
REMARK VINA RESULT:     7.847     13.352     15.308
REMARK INTER + INTRA:          13.253
REMARK INTER:                  12.752
REMARK INTRA:                   0.501
REMARK UNBOUND:                -0.557
REMARK SMILES CCCCCCCCCCCCCCC(=O)[O-]
REMARK SMILES IDX 9 1 10 2 11 3 12 4 13 5 14 6 15 7 16 8 17 9 8 10 7 11 6 12
REMARK SMILES IDX 5 13 4 14 3 15 2 16 1 17
REMARK H PARENT
REMARK Flexibility Score: inf
ROOT
ATOM      1  C   UNL     1      26.529  30.210  -3.405  1.00  0.00     0.000 C 
ENDROOT
BRANCH   1   2
ATOM      2  C   UNL     1      27.212  31.366  -2.652  1.00  0.00     0.000 C 
BRANCH   2   3
ATOM      3  C   UNL     1      27.959  30.901  -1.391  1.00  0.00     0.000 C 
BRANCH   3   4
ATOM      4  C   UNL     1      27.019  30.330  -0.313  1.00  0.00     0.000 C 
BRANCH   4   5
ATOM      5  C   UNL     1      26.533  28.887  -0.561  1.00  0.00     0.006 C 
BRANCH   5   6
ATOM      6  C   UNL     1      26.953  27.876   0.516  1.00  0.00     0.053 C 
BRANCH   6   7
ATOM      7  C   UNL     1      27.678  28.534   1.651  1.00  0.00     0.041 C 
ATOM      8  O   UNL     1      28.726  28.016   2.118  1.00  0.00    -0.550 OA
ATOM      9  O   UNL     1      27.176  29.701   2.214  1.00  0.00    -0.550 OA
ENDBRANCH   6   7
ENDBRANCH   5   6
ENDBRANCH   4   5
ENDBRANCH   3   4
ENDBRANCH   2   3
ENDBRANCH   1   2
BRANCH   1  10
ATOM     10  C   UNL     1      26.773  30.177  -4.927  1.00  0.00     0.000 C 
BRANCH  10  11
ATOM     11  C   UNL     1      25.658  30.803  -5.782  1.00  0.00    -0.000 C 
BRANCH  11  12
ATOM     12  C   UNL     1      26.164  31.321  -7.137  1.00  0.00    -0.000 C 
BRANCH  12  13
ATOM     13  C   UNL     1      25.231  32.402  -7.695  1.00  0.00    -0.000 C 
BRANCH  13  14
ATOM     14  C   UNL     1      23.891  32.410  -6.951  1.00  0.00    -0.000 C 
BRANCH  14  15
ATOM     15  C   UNL     1      22.720  32.587  -7.927  1.00  0.00    -0.000 C 
BRANCH  15  16
ATOM     16  C   UNL     1      21.912  31.291  -8.057  1.00  0.00    -0.003 C 
ATOM     17  C   UNL     1      22.831  30.074  -8.125  1.00  0.00     0.004 C 
ENDBRANCH  15  16
ENDBRANCH  14  15
ENDBRANCH  13  14
ENDBRANCH  12  13
ENDBRANCH  11  12
ENDBRANCH  10  11
ENDBRANCH   1  10
TORSDOF 13
ENDMDL
MODEL 4
REMARK VINA RESULT:     8.030      4.806      7.576
REMARK INTER + INTRA:          13.576
REMARK INTER:                  14.458
REMARK INTRA:                  -0.882
REMARK UNBOUND:                -0.557
REMARK SMILES CCCCCCCCCCCCCCC(=O)[O-]
REMARK SMILES IDX 9 1 10 2 11 3 12 4 13 5 14 6 15 7 16 8 17 9 8 10 7 11 6 12
REMARK SMILES IDX 5 13 4 14 3 15 2 16 1 17
REMARK H PARENT
REMARK Flexibility Score: inf
ROOT
ATOM      1  C   UNL     1      25.068  42.895   2.558  1.00  0.00     0.000 C 
ENDROOT
BRANCH   1   2
ATOM      2  C   UNL     1      23.765  42.152   2.903  1.00  0.00     0.000 C 
BRANCH   2   3
ATOM      3  C   UNL     1      23.237  42.491   4.307  1.00  0.00     0.000 C 
BRANCH   3   4
ATOM      4  C   UNL     1      23.205  41.271   5.246  1.00  0.00     0.000 C 
BRANCH   4   5
ATOM      5  C   UNL     1      24.560  40.563   5.452  1.00  0.00     0.006 C 
BRANCH   5   6
ATOM      6  C   UNL     1      24.674  39.767   6.762  1.00  0.00     0.053 C 
BRANCH   6   7
ATOM      7  C   UNL     1      25.696  38.676   6.668  1.00  0.00     0.041 C 
ATOM      8  O   UNL     1      26.585  38.564   7.553  1.00  0.00    -0.550 OA
ATOM      9  O   UNL     1      25.688  37.805   5.586  1.00  0.00    -0.550 OA
ENDBRANCH   6   7
ENDBRANCH   5   6
ENDBRANCH   4   5
ENDBRANCH   3   4
ENDBRANCH   2   3
ENDBRANCH   1   2
BRANCH   1  10
ATOM     10  C   UNL     1      25.781  43.567   3.749  1.00  0.00     0.000 C 
BRANCH  10  11
ATOM     11  C   UNL     1      27.296  43.777   3.572  1.00  0.00    -0.000 C 
BRANCH  11  12
ATOM     12  C   UNL     1      27.776  45.136   4.102  1.00  0.00    -0.000 C 
BRANCH  12  13
ATOM     13  C   UNL     1      27.102  45.474   5.437  1.00  0.00    -0.000 C 
BRANCH  13  14
ATOM     14  C   UNL     1      27.326  46.943   5.812  1.00  0.00    -0.000 C 
BRANCH  14  15
ATOM     15  C   UNL     1      26.924  47.208   7.268  1.00  0.00    -0.000 C 
BRANCH  15  16
ATOM     16  C   UNL     1      25.808  46.255   7.712  1.00  0.00    -0.003 C 
ATOM     17  C   UNL     1      24.477  46.991   7.845  1.00  0.00     0.004 C 
ENDBRANCH  15  16
ENDBRANCH  14  15
ENDBRANCH  13  14
ENDBRANCH  12  13
ENDBRANCH  11  12
ENDBRANCH  10  11
ENDBRANCH   1  10
TORSDOF 13
ENDMDL
MODEL 5
REMARK VINA RESULT:     8.492     13.206     15.083
REMARK INTER + INTRA:          14.389
REMARK INTER:                  14.218
REMARK INTRA:                   0.170
REMARK UNBOUND:                -0.557
REMARK SMILES CCCCCCCCCCCCCCC(=O)[O-]
REMARK SMILES IDX 9 1 10 2 11 3 12 4 13 5 14 6 15 7 16 8 17 9 8 10 7 11 6 12
REMARK SMILES IDX 5 13 4 14 3 15 2 16 1 17
REMARK H PARENT
REMARK Flexibility Score: inf
ROOT
ATOM      1  C   UNL     1      26.769  31.297  -2.984  1.00  0.00     0.000 C 
ENDROOT
BRANCH   1   2
ATOM      2  C   UNL     1      27.544  30.548  -1.884  1.00  0.00     0.000 C 
BRANCH   2   3
ATOM      3  C   UNL     1      26.717  30.338  -0.605  1.00  0.00     0.000 C 
BRANCH   3   4
ATOM      4  C   UNL     1      26.791  28.895  -0.074  1.00  0.00     0.000 C 
BRANCH   4   5
ATOM      5  C   UNL     1      28.145  28.490   0.544  1.00  0.00     0.006 C 
BRANCH   5   6
ATOM      6  C   UNL     1      28.055  27.935   1.974  1.00  0.00     0.053 C 
BRANCH   6   7
ATOM      7  C   UNL     1      27.545  28.958   2.943  1.00  0.00     0.041 C 
ATOM      8  O   UNL     1      27.783  28.839   4.173  1.00  0.00    -0.550 OA
ATOM      9  O   UNL     1      26.778  30.024   2.489  1.00  0.00    -0.550 OA
ENDBRANCH   6   7
ENDBRANCH   5   6
ENDBRANCH   4   5
ENDBRANCH   3   4
ENDBRANCH   2   3
ENDBRANCH   1   2
BRANCH   1  10
ATOM     10  C   UNL     1      26.863  30.680  -4.395  1.00  0.00     0.000 C 
BRANCH  10  11
ATOM     11  C   UNL     1      26.039  31.399  -5.478  1.00  0.00    -0.000 C 
BRANCH  11  12
ATOM     12  C   UNL     1      25.218  30.431  -6.343  1.00  0.00    -0.000 C 
BRANCH  12  13
ATOM     13  C   UNL     1      24.637  31.147  -7.568  1.00  0.00    -0.000 C 
BRANCH  13  14
ATOM     14  C   UNL     1      23.690  32.276  -7.147  1.00  0.00    -0.000 C 
BRANCH  14  15
ATOM     15  C   UNL     1      23.775  33.458  -8.121  1.00  0.00    -0.000 C 
BRANCH  15  16
ATOM     16  C   UNL     1      25.156  34.120  -8.061  1.00  0.00    -0.003 C 
ATOM     17  C   UNL     1      25.041  35.641  -8.124  1.00  0.00     0.004 C 
ENDBRANCH  15  16
ENDBRANCH  14  15
ENDBRANCH  13  14
ENDBRANCH  12  13
ENDBRANCH  11  12
ENDBRANCH  10  11
ENDBRANCH   1  10
TORSDOF 13
ENDMDL
MODEL 6
REMARK VINA RESULT:     8.809     13.307     14.971
REMARK INTER + INTRA:          14.947
REMARK INTER:                  15.703
REMARK INTRA:                  -0.756
REMARK UNBOUND:                -0.557
REMARK SMILES CCCCCCCCCCCCCCC(=O)[O-]
REMARK SMILES IDX 9 1 10 2 11 3 12 4 13 5 14 6 15 7 16 8 17 9 8 10 7 11 6 12
REMARK SMILES IDX 5 13 4 14 3 15 2 16 1 17
REMARK H PARENT
REMARK Flexibility Score: inf
ROOT
ATOM      1  C   UNL     1      25.515  31.399  -5.749  1.00  0.00     0.000 C 
ENDROOT
BRANCH   1   2
ATOM      2  C   UNL     1      25.331  31.709  -7.246  1.00  0.00     0.000 C 
BRANCH   2   3
ATOM      3  C   UNL     1      24.609  33.043  -7.497  1.00  0.00     0.000 C 
BRANCH   3   4
ATOM      4  C   UNL     1      23.076  32.911  -7.461  1.00  0.00     0.000 C 
BRANCH   4   5
ATOM      5  C   UNL     1      22.510  31.636  -8.121  1.00  0.00     0.006 C 
BRANCH   5   6
ATOM      6  C   UNL     1      21.997  30.578  -7.132  1.00  0.00     0.053 C 
BRANCH   6   7
ATOM      7  C   UNL     1      22.517  29.210  -7.454  1.00  0.00     0.041 C 
ATOM      8  O   UNL     1      21.878  28.188  -7.091  1.00  0.00    -0.550 OA
ATOM      9  O   UNL     1      23.725  29.065  -8.125  1.00  0.00    -0.550 OA
ENDBRANCH   6   7
ENDBRANCH   5   6
ENDBRANCH   4   5
ENDBRANCH   3   4
ENDBRANCH   2   3
ENDBRANCH   1   2
BRANCH   1  10
ATOM     10  C   UNL     1      26.726  30.509  -5.402  1.00  0.00     0.000 C 
BRANCH  10  11
ATOM     11  C   UNL     1      27.040  30.389  -3.900  1.00  0.00    -0.000 C 
BRANCH  11  12
ATOM     12  C   UNL     1      26.270  31.407  -3.047  1.00  0.00    -0.000 C 
BRANCH  12  13
ATOM     13  C   UNL     1      26.376  31.065  -1.556  1.00  0.00    -0.000 C 
BRANCH  13  14
ATOM     14  C   UNL     1      26.809  29.609  -1.354  1.00  0.00    -0.000 C 
BRANCH  14  15
ATOM     15  C   UNL     1      26.608  29.171   0.102  1.00  0.00    -0.000 C 
BRANCH  15  16
ATOM     16  C   UNL     1      27.319  30.127   1.066  1.00  0.00    -0.003 C 
ATOM     17  C   UNL     1      26.616  30.167   2.421  1.00  0.00     0.004 C 
ENDBRANCH  15  16
ENDBRANCH  14  15
ENDBRANCH  13  14
ENDBRANCH  12  13
ENDBRANCH  11  12
ENDBRANCH  10  11
ENDBRANCH   1  10
TORSDOF 13
ENDMDL
MODEL 7
REMARK VINA RESULT:     8.998     12.453     14.758
REMARK INTER + INTRA:          15.280
REMARK INTER:                  15.761
REMARK INTRA:                  -0.481
REMARK UNBOUND:                -0.557
REMARK SMILES CCCCCCCCCCCCCCC(=O)[O-]
REMARK SMILES IDX 9 1 10 2 11 3 12 4 13 5 14 6 15 7 16 8 17 9 8 10 7 11 6 12
REMARK SMILES IDX 5 13 4 14 3 15 2 16 1 17
REMARK H PARENT
REMARK Flexibility Score: inf
ROOT
ATOM      1  C   UNL     1      26.529  31.587  -4.354  1.00  0.00     0.000 C 
ENDROOT
BRANCH   1   2
ATOM      2  C   UNL     1      27.344  30.801  -3.311  1.00  0.00     0.000 C 
BRANCH   2   3
ATOM      3  C   UNL     1      27.125  31.307  -1.876  1.00  0.00     0.000 C 
BRANCH   3   4
ATOM      4  C   UNL     1      26.424  30.273  -0.976  1.00  0.00     0.000 C 
BRANCH   4   5
ATOM      5  C   UNL     1      27.363  29.420  -0.098  1.00  0.00     0.006 C 
BRANCH   5   6
ATOM      6  C   UNL     1      27.118  29.547   1.413  1.00  0.00     0.053 C 
BRANCH   6   7
ATOM      7  C   UNL     1      27.879  28.519   2.193  1.00  0.00     0.041 C 
ATOM      8  O   UNL     1      27.551  28.252   3.379  1.00  0.00    -0.550 OA
ATOM      9  O   UNL     1      28.973  27.880   1.622  1.00  0.00    -0.550 OA
ENDBRANCH   6   7
ENDBRANCH   5   6
ENDBRANCH   4   5
ENDBRANCH   3   4
ENDBRANCH   2   3
ENDBRANCH   1   2
BRANCH   1  10
ATOM     10  C   UNL     1      25.750  30.726  -5.370  1.00  0.00     0.000 C 
BRANCH  10  11
ATOM     11  C   UNL     1      25.809  31.219  -6.826  1.00  0.00    -0.000 C 
BRANCH  11  12
ATOM     12  C   UNL     1      24.851  32.388  -7.099  1.00  0.00    -0.000 C 
BRANCH  12  13
ATOM     13  C   UNL     1      25.604  33.589  -7.684  1.00  0.00    -0.000 C 
BRANCH  13  14
ATOM     14  C   UNL     1      24.636  34.719  -8.053  1.00  0.00    -0.000 C 
BRANCH  14  15
ATOM     15  C   UNL     1      25.362  36.069  -8.112  1.00  0.00    -0.000 C 
BRANCH  15  16
ATOM     16  C   UNL     1      26.883  35.875  -8.125  1.00  0.00    -0.003 C 
ATOM     17  C   UNL     1      27.605  37.154  -7.709  1.00  0.00     0.004 C 
ENDBRANCH  15  16
ENDBRANCH  14  15
ENDBRANCH  13  14
ENDBRANCH  12  13
ENDBRANCH  11  12
ENDBRANCH  10  11
ENDBRANCH   1  10
TORSDOF 13
ENDMDL
MODEL 8
REMARK VINA RESULT:     9.073     12.790     14.262
REMARK INTER + INTRA:          15.411
REMARK INTER:                  14.962
REMARK INTRA:                   0.449
REMARK UNBOUND:                -0.557
REMARK SMILES CCCCCCCCCCCCCCC(=O)[O-]
REMARK SMILES IDX 9 1 10 2 11 3 12 4 13 5 14 6 15 7 16 8 17 9 8 10 7 11 6 12
REMARK SMILES IDX 5 13 4 14 3 15 2 16 1 17
REMARK H PARENT
REMARK Flexibility Score: inf
ROOT
ATOM      1  C   UNL     1      25.659  31.290  -3.639  1.00  0.00     0.000 C 
ENDROOT
BRANCH   1   2
ATOM      2  C   UNL     1      26.307  30.552  -4.825  1.00  0.00     0.000 C 
BRANCH   2   3
ATOM      3  C   UNL     1      26.338  31.396  -6.110  1.00  0.00     0.000 C 
BRANCH   3   4
ATOM      4  C   UNL     1      25.492  30.791  -7.246  1.00  0.00     0.000 C 
BRANCH   4   5
ATOM      5  C   UNL     1      23.968  30.983  -7.104  1.00  0.00     0.006 C 
BRANCH   5   6
ATOM      6  C   UNL     1      23.352  31.974  -8.103  1.00  0.00     0.053 C 
BRANCH   6   7
ATOM      7  C   UNL     1      24.066  33.290  -8.101  1.00  0.00     0.041 C 
ATOM      8  O   UNL     1      25.325  33.328  -8.119  1.00  0.00    -0.550 OA
ATOM      9  O   UNL     1      23.343  34.475  -8.045  1.00  0.00    -0.550 OA
ENDBRANCH   6   7
ENDBRANCH   5   6
ENDBRANCH   4   5
ENDBRANCH   3   4
ENDBRANCH   2   3
ENDBRANCH   1   2
BRANCH   1  10
ATOM     10  C   UNL     1      26.611  31.633  -2.475  1.00  0.00     0.000 C 
BRANCH  10  11
ATOM     11  C   UNL     1      27.400  30.443  -1.902  1.00  0.00    -0.000 C 
BRANCH  11  12
ATOM     12  C   UNL     1      27.478  30.462  -0.368  1.00  0.00    -0.000 C 
BRANCH  12  13
ATOM     13  C   UNL     1      26.418  29.541   0.247  1.00  0.00    -0.000 C 
BRANCH  13  14
ATOM     14  C   UNL     1      26.995  28.150   0.532  1.00  0.00    -0.000 C 
BRANCH  14  15
ATOM     15  C   UNL     1      28.429  28.248   1.068  1.00  0.00    -0.000 C 
BRANCH  15  16
ATOM     16  C   UNL     1      28.486  27.875   2.554  1.00  0.00    -0.003 C 
ATOM     17  C   UNL     1      27.722  28.885   3.405  1.00  0.00     0.004 C 
ENDBRANCH  15  16
ENDBRANCH  14  15
ENDBRANCH  13  14
ENDBRANCH  12  13
ENDBRANCH  11  12
ENDBRANCH  10  11
ENDBRANCH   1  10
TORSDOF 13
ENDMDL
