MODEL 1
REMARK VINA RESULT:    -4.357      0.000      0.000
REMARK INTER + INTRA:          -4.752
REMARK INTER:                  -4.739
REMARK INTRA:                  -0.014
REMARK UNBOUND:                -0.014
REMARK SMILES OCc1ccco1
REMARK SMILES IDX 2 1 3 2 5 3 6 4 4 5 7 6 1 7
REMARK H PARENT 1 8
REMARK Flexibility Score: inf
ROOT
ATOM      1  C   UNL     1      24.844  12.222  16.234  1.00  0.00     0.231 C 
ENDROOT
BRANCH   1   2
ATOM      2  C   UNL     1      25.506  12.753  17.461  1.00  0.00     0.129 A 
ATOM      3  C   UNL     1      26.386  14.098  18.958  1.00  0.00     0.042 A 
ATOM      4  C   UNL     1      26.530  12.776  19.332  1.00  0.00     0.195 A 
ATOM      5  C   UNL     1      25.728  14.085  17.747  1.00  0.00     0.048 A 
ATOM      6  O   UNL     1      25.997  11.998  18.418  1.00  0.00    -0.467 OA
ENDBRANCH   1   2
BRANCH   1   7
ATOM      7  O   UNL     1      23.489  12.570  16.251  1.00  0.00    -0.388 OA
ATOM      8  H   UNL     1      23.164  12.457  15.321  1.00  0.00     0.211 HD
ENDBRANCH   1   7
TORSDOF 2
ENDMDL
MODEL 2
REMARK VINA RESULT:    -4.064      1.214      3.006
REMARK INTER + INTRA:          -4.434
REMARK INTER:                  -4.412
REMARK INTRA:                  -0.023
REMARK UNBOUND:                -0.014
REMARK SMILES OCc1ccco1
REMARK SMILES IDX 2 1 3 2 5 3 6 4 4 5 7 6 1 7
REMARK H PARENT 1 8
REMARK Flexibility Score: inf
ROOT
ATOM      1  C   UNL     1      26.762  13.250  19.286  1.00  0.00     0.231 C 
ENDROOT
BRANCH   1   2
ATOM      2  C   UNL     1      26.008  13.032  18.017  1.00  0.00     0.129 A 
ATOM      3  C   UNL     1      24.865  13.360  16.170  1.00  0.00     0.042 A 
ATOM      4  C   UNL     1      25.018  12.012  16.428  1.00  0.00     0.195 A 
ATOM      5  C   UNL     1      25.501  14.021  17.199  1.00  0.00     0.048 A 
ATOM      6  O   UNL     1      25.702  11.848  17.536  1.00  0.00    -0.467 OA
ENDBRANCH   1   2
BRANCH   1   7
ATOM      7  O   UNL     1      26.807  12.052  20.009  1.00  0.00    -0.388 OA
ATOM      8  H   UNL     1      26.250  11.406  19.503  1.00  0.00     0.211 HD
ENDBRANCH   1   7
TORSDOF 2
ENDMDL
MODEL 3
REMARK VINA RESULT:    -3.985      1.325      2.763
REMARK INTER + INTRA:          -4.348
REMARK INTER:                  -4.328
REMARK INTRA:                  -0.021
REMARK UNBOUND:                -0.014
REMARK SMILES OCc1ccco1
REMARK SMILES IDX 2 1 3 2 5 3 6 4 4 5 7 6 1 7
REMARK H PARENT 1 8
REMARK Flexibility Score: inf
ROOT
ATOM      1  C   UNL     1      26.266  11.486  19.088  1.00  0.00     0.231 C 
ENDROOT
BRANCH   1   2
ATOM      2  C   UNL     1      25.775  12.256  17.908  1.00  0.00     0.129 A 
ATOM      3  C   UNL     1      25.170  13.888  16.569  1.00  0.00     0.042 A 
ATOM      4  C   UNL     1      24.940  12.656  15.987  1.00  0.00     0.195 A 
ATOM      5  C   UNL     1      25.707  13.631  17.812  1.00  0.00     0.048 A 
ATOM      6  O   UNL     1      25.308  11.703  16.811  1.00  0.00    -0.467 OA
ENDBRANCH   1   2
BRANCH   1   7
ATOM      7  O   UNL     1      25.462  10.355  19.270  1.00  0.00    -0.388 OA
ATOM      8  H   UNL     1      25.983   9.736  19.844  1.00  0.00     0.211 HD
ENDBRANCH   1   7
TORSDOF 2
ENDMDL
MODEL 4
REMARK VINA RESULT:    -3.740      1.731      2.256
REMARK INTER + INTRA:          -4.081
REMARK INTER:                  -4.065
REMARK INTRA:                  -0.017
REMARK UNBOUND:                -0.014
REMARK SMILES OCc1ccco1
REMARK SMILES IDX 2 1 3 2 5 3 6 4 4 5 7 6 1 7
REMARK H PARENT 1 8
REMARK Flexibility Score: inf
ROOT
ATOM      1  C   UNL     1      26.144  10.402  18.911  1.00  0.00     0.231 C 
ENDROOT
BRANCH   1   2
ATOM      2  C   UNL     1      26.154  11.892  18.822  1.00  0.00     0.129 A 
ATOM      3  C   UNL     1      25.914  13.955  18.108  1.00  0.00     0.042 A 
ATOM      4  C   UNL     1      26.536  13.925  19.341  1.00  0.00     0.195 A 
ATOM      5  C   UNL     1      25.670  12.641  17.769  1.00  0.00     0.048 A 
ATOM      6  O   UNL     1      26.667  12.681  19.739  1.00  0.00    -0.467 OA
ENDBRANCH   1   2
BRANCH   1   7
ATOM      7  O   UNL     1      25.385   9.881  17.857  1.00  0.00    -0.388 OA
ATOM      8  H   UNL     1      24.447   9.857  18.179  1.00  0.00     0.211 HD
ENDBRANCH   1   7
TORSDOF 2
ENDMDL
MODEL 5
REMARK VINA RESULT:    -3.603      1.671      3.283
REMARK INTER + INTRA:          -3.932
REMARK INTER:                  -3.919
REMARK INTRA:                  -0.014
REMARK UNBOUND:                -0.014
REMARK SMILES OCc1ccco1
REMARK SMILES IDX 2 1 3 2 5 3 6 4 4 5 7 6 1 7
REMARK H PARENT 1 8
REMARK Flexibility Score: inf
ROOT
ATOM      1  C   UNL     1      26.349  14.116  19.783  1.00  0.00     0.231 C 
ENDROOT
BRANCH   1   2
ATOM      2  C   UNL     1      25.930  13.360  18.567  1.00  0.00     0.129 A 
ATOM      3  C   UNL     1      25.519  11.746  17.136  1.00  0.00     0.042 A 
ATOM      4  C   UNL     1      25.245  12.982  16.584  1.00  0.00     0.195 A 
ATOM      5  C   UNL     1      25.965  11.989  18.417  1.00  0.00     0.048 A 
ATOM      6  O   UNL     1      25.503  13.925  17.460  1.00  0.00    -0.467 OA
ENDBRANCH   1   2
BRANCH   1   7
ATOM      7  O   UNL     1      25.486  13.806  20.841  1.00  0.00    -0.388 OA
ATOM      8  H   UNL     1      25.933  14.132  21.664  1.00  0.00     0.211 HD
ENDBRANCH   1   7
TORSDOF 2
ENDMDL
MODEL 6
REMARK VINA RESULT:    -3.588     17.824     18.905
REMARK INTER + INTRA:          -3.917
REMARK INTER:                  -3.897
REMARK INTRA:                  -0.020
REMARK UNBOUND:                -0.014
REMARK SMILES OCc1ccco1
REMARK SMILES IDX 2 1 3 2 5 3 6 4 4 5 7 6 1 7
REMARK H PARENT 1 8
REMARK Flexibility Score: inf
ROOT
ATOM      1  C   UNL     1      17.875  -5.603  13.877  1.00  0.00     0.231 C 
ENDROOT
BRANCH   1   2
ATOM      2  C   UNL     1      18.859  -4.750  14.606  1.00  0.00     0.129 A 
ATOM      3  C   UNL     1      20.183  -3.922  16.151  1.00  0.00     0.042 A 
ATOM      4  C   UNL     1      20.180  -3.128  15.020  1.00  0.00     0.195 A 
ATOM      5  C   UNL     1      19.326  -4.969  15.885  1.00  0.00     0.048 A 
ATOM      6  O   UNL     1      19.380  -3.646  14.118  1.00  0.00    -0.467 OA
ENDBRANCH   1   2
BRANCH   1   7
ATOM      7  O   UNL     1      18.220  -5.651  12.521  1.00  0.00    -0.388 OA
ATOM      8  H   UNL     1      19.058  -6.179  12.469  1.00  0.00     0.211 HD
ENDBRANCH   1   7
TORSDOF 2
ENDMDL
MODEL 7
REMARK VINA RESULT:    -3.514     17.315     18.530
REMARK INTER + INTRA:          -3.836
REMARK INTER:                  -3.823
REMARK INTRA:                  -0.013
REMARK UNBOUND:                -0.014
REMARK SMILES OCc1ccco1
REMARK SMILES IDX 2 1 3 2 5 3 6 4 4 5 7 6 1 7
REMARK H PARENT 1 8
REMARK Flexibility Score: inf
ROOT
ATOM      1  C   UNL     1      20.595  -3.186  16.620  1.00  0.00     0.231 C 
ENDROOT
BRANCH   1   2
ATOM      2  C   UNL     1      19.737  -3.993  15.704  1.00  0.00     0.129 A 
ATOM      3  C   UNL     1      18.550  -5.620  14.827  1.00  0.00     0.042 A 
ATOM      4  C   UNL     1      18.633  -4.545  13.964  1.00  0.00     0.195 A 
ATOM      5  C   UNL     1      19.266  -5.267  15.950  1.00  0.00     0.048 A 
ATOM      6  O   UNL     1      19.349  -3.592  14.514  1.00  0.00    -0.467 OA
ENDBRANCH   1   2
BRANCH   1   7
ATOM      7  O   UNL     1      19.833  -2.763  17.715  1.00  0.00    -0.388 OA
ATOM      8  H   UNL     1      20.482  -2.498  18.416  1.00  0.00     0.211 HD
ENDBRANCH   1   7
TORSDOF 2
ENDMDL
MODEL 8
REMARK VINA RESULT:    -3.475     17.066     17.882
REMARK INTER + INTRA:          -3.793
REMARK INTER:                  -3.772
REMARK INTRA:                  -0.021
REMARK UNBOUND:                -0.014
REMARK SMILES OCc1ccco1
REMARK SMILES IDX 2 1 3 2 5 3 6 4 4 5 7 6 1 7
REMARK H PARENT 1 8
REMARK Flexibility Score: inf
ROOT
ATOM      1  C   UNL     1      20.064  -2.342  13.174  1.00  0.00     0.231 C 
ENDROOT
BRANCH   1   2
ATOM      2  C   UNL     1      19.798  -3.277  14.307  1.00  0.00     0.129 A 
ATOM      3  C   UNL     1      19.912  -4.333  16.229  1.00  0.00     0.042 A 
ATOM      4  C   UNL     1      18.940  -4.882  15.417  1.00  0.00     0.195 A 
ATOM      5  C   UNL     1      20.470  -3.297  15.512  1.00  0.00     0.048 A 
ATOM      6  O   UNL     1      18.897  -4.233  14.276  1.00  0.00    -0.467 OA
ENDBRANCH   1   2
BRANCH   1   7
ATOM      7  O   UNL     1      18.911  -2.228  12.389  1.00  0.00    -0.388 OA
ATOM      8  H   UNL     1      18.714  -1.257  12.330  1.00  0.00     0.211 HD
ENDBRANCH   1   7
TORSDOF 2
ENDMDL
MODEL 9
REMARK VINA RESULT:    -3.389     17.081     18.248
REMARK INTER + INTRA:          -3.700
REMARK INTER:                  -3.682
REMARK INTRA:                  -0.018
REMARK UNBOUND:                -0.014
REMARK SMILES OCc1ccco1
REMARK SMILES IDX 2 1 3 2 5 3 6 4 4 5 7 6 1 7
REMARK H PARENT 1 8
REMARK Flexibility Score: inf
ROOT
ATOM      1  C   UNL     1      20.656  -3.083  16.799  1.00  0.00     0.231 C 
ENDROOT
BRANCH   1   2
ATOM      2  C   UNL     1      19.828  -3.792  15.781  1.00  0.00     0.129 A 
ATOM      3  C   UNL     1      18.788  -4.327  13.921  1.00  0.00     0.042 A 
ATOM      4  C   UNL     1      18.504  -5.230  14.927  1.00  0.00     0.195 A 
ATOM      5  C   UNL     1      19.640  -3.395  14.472  1.00  0.00     0.048 A 
ATOM      6  O   UNL     1      19.136  -4.883  16.024  1.00  0.00    -0.467 OA
ENDBRANCH   1   2
BRANCH   1   7
ATOM      7  O   UNL     1      19.837  -2.674  17.858  1.00  0.00    -0.388 OA
ATOM      8  H   UNL     1      20.108  -1.744  18.072  1.00  0.00     0.211 HD
ENDBRANCH   1   7
TORSDOF 2
ENDMDL
