MODEL 1
REMARK VINA RESULT:    -4.345      0.000      0.000
REMARK INTER + INTRA:          -5.605
REMARK INTER:                  -5.362
REMARK INTRA:                  -0.244
REMARK UNBOUND:                -0.244
REMARK SMILES CCCCC=CC(C)=O
REMARK SMILES IDX 4 1 3 2 2 3 1 4 5 5 6 6 7 7 9 8 8 9
REMARK H PARENT
REMARK Flexibility Score: inf
ROOT
ATOM      1  C   UNL     1     -25.736  19.734 -33.748  1.00  0.00     0.027 C 
ENDROOT
BRANCH   1   2
ATOM      2  C   UNL     1     -26.802  20.739 -34.209  1.00  0.00     0.004 C 
BRANCH   2   3
ATOM      3  C   UNL     1     -28.221  20.289 -33.834  1.00  0.00    -0.003 C 
ATOM      4  C   UNL     1     -28.224  18.855 -33.311  1.00  0.00     0.004 C 
ENDBRANCH   2   3
ENDBRANCH   1   2
BRANCH   1   5
ATOM      5  C   UNL     1     -24.480  19.809 -34.577  1.00  0.00    -0.023 C 
ATOM      6  C   UNL     1     -23.258  20.145 -34.131  1.00  0.00     0.042 C 
BRANCH   6   7
ATOM      7  C   UNL     1     -22.907  20.558 -32.753  1.00  0.00     0.152 C 
ATOM      8  O   UNL     1     -22.812  21.772 -32.429  1.00  0.00    -0.295 OA
ATOM      9  C   UNL     1     -22.586  19.511 -31.735  1.00  0.00     0.093 C 
ENDBRANCH   6   7
ENDBRANCH   1   5
TORSDOF 4
ENDMDL
MODEL 2
REMARK VINA RESULT:    -4.026      7.637      9.054
REMARK INTER + INTRA:          -5.212
REMARK INTER:                  -4.592
REMARK INTRA:                  -0.620
REMARK UNBOUND:                -0.244
REMARK SMILES CCCCC=CC(C)=O
REMARK SMILES IDX 4 1 3 2 2 3 1 4 5 5 6 6 7 7 9 8 8 9
REMARK H PARENT
REMARK Flexibility Score: inf
ROOT
ATOM      1  C   UNL     1     -29.378  12.399 -29.976  1.00  0.00     0.027 C 
ENDROOT
BRANCH   1   2
ATOM      2  C   UNL     1     -28.974  12.519 -28.499  1.00  0.00     0.004 C 
BRANCH   2   3
ATOM      3  C   UNL     1     -27.760  11.642 -28.160  1.00  0.00    -0.003 C 
ATOM      4  C   UNL     1     -27.641  10.468 -29.129  1.00  0.00     0.004 C 
ENDBRANCH   2   3
ENDBRANCH   1   2
BRANCH   1   5
ATOM      5  C   UNL     1     -29.184  13.689 -30.731  1.00  0.00    -0.023 C 
ATOM      6  C   UNL     1     -28.049  14.094 -31.325  1.00  0.00     0.042 C 
BRANCH   6   7
ATOM      7  C   UNL     1     -26.750  13.383 -31.316  1.00  0.00     0.152 C 
ATOM      8  O   UNL     1     -26.551  12.358 -32.021  1.00  0.00    -0.295 OA
ATOM      9  C   UNL     1     -25.669  13.847 -30.393  1.00  0.00     0.093 C 
ENDBRANCH   6   7
ENDBRANCH   1   5
TORSDOF 4
ENDMDL
MODEL 3
REMARK VINA RESULT:    -3.996      8.515      9.541
REMARK INTER + INTRA:          -5.174
REMARK INTER:                  -4.569
REMARK INTRA:                  -0.605
REMARK UNBOUND:                -0.244
REMARK SMILES CCCCC=CC(C)=O
REMARK SMILES IDX 4 1 3 2 2 3 1 4 5 5 6 6 7 7 9 8 8 9
REMARK H PARENT
REMARK Flexibility Score: inf
ROOT
ATOM      1  C   UNL     1     -27.814  12.424 -28.298  1.00  0.00     0.027 C 
ENDROOT
BRANCH   1   2
ATOM      2  C   UNL     1     -29.221  11.859 -28.546  1.00  0.00     0.004 C 
BRANCH   2   3
ATOM      3  C   UNL     1     -29.686  12.081 -29.992  1.00  0.00    -0.003 C 
ATOM      4  C   UNL     1     -29.286  13.466 -30.493  1.00  0.00     0.004 C 
ENDBRANCH   2   3
ENDBRANCH   1   2
BRANCH   1   5
ATOM      5  C   UNL     1     -26.750  11.359 -28.362  1.00  0.00    -0.023 C 
ATOM      6  C   UNL     1     -25.953  11.102 -29.413  1.00  0.00     0.042 C 
BRANCH   6   7
ATOM      7  C   UNL     1     -25.992  11.772 -30.732  1.00  0.00     0.152 C 
ATOM      8  O   UNL     1     -25.561  12.945 -30.892  1.00  0.00    -0.295 OA
ATOM      9  C   UNL     1     -26.626  11.070 -31.890  1.00  0.00     0.093 C 
ENDBRANCH   6   7
ENDBRANCH   1   5
TORSDOF 4
ENDMDL
MODEL 4
REMARK VINA RESULT:    -3.906      7.882      9.460
REMARK INTER + INTRA:          -5.063
REMARK INTER:                  -4.481
REMARK INTRA:                  -0.582
REMARK UNBOUND:                -0.244
REMARK SMILES CCCCC=CC(C)=O
REMARK SMILES IDX 4 1 3 2 2 3 1 4 5 5 6 6 7 7 9 8 8 9
REMARK H PARENT
REMARK Flexibility Score: inf
ROOT
ATOM      1  C   UNL     1     -27.035  13.469 -31.409  1.00  0.00     0.027 C 
ENDROOT
BRANCH   1   2
ATOM      2  C   UNL     1     -26.061  14.010 -30.351  1.00  0.00     0.004 C 
BRANCH   2   3
ATOM      3  C   UNL     1     -25.096  12.927 -29.849  1.00  0.00    -0.003 C 
ATOM      4  C   UNL     1     -25.606  11.530 -30.195  1.00  0.00     0.004 C 
ENDBRANCH   2   3
ENDBRANCH   1   2
BRANCH   1   5
ATOM      5  C   UNL     1     -28.437  13.987 -31.215  1.00  0.00    -0.023 C 
ATOM      6  C   UNL     1     -29.390  13.421 -30.456  1.00  0.00     0.042 C 
BRANCH   6   7
ATOM      7  C   UNL     1     -29.276  12.153 -29.700  1.00  0.00     0.152 C 
ATOM      8  O   UNL     1     -29.606  11.048 -30.207  1.00  0.00    -0.295 OA
ATOM      9  C   UNL     1     -28.826  12.190 -28.275  1.00  0.00     0.093 C 
ENDBRANCH   6   7
ENDBRANCH   1   5
TORSDOF 4
ENDMDL
MODEL 5
REMARK VINA RESULT:    -3.869      8.324      9.312
REMARK INTER + INTRA:          -5.018
REMARK INTER:                  -4.404
REMARK INTRA:                  -0.613
REMARK UNBOUND:                -0.244
REMARK SMILES CCCCC=CC(C)=O
REMARK SMILES IDX 4 1 3 2 2 3 1 4 5 5 6 6 7 7 9 8 8 9
REMARK H PARENT
REMARK Flexibility Score: inf
ROOT
ATOM      1  C   UNL     1     -27.918  13.027 -31.013  1.00  0.00     0.027 C 
ENDROOT
BRANCH   1   2
ATOM      2  C   UNL     1     -29.140  13.173 -30.094  1.00  0.00     0.004 C 
BRANCH   2   3
ATOM      3  C   UNL     1     -29.506  11.851 -29.405  1.00  0.00    -0.003 C 
ATOM      4  C   UNL     1     -29.325  10.668 -30.353  1.00  0.00     0.004 C 
ENDBRANCH   2   3
ENDBRANCH   1   2
BRANCH   1   5
ATOM      5  C   UNL     1     -26.667  13.605 -30.402  1.00  0.00    -0.023 C 
ATOM      6  C   UNL     1     -25.716  12.916 -29.750  1.00  0.00     0.042 C 
BRANCH   6   7
ATOM      7  C   UNL     1     -25.727  11.465 -29.455  1.00  0.00     0.152 C 
ATOM      8  O   UNL     1     -25.466  10.607 -30.340  1.00  0.00    -0.295 OA
ATOM      9  C   UNL     1     -26.129  10.999 -28.092  1.00  0.00     0.093 C 
ENDBRANCH   6   7
ENDBRANCH   1   5
TORSDOF 4
ENDMDL
MODEL 6
REMARK VINA RESULT:    -3.843      7.832      9.085
REMARK INTER + INTRA:          -4.985
REMARK INTER:                  -4.360
REMARK INTRA:                  -0.625
REMARK UNBOUND:                -0.244
REMARK SMILES CCCCC=CC(C)=O
REMARK SMILES IDX 4 1 3 2 2 3 1 4 5 5 6 6 7 7 9 8 8 9
REMARK H PARENT
REMARK Flexibility Score: inf
ROOT
ATOM      1  C   UNL     1     -26.849  11.576 -28.923  1.00  0.00     0.027 C 
ENDROOT
BRANCH   1   2
ATOM      2  C   UNL     1     -28.018  12.195 -28.142  1.00  0.00     0.004 C 
BRANCH   2   3
ATOM      3  C   UNL     1     -29.344  12.093 -28.909  1.00  0.00    -0.003 C 
ATOM      4  C   UNL     1     -29.280  11.003 -29.976  1.00  0.00     0.004 C 
ENDBRANCH   2   3
ENDBRANCH   1   2
BRANCH   1   5
ATOM      5  C   UNL     1     -25.807  12.597 -29.299  1.00  0.00    -0.023 C 
ATOM      6  C   UNL     1     -25.812  13.361 -30.404  1.00  0.00     0.042 C 
BRANCH   6   7
ATOM      7  C   UNL     1     -26.810  13.320 -31.497  1.00  0.00     0.152 C 
ATOM      8  O   UNL     1     -26.713  12.504 -32.451  1.00  0.00    -0.295 OA
ATOM      9  C   UNL     1     -27.921  14.321 -31.511  1.00  0.00     0.093 C 
ENDBRANCH   6   7
ENDBRANCH   1   5
TORSDOF 4
ENDMDL
MODEL 7
REMARK VINA RESULT:    -3.835      8.366      9.982
REMARK INTER + INTRA:          -4.975
REMARK INTER:                  -4.439
REMARK INTRA:                  -0.536
REMARK UNBOUND:                -0.244
REMARK SMILES CCCCC=CC(C)=O
REMARK SMILES IDX 4 1 3 2 2 3 1 4 5 5 6 6 7 7 9 8 8 9
REMARK H PARENT
REMARK Flexibility Score: inf
ROOT
ATOM      1  C   UNL     1     -27.859  12.199 -28.099  1.00  0.00     0.027 C 
ENDROOT
BRANCH   1   2
ATOM      2  C   UNL     1     -27.547  10.695 -28.071  1.00  0.00     0.004 C 
BRANCH   2   3
ATOM      3  C   UNL     1     -26.068  10.419 -27.768  1.00  0.00    -0.003 C 
ATOM      4  C   UNL     1     -25.159  11.358 -28.557  1.00  0.00     0.004 C 
ENDBRANCH   2   3
ENDBRANCH   1   2
BRANCH   1   5
ATOM      5  C   UNL     1     -28.943  12.541 -29.088  1.00  0.00    -0.023 C 
ATOM      6  C   UNL     1     -28.762  12.851 -30.383  1.00  0.00     0.042 C 
BRANCH   6   7
ATOM      7  C   UNL     1     -27.464  12.970 -31.086  1.00  0.00     0.152 C 
ATOM      8  O   UNL     1     -26.811  14.046 -31.092  1.00  0.00    -0.295 OA
ATOM      9  C   UNL     1     -26.949  11.806 -31.870  1.00  0.00     0.093 C 
ENDBRANCH   6   7
ENDBRANCH   1   5
TORSDOF 4
ENDMDL
MODEL 8
REMARK VINA RESULT:    -3.829      8.079      9.685
REMARK INTER + INTRA:          -4.969
REMARK INTER:                  -4.336
REMARK INTRA:                  -0.633
REMARK UNBOUND:                -0.244
REMARK SMILES CCCCC=CC(C)=O
REMARK SMILES IDX 4 1 3 2 2 3 1 4 5 5 6 6 7 7 9 8 8 9
REMARK H PARENT
REMARK Flexibility Score: inf
ROOT
ATOM      1  C   UNL     1     -26.595  11.708 -31.518  1.00  0.00     0.027 C 
ENDROOT
BRANCH   1   2
ATOM      2  C   UNL     1     -25.587  11.513 -30.377  1.00  0.00     0.004 C 
BRANCH   2   3
ATOM      3  C   UNL     1     -25.273  12.830 -29.653  1.00  0.00    -0.003 C 
ATOM      4  C   UNL     1     -25.823  14.027 -30.424  1.00  0.00     0.004 C 
ENDBRANCH   2   3
ENDBRANCH   1   2
BRANCH   1   5
ATOM      5  C   UNL     1     -27.832  10.865 -31.341  1.00  0.00    -0.023 C 
ATOM      6  C   UNL     1     -28.937  11.217 -30.661  1.00  0.00     0.042 C 
BRANCH   6   7
ATOM      7  C   UNL     1     -29.143  12.475 -29.908  1.00  0.00     0.152 C 
ATOM      8  O   UNL     1     -29.484  13.543 -30.484  1.00  0.00    -0.295 OA
ATOM      9  C   UNL     1     -28.869  12.501 -28.439  1.00  0.00     0.093 C 
ENDBRANCH   6   7
ENDBRANCH   1   5
TORSDOF 4
ENDMDL
MODEL 9
REMARK VINA RESULT:    -3.826      8.466      9.789
REMARK INTER + INTRA:          -4.965
REMARK INTER:                  -4.420
REMARK INTRA:                  -0.545
REMARK UNBOUND:                -0.244
REMARK SMILES CCCCC=CC(C)=O
REMARK SMILES IDX 4 1 3 2 2 3 1 4 5 5 6 6 7 7 9 8 8 9
REMARK H PARENT
REMARK Flexibility Score: inf
ROOT
ATOM      1  C   UNL     1     -28.213  12.495 -28.603  1.00  0.00     0.027 C 
ENDROOT
BRANCH   1   2
ATOM      2  C   UNL     1     -29.384  12.444 -29.596  1.00  0.00     0.004 C 
BRANCH   2   3
ATOM      3  C   UNL     1     -29.289  13.548 -30.658  1.00  0.00    -0.003 C 
ATOM      4  C   UNL     1     -27.850  13.733 -31.133  1.00  0.00     0.004 C 
ENDBRANCH   2   3
ENDBRANCH   1   2
BRANCH   1   5
ATOM      5  C   UNL     1     -27.759  11.122 -28.180  1.00  0.00    -0.023 C 
ATOM      6  C   UNL     1     -26.790  10.396 -28.761  1.00  0.00     0.042 C 
BRANCH   6   7
ATOM      7  C   UNL     1     -26.008  10.773 -29.961  1.00  0.00     0.152 C 
ATOM      8  O   UNL     1     -25.026  11.559 -29.891  1.00  0.00    -0.295 OA
ATOM      9  C   UNL     1     -26.437  10.267 -31.301  1.00  0.00     0.093 C 
ENDBRANCH   6   7
ENDBRANCH   1   5
TORSDOF 4
ENDMDL
