MODEL 1
REMARK VINA RESULT:    -0.383      0.000      0.000
REMARK INTER + INTRA:          -0.182
REMARK INTER:                  -0.966
REMARK INTRA:                   0.784
REMARK UNBOUND:                 0.784
REMARK SMILES CCCCCCCCCCCCCCCCCCCCCCCCCCCC(=O)[O-]
REMARK SMILES IDX 15 1 16 2 17 3 18 4 19 5 20 6 21 7 22 8 23 9 24 10 25 11
REMARK SMILES IDX 26 12 27 13 28 14 29 15 30 16 14 17 13 18 12 19 11 20 10 21
REMARK SMILES IDX 9 22 8 23 7 24 6 25 5 26 4 27 3 28 2 29 1 30
REMARK H PARENT
REMARK Flexibility Score: inf
ROOT
ATOM      1  C   UNL     1       1.645  -2.896  -9.074  1.00  0.00     0.000 C 
ENDROOT
BRANCH   1   2
ATOM      2  C   UNL     1       3.128  -2.841  -9.487  1.00  0.00     0.000 C 
BRANCH   2   3
ATOM      3  C   UNL     1       3.881  -4.135  -9.136  1.00  0.00     0.000 C 
BRANCH   3   4
ATOM      4  C   UNL     1       3.314  -5.353  -9.887  1.00  0.00     0.000 C 
BRANCH   4   5
ATOM      5  C   UNL     1       4.349  -6.477 -10.081  1.00  0.00     0.000 C 
BRANCH   5   6
ATOM      6  C   UNL     1       5.821  -6.025 -10.099  1.00  0.00     0.000 C 
BRANCH   6   7
ATOM      7  C   UNL     1       6.149  -4.992  -9.010  1.00  0.00     0.000 C 
BRANCH   7   8
ATOM      8  C   UNL     1       7.469  -5.294  -8.282  1.00  0.00     0.000 C 
BRANCH   8   9
ATOM      9  C   UNL     1       8.709  -4.657  -8.948  1.00  0.00     0.000 C 
BRANCH   9  10
ATOM     10  C   UNL     1       9.257  -5.514 -10.104  1.00  0.00     0.000 C 
BRANCH  10  11
ATOM     11  C   UNL     1      10.093  -6.713  -9.620  1.00  0.00     0.000 C 
BRANCH  11  12
ATOM     12  C   UNL     1       9.352  -7.694  -8.688  1.00  0.00     0.006 C 
BRANCH  12  13
ATOM     13  C   UNL     1       8.834  -8.965  -9.379  1.00  0.00     0.053 C 
BRANCH  13  14
ATOM     14  C   UNL     1       7.360  -9.154  -9.196  1.00  0.00     0.041 C 
ATOM     15  O   UNL     1       6.745 -10.031  -9.858  1.00  0.00    -0.550 OA
ATOM     16  O   UNL     1       6.664  -8.356  -8.296  1.00  0.00    -0.550 OA
ENDBRANCH  13  14
ENDBRANCH  12  13
ENDBRANCH  11  12
ENDBRANCH  10  11
ENDBRANCH   9  10
ENDBRANCH   8   9
ENDBRANCH   7   8
ENDBRANCH   6   7
ENDBRANCH   5   6
ENDBRANCH   4   5
ENDBRANCH   3   4
ENDBRANCH   2   3
ENDBRANCH   1   2
BRANCH   1  17
ATOM     17  C   UNL     1       0.816  -1.801  -9.765  1.00  0.00     0.000 C 
BRANCH  17  18
ATOM     18  C   UNL     1       0.239  -0.790  -8.757  1.00  0.00     0.000 C 
BRANCH  18  19
ATOM     19  C   UNL     1      -0.101   0.561  -9.402  1.00  0.00     0.000 C 
BRANCH  19  20
ATOM     20  C   UNL     1      -1.471   0.558 -10.103  1.00  0.00     0.000 C 
BRANCH  20  21
ATOM     21  C   UNL     1      -2.126   1.956 -10.124  1.00  0.00     0.000 C 
BRANCH  21  22
ATOM     22  C   UNL     1      -3.666   1.923 -10.070  1.00  0.00    -0.000 C 
BRANCH  22  23
ATOM     23  C   UNL     1      -4.350   3.303 -10.106  1.00  0.00    -0.000 C 
BRANCH  23  24
ATOM     24  C   UNL     1      -3.424   4.498  -9.817  1.00  0.00    -0.000 C 
BRANCH  24  25
ATOM     25  C   UNL     1      -4.170   5.841  -9.793  1.00  0.00    -0.000 C 
BRANCH  25  26
ATOM     26  C   UNL     1      -5.676   5.630  -9.607  1.00  0.00    -0.000 C 
BRANCH  26  27
ATOM     27  C   UNL     1      -6.447   6.939  -9.819  1.00  0.00    -0.000 C 
BRANCH  27  28
ATOM     28  C   UNL     1      -7.334   7.259  -8.606  1.00  0.00    -0.000 C 
BRANCH  28  29
ATOM     29  C   UNL     1      -8.830   7.070  -8.904  1.00  0.00    -0.003 C 
ATOM     30  C   UNL     1      -9.117   5.812  -9.723  1.00  0.00     0.004 C 
ENDBRANCH  28  29
ENDBRANCH  27  28
ENDBRANCH  26  27
ENDBRANCH  25  26
ENDBRANCH  24  25
ENDBRANCH  23  24
ENDBRANCH  22  23
ENDBRANCH  21  22
ENDBRANCH  20  21
ENDBRANCH  19  20
ENDBRANCH  18  19
ENDBRANCH  17  18
ENDBRANCH   1  17
TORSDOF 26
ENDMDL
MODEL 2
REMARK VINA RESULT:    -0.151     20.005     22.164
REMARK INTER + INTRA:           0.403
REMARK INTER:                   1.585
REMARK INTRA:                  -1.182
REMARK UNBOUND:                 0.784
REMARK SMILES CCCCCCCCCCCCCCCCCCCCCCCCCCCC(=O)[O-]
REMARK SMILES IDX 15 1 16 2 17 3 18 4 19 5 20 6 21 7 22 8 23 9 24 10 25 11
REMARK SMILES IDX 26 12 27 13 28 14 29 15 30 16 14 17 13 18 12 19 11 20 10 21
REMARK SMILES IDX 9 22 8 23 7 24 6 25 5 26 4 27 3 28 2 29 1 30
REMARK H PARENT
REMARK Flexibility Score: inf
ROOT
ATOM      1  C   UNL     1      -0.397   1.470   9.167  1.00  0.00     0.000 C 
ENDROOT
BRANCH   1   2
ATOM      2  C   UNL     1      -1.736   1.375   9.922  1.00  0.00     0.000 C 
BRANCH   2   3
ATOM      3  C   UNL     1      -2.308  -0.052   9.921  1.00  0.00     0.000 C 
BRANCH   3   4
ATOM      4  C   UNL     1      -1.819  -0.869   8.713  1.00  0.00     0.000 C 
BRANCH   4   5
ATOM      5  C   UNL     1      -1.970  -2.389   8.910  1.00  0.00     0.000 C 
BRANCH   5   6
ATOM      6  C   UNL     1      -2.815  -2.817  10.125  1.00  0.00     0.000 C 
BRANCH   6   7
ATOM      7  C   UNL     1      -4.228  -3.286   9.743  1.00  0.00     0.000 C 
BRANCH   7   8
ATOM      8  C   UNL     1      -4.237  -4.189   8.498  1.00  0.00     0.000 C 
BRANCH   8   9
ATOM      9  C   UNL     1      -3.521  -5.543   8.703  1.00  0.00     0.000 C 
BRANCH   9  10
ATOM     10  C   UNL     1      -4.321  -6.494   9.611  1.00  0.00     0.000 C 
BRANCH  10  11
ATOM     11  C   UNL     1      -5.569  -7.075   8.922  1.00  0.00     0.000 C 
BRANCH  11  12
ATOM     12  C   UNL     1      -6.740  -7.415   9.868  1.00  0.00     0.006 C 
BRANCH  12  13
ATOM     13  C   UNL     1      -7.706  -8.483   9.330  1.00  0.00     0.053 C 
BRANCH  13  14
ATOM     14  C   UNL     1      -8.561  -7.967   8.214  1.00  0.00     0.041 C 
ATOM     15  O   UNL     1      -8.056  -7.261   7.302  1.00  0.00    -0.550 OA
ATOM     16  O   UNL     1      -9.919  -8.262   8.184  1.00  0.00    -0.550 OA
ENDBRANCH  13  14
ENDBRANCH  12  13
ENDBRANCH  11  12
ENDBRANCH  10  11
ENDBRANCH   9  10
ENDBRANCH   8   9
ENDBRANCH   7   8
ENDBRANCH   6   7
ENDBRANCH   5   6
ENDBRANCH   4   5
ENDBRANCH   3   4
ENDBRANCH   2   3
ENDBRANCH   1   2
BRANCH   1  17
ATOM     17  C   UNL     1       0.790   1.662  10.124  1.00  0.00     0.000 C 
BRANCH  17  18
ATOM     18  C   UNL     1       1.835   0.540   9.980  1.00  0.00     0.000 C 
BRANCH  18  19
ATOM     19  C   UNL     1       3.120   1.014   9.288  1.00  0.00     0.000 C 
BRANCH  19  20
ATOM     20  C   UNL     1       3.552   2.422   9.732  1.00  0.00     0.000 C 
BRANCH  20  21
ATOM     21  C   UNL     1       5.047   2.489  10.114  1.00  0.00     0.000 C 
BRANCH  21  22
ATOM     22  C   UNL     1       5.699   3.859   9.843  1.00  0.00    -0.000 C 
BRANCH  22  23
ATOM     23  C   UNL     1       7.213   3.927  10.114  1.00  0.00    -0.000 C 
BRANCH  23  24
ATOM     24  C   UNL     1       7.994   4.909   9.222  1.00  0.00    -0.000 C 
BRANCH  24  25
ATOM     25  C   UNL     1       8.676   6.030  10.020  1.00  0.00    -0.000 C 
BRANCH  25  26
ATOM     26  C   UNL     1       8.791   7.308   9.182  1.00  0.00    -0.000 C 
BRANCH  26  27
ATOM     27  C   UNL     1       7.405   7.836   8.791  1.00  0.00    -0.000 C 
BRANCH  27  28
ATOM     28  C   UNL     1       7.393   9.372   8.743  1.00  0.00    -0.000 C 
BRANCH  28  29
ATOM     29  C   UNL     1       6.081   9.968   9.278  1.00  0.00    -0.003 C 
ATOM     30  C   UNL     1       5.225   8.944  10.024  1.00  0.00     0.004 C 
ENDBRANCH  28  29
ENDBRANCH  27  28
ENDBRANCH  26  27
ENDBRANCH  25  26
ENDBRANCH  24  25
ENDBRANCH  23  24
ENDBRANCH  22  23
ENDBRANCH  21  22
ENDBRANCH  20  21
ENDBRANCH  19  20
ENDBRANCH  18  19
ENDBRANCH  17  18
ENDBRANCH   1  17
TORSDOF 26
ENDMDL
MODEL 3
REMARK VINA RESULT:     0.021      1.529      3.140
REMARK INTER + INTRA:           0.837
REMARK INTER:                  -1.427
REMARK INTRA:                   2.263
REMARK UNBOUND:                 0.784
REMARK SMILES CCCCCCCCCCCCCCCCCCCCCCCCCCCC(=O)[O-]
REMARK SMILES IDX 15 1 16 2 17 3 18 4 19 5 20 6 21 7 22 8 23 9 24 10 25 11
REMARK SMILES IDX 26 12 27 13 28 14 29 15 30 16 14 17 13 18 12 19 11 20 10 21
REMARK SMILES IDX 9 22 8 23 7 24 6 25 5 26 4 27 3 28 2 29 1 30
REMARK H PARENT
REMARK Flexibility Score: inf
ROOT
ATOM      1  C   UNL     1       0.171  -0.909  -9.607  1.00  0.00     0.000 C 
ENDROOT
BRANCH   1   2
ATOM      2  C   UNL     1       0.895   0.444  -9.732  1.00  0.00     0.000 C 
BRANCH   2   3
ATOM      3  C   UNL     1       2.388   0.280 -10.065  1.00  0.00     0.000 C 
BRANCH   3   4
ATOM      4  C   UNL     1       2.885  -1.150  -9.792  1.00  0.00     0.000 C 
BRANCH   4   5
ATOM      5  C   UNL     1       1.833  -2.227 -10.117  1.00  0.00     0.000 C 
BRANCH   5   6
ATOM      6  C   UNL     1       2.081  -3.607  -9.480  1.00  0.00     0.000 C 
BRANCH   6   7
ATOM      7  C   UNL     1       3.549  -3.835  -9.085  1.00  0.00     0.000 C 
BRANCH   7   8
ATOM      8  C   UNL     1       4.537  -3.282 -10.125  1.00  0.00     0.000 C 
BRANCH   8   9
ATOM      9  C   UNL     1       6.008  -3.290  -9.654  1.00  0.00     0.000 C 
BRANCH   9  10
ATOM     10  C   UNL     1       6.614  -4.705  -9.660  1.00  0.00     0.000 C 
BRANCH  10  11
ATOM     11  C   UNL     1       5.918  -5.661  -8.674  1.00  0.00     0.000 C 
BRANCH  11  12
ATOM     12  C   UNL     1       6.865  -6.440  -7.738  1.00  0.00     0.006 C 
BRANCH  12  13
ATOM     13  C   UNL     1       7.220  -7.856  -8.221  1.00  0.00     0.053 C 
BRANCH  13  14
ATOM     14  C   UNL     1       8.503  -7.890  -8.992  1.00  0.00     0.041 C 
ATOM     15  O   UNL     1       9.337  -6.953  -8.879  1.00  0.00    -0.550 OA
ATOM     16  O   UNL     1       8.776  -8.955  -9.842  1.00  0.00    -0.550 OA
ENDBRANCH  13  14
ENDBRANCH  12  13
ENDBRANCH  11  12
ENDBRANCH  10  11
ENDBRANCH   9  10
ENDBRANCH   8   9
ENDBRANCH   7   8
ENDBRANCH   6   7
ENDBRANCH   5   6
ENDBRANCH   4   5
ENDBRANCH   3   4
ENDBRANCH   2   3
ENDBRANCH   1   2
BRANCH   1  17
ATOM     17  C   UNL     1      -1.343  -0.774  -9.844  1.00  0.00     0.000 C 
BRANCH  17  18
ATOM     18  C   UNL     1      -1.875   0.603  -9.408  1.00  0.00     0.000 C 
BRANCH  18  19
ATOM     19  C   UNL     1      -3.182   0.984 -10.118  1.00  0.00     0.000 C 
BRANCH  19  20
ATOM     20  C   UNL     1      -3.574   2.455  -9.896  1.00  0.00     0.000 C 
BRANCH  20  21
ATOM     21  C   UNL     1      -5.103   2.654  -9.825  1.00  0.00     0.000 C 
BRANCH  21  22
ATOM     22  C   UNL     1      -5.556   4.102 -10.099  1.00  0.00    -0.000 C 
BRANCH  22  23
ATOM     23  C   UNL     1      -6.223   4.814  -8.908  1.00  0.00    -0.000 C 
BRANCH  23  24
ATOM     24  C   UNL     1      -5.519   6.100  -8.438  1.00  0.00    -0.000 C 
BRANCH  24  25
ATOM     25  C   UNL     1      -5.488   7.195  -9.515  1.00  0.00    -0.000 C 
BRANCH  25  26
ATOM     26  C   UNL     1      -5.877   8.555  -8.926  1.00  0.00    -0.000 C 
BRANCH  26  27
ATOM     27  C   UNL     1      -7.230   9.026  -9.474  1.00  0.00    -0.000 C 
BRANCH  27  28
ATOM     28  C   UNL     1      -7.998   7.863 -10.119  1.00  0.00    -0.000 C 
BRANCH  28  29
ATOM     29  C   UNL     1      -8.840   7.077  -9.102  1.00  0.00    -0.003 C 
ATOM     30  C   UNL     1      -9.868   6.161  -9.766  1.00  0.00     0.004 C 
ENDBRANCH  28  29
ENDBRANCH  27  28
ENDBRANCH  26  27
ENDBRANCH  25  26
ENDBRANCH  24  25
ENDBRANCH  23  24
ENDBRANCH  22  23
ENDBRANCH  21  22
ENDBRANCH  20  21
ENDBRANCH  19  20
ENDBRANCH  18  19
ENDBRANCH  17  18
ENDBRANCH   1  17
TORSDOF 26
ENDMDL
MODEL 4
REMARK VINA RESULT:     0.260     20.343     22.246
REMARK INTER + INTRA:           1.440
REMARK INTER:                   2.043
REMARK INTRA:                  -0.603
REMARK UNBOUND:                 0.784
REMARK SMILES CCCCCCCCCCCCCCCCCCCCCCCCCCCC(=O)[O-]
REMARK SMILES IDX 15 1 16 2 17 3 18 4 19 5 20 6 21 7 22 8 23 9 24 10 25 11
REMARK SMILES IDX 26 12 27 13 28 14 29 15 30 16 14 17 13 18 12 19 11 20 10 21
REMARK SMILES IDX 9 22 8 23 7 24 6 25 5 26 4 27 3 28 2 29 1 30
REMARK H PARENT
REMARK Flexibility Score: inf
ROOT
ATOM      1  C   UNL     1      -2.415  -1.945   9.429  1.00  0.00     0.000 C 
ENDROOT
BRANCH   1   2
ATOM      2  C   UNL     1      -1.523  -0.881  10.095  1.00  0.00     0.000 C 
BRANCH   2   3
ATOM      3  C   UNL     1      -0.042  -1.294  10.125  1.00  0.00     0.000 C 
BRANCH   3   4
ATOM      4  C   UNL     1       0.742  -0.711   8.936  1.00  0.00     0.000 C 
BRANCH   4   5
ATOM      5  C   UNL     1       2.217  -0.422   9.270  1.00  0.00     0.000 C 
BRANCH   5   6
ATOM      6  C   UNL     1       2.627   1.062   9.225  1.00  0.00     0.000 C 
BRANCH   6   7
ATOM      7  C   UNL     1       1.696   1.971  10.045  1.00  0.00     0.000 C 
BRANCH   7   8
ATOM      8  C   UNL     1       2.186   3.427  10.102  1.00  0.00     0.000 C 
BRANCH   8   9
ATOM      9  C   UNL     1       3.669   3.602   9.706  1.00  0.00     0.000 C 
BRANCH   9  10
ATOM     10  C   UNL     1       4.122   5.072   9.777  1.00  0.00     0.000 C 
BRANCH  10  11
ATOM     11  C   UNL     1       5.572   5.278   9.302  1.00  0.00     0.000 C 
BRANCH  11  12
ATOM     12  C   UNL     1       6.389   6.300  10.118  1.00  0.00     0.006 C 
BRANCH  12  13
ATOM     13  C   UNL     1       7.775   6.622   9.536  1.00  0.00     0.053 C 
BRANCH  13  14
ATOM     14  C   UNL     1       7.855   8.015   8.991  1.00  0.00     0.041 C 
ATOM     15  O   UNL     1       6.893   8.813   9.146  1.00  0.00    -0.550 OA
ATOM     16  O   UNL     1       8.991   8.430   8.307  1.00  0.00    -0.550 OA
ENDBRANCH  13  14
ENDBRANCH  12  13
ENDBRANCH  11  12
ENDBRANCH  10  11
ENDBRANCH   9  10
ENDBRANCH   8   9
ENDBRANCH   7   8
ENDBRANCH   6   7
ENDBRANCH   5   6
ENDBRANCH   4   5
ENDBRANCH   3   4
ENDBRANCH   2   3
ENDBRANCH   1   2
BRANCH   1  17
ATOM     17  C   UNL     1      -2.298  -3.311  10.125  1.00  0.00     0.000 C 
BRANCH  17  18
ATOM     18  C   UNL     1      -3.600  -4.125  10.021  1.00  0.00     0.000 C 
BRANCH  18  19
ATOM     19  C   UNL     1      -4.684  -3.407   9.206  1.00  0.00     0.000 C 
BRANCH  19  20
ATOM     20  C   UNL     1      -5.588  -2.514  10.073  1.00  0.00     0.000 C 
BRANCH  20  21
ATOM     21  C   UNL     1      -7.084  -2.671   9.723  1.00  0.00     0.000 C 
BRANCH  21  22
ATOM     22  C   UNL     1      -7.677  -4.037  10.125  1.00  0.00    -0.000 C 
BRANCH  22  23
ATOM     23  C   UNL     1      -8.936  -4.456   9.343  1.00  0.00    -0.000 C 
BRANCH  23  24
ATOM     24  C   UNL     1      -9.447  -5.877   9.641  1.00  0.00    -0.000 C 
BRANCH  24  25
ATOM     25  C   UNL     1      -8.482  -6.973   9.167  1.00  0.00    -0.000 C 
BRANCH  25  26
ATOM     26  C   UNL     1      -9.248  -8.227   8.730  1.00  0.00    -0.000 C 
BRANCH  26  27
ATOM     27  C   UNL     1      -8.591  -9.496   9.287  1.00  0.00    -0.000 C 
BRANCH  27  28
ATOM     28  C   UNL     1      -7.094  -9.537   8.946  1.00  0.00    -0.000 C 
BRANCH  28  29
ATOM     29  C   UNL     1      -6.241  -8.727   9.936  1.00  0.00    -0.003 C 
ATOM     30  C   UNL     1      -4.745  -8.809   9.635  1.00  0.00     0.004 C 
ENDBRANCH  28  29
ENDBRANCH  27  28
ENDBRANCH  26  27
ENDBRANCH  25  26
ENDBRANCH  24  25
ENDBRANCH  23  24
ENDBRANCH  22  23
ENDBRANCH  21  22
ENDBRANCH  20  21
ENDBRANCH  19  20
ENDBRANCH  18  19
ENDBRANCH  17  18
ENDBRANCH   1  17
TORSDOF 26
ENDMDL
MODEL 5
REMARK VINA RESULT:     0.279     20.154     22.398
REMARK INTER + INTRA:           1.488
REMARK INTER:                   2.862
REMARK INTRA:                  -1.375
REMARK UNBOUND:                 0.784
REMARK SMILES CCCCCCCCCCCCCCCCCCCCCCCCCCCC(=O)[O-]
REMARK SMILES IDX 15 1 16 2 17 3 18 4 19 5 20 6 21 7 22 8 23 9 24 10 25 11
REMARK SMILES IDX 26 12 27 13 28 14 29 15 30 16 14 17 13 18 12 19 11 20 10 21
REMARK SMILES IDX 9 22 8 23 7 24 6 25 5 26 4 27 3 28 2 29 1 30
REMARK H PARENT
REMARK Flexibility Score: inf
ROOT
ATOM      1  C   UNL     1      -1.504   0.963   9.168  1.00  0.00     0.000 C 
ENDROOT
BRANCH   1   2
ATOM      2  C   UNL     1      -2.767   0.872  10.044  1.00  0.00     0.000 C 
BRANCH   2   3
ATOM      3  C   UNL     1      -3.321  -0.560  10.124  1.00  0.00     0.000 C 
BRANCH   3   4
ATOM      4  C   UNL     1      -4.211  -0.902   8.916  1.00  0.00     0.000 C 
BRANCH   4   5
ATOM      5  C   UNL     1      -4.119  -2.382   8.499  1.00  0.00     0.000 C 
BRANCH   5   6
ATOM      6  C   UNL     1      -3.144  -3.242   9.323  1.00  0.00     0.000 C 
BRANCH   6   7
ATOM      7  C   UNL     1      -3.845  -4.354  10.120  1.00  0.00     0.000 C 
BRANCH   7   8
ATOM      8  C   UNL     1      -5.109  -4.880   9.420  1.00  0.00     0.000 C 
BRANCH   8   9
ATOM      9  C   UNL     1      -4.886  -6.189   8.630  1.00  0.00     0.000 C 
BRANCH   9  10
ATOM     10  C   UNL     1      -4.953  -7.434   9.533  1.00  0.00     0.000 C 
BRANCH  10  11
ATOM     11  C   UNL     1      -6.395  -7.837   9.894  1.00  0.00     0.000 C 
BRANCH  11  12
ATOM     12  C   UNL     1      -7.489  -7.240   8.986  1.00  0.00     0.006 C 
BRANCH  12  13
ATOM     13  C   UNL     1      -8.925  -7.451   9.493  1.00  0.00     0.053 C 
BRANCH  13  14
ATOM     14  C   UNL     1      -9.548  -8.695   8.938  1.00  0.00     0.041 C 
ATOM     15  O   UNL     1      -9.560  -9.756   9.616  1.00  0.00    -0.550 OA
ATOM     16  O   UNL     1     -10.111  -8.683   7.667  1.00  0.00    -0.550 OA
ENDBRANCH  13  14
ENDBRANCH  12  13
ENDBRANCH  11  12
ENDBRANCH  10  11
ENDBRANCH   9  10
ENDBRANCH   8   9
ENDBRANCH   7   8
ENDBRANCH   6   7
ENDBRANCH   5   6
ENDBRANCH   4   5
ENDBRANCH   3   4
ENDBRANCH   2   3
ENDBRANCH   1   2
BRANCH   1  17
ATOM     17  C   UNL     1      -0.225   1.080  10.013  1.00  0.00     0.000 C 
BRANCH  17  18
ATOM     18  C   UNL     1       0.701  -0.136   9.831  1.00  0.00     0.000 C 
BRANCH  18  19
ATOM     19  C   UNL     1       2.090   0.252   9.304  1.00  0.00     0.000 C 
BRANCH  19  20
ATOM     20  C   UNL     1       2.703   1.443  10.061  1.00  0.00     0.000 C 
BRANCH  20  21
ATOM     21  C   UNL     1       4.247   1.422  10.044  1.00  0.00     0.000 C 
BRANCH  21  22
ATOM     22  C   UNL     1       4.889   2.821  10.125  1.00  0.00    -0.000 C 
BRANCH  22  23
ATOM     23  C   UNL     1       3.909   3.999   9.971  1.00  0.00    -0.000 C 
BRANCH  23  24
ATOM     24  C   UNL     1       4.538   5.397  10.115  1.00  0.00    -0.000 C 
BRANCH  24  25
ATOM     25  C   UNL     1       4.689   6.128   8.773  1.00  0.00    -0.000 C 
BRANCH  25  26
ATOM     26  C   UNL     1       5.676   7.294   8.891  1.00  0.00    -0.000 C 
BRANCH  26  27
ATOM     27  C   UNL     1       7.109   6.835   8.596  1.00  0.00    -0.000 C 
BRANCH  27  28
ATOM     28  C   UNL     1       8.091   7.390   9.639  1.00  0.00    -0.000 C 
BRANCH  28  29
ATOM     29  C   UNL     1       9.320   8.053   8.997  1.00  0.00    -0.003 C 
ATOM     30  C   UNL     1       9.436   9.539   9.334  1.00  0.00     0.004 C 
ENDBRANCH  28  29
ENDBRANCH  27  28
ENDBRANCH  26  27
ENDBRANCH  25  26
ENDBRANCH  24  25
ENDBRANCH  23  24
ENDBRANCH  22  23
ENDBRANCH  21  22
ENDBRANCH  20  21
ENDBRANCH  19  20
ENDBRANCH  18  19
ENDBRANCH  17  18
ENDBRANCH   1  17
TORSDOF 26
ENDMDL
MODEL 6
REMARK VINA RESULT:     0.424      2.458      6.716
REMARK INTER + INTRA:           1.852
REMARK INTER:                  -0.447
REMARK INTRA:                   2.299
REMARK UNBOUND:                 0.784
REMARK SMILES CCCCCCCCCCCCCCCCCCCCCCCCCCCC(=O)[O-]
REMARK SMILES IDX 15 1 16 2 17 3 18 4 19 5 20 6 21 7 22 8 23 9 24 10 25 11
REMARK SMILES IDX 26 12 27 13 28 14 29 15 30 16 14 17 13 18 12 19 11 20 10 21
REMARK SMILES IDX 9 22 8 23 7 24 6 25 5 26 4 27 3 28 2 29 1 30
REMARK H PARENT
REMARK Flexibility Score: inf
ROOT
ATOM      1  C   UNL     1      -3.251   4.217  -8.705  1.00  0.00     0.000 C 
ENDROOT
BRANCH   1   2
ATOM      2  C   UNL     1      -4.175   3.041  -9.071  1.00  0.00     0.000 C 
BRANCH   2   3
ATOM      3  C   UNL     1      -3.403   1.855  -9.672  1.00  0.00     0.000 C 
BRANCH   3   4
ATOM      4  C   UNL     1      -1.914   2.182  -9.879  1.00  0.00     0.000 C 
BRANCH   4   5
ATOM      5  C   UNL     1      -1.013   0.933  -9.860  1.00  0.00     0.000 C 
BRANCH   5   6
ATOM      6  C   UNL     1       0.482   1.192 -10.123  1.00  0.00     0.000 C 
BRANCH   6   7
ATOM      7  C   UNL     1       1.402   0.173  -9.432  1.00  0.00     0.000 C 
BRANCH   7   8
ATOM      8  C   UNL     1       0.890  -1.271  -9.558  1.00  0.00     0.000 C 
BRANCH   8   9
ATOM      9  C   UNL     1       1.938  -2.257 -10.122  1.00  0.00     0.000 C 
BRANCH   9  10
ATOM     10  C   UNL     1       3.165  -2.393  -9.203  1.00  0.00     0.000 C 
BRANCH  10  11
ATOM     11  C   UNL     1       4.447  -2.777  -9.964  1.00  0.00     0.000 C 
BRANCH  11  12
ATOM     12  C   UNL     1       5.114  -4.089  -9.504  1.00  0.00     0.006 C 
BRANCH  12  13
ATOM     13  C   UNL     1       4.403  -5.368  -9.978  1.00  0.00     0.053 C 
BRANCH  13  14
ATOM     14  C   UNL     1       4.548  -6.495  -9.003  1.00  0.00     0.041 C 
ATOM     15  O   UNL     1       5.480  -6.486  -8.156  1.00  0.00    -0.550 OA
ATOM     16  O   UNL     1       3.656  -7.560  -9.033  1.00  0.00    -0.550 OA
ENDBRANCH  13  14
ENDBRANCH  12  13
ENDBRANCH  11  12
ENDBRANCH  10  11
ENDBRANCH   9  10
ENDBRANCH   8   9
ENDBRANCH   7   8
ENDBRANCH   6   7
ENDBRANCH   5   6
ENDBRANCH   4   5
ENDBRANCH   3   4
ENDBRANCH   2   3
ENDBRANCH   1   2
BRANCH   1  17
ATOM     17  C   UNL     1      -3.253   5.308  -9.789  1.00  0.00     0.000 C 
BRANCH  17  18
ATOM     18  C   UNL     1      -3.940   6.599  -9.308  1.00  0.00     0.000 C 
BRANCH  18  19
ATOM     19  C   UNL     1      -5.257   6.878 -10.047  1.00  0.00     0.000 C 
BRANCH  19  20
ATOM     20  C   UNL     1      -6.277   5.736  -9.898  1.00  0.00     0.000 C 
BRANCH  20  21
ATOM     21  C   UNL     1      -6.154   5.008  -8.541  1.00  0.00     0.000 C 
BRANCH  21  22
ATOM     22  C   UNL     1      -7.187   5.466  -7.493  1.00  0.00    -0.000 C 
BRANCH  22  23
ATOM     23  C   UNL     1      -8.510   6.001  -8.071  1.00  0.00    -0.000 C 
BRANCH  23  24
ATOM     24  C   UNL     1      -8.866   5.485  -9.477  1.00  0.00    -0.000 C 
BRANCH  24  25
ATOM     25  C   UNL     1     -10.026   6.255 -10.124  1.00  0.00    -0.000 C 
BRANCH  25  26
ATOM     26  C   UNL     1      -9.815   7.769 -10.001  1.00  0.00    -0.000 C 
BRANCH  26  27
ATOM     27  C   UNL     1      -8.439   8.086  -9.401  1.00  0.00    -0.000 C 
BRANCH  27  28
ATOM     28  C   UNL     1      -8.002   9.516  -9.751  1.00  0.00    -0.000 C 
BRANCH  28  29
ATOM     29  C   UNL     1      -7.022  10.102  -8.722  1.00  0.00    -0.003 C 
ATOM     30  C   UNL     1      -5.563   9.993  -9.163  1.00  0.00     0.004 C 
ENDBRANCH  28  29
ENDBRANCH  27  28
ENDBRANCH  26  27
ENDBRANCH  25  26
ENDBRANCH  24  25
ENDBRANCH  23  24
ENDBRANCH  22  23
ENDBRANCH  21  22
ENDBRANCH  20  21
ENDBRANCH  19  20
ENDBRANCH  18  19
ENDBRANCH  17  18
ENDBRANCH   1  17
TORSDOF 26
ENDMDL
MODEL 7
REMARK VINA RESULT:     0.763      6.289     16.289
REMARK INTER + INTRA:           2.708
REMARK INTER:                   3.619
REMARK INTRA:                  -0.911
REMARK UNBOUND:                 0.784
REMARK SMILES CCCCCCCCCCCCCCCCCCCCCCCCCCCC(=O)[O-]
REMARK SMILES IDX 15 1 16 2 17 3 18 4 19 5 20 6 21 7 22 8 23 9 24 10 25 11
REMARK SMILES IDX 26 12 27 13 28 14 29 15 30 16 14 17 13 18 12 19 11 20 10 21
REMARK SMILES IDX 9 22 8 23 7 24 6 25 5 26 4 27 3 28 2 29 1 30
REMARK H PARENT
REMARK Flexibility Score: inf
ROOT
ATOM      1  C   UNL     1      -0.898   0.425  -8.323  1.00  0.00     0.000 C 
ENDROOT
BRANCH   1   2
ATOM      2  C   UNL     1      -1.747   1.263  -9.297  1.00  0.00     0.000 C 
BRANCH   2   3
ATOM      3  C   UNL     1      -2.809   0.420 -10.021  1.00  0.00     0.000 C 
BRANCH   3   4
ATOM      4  C   UNL     1      -4.163   1.146 -10.102  1.00  0.00     0.000 C 
BRANCH   4   5
ATOM      5  C   UNL     1      -4.032   2.679 -10.034  1.00  0.00     0.000 C 
BRANCH   5   6
ATOM      6  C   UNL     1      -3.743   3.256  -8.635  1.00  0.00     0.000 C 
BRANCH   6   7
ATOM      7  C   UNL     1      -3.745   4.792  -8.603  1.00  0.00     0.000 C 
BRANCH   7   8
ATOM      8  C   UNL     1      -3.903   5.415 -10.000  1.00  0.00     0.000 C 
BRANCH   8   9
ATOM      9  C   UNL     1      -5.111   6.370 -10.125  1.00  0.00     0.000 C 
BRANCH   9  10
ATOM     10  C   UNL     1      -5.925   6.455  -8.821  1.00  0.00     0.000 C 
BRANCH  10  11
ATOM     11  C   UNL     1      -7.282   5.733  -8.910  1.00  0.00     0.000 C 
BRANCH  11  12
ATOM     12  C   UNL     1      -8.308   6.381  -9.862  1.00  0.00     0.006 C 
BRANCH  12  13
ATOM     13  C   UNL     1      -8.219   7.913  -9.950  1.00  0.00     0.053 C 
BRANCH  13  14
ATOM     14  C   UNL     1      -8.789   8.587  -8.740  1.00  0.00     0.041 C 
ATOM     15  O   UNL     1      -8.260   9.637  -8.290  1.00  0.00    -0.550 OA
ATOM     16  O   UNL     1      -9.903   8.051  -8.105  1.00  0.00    -0.550 OA
ENDBRANCH  13  14
ENDBRANCH  12  13
ENDBRANCH  11  12
ENDBRANCH  10  11
ENDBRANCH   9  10
ENDBRANCH   8   9
ENDBRANCH   7   8
ENDBRANCH   6   7
ENDBRANCH   5   6
ENDBRANCH   4   5
ENDBRANCH   3   4
ENDBRANCH   2   3
ENDBRANCH   1   2
BRANCH   1  17
ATOM     17  C   UNL     1       0.283  -0.259  -9.032  1.00  0.00     0.000 C 
BRANCH  17  18
ATOM     18  C   UNL     1      -0.119  -1.610  -9.650  1.00  0.00     0.000 C 
BRANCH  18  19
ATOM     19  C   UNL     1       1.091  -2.427 -10.125  1.00  0.00     0.000 C 
BRANCH  19  20
ATOM     20  C   UNL     1       2.322  -2.248  -9.220  1.00  0.00     0.000 C 
BRANCH  20  21
ATOM     21  C   UNL     1       3.628  -2.714  -9.900  1.00  0.00     0.000 C 
BRANCH  21  22
ATOM     22  C   UNL     1       3.819  -4.244  -9.901  1.00  0.00    -0.000 C 
BRANCH  22  23
ATOM     23  C   UNL     1       5.268  -4.720 -10.111  1.00  0.00    -0.000 C 
BRANCH  23  24
ATOM     24  C   UNL     1       6.353  -3.762  -9.586  1.00  0.00    -0.000 C 
BRANCH  24  25
ATOM     25  C   UNL     1       7.664  -4.479  -9.229  1.00  0.00    -0.000 C 
BRANCH  25  26
ATOM     26  C   UNL     1       7.668  -5.915  -9.766  1.00  0.00    -0.000 C 
BRANCH  26  27
ATOM     27  C   UNL     1       8.879  -6.696  -9.240  1.00  0.00    -0.000 C 
BRANCH  27  28
ATOM     28  C   UNL     1       8.743  -8.195  -9.548  1.00  0.00    -0.000 C 
BRANCH  28  29
ATOM     29  C   UNL     1       7.339  -8.570 -10.048  1.00  0.00    -0.003 C 
ATOM     30  C   UNL     1       6.832  -9.886  -9.460  1.00  0.00     0.004 C 
ENDBRANCH  28  29
ENDBRANCH  27  28
ENDBRANCH  26  27
ENDBRANCH  25  26
ENDBRANCH  24  25
ENDBRANCH  23  24
ENDBRANCH  22  23
ENDBRANCH  21  22
ENDBRANCH  20  21
ENDBRANCH  19  20
ENDBRANCH  18  19
ENDBRANCH  17  18
ENDBRANCH   1  17
TORSDOF 26
ENDMDL
