MODEL 1
REMARK VINA RESULT:    -2.108      0.000      0.000
REMARK INTER + INTRA:          -2.387
REMARK INTER:                  -2.355
REMARK INTRA:                  -0.033
REMARK UNBOUND:                -0.033
REMARK SMILES CCCC(=O)[O-]
REMARK SMILES IDX 3 1 4 2 5 3 6 4 2 5 1 6
REMARK H PARENT
REMARK Flexibility Score: inf
ROOT
ATOM      1  C   UNL     1      75.020  89.041  92.270  1.00  0.00     0.052 C 
ENDROOT
BRANCH   1   2
ATOM      2  C   UNL     1      75.012  90.490  92.651  1.00  0.00     0.041 C 
ATOM      3  O   UNL     1      73.968  91.018  93.117  1.00  0.00    -0.550 OA
ATOM      4  O   UNL     1      76.148  91.266  92.460  1.00  0.00    -0.550 OA
ENDBRANCH   1   2
BRANCH   1   5
ATOM      5  C   UNL     1      73.615  88.540  91.915  1.00  0.00     0.003 C 
ATOM      6  C   UNL     1      73.035  87.624  92.992  1.00  0.00     0.004 C 
ENDBRANCH   1   5
TORSDOF 2
ENDMDL
MODEL 2
REMARK VINA RESULT:    -2.077     18.864     19.331
REMARK INTER + INTRA:          -2.352
REMARK INTER:                  -2.359
REMARK INTRA:                   0.007
REMARK UNBOUND:                -0.033
REMARK SMILES CCCC(=O)[O-]
REMARK SMILES IDX 3 1 4 2 5 3 6 4 2 5 1 6
REMARK H PARENT
REMARK Flexibility Score: inf
ROOT
ATOM      1  C   UNL     1      74.476  90.575  74.030  1.00  0.00     0.052 C 
ENDROOT
BRANCH   1   2
ATOM      2  C   UNL     1      75.846  90.983  73.581  1.00  0.00     0.041 C 
ATOM      3  O   UNL     1      76.005  92.032  72.900  1.00  0.00    -0.550 OA
ATOM      4  O   UNL     1      76.943  90.188  73.884  1.00  0.00    -0.550 OA
ENDBRANCH   1   2
BRANCH   1   5
ATOM      5  C   UNL     1      73.435  90.767  72.920  1.00  0.00     0.003 C 
ATOM      6  C   UNL     1      72.628  92.052  73.096  1.00  0.00     0.004 C 
ENDBRANCH   1   5
TORSDOF 2
ENDMDL
MODEL 3
REMARK VINA RESULT:    -2.059     16.191     16.837
REMARK INTER + INTRA:          -2.333
REMARK INTER:                  -2.324
REMARK INTRA:                  -0.009
REMARK UNBOUND:                -0.033
REMARK SMILES CCCC(=O)[O-]
REMARK SMILES IDX 3 1 4 2 5 3 6 4 2 5 1 6
REMARK H PARENT
REMARK Flexibility Score: inf
ROOT
ATOM      1  C   UNL     1      74.457  72.566  91.978  1.00  0.00     0.052 C 
ENDROOT
BRANCH   1   2
ATOM      2  C   UNL     1      75.825  72.864  92.512  1.00  0.00     0.041 C 
ATOM      3  O   UNL     1      76.097  74.012  92.955  1.00  0.00    -0.550 OA
ATOM      4  O   UNL     1      76.810  71.885  92.489  1.00  0.00    -0.550 OA
ENDBRANCH   1   2
BRANCH   1   5
ATOM      5  C   UNL     1      73.372  73.348  92.729  1.00  0.00     0.003 C 
ATOM      6  C   UNL     1      71.963  72.970  92.273  1.00  0.00     0.004 C 
ENDBRANCH   1   5
TORSDOF 2
ENDMDL
MODEL 4
REMARK VINA RESULT:    -2.041      1.804      3.313
REMARK INTER + INTRA:          -2.312
REMARK INTER:                  -2.278
REMARK INTRA:                  -0.034
REMARK UNBOUND:                -0.033
REMARK SMILES CCCC(=O)[O-]
REMARK SMILES IDX 3 1 4 2 5 3 6 4 2 5 1 6
REMARK H PARENT
REMARK Flexibility Score: inf
ROOT
ATOM      1  C   UNL     1      76.091  89.841  92.770  1.00  0.00     0.052 C 
ENDROOT
BRANCH   1   2
ATOM      2  C   UNL     1      74.617  90.016  92.569  1.00  0.00     0.041 C 
ATOM      3  O   UNL     1      74.020  91.001  93.078  1.00  0.00    -0.550 OA
ATOM      4  O   UNL     1      73.896  89.072  91.849  1.00  0.00    -0.550 OA
ENDBRANCH   1   2
BRANCH   1   5
ATOM      5  C   UNL     1      76.903  90.621  91.728  1.00  0.00     0.003 C 
ATOM      6  C   UNL     1      77.288  92.016  92.218  1.00  0.00     0.004 C 
ENDBRANCH   1   5
TORSDOF 2
ENDMDL
MODEL 5
REMARK VINA RESULT:    -2.019     10.849     11.207
REMARK INTER + INTRA:          -2.288
REMARK INTER:                  -2.274
REMARK INTRA:                  -0.014
REMARK UNBOUND:                -0.033
REMARK SMILES CCCC(=O)[O-]
REMARK SMILES IDX 3 1 4 2 5 3 6 4 2 5 1 6
REMARK H PARENT
REMARK Flexibility Score: inf
ROOT
ATOM      1  C   UNL     1      73.304  89.628  81.832  1.00  0.00     0.052 C 
ENDROOT
BRANCH   1   2
ATOM      2  C   UNL     1      73.217  90.626  80.718  1.00  0.00     0.041 C 
ATOM      3  O   UNL     1      72.198  91.357  80.598  1.00  0.00    -0.550 OA
ATOM      4  O   UNL     1      74.246  90.725  79.790  1.00  0.00    -0.550 OA
ENDBRANCH   1   2
BRANCH   1   5
ATOM      5  C   UNL     1      72.019  89.597  82.668  1.00  0.00     0.003 C 
ATOM      6  C   UNL     1      72.258  89.070  84.082  1.00  0.00     0.004 C 
ENDBRANCH   1   5
TORSDOF 2
ENDMDL
MODEL 6
REMARK VINA RESULT:    -2.014     10.551     11.049
REMARK INTER + INTRA:          -2.282
REMARK INTER:                  -2.232
REMARK INTRA:                  -0.050
REMARK UNBOUND:                -0.033
REMARK SMILES CCCC(=O)[O-]
REMARK SMILES IDX 3 1 4 2 5 3 6 4 2 5 1 6
REMARK H PARENT
REMARK Flexibility Score: inf
ROOT
ATOM      1  C   UNL     1      72.102  89.433  81.401  1.00  0.00     0.052 C 
ENDROOT
BRANCH   1   2
ATOM      2  C   UNL     1      72.873  89.256  82.673  1.00  0.00     0.041 C 
ATOM      3  O   UNL     1      72.322  89.471  83.785  1.00  0.00    -0.550 OA
ATOM      4  O   UNL     1      74.211  88.885  82.629  1.00  0.00    -0.550 OA
ENDBRANCH   1   2
BRANCH   1   5
ATOM      5  C   UNL     1      71.981  90.912  81.012  1.00  0.00     0.003 C 
ATOM      6  C   UNL     1      73.251  91.444  80.348  1.00  0.00     0.004 C 
ENDBRANCH   1   5
TORSDOF 2
ENDMDL
MODEL 7
REMARK VINA RESULT:    -2.009     18.592     19.043
REMARK INTER + INTRA:          -2.277
REMARK INTER:                  -2.271
REMARK INTRA:                  -0.006
REMARK UNBOUND:                -0.033
REMARK SMILES CCCC(=O)[O-]
REMARK SMILES IDX 3 1 4 2 5 3 6 4 2 5 1 6
REMARK H PARENT
REMARK Flexibility Score: inf
ROOT
ATOM      1  C   UNL     1      74.155  91.445  74.031  1.00  0.00     0.052 C 
ENDROOT
BRANCH   1   2
ATOM      2  C   UNL     1      75.272  90.450  74.119  1.00  0.00     0.041 C 
ATOM      3  O   UNL     1      75.069  89.311  74.618  1.00  0.00    -0.550 OA
ATOM      4  O   UNL     1      76.544  90.792  73.680  1.00  0.00    -0.550 OA
ENDBRANCH   1   2
BRANCH   1   5
ATOM      5  C   UNL     1      73.199  91.125  72.875  1.00  0.00     0.003 C 
ATOM      6  C   UNL     1      71.950  92.005  72.894  1.00  0.00     0.004 C 
ENDBRANCH   1   5
TORSDOF 2
ENDMDL
MODEL 8
REMARK VINA RESULT:    -1.956     18.552     18.947
REMARK INTER + INTRA:          -2.217
REMARK INTER:                  -2.212
REMARK INTRA:                  -0.005
REMARK UNBOUND:                -0.033
REMARK SMILES CCCC(=O)[O-]
REMARK SMILES IDX 3 1 4 2 5 3 6 4 2 5 1 6
REMARK H PARENT
REMARK Flexibility Score: inf
ROOT
ATOM      1  C   UNL     1      74.840  89.896  74.153  1.00  0.00     0.052 C 
ENDROOT
BRANCH   1   2
ATOM      2  C   UNL     1      74.775  91.388  74.029  1.00  0.00     0.041 C 
ATOM      3  O   UNL     1      73.661  91.976  74.028  1.00  0.00    -0.550 OA
ATOM      4  O   UNL     1      75.942  92.125  73.880  1.00  0.00    -0.550 OA
ENDBRANCH   1   2
BRANCH   1   5
ATOM      5  C   UNL     1      74.219  89.197  72.937  1.00  0.00     0.003 C 
ATOM      6  C   UNL     1      74.500  87.696  72.923  1.00  0.00     0.004 C 
ENDBRANCH   1   5
TORSDOF 2
ENDMDL
MODEL 9
REMARK VINA RESULT:    -1.926     11.825     12.254
REMARK INTER + INTRA:          -2.184
REMARK INTER:                  -2.150
REMARK INTRA:                  -0.035
REMARK UNBOUND:                -0.033
REMARK SMILES CCCC(=O)[O-]
REMARK SMILES IDX 3 1 4 2 5 3 6 4 2 5 1 6
REMARK H PARENT
REMARK Flexibility Score: inf
ROOT
ATOM      1  C   UNL     1      72.905  91.382  80.520  1.00  0.00     0.052 C 
ENDROOT
BRANCH   1   2
ATOM      2  C   UNL     1      74.282  91.082  80.012  1.00  0.00     0.041 C 
ATOM      3  O   UNL     1      74.701  91.625  78.956  1.00  0.00    -0.550 OA
ATOM      4  O   UNL     1      75.090  90.177  80.687  1.00  0.00    -0.550 OA
ENDBRANCH   1   2
BRANCH   1   5
ATOM      5  C   UNL     1      72.101  90.100  80.772  1.00  0.00     0.003 C 
ATOM      6  C   UNL     1      71.944  89.796  82.261  1.00  0.00     0.004 C 
ENDBRANCH   1   5
TORSDOF 2
ENDMDL
