MODEL 1
REMARK VINA RESULT:    -4.338      0.000      0.000
REMARK INTER + INTRA:          -7.323
REMARK INTER:                  -6.620
REMARK INTRA:                  -0.703
REMARK UNBOUND:                -0.703
REMARK SMILES CCCCCCCCCCC(=O)[O-]
REMARK SMILES IDX 7 1 8 2 9 3 10 4 11 5 12 6 13 7 6 8 5 9 4 10 3 11 2 12 1 13
REMARK H PARENT
REMARK Flexibility Score: inf
ROOT
ATOM      1  C   UNL     1      55.995  12.982  89.350  1.00  0.00     0.000 C 
ENDROOT
BRANCH   1   2
ATOM      2  C   UNL     1      56.684  14.348  89.181  1.00  0.00     0.000 C 
BRANCH   2   3
ATOM      3  C   UNL     1      57.939  14.488  90.058  1.00  0.00     0.006 C 
BRANCH   3   4
ATOM      4  C   UNL     1      58.973  15.448  89.458  1.00  0.00     0.053 C 
BRANCH   4   5
ATOM      5  C   UNL     1      59.034  16.714  90.254  1.00  0.00     0.041 C 
ATOM      6  O   UNL     1      58.138  16.974  91.099  1.00  0.00    -0.550 OA
ATOM      7  O   UNL     1      60.106  17.583  90.097  1.00  0.00    -0.550 OA
ENDBRANCH   4   5
ENDBRANCH   3   4
ENDBRANCH   2   3
ENDBRANCH   1   2
BRANCH   1   8
ATOM      8  C   UNL     1      56.289  12.021  88.188  1.00  0.00     0.000 C 
BRANCH   8   9
ATOM      9  C   UNL     1      57.503  11.117  88.461  1.00  0.00    -0.000 C 
BRANCH   9  10
ATOM     10  C   UNL     1      57.338  10.259  89.728  1.00  0.00    -0.000 C 
BRANCH  10  11
ATOM     11  C   UNL     1      58.654   9.827  90.408  1.00  0.00    -0.000 C 
BRANCH  11  12
ATOM     12  C   UNL     1      59.811  10.834  90.281  1.00  0.00    -0.003 C 
ATOM     13  C   UNL     1      61.014  10.471  91.150  1.00  0.00     0.004 C 
ENDBRANCH  11  12
ENDBRANCH  10  11
ENDBRANCH   9  10
ENDBRANCH   8   9
ENDBRANCH   1   8
TORSDOF 9
ENDMDL
MODEL 2
REMARK VINA RESULT:    -4.272      4.669      6.612
REMARK INTER + INTRA:          -7.223
REMARK INTER:                  -6.510
REMARK INTRA:                  -0.713
REMARK UNBOUND:                -0.703
REMARK SMILES CCCCCCCCCCC(=O)[O-]
REMARK SMILES IDX 7 1 8 2 9 3 10 4 11 5 12 6 13 7 6 8 5 9 4 10 3 11 2 12 1 13
REMARK H PARENT
REMARK Flexibility Score: inf
ROOT
ATOM      1  C   UNL     1      56.605   9.809  90.874  1.00  0.00     0.000 C 
ENDROOT
BRANCH   1   2
ATOM      2  C   UNL     1      56.389  10.867  91.972  1.00  0.00     0.000 C 
BRANCH   2   3
ATOM      3  C   UNL     1      55.124  10.604  92.803  1.00  0.00     0.006 C 
BRANCH   3   4
ATOM      4  C   UNL     1      54.475   9.252  92.479  1.00  0.00     0.053 C 
BRANCH   4   5
ATOM      5  C   UNL     1      54.161   8.508  93.738  1.00  0.00     0.041 C 
ATOM      6  O   UNL     1      53.377   7.523  93.713  1.00  0.00    -0.550 OA
ATOM      7  O   UNL     1      54.773   8.871  94.931  1.00  0.00    -0.550 OA
ENDBRANCH   4   5
ENDBRANCH   3   4
ENDBRANCH   2   3
ENDBRANCH   1   2
BRANCH   1   8
ATOM      8  C   UNL     1      57.993   9.905  90.222  1.00  0.00     0.000 C 
BRANCH   8   9
ATOM      9  C   UNL     1      58.156  11.171  89.364  1.00  0.00    -0.000 C 
BRANCH   9  10
ATOM     10  C   UNL     1      57.000  11.372  88.367  1.00  0.00    -0.000 C 
BRANCH  10  11
ATOM     11  C   UNL     1      56.140  12.630  88.601  1.00  0.00    -0.000 C 
BRANCH  11  12
ATOM     12  C   UNL     1      56.630  13.551  89.733  1.00  0.00    -0.003 C 
ATOM     13  C   UNL     1      57.314  14.817  89.217  1.00  0.00     0.004 C 
ENDBRANCH  11  12
ENDBRANCH  10  11
ENDBRANCH   9  10
ENDBRANCH   8   9
ENDBRANCH   1   8
TORSDOF 9
ENDMDL
MODEL 3
REMARK VINA RESULT:    -4.216      2.456      2.937
REMARK INTER + INTRA:          -7.137
REMARK INTER:                  -5.935
REMARK INTRA:                  -1.203
REMARK UNBOUND:                -0.703
REMARK SMILES CCCCCCCCCCC(=O)[O-]
REMARK SMILES IDX 7 1 8 2 9 3 10 4 11 5 12 6 13 7 6 8 5 9 4 10 3 11 2 12 1 13
REMARK H PARENT
REMARK Flexibility Score: inf
ROOT
ATOM      1  C   UNL     1      56.696  13.737  89.603  1.00  0.00     0.000 C 
ENDROOT
BRANCH   1   2
ATOM      2  C   UNL     1      58.202  13.777  89.919  1.00  0.00     0.000 C 
BRANCH   2   3
ATOM      3  C   UNL     1      58.485  14.003  91.412  1.00  0.00     0.006 C 
BRANCH   3   4
ATOM      4  C   UNL     1      58.016  12.832  92.285  1.00  0.00     0.053 C 
BRANCH   4   5
ATOM      5  C   UNL     1      57.392  13.339  93.547  1.00  0.00     0.041 C 
ATOM      6  O   UNL     1      56.186  13.702  93.557  1.00  0.00    -0.550 OA
ATOM      7  O   UNL     1      58.127  13.363  94.725  1.00  0.00    -0.550 OA
ENDBRANCH   4   5
ENDBRANCH   3   4
ENDBRANCH   2   3
ENDBRANCH   1   2
BRANCH   1   8
ATOM      8  C   UNL     1      56.295  12.501  88.783  1.00  0.00     0.000 C 
BRANCH   8   9
ATOM      9  C   UNL     1      57.423  11.459  88.694  1.00  0.00    -0.000 C 
BRANCH   9  10
ATOM     10  C   UNL     1      57.234  10.286  89.673  1.00  0.00    -0.000 C 
BRANCH  10  11
ATOM     11  C   UNL     1      58.533   9.737  90.299  1.00  0.00    -0.000 C 
BRANCH  11  12
ATOM     12  C   UNL     1      59.809  10.518  89.939  1.00  0.00    -0.003 C 
ATOM     13  C   UNL     1      60.842  10.523  91.066  1.00  0.00     0.004 C 
ENDBRANCH  11  12
ENDBRANCH  10  11
ENDBRANCH   9  10
ENDBRANCH   8   9
ENDBRANCH   1   8
TORSDOF 9
ENDMDL
MODEL 4
REMARK VINA RESULT:    -4.182      5.125      6.720
REMARK INTER + INTRA:          -7.086
REMARK INTER:                  -6.154
REMARK INTRA:                  -0.931
REMARK UNBOUND:                -0.703
REMARK SMILES CCCCCCCCCCC(=O)[O-]
REMARK SMILES IDX 7 1 8 2 9 3 10 4 11 5 12 6 13 7 6 8 5 9 4 10 3 11 2 12 1 13
REMARK H PARENT
REMARK Flexibility Score: inf
ROOT
ATOM      1  C   UNL     1      56.497  11.867  92.490  1.00  0.00     0.000 C 
ENDROOT
BRANCH   1   2
ATOM      2  C   UNL     1      55.228  11.147  91.999  1.00  0.00     0.000 C 
BRANCH   2   3
ATOM      3  C   UNL     1      55.190   9.669  92.417  1.00  0.00     0.006 C 
BRANCH   3   4
ATOM      4  C   UNL     1      54.506   9.457  93.774  1.00  0.00     0.053 C 
BRANCH   4   5
ATOM      5  C   UNL     1      54.128   8.019  93.949  1.00  0.00     0.041 C 
ATOM      6  O   UNL     1      54.712   7.311  94.811  1.00  0.00    -0.550 OA
ATOM      7  O   UNL     1      53.095   7.475  93.195  1.00  0.00    -0.550 OA
ENDBRANCH   4   5
ENDBRANCH   3   4
ENDBRANCH   2   3
ENDBRANCH   1   2
BRANCH   1   8
ATOM      8  C   UNL     1      56.717  13.220  91.797  1.00  0.00     0.000 C 
BRANCH   8   9
ATOM      9  C   UNL     1      56.055  13.288  90.410  1.00  0.00    -0.000 C 
BRANCH   9  10
ATOM     10  C   UNL     1      57.057  13.101  89.257  1.00  0.00    -0.000 C 
BRANCH  10  11
ATOM     11  C   UNL     1      57.282  11.641  88.812  1.00  0.00    -0.000 C 
BRANCH  11  12
ATOM     12  C   UNL     1      58.645  11.044  89.206  1.00  0.00    -0.003 C 
ATOM     13  C   UNL     1      58.522   9.867  90.173  1.00  0.00     0.004 C 
ENDBRANCH  11  12
ENDBRANCH  10  11
ENDBRANCH   9  10
ENDBRANCH   8   9
ENDBRANCH   1   8
TORSDOF 9
ENDMDL
MODEL 5
REMARK VINA RESULT:    -4.164      3.152      4.666
REMARK INTER + INTRA:          -7.057
REMARK INTER:                  -5.785
REMARK INTRA:                  -1.272
REMARK UNBOUND:                -0.703
REMARK SMILES CCCCCCCCCCC(=O)[O-]
REMARK SMILES IDX 7 1 8 2 9 3 10 4 11 5 12 6 13 7 6 8 5 9 4 10 3 11 2 12 1 13
REMARK H PARENT
REMARK Flexibility Score: inf
ROOT
ATOM      1  C   UNL     1      56.279  12.511  88.727  1.00  0.00     0.000 C 
ENDROOT
BRANCH   1   2
ATOM      2  C   UNL     1      57.146  11.252  88.545  1.00  0.00     0.000 C 
BRANCH   2   3
ATOM      3  C   UNL     1      58.549  11.409  89.151  1.00  0.00     0.006 C 
BRANCH   3   4
ATOM      4  C   UNL     1      58.824  10.400  90.272  1.00  0.00     0.053 C 
BRANCH   4   5
ATOM      5  C   UNL     1      59.938  10.882  91.148  1.00  0.00     0.041 C 
ATOM      6  O   UNL     1      59.799  11.932  91.829  1.00  0.00    -0.550 OA
ATOM      7  O   UNL     1      61.111  10.144  91.250  1.00  0.00    -0.550 OA
ENDBRANCH   4   5
ENDBRANCH   3   4
ENDBRANCH   2   3
ENDBRANCH   1   2
BRANCH   1   8
ATOM      8  C   UNL     1      56.970  13.588  89.579  1.00  0.00     0.000 C 
BRANCH   8   9
ATOM      9  C   UNL     1      55.967  14.461  90.352  1.00  0.00    -0.000 C 
BRANCH   9  10
ATOM     10  C   UNL     1      55.616  13.889  91.737  1.00  0.00    -0.000 C 
BRANCH  10  11
ATOM     11  C   UNL     1      56.751  13.110  92.434  1.00  0.00    -0.000 C 
BRANCH  11  12
ATOM     12  C   UNL     1      56.359  11.716  92.954  1.00  0.00    -0.003 C 
ATOM     13  C   UNL     1      55.384  10.988  92.030  1.00  0.00     0.004 C 
ENDBRANCH  11  12
ENDBRANCH  10  11
ENDBRANCH   9  10
ENDBRANCH   8   9
ENDBRANCH   1   8
TORSDOF 9
ENDMDL
MODEL 6
REMARK VINA RESULT:    -4.135      3.354      5.626
REMARK INTER + INTRA:          -7.013
REMARK INTER:                  -5.904
REMARK INTRA:                  -1.110
REMARK UNBOUND:                -0.703
REMARK SMILES CCCCCCCCCCC(=O)[O-]
REMARK SMILES IDX 7 1 8 2 9 3 10 4 11 5 12 6 13 7 6 8 5 9 4 10 3 11 2 12 1 13
REMARK H PARENT
REMARK Flexibility Score: inf
ROOT
ATOM      1  C   UNL     1      57.549  15.001  89.350  1.00  0.00     0.000 C 
ENDROOT
BRANCH   1   2
ATOM      2  C   UNL     1      57.360  13.538  89.790  1.00  0.00     0.000 C 
BRANCH   2   3
ATOM      3  C   UNL     1      58.691  12.776  89.890  1.00  0.00     0.006 C 
BRANCH   3   4
ATOM      4  C   UNL     1      58.663  11.439  89.138  1.00  0.00     0.053 C 
BRANCH   4   5
ATOM      5  C   UNL     1      58.725  10.297  90.102  1.00  0.00     0.041 C 
ATOM      6  O   UNL     1      59.834   9.906  90.551  1.00  0.00    -0.550 OA
ATOM      7  O   UNL     1      57.553   9.695  90.544  1.00  0.00    -0.550 OA
ENDBRANCH   4   5
ENDBRANCH   3   4
ENDBRANCH   2   3
ENDBRANCH   1   2
BRANCH   1   8
ATOM      8  C   UNL     1      59.003  15.480  89.491  1.00  0.00     0.000 C 
BRANCH   8   9
ATOM      9  C   UNL     1      59.114  16.815  90.247  1.00  0.00    -0.000 C 
BRANCH   9  10
ATOM     10  C   UNL     1      58.470  16.767  91.644  1.00  0.00    -0.000 C 
BRANCH  10  11
ATOM     11  C   UNL     1      59.170  15.841  92.660  1.00  0.00    -0.000 C 
BRANCH  11  12
ATOM     12  C   UNL     1      58.240  14.859  93.393  1.00  0.00    -0.003 C 
ATOM     13  C   UNL     1      56.759  15.142  93.144  1.00  0.00     0.004 C 
ENDBRANCH  11  12
ENDBRANCH  10  11
ENDBRANCH   9  10
ENDBRANCH   8   9
ENDBRANCH   1   8
TORSDOF 9
ENDMDL
MODEL 7
REMARK VINA RESULT:    -4.075     14.945     17.198
REMARK INTER + INTRA:          -6.922
REMARK INTER:                  -6.358
REMARK INTRA:                  -0.563
REMARK UNBOUND:                -0.703
REMARK SMILES CCCCCCCCCCC(=O)[O-]
REMARK SMILES IDX 7 1 8 2 9 3 10 4 11 5 12 6 13 7 6 8 5 9 4 10 3 11 2 12 1 13
REMARK H PARENT
REMARK Flexibility Score: inf
ROOT
ATOM      1  C   UNL     1      60.038   3.664 104.492  1.00  0.00     0.000 C 
ENDROOT
BRANCH   1   2
ATOM      2  C   UNL     1      60.518   5.115 104.677  1.00  0.00     0.000 C 
BRANCH   2   3
ATOM      3  C   UNL     1      59.846   6.088 103.697  1.00  0.00     0.006 C 
BRANCH   3   4
ATOM      4  C   UNL     1      60.858   6.833 102.818  1.00  0.00     0.053 C 
BRANCH   4   5
ATOM      5  C   UNL     1      60.383   8.224 102.537  1.00  0.00     0.041 C 
ATOM      6  O   UNL     1      59.176   8.531 102.725  1.00  0.00    -0.550 OA
ATOM      7  O   UNL     1      61.283   9.194 102.116  1.00  0.00    -0.550 OA
ENDBRANCH   4   5
ENDBRANCH   3   4
ENDBRANCH   2   3
ENDBRANCH   1   2
BRANCH   1   8
ATOM      8  C   UNL     1      60.757   2.677 105.424  1.00  0.00     0.000 C 
BRANCH   8   9
ATOM      9  C   UNL     1      61.875   3.345 106.242  1.00  0.00    -0.000 C 
BRANCH   9  10
ATOM     10  C   UNL     1      63.265   2.747 105.958  1.00  0.00    -0.000 C 
BRANCH  10  11
ATOM     11  C   UNL     1      64.455   3.694 106.219  1.00  0.00    -0.000 C 
BRANCH  11  12
ATOM     12  C   UNL     1      64.331   5.086 105.576  1.00  0.00    -0.003 C 
ATOM     13  C   UNL     1      65.685   5.725 105.272  1.00  0.00     0.004 C 
ENDBRANCH  11  12
ENDBRANCH  10  11
ENDBRANCH   9  10
ENDBRANCH   8   9
ENDBRANCH   1   8
TORSDOF 9
ENDMDL
MODEL 8
REMARK VINA RESULT:    -4.072      3.796      5.153
REMARK INTER + INTRA:          -6.917
REMARK INTER:                  -5.593
REMARK INTRA:                  -1.324
REMARK UNBOUND:                -0.703
REMARK SMILES CCCCCCCCCCC(=O)[O-]
REMARK SMILES IDX 7 1 8 2 9 3 10 4 11 5 12 6 13 7 6 8 5 9 4 10 3 11 2 12 1 13
REMARK H PARENT
REMARK Flexibility Score: inf
ROOT
ATOM      1  C   UNL     1      58.935  13.811  91.813  1.00  0.00     0.000 C 
ENDROOT
BRANCH   1   2
ATOM      2  C   UNL     1      58.477  12.750  92.830  1.00  0.00     0.000 C 
BRANCH   2   3
ATOM      3  C   UNL     1      56.962  12.789  93.081  1.00  0.00     0.006 C 
BRANCH   3   4
ATOM      4  C   UNL     1      56.264  11.482  92.684  1.00  0.00     0.053 C 
BRANCH   4   5
ATOM      5  C   UNL     1      55.594  10.866  93.872  1.00  0.00     0.041 C 
ATOM      6  O   UNL     1      55.797  11.330  95.025  1.00  0.00    -0.550 OA
ATOM      7  O   UNL     1      54.707   9.811  93.700  1.00  0.00    -0.550 OA
ENDBRANCH   4   5
ENDBRANCH   3   4
ENDBRANCH   2   3
ENDBRANCH   1   2
BRANCH   1   8
ATOM      8  C   UNL     1      57.767  14.406  91.011  1.00  0.00     0.000 C 
BRANCH   8   9
ATOM      9  C   UNL     1      57.765  13.946  89.543  1.00  0.00    -0.000 C 
BRANCH   9  10
ATOM     10  C   UNL     1      56.677  12.898  89.245  1.00  0.00    -0.000 C 
BRANCH  10  11
ATOM     11  C   UNL     1      57.194  11.547  88.710  1.00  0.00    -0.000 C 
BRANCH  11  12
ATOM     12  C   UNL     1      58.643  11.205  89.099  1.00  0.00    -0.003 C 
ATOM     13  C   UNL     1      58.731  10.145  90.196  1.00  0.00     0.004 C 
ENDBRANCH  11  12
ENDBRANCH  10  11
ENDBRANCH   9  10
ENDBRANCH   8   9
ENDBRANCH   1   8
TORSDOF 9
ENDMDL
MODEL 9
REMARK VINA RESULT:    -4.017      2.476      3.177
REMARK INTER + INTRA:          -6.834
REMARK INTER:                  -5.620
REMARK INTRA:                  -1.214
REMARK UNBOUND:                -0.703
REMARK SMILES CCCCCCCCCCC(=O)[O-]
REMARK SMILES IDX 7 1 8 2 9 3 10 4 11 5 12 6 13 7 6 8 5 9 4 10 3 11 2 12 1 13
REMARK H PARENT
REMARK Flexibility Score: inf
ROOT
ATOM      1  C   UNL     1      57.949  14.279  89.564  1.00  0.00     0.000 C 
ENDROOT
BRANCH   1   2
ATOM      2  C   UNL     1      58.129  14.721  91.027  1.00  0.00     0.000 C 
BRANCH   2   3
ATOM      3  C   UNL     1      58.081  13.540  92.010  1.00  0.00     0.006 C 
BRANCH   3   4
ATOM      4  C   UNL     1      59.463  13.181  92.569  1.00  0.00     0.053 C 
BRANCH   4   5
ATOM      5  C   UNL     1      59.733  13.946  93.826  1.00  0.00     0.041 C 
ATOM      6  O   UNL     1      60.917  14.131  94.214  1.00  0.00    -0.550 OA
ATOM      7  O   UNL     1      58.679  14.499  94.543  1.00  0.00    -0.550 OA
ENDBRANCH   4   5
ENDBRANCH   3   4
ENDBRANCH   2   3
ENDBRANCH   1   2
BRANCH   1   8
ATOM      8  C   UNL     1      56.471  14.154  89.160  1.00  0.00     0.000 C 
BRANCH   8   9
ATOM      9  C   UNL     1      56.013  12.690  89.042  1.00  0.00    -0.000 C 
BRANCH   9  10
ATOM     10  C   UNL     1      57.177  11.718  88.776  1.00  0.00    -0.000 C 
BRANCH  10  11
ATOM     11  C   UNL     1      57.316  10.565  89.792  1.00  0.00    -0.000 C 
BRANCH  11  12
ATOM     12  C   UNL     1      58.763  10.187  90.152  1.00  0.00    -0.003 C 
ATOM     13  C   UNL     1      59.799  11.080  89.470  1.00  0.00     0.004 C 
ENDBRANCH  11  12
ENDBRANCH  10  11
ENDBRANCH   9  10
ENDBRANCH   8   9
ENDBRANCH   1   8
TORSDOF 9
ENDMDL
