MODEL 1
REMARK VINA RESULT:    -6.532      0.000      0.000
REMARK INTER + INTRA:         -10.332
REMARK INTER:                  -9.014
REMARK INTRA:                  -1.318
REMARK UNBOUND:                -1.318
REMARK SMILES CC[C@@H](CC[C@H](C)[C@@H]1CC[C@@H]2C3=CC[C@H]4C[C@H](O)CC[C@@]4(C)[C@@H]3CC[C@]21C)C(C)C
REMARK SMILES IDX 5 1 4 2 3 3 2 4 1 5 28 6 29 7 30 8 6 9 7 10 8 11 9 12 26 13
REMARK SMILES IDX 10 14 11 15 25 16 27 17 12 18 24 19 23 20 13 21 21 22 14 23
REMARK SMILES IDX 15 24 20 25 22 26 16 27 19 28 17 29 18 30
REMARK H PARENT 18 31
REMARK Flexibility Score: inf
ROOT
ATOM      1  C   UNL     1      46.535   7.032 113.032  1.00  0.00     0.004 C 
ENDROOT
BRANCH   1   2
ATOM      2  C   UNL     1      47.733   6.045 113.017  1.00  0.00     0.004 C 
BRANCH   2   3
ATOM      3  C   UNL     1      49.109   6.791 112.941  1.00  0.00    -0.009 C 
BRANCH   3   4
ATOM      4  C   UNL     1      49.824   6.301 111.638  1.00  0.00     0.000 C 
ATOM      5  C   UNL     1      49.388   4.924 111.122  1.00  0.00     0.004 C 
ENDBRANCH   3   4
BRANCH   3   6
ATOM      6  C   UNL     1      50.007   6.605 114.228  1.00  0.00    -0.014 C 
ATOM      7  C   UNL     1      49.256   7.006 115.513  1.00  0.00     0.007 C 
ATOM      8  C   UNL     1      50.519   5.157 114.426  1.00  0.00     0.007 C 
ENDBRANCH   3   6
ENDBRANCH   2   3
ENDBRANCH   1   2
BRANCH   1   9
ATOM      9  C   UNL     1      45.650   6.884 114.299  1.00  0.00    -0.011 C 
ATOM     10  C   UNL     1      44.362   6.082 113.987  1.00  0.00     0.008 C 
BRANCH   9  11
ATOM     11  C   UNL     1      45.447   8.254 115.041  1.00  0.00    -0.002 C 
ATOM     12  C   UNL     1      46.672   9.213 114.950  1.00  0.00     0.005 C 
ATOM     13  C   UNL     1      44.985   8.296 116.537  1.00  0.00    -0.023 C 
ATOM     14  C   UNL     1      46.836   9.860 116.334  1.00  0.00     0.009 C 
ATOM     15  C   UNL     1      45.447   9.705 116.931  1.00  0.00     0.021 C 
ATOM     16  C   UNL     1      43.444   8.251 116.755  1.00  0.00     0.008 C 
ATOM     17  C   UNL     1      45.668   7.193 117.396  1.00  0.00     0.012 C 
ATOM     18  C   UNL     1      45.156   9.979 118.385  1.00  0.00    -0.067 C 
ATOM     19  C   UNL     1      43.033   8.656 118.201  1.00  0.00     0.009 C 
ATOM     20  C   UNL     1      43.665  10.010 118.692  1.00  0.00     0.021 C 
ATOM     21  C   UNL     1      46.090   9.826 119.343  1.00  0.00    -0.027 C 
ATOM     22  C   UNL     1      43.326  10.421 120.181  1.00  0.00    -0.023 C 
ATOM     23  C   UNL     1      45.790   9.932 120.807  1.00  0.00     0.031 C 
ATOM     24  C   UNL     1      44.300   9.714 121.174  1.00  0.00     0.002 C 
ATOM     25  C   UNL     1      43.481  11.964 120.340  1.00  0.00     0.010 C 
ATOM     26  C   UNL     1      41.847  10.041 120.496  1.00  0.00     0.012 C 
ATOM     27  C   UNL     1      44.051  10.160 122.637  1.00  0.00     0.036 C 
ATOM     28  C   UNL     1      43.259  12.466 121.779  1.00  0.00     0.032 C 
ATOM     29  C   UNL     1      44.099  11.700 122.822  1.00  0.00     0.114 C 
BRANCH  29  30
ATOM     30  O   UNL     1      43.700  12.051 124.124  1.00  0.00    -0.393 OA
ATOM     31  H   UNL     1      43.091  12.841 124.058  1.00  0.00     0.210 HD
ENDBRANCH  29  30
ENDBRANCH   9  11
ENDBRANCH   1   9
TORSDOF 7
ENDMDL
MODEL 2
REMARK VINA RESULT:    -6.380      1.377      3.013
REMARK INTER + INTRA:         -10.122
REMARK INTER:                  -8.872
REMARK INTRA:                  -1.250
REMARK UNBOUND:                -1.318
REMARK SMILES CC[C@@H](CC[C@H](C)[C@@H]1CC[C@@H]2C3=CC[C@H]4C[C@H](O)CC[C@@]4(C)[C@@H]3CC[C@]21C)C(C)C
REMARK SMILES IDX 5 1 4 2 3 3 2 4 1 5 28 6 29 7 30 8 6 9 7 10 8 11 9 12 26 13
REMARK SMILES IDX 10 14 11 15 25 16 27 17 12 18 24 19 23 20 13 21 21 22 14 23
REMARK SMILES IDX 15 24 20 25 22 26 16 27 19 28 17 29 18 30
REMARK H PARENT 18 31
REMARK Flexibility Score: inf
ROOT
ATOM      1  C   UNL     1      47.015   7.047 113.383  1.00  0.00     0.004 C 
ENDROOT
BRANCH   1   2
ATOM      2  C   UNL     1      47.627   7.276 111.975  1.00  0.00     0.004 C 
BRANCH   2   3
ATOM      3  C   UNL     1      48.281   5.975 111.397  1.00  0.00    -0.009 C 
BRANCH   3   4
ATOM      4  C   UNL     1      48.431   4.971 112.588  1.00  0.00     0.000 C 
ATOM      5  C   UNL     1      47.985   3.531 112.301  1.00  0.00     0.004 C 
ENDBRANCH   3   4
BRANCH   3   6
ATOM      6  C   UNL     1      49.648   6.227 110.645  1.00  0.00    -0.014 C 
ATOM      7  C   UNL     1      49.534   7.372 109.619  1.00  0.00     0.007 C 
ATOM      8  C   UNL     1      50.825   6.570 111.591  1.00  0.00     0.007 C 
ENDBRANCH   3   6
ENDBRANCH   2   3
ENDBRANCH   1   2
BRANCH   1   9
ATOM      9  C   UNL     1      47.455   8.121 114.413  1.00  0.00    -0.011 C 
ATOM     10  C   UNL     1      48.978   8.388 114.321  1.00  0.00     0.008 C 
BRANCH   9  11
ATOM     11  C   UNL     1      46.892   7.828 115.849  1.00  0.00    -0.002 C 
ATOM     12  C   UNL     1      45.633   6.910 115.863  1.00  0.00     0.005 C 
ATOM     13  C   UNL     1      46.573   8.998 116.842  1.00  0.00    -0.023 C 
ATOM     14  C   UNL     1      44.669   7.487 116.911  1.00  0.00     0.009 C 
ATOM     15  C   UNL     1      45.602   8.295 117.798  1.00  0.00     0.021 C 
ATOM     16  C   UNL     1      47.778   9.483 117.700  1.00  0.00     0.008 C 
ATOM     17  C   UNL     1      45.916  10.214 116.126  1.00  0.00     0.012 C 
ATOM     18  C   UNL     1      45.093   9.253 118.847  1.00  0.00    -0.067 C 
ATOM     19  C   UNL     1      47.336  10.374 118.899  1.00  0.00     0.009 C 
ATOM     20  C   UNL     1      46.193   9.745 119.777  1.00  0.00     0.021 C 
ATOM     21  C   UNL     1      43.909   9.881 118.727  1.00  0.00    -0.027 C 
ATOM     22  C   UNL     1      45.670  10.648 120.966  1.00  0.00    -0.023 C 
ATOM     23  C   UNL     1      43.452  10.956 119.666  1.00  0.00     0.031 C 
ATOM     24  C   UNL     1      44.593  11.654 120.448  1.00  0.00     0.002 C 
ATOM     25  C   UNL     1      45.026   9.743 122.060  1.00  0.00     0.010 C 
ATOM     26  C   UNL     1      46.873  11.409 121.602  1.00  0.00     0.012 C 
ATOM     27  C   UNL     1      43.997  12.498 121.603  1.00  0.00     0.036 C 
ATOM     28  C   UNL     1      44.402  10.530 123.228  1.00  0.00     0.032 C 
ATOM     29  C   UNL     1      43.432  11.635 122.762  1.00  0.00     0.114 C 
BRANCH  29  30
ATOM     30  O   UNL     1      43.063  12.450 123.847  1.00  0.00    -0.393 OA
ATOM     31  H   UNL     1      42.425  13.142 123.510  1.00  0.00     0.210 HD
ENDBRANCH  29  30
ENDBRANCH   9  11
ENDBRANCH   1   9
TORSDOF 7
ENDMDL
MODEL 3
REMARK VINA RESULT:    -6.281      9.226     11.415
REMARK INTER + INTRA:          -9.985
REMARK INTER:                  -8.720
REMARK INTRA:                  -1.266
REMARK UNBOUND:                -1.318
REMARK SMILES CC[C@@H](CC[C@H](C)[C@@H]1CC[C@@H]2C3=CC[C@H]4C[C@H](O)CC[C@@]4(C)[C@@H]3CC[C@]21C)C(C)C
REMARK SMILES IDX 5 1 4 2 3 3 2 4 1 5 28 6 29 7 30 8 6 9 7 10 8 11 9 12 26 13
REMARK SMILES IDX 10 14 11 15 25 16 27 17 12 18 24 19 23 20 13 21 21 22 14 23
REMARK SMILES IDX 15 24 20 25 22 26 16 27 19 28 17 29 18 30
REMARK H PARENT 18 31
REMARK Flexibility Score: inf
ROOT
ATOM      1  C   UNL     1      42.190  10.146 113.271  1.00  0.00     0.004 C 
ENDROOT
BRANCH   1   2
ATOM      2  C   UNL     1      43.532   9.497 112.839  1.00  0.00     0.004 C 
BRANCH   2   3
ATOM      3  C   UNL     1      44.413   9.091 114.070  1.00  0.00    -0.009 C 
BRANCH   3   4
ATOM      4  C   UNL     1      45.072   7.714 113.726  1.00  0.00     0.000 C 
ATOM      5  C   UNL     1      46.605   7.713 113.653  1.00  0.00     0.004 C 
ENDBRANCH   3   4
BRANCH   3   6
ATOM      6  C   UNL     1      43.621   9.057 115.437  1.00  0.00    -0.014 C 
ATOM      7  C   UNL     1      43.354   7.614 115.908  1.00  0.00     0.007 C 
ATOM      8  C   UNL     1      44.341   9.795 116.593  1.00  0.00     0.007 C 
ENDBRANCH   3   6
ENDBRANCH   2   3
ENDBRANCH   1   2
BRANCH   1   9
ATOM      9  C   UNL     1      42.255  11.696 113.308  1.00  0.00    -0.011 C 
ATOM     10  C   UNL     1      42.252  12.217 114.767  1.00  0.00     0.008 C 
BRANCH   9  11
ATOM     11  C   UNL     1      41.211  12.356 112.338  1.00  0.00    -0.002 C 
ATOM     12  C   UNL     1      40.219  11.343 111.690  1.00  0.00     0.005 C 
ATOM     13  C   UNL     1      41.677  13.296 111.175  1.00  0.00    -0.023 C 
ATOM     14  C   UNL     1      40.048  11.762 110.222  1.00  0.00     0.009 C 
ATOM     15  C   UNL     1      40.452  13.226 110.254  1.00  0.00     0.021 C 
ATOM     16  C   UNL     1      41.861  14.791 111.566  1.00  0.00     0.008 C 
ATOM     17  C   UNL     1      42.966  12.774 110.476  1.00  0.00     0.012 C 
ATOM     18  C   UNL     1      40.678  14.031 108.998  1.00  0.00    -0.067 C 
ATOM     19  C   UNL     1      41.967  15.725 110.325  1.00  0.00     0.009 C 
ATOM     20  C   UNL     1      40.817  15.522 109.271  1.00  0.00     0.021 C 
ATOM     21  C   UNL     1      41.090  13.463 107.849  1.00  0.00    -0.027 C 
ATOM     22  C   UNL     1      40.926  16.406 107.963  1.00  0.00    -0.023 C 
ATOM     23  C   UNL     1      41.478  14.253 106.636  1.00  0.00     0.031 C 
ATOM     24  C   UNL     1      41.872  15.723 106.926  1.00  0.00     0.002 C 
ATOM     25  C   UNL     1      39.513  16.563 107.326  1.00  0.00     0.010 C 
ATOM     26  C   UNL     1      41.456  17.823 108.342  1.00  0.00     0.012 C 
ATOM     27  C   UNL     1      41.936  16.520 105.598  1.00  0.00     0.036 C 
ATOM     28  C   UNL     1      39.515  17.336 105.993  1.00  0.00     0.032 C 
ATOM     29  C   UNL     1      40.538  16.785 104.978  1.00  0.00     0.114 C 
BRANCH  29  30
ATOM     30  O   UNL     1      40.647  17.651 103.875  1.00  0.00    -0.393 OA
ATOM     31  H   UNL     1      41.572  17.566 103.506  1.00  0.00     0.210 HD
ENDBRANCH  29  30
ENDBRANCH   9  11
ENDBRANCH   1   9
TORSDOF 7
ENDMDL
MODEL 4
REMARK VINA RESULT:    -6.273      3.434      9.380
REMARK INTER + INTRA:          -9.975
REMARK INTER:                  -9.304
REMARK INTRA:                  -0.671
REMARK UNBOUND:                -1.318
REMARK SMILES CC[C@@H](CC[C@H](C)[C@@H]1CC[C@@H]2C3=CC[C@H]4C[C@H](O)CC[C@@]4(C)[C@@H]3CC[C@]21C)C(C)C
REMARK SMILES IDX 5 1 4 2 3 3 2 4 1 5 28 6 29 7 30 8 6 9 7 10 8 11 9 12 26 13
REMARK SMILES IDX 10 14 11 15 25 16 27 17 12 18 24 19 23 20 13 21 21 22 14 23
REMARK SMILES IDX 15 24 20 25 22 26 16 27 19 28 17 29 18 30
REMARK H PARENT 18 31
REMARK Flexibility Score: inf
ROOT
ATOM      1  C   UNL     1      45.318   9.590 118.269  1.00  0.00     0.004 C 
ENDROOT
BRANCH   1   2
ATOM      2  C   UNL     1      44.517   9.368 119.580  1.00  0.00     0.004 C 
BRANCH   2   3
ATOM      3  C   UNL     1      44.165  10.719 120.292  1.00  0.00    -0.009 C 
BRANCH   3   4
ATOM      4  C   UNL     1      44.627  10.585 121.780  1.00  0.00     0.000 C 
ATOM      5  C   UNL     1      45.648   9.475 122.060  1.00  0.00     0.004 C 
ENDBRANCH   3   4
BRANCH   3   6
ATOM      6  C   UNL     1      42.644  11.129 120.165  1.00  0.00    -0.014 C 
ATOM      7  C   UNL     1      41.719  10.120 120.872  1.00  0.00     0.007 C 
ATOM      8  C   UNL     1      42.327  12.530 120.743  1.00  0.00     0.007 C 
ENDBRANCH   3   6
ENDBRANCH   2   3
ENDBRANCH   1   2
BRANCH   1   9
ATOM      9  C   UNL     1      44.439   9.456 116.997  1.00  0.00    -0.011 C 
ATOM     10  C   UNL     1      43.394   8.323 117.161  1.00  0.00     0.008 C 
BRANCH   9  11
ATOM     11  C   UNL     1      45.300   9.413 115.684  1.00  0.00    -0.002 C 
ATOM     12  C   UNL     1      44.464   9.231 114.382  1.00  0.00     0.005 C 
ATOM     13  C   UNL     1      46.513   8.431 115.551  1.00  0.00    -0.023 C 
ATOM     14  C   UNL     1      45.237   8.248 113.489  1.00  0.00     0.009 C 
ATOM     15  C   UNL     1      46.654   8.369 114.024  1.00  0.00     0.021 C 
ATOM     16  C   UNL     1      47.865   8.970 116.105  1.00  0.00     0.008 C 
ATOM     17  C   UNL     1      46.211   7.036 116.170  1.00  0.00     0.012 C 
ATOM     18  C   UNL     1      47.754   7.418 113.625  1.00  0.00    -0.067 C 
ATOM     19  C   UNL     1      49.084   8.126 115.630  1.00  0.00     0.009 C 
ATOM     20  C   UNL     1      49.130   7.886 114.076  1.00  0.00     0.021 C 
ATOM     21  C   UNL     1      47.504   6.145 113.265  1.00  0.00    -0.027 C 
ATOM     22  C   UNL     1      50.318   6.977 113.562  1.00  0.00    -0.023 C 
ATOM     23  C   UNL     1      48.582   5.134 113.021  1.00  0.00     0.031 C 
ATOM     24  C   UNL     1      49.939   5.468 113.690  1.00  0.00     0.002 C 
ATOM     25  C   UNL     1      50.603   7.297 112.063  1.00  0.00     0.010 C 
ATOM     26  C   UNL     1      51.604   7.294 114.385  1.00  0.00     0.012 C 
ATOM     27  C   UNL     1      51.047   4.549 113.115  1.00  0.00     0.036 C 
ATOM     28  C   UNL     1      51.686   6.402 111.432  1.00  0.00     0.032 C 
ATOM     29  C   UNL     1      51.431   4.897 111.653  1.00  0.00     0.114 C 
BRANCH  29  30
ATOM     30  O   UNL     1      52.550   4.148 111.248  1.00  0.00    -0.393 OA
ATOM     31  H   UNL     1      52.226   3.397 110.672  1.00  0.00     0.210 HD
ENDBRANCH  29  30
ENDBRANCH   9  11
ENDBRANCH   1   9
TORSDOF 7
ENDMDL
MODEL 5
REMARK VINA RESULT:    -6.147     10.698     12.113
REMARK INTER + INTRA:          -9.800
REMARK INTER:                  -8.307
REMARK INTRA:                  -1.493
REMARK UNBOUND:                -1.318
REMARK SMILES CC[C@@H](CC[C@H](C)[C@@H]1CC[C@@H]2C3=CC[C@H]4C[C@H](O)CC[C@@]4(C)[C@@H]3CC[C@]21C)C(C)C
REMARK SMILES IDX 5 1 4 2 3 3 2 4 1 5 28 6 29 7 30 8 6 9 7 10 8 11 9 12 26 13
REMARK SMILES IDX 10 14 11 15 25 16 27 17 12 18 24 19 23 20 13 21 21 22 14 23
REMARK SMILES IDX 15 24 20 25 22 26 16 27 19 28 17 29 18 30
REMARK H PARENT 18 31
REMARK Flexibility Score: inf
ROOT
ATOM      1  C   UNL     1      38.871  14.456 105.047  1.00  0.00     0.004 C 
ENDROOT
BRANCH   1   2
ATOM      2  C   UNL     1      39.318  13.182 104.280  1.00  0.00     0.004 C 
BRANCH   2   3
ATOM      3  C   UNL     1      39.222  11.895 105.170  1.00  0.00    -0.009 C 
BRANCH   3   4
ATOM      4  C   UNL     1      38.713  10.739 104.247  1.00  0.00     0.000 C 
ATOM      5  C   UNL     1      39.368   9.371 104.478  1.00  0.00     0.004 C 
ENDBRANCH   3   4
BRANCH   3   6
ATOM      6  C   UNL     1      38.327  12.077 106.460  1.00  0.00    -0.014 C 
ATOM      7  C   UNL     1      36.881  11.600 106.225  1.00  0.00     0.007 C 
ATOM      8  C   UNL     1      38.866  11.326 107.702  1.00  0.00     0.007 C 
ENDBRANCH   3   6
ENDBRANCH   2   3
ENDBRANCH   1   2
BRANCH   1   9
ATOM      9  C   UNL     1      39.922  15.596 104.983  1.00  0.00    -0.011 C 
ATOM     10  C   UNL     1      41.235  15.105 104.324  1.00  0.00     0.008 C 
BRANCH   9  11
ATOM     11  C   UNL     1      40.076  16.336 106.360  1.00  0.00    -0.002 C 
ATOM     12  C   UNL     1      41.225  17.389 106.389  1.00  0.00     0.005 C 
ATOM     13  C   UNL     1      40.207  15.528 107.695  1.00  0.00    -0.023 C 
ATOM     14  C   UNL     1      41.923  17.249 107.751  1.00  0.00     0.009 C 
ATOM     15  C   UNL     1      40.851  16.587 108.599  1.00  0.00     0.021 C 
ATOM     16  C   UNL     1      38.858  15.128 108.361  1.00  0.00     0.008 C 
ATOM     17  C   UNL     1      41.106  14.267 107.535  1.00  0.00     0.012 C 
ATOM     18  C   UNL     1      41.136  16.022 109.969  1.00  0.00    -0.067 C 
ATOM     19  C   UNL     1      39.036  14.659 109.835  1.00  0.00     0.009 C 
ATOM     20  C   UNL     1      39.871  15.649 110.727  1.00  0.00     0.021 C 
ATOM     21  C   UNL     1      42.351  15.553 110.310  1.00  0.00    -0.027 C 
ATOM     22  C   UNL     1      40.130  15.176 112.214  1.00  0.00    -0.023 C 
ATOM     23  C   UNL     1      42.623  14.841 111.600  1.00  0.00     0.031 C 
ATOM     24  C   UNL     1      41.369  14.227 112.271  1.00  0.00     0.002 C 
ATOM     25  C   UNL     1      40.409  16.419 113.112  1.00  0.00     0.010 C 
ATOM     26  C   UNL     1      38.858  14.454 112.754  1.00  0.00     0.012 C 
ATOM     27  C   UNL     1      41.704  13.810 113.726  1.00  0.00     0.036 C 
ATOM     28  C   UNL     1      40.764  16.066 114.569  1.00  0.00     0.032 C 
ATOM     29  C   UNL     1      41.893  15.020 114.679  1.00  0.00     0.114 C 
BRANCH  29  30
ATOM     30  O   UNL     1      42.025  14.583 116.009  1.00  0.00    -0.393 OA
ATOM     31  H   UNL     1      41.165  14.151 116.279  1.00  0.00     0.210 HD
ENDBRANCH  29  30
ENDBRANCH   9  11
ENDBRANCH   1   9
TORSDOF 7
ENDMDL
MODEL 6
REMARK VINA RESULT:    -6.044      8.600     10.917
REMARK INTER + INTRA:          -9.658
REMARK INTER:                  -8.901
REMARK INTRA:                  -0.758
REMARK UNBOUND:                -1.318
REMARK SMILES CC[C@@H](CC[C@H](C)[C@@H]1CC[C@@H]2C3=CC[C@H]4C[C@H](O)CC[C@@]4(C)[C@@H]3CC[C@]21C)C(C)C
REMARK SMILES IDX 5 1 4 2 3 3 2 4 1 5 28 6 29 7 30 8 6 9 7 10 8 11 9 12 26 13
REMARK SMILES IDX 10 14 11 15 25 16 27 17 12 18 24 19 23 20 13 21 21 22 14 23
REMARK SMILES IDX 15 24 20 25 22 26 16 27 19 28 17 29 18 30
REMARK H PARENT 18 31
REMARK Flexibility Score: inf
ROOT
ATOM      1  C   UNL     1      43.008  11.029 115.353  1.00  0.00     0.004 C 
ENDROOT
BRANCH   1   2
ATOM      2  C   UNL     1      43.835   9.751 115.654  1.00  0.00     0.004 C 
BRANCH   2   3
ATOM      3  C   UNL     1      44.531   9.815 117.057  1.00  0.00    -0.009 C 
BRANCH   3   4
ATOM      4  C   UNL     1      45.902   9.074 116.921  1.00  0.00     0.000 C 
ATOM      5  C   UNL     1      47.131   9.978 116.765  1.00  0.00     0.004 C 
ENDBRANCH   3   4
BRANCH   3   6
ATOM      6  C   UNL     1      43.646   9.239 118.233  1.00  0.00    -0.014 C 
ATOM      7  C   UNL     1      44.424   8.219 119.087  1.00  0.00     0.007 C 
ATOM      8  C   UNL     1      43.103  10.326 119.193  1.00  0.00     0.007 C 
ENDBRANCH   3   6
ENDBRANCH   2   3
ENDBRANCH   1   2
BRANCH   1   9
ATOM      9  C   UNL     1      42.355  11.007 113.945  1.00  0.00    -0.011 C 
ATOM     10  C   UNL     1      42.849   9.790 113.124  1.00  0.00     0.008 C 
BRANCH   9  11
ATOM     11  C   UNL     1      42.442  12.403 113.231  1.00  0.00    -0.002 C 
ATOM     12  C   UNL     1      42.033  13.605 114.135  1.00  0.00     0.005 C 
ATOM     13  C   UNL     1      41.735  12.647 111.855  1.00  0.00    -0.023 C 
ATOM     14  C   UNL     1      41.201  14.557 113.262  1.00  0.00     0.009 C 
ATOM     15  C   UNL     1      41.641  14.178 111.858  1.00  0.00     0.021 C 
ATOM     16  C   UNL     1      42.570  12.249 110.602  1.00  0.00     0.008 C 
ATOM     17  C   UNL     1      40.333  11.973 111.786  1.00  0.00     0.012 C 
ATOM     18  C   UNL     1      40.929  14.675 110.624  1.00  0.00    -0.067 C 
ATOM     19  C   UNL     1      41.984  12.836 109.284  1.00  0.00     0.009 C 
ATOM     20  C   UNL     1      41.696  14.381 109.343  1.00  0.00     0.021 C 
ATOM     21  C   UNL     1      39.618  14.982 110.630  1.00  0.00    -0.027 C 
ATOM     22  C   UNL     1      41.039  15.003 108.045  1.00  0.00    -0.023 C 
ATOM     23  C   UNL     1      38.849  15.320 109.390  1.00  0.00     0.031 C 
ATOM     24  C   UNL     1      39.490  14.806 108.076  1.00  0.00     0.002 C 
ATOM     25  C   UNL     1      41.350  16.529 107.988  1.00  0.00     0.010 C 
ATOM     26  C   UNL     1      41.654  14.327 106.782  1.00  0.00     0.012 C 
ATOM     27  C   UNL     1      38.804  15.478 106.860  1.00  0.00     0.036 C 
ATOM     28  C   UNL     1      40.680  17.255 106.806  1.00  0.00     0.032 C 
ATOM     29  C   UNL     1      39.165  16.979 106.708  1.00  0.00     0.114 C 
BRANCH  29  30
ATOM     30  O   UNL     1      38.654  17.488 105.501  1.00  0.00    -0.393 OA
ATOM     31  H   UNL     1      38.778  18.480 105.506  1.00  0.00     0.210 HD
ENDBRANCH  29  30
ENDBRANCH   9  11
ENDBRANCH   1   9
TORSDOF 7
ENDMDL
MODEL 7
REMARK VINA RESULT:    -5.927      9.578     12.881
REMARK INTER + INTRA:          -9.498
REMARK INTER:                  -7.574
REMARK INTRA:                  -1.923
REMARK UNBOUND:                -1.318
REMARK SMILES CC[C@@H](CC[C@H](C)[C@@H]1CC[C@@H]2C3=CC[C@H]4C[C@H](O)CC[C@@]4(C)[C@@H]3CC[C@]21C)C(C)C
REMARK SMILES IDX 5 1 4 2 3 3 2 4 1 5 28 6 29 7 30 8 6 9 7 10 8 11 9 12 26 13
REMARK SMILES IDX 10 14 11 15 25 16 27 17 12 18 24 19 23 20 13 21 21 22 14 23
REMARK SMILES IDX 15 24 20 25 22 26 16 27 19 28 17 29 18 30
REMARK H PARENT 18 31
REMARK Flexibility Score: inf
ROOT
ATOM      1  C   UNL     1      41.304  15.888 111.433  1.00  0.00     0.004 C 
ENDROOT
BRANCH   1   2
ATOM      2  C   UNL     1      42.150  14.975 112.361  1.00  0.00     0.004 C 
BRANCH   2   3
ATOM      3  C   UNL     1      41.601  14.955 113.829  1.00  0.00    -0.009 C 
BRANCH   3   4
ATOM      4  C   UNL     1      40.744  13.655 113.978  1.00  0.00     0.000 C 
ATOM      5  C   UNL     1      41.446  12.349 113.584  1.00  0.00     0.004 C 
ENDBRANCH   3   4
BRANCH   3   6
ATOM      6  C   UNL     1      40.798  16.257 114.226  1.00  0.00    -0.014 C 
ATOM      7  C   UNL     1      39.285  15.986 114.337  1.00  0.00     0.007 C 
ATOM      8  C   UNL     1      41.255  16.885 115.566  1.00  0.00     0.007 C 
ENDBRANCH   3   6
ENDBRANCH   2   3
ENDBRANCH   1   2
BRANCH   1   9
ATOM      9  C   UNL     1      41.200  15.341 109.984  1.00  0.00    -0.011 C 
ATOM     10  C   UNL     1      41.554  16.440 108.950  1.00  0.00     0.008 C 
BRANCH   9  11
ATOM     11  C   UNL     1      39.853  14.572 109.738  1.00  0.00    -0.002 C 
ATOM     12  C   UNL     1      38.873  14.605 110.949  1.00  0.00     0.005 C 
ATOM     13  C   UNL     1      39.856  13.088 109.236  1.00  0.00    -0.023 C 
ATOM     14  C   UNL     1      38.258  13.202 111.065  1.00  0.00     0.009 C 
ATOM     15  C   UNL     1      38.451  12.647 109.665  1.00  0.00     0.021 C 
ATOM     16  C   UNL     1      39.931  12.913 107.691  1.00  0.00     0.008 C 
ATOM     17  C   UNL     1      40.970  12.239 109.915  1.00  0.00     0.012 C 
ATOM     18  C   UNL     1      38.219  11.194 109.330  1.00  0.00    -0.067 C 
ATOM     19  C   UNL     1      39.571  11.468 107.236  1.00  0.00     0.009 C 
ATOM     20  C   UNL     1      38.220  10.927 107.832  1.00  0.00     0.021 C 
ATOM     21  C   UNL     1      38.381  10.216 110.241  1.00  0.00    -0.027 C 
ATOM     22  C   UNL     1      37.852   9.438 107.446  1.00  0.00    -0.023 C 
ATOM     23  C   UNL     1      38.318   8.758 109.900  1.00  0.00     0.031 C 
ATOM     24  C   UNL     1      38.569   8.437 108.405  1.00  0.00     0.002 C 
ATOM     25  C   UNL     1      36.311   9.236 107.571  1.00  0.00     0.010 C 
ATOM     26  C   UNL     1      38.263   9.172 105.965  1.00  0.00     0.012 C 
ATOM     27  C   UNL     1      38.164   6.970 108.110  1.00  0.00     0.036 C 
ATOM     28  C   UNL     1      35.850   7.791 107.303  1.00  0.00     0.032 C 
ATOM     29  C   UNL     1      36.629   6.746 108.128  1.00  0.00     0.114 C 
BRANCH  29  30
ATOM     30  O   UNL     1      36.317   5.447 107.688  1.00  0.00    -0.393 OA
ATOM     31  H   UNL     1      36.051   5.501 106.726  1.00  0.00     0.210 HD
ENDBRANCH  29  30
ENDBRANCH   9  11
ENDBRANCH   1   9
TORSDOF 7
ENDMDL
MODEL 8
REMARK VINA RESULT:    -5.892     10.030     12.274
REMARK INTER + INTRA:          -9.448
REMARK INTER:                  -7.445
REMARK INTRA:                  -2.003
REMARK UNBOUND:                -1.318
REMARK SMILES CC[C@@H](CC[C@H](C)[C@@H]1CC[C@@H]2C3=CC[C@H]4C[C@H](O)CC[C@@]4(C)[C@@H]3CC[C@]21C)C(C)C
REMARK SMILES IDX 5 1 4 2 3 3 2 4 1 5 28 6 29 7 30 8 6 9 7 10 8 11 9 12 26 13
REMARK SMILES IDX 10 14 11 15 25 16 27 17 12 18 24 19 23 20 13 21 21 22 14 23
REMARK SMILES IDX 15 24 20 25 22 26 16 27 19 28 17 29 18 30
REMARK H PARENT 18 31
REMARK Flexibility Score: inf
ROOT
ATOM      1  C   UNL     1      36.945  10.281 106.016  1.00  0.00     0.004 C 
ENDROOT
BRANCH   1   2
ATOM      2  C   UNL     1      35.783  11.301 106.155  1.00  0.00     0.004 C 
BRANCH   2   3
ATOM      3  C   UNL     1      34.534  10.677 106.867  1.00  0.00    -0.009 C 
BRANCH   3   4
ATOM      4  C   UNL     1      34.391  11.395 108.250  1.00  0.00     0.000 C 
ATOM      5  C   UNL     1      34.883  12.847 108.297  1.00  0.00     0.004 C 
ENDBRANCH   3   4
BRANCH   3   6
ATOM      6  C   UNL     1      34.599   9.105 107.007  1.00  0.00    -0.014 C 
ATOM      7  C   UNL     1      34.505   8.656 108.478  1.00  0.00     0.007 C 
ATOM      8  C   UNL     1      33.487   8.364 106.226  1.00  0.00     0.007 C 
ENDBRANCH   3   6
ENDBRANCH   2   3
ENDBRANCH   1   2
BRANCH   1   9
ATOM      9  C   UNL     1      38.343  10.933 106.192  1.00  0.00    -0.011 C 
ATOM     10  C   UNL     1      39.320  10.458 105.087  1.00  0.00     0.008 C 
BRANCH   9  11
ATOM     11  C   UNL     1      38.865  10.823 107.669  1.00  0.00    -0.002 C 
ATOM     12  C   UNL     1      37.900  10.063 108.628  1.00  0.00     0.005 C 
ATOM     13  C   UNL     1      39.328  12.097 108.454  1.00  0.00    -0.023 C 
ATOM     14  C   UNL     1      37.897  10.830 109.959  1.00  0.00     0.009 C 
ATOM     15  C   UNL     1      39.211  11.590 109.898  1.00  0.00     0.021 C 
ATOM     16  C   UNL     1      40.815  12.503 108.239  1.00  0.00     0.008 C 
ATOM     17  C   UNL     1      38.405  13.321 108.186  1.00  0.00     0.012 C 
ATOM     18  C   UNL     1      39.562  12.681 110.879  1.00  0.00    -0.067 C 
ATOM     19  C   UNL     1      41.312  13.532 109.297  1.00  0.00     0.009 C 
ATOM     20  C   UNL     1      41.018  13.113 110.784  1.00  0.00     0.021 C 
ATOM     21  C   UNL     1      38.620  13.433 111.479  1.00  0.00    -0.027 C 
ATOM     22  C   UNL     1      41.449  14.163 111.887  1.00  0.00    -0.023 C 
ATOM     23  C   UNL     1      38.940  14.625 112.329  1.00  0.00     0.031 C 
ATOM     24  C   UNL     1      40.337  15.243 112.069  1.00  0.00     0.002 C 
ATOM     25  C   UNL     1      41.662  13.429 113.245  1.00  0.00     0.010 C 
ATOM     26  C   UNL     1      42.797  14.825 111.468  1.00  0.00     0.012 C 
ATOM     27  C   UNL     1      40.688  16.241 113.202  1.00  0.00     0.036 C 
ATOM     28  C   UNL     1      41.999  14.373 114.415  1.00  0.00     0.032 C 
ATOM     29  C   UNL     1      41.005  15.544 114.551  1.00  0.00     0.114 C 
BRANCH  29  30
ATOM     30  O   UNL     1      41.478  16.480 115.488  1.00  0.00    -0.393 OA
ATOM     31  H   UNL     1      41.099  17.374 115.250  1.00  0.00     0.210 HD
ENDBRANCH  29  30
ENDBRANCH   9  11
ENDBRANCH   1   9
TORSDOF 7
ENDMDL
MODEL 9
REMARK VINA RESULT:    -5.846      9.222     11.248
REMARK INTER + INTRA:          -9.385
REMARK INTER:                  -8.146
REMARK INTRA:                  -1.238
REMARK UNBOUND:                -1.318
REMARK SMILES CC[C@@H](CC[C@H](C)[C@@H]1CC[C@@H]2C3=CC[C@H]4C[C@H](O)CC[C@@]4(C)[C@@H]3CC[C@]21C)C(C)C
REMARK SMILES IDX 5 1 4 2 3 3 2 4 1 5 28 6 29 7 30 8 6 9 7 10 8 11 9 12 26 13
REMARK SMILES IDX 10 14 11 15 25 16 27 17 12 18 24 19 23 20 13 21 21 22 14 23
REMARK SMILES IDX 15 24 20 25 22 26 16 27 19 28 17 29 18 30
REMARK H PARENT 18 31
REMARK Flexibility Score: inf
ROOT
ATOM      1  C   UNL     1      37.528   9.458 106.340  1.00  0.00     0.004 C 
ENDROOT
BRANCH   1   2
ATOM      2  C   UNL     1      38.409   8.199 106.124  1.00  0.00     0.004 C 
BRANCH   2   3
ATOM      3  C   UNL     1      37.942   6.993 107.010  1.00  0.00    -0.009 C 
BRANCH   3   4
ATOM      4  C   UNL     1      38.055   5.707 106.127  1.00  0.00     0.000 C 
ATOM      5  C   UNL     1      38.503   4.436 106.861  1.00  0.00     0.004 C 
ENDBRANCH   3   4
BRANCH   3   6
ATOM      6  C   UNL     1      36.499   7.178 107.627  1.00  0.00    -0.014 C 
ATOM      7  C   UNL     1      35.442   6.350 106.871  1.00  0.00     0.007 C 
ATOM      8  C   UNL     1      36.407   6.788 109.123  1.00  0.00     0.007 C 
ENDBRANCH   3   6
ENDBRANCH   2   3
ENDBRANCH   1   2
BRANCH   1   9
ATOM      9  C   UNL     1      38.360  10.728 106.661  1.00  0.00    -0.011 C 
ATOM     10  C   UNL     1      39.430  10.981 105.568  1.00  0.00     0.008 C 
BRANCH   9  11
ATOM     11  C   UNL     1      38.874  10.738 108.145  1.00  0.00    -0.002 C 
ATOM     12  C   UNL     1      37.920  10.028 109.152  1.00  0.00     0.005 C 
ATOM     13  C   UNL     1      39.301  12.077 108.837  1.00  0.00    -0.023 C 
ATOM     14  C   UNL     1      37.890  10.890 110.423  1.00  0.00     0.009 C 
ATOM     15  C   UNL     1      39.186  11.675 110.313  1.00  0.00     0.021 C 
ATOM     16  C   UNL     1      40.780  12.501 108.601  1.00  0.00     0.008 C 
ATOM     17  C   UNL     1      38.353  13.256 108.475  1.00  0.00     0.012 C 
ATOM     18  C   UNL     1      39.504  12.842 111.214  1.00  0.00    -0.067 C 
ATOM     19  C   UNL     1      41.246  13.615 109.584  1.00  0.00     0.009 C 
ATOM     20  C   UNL     1      40.951  13.300 111.096  1.00  0.00     0.021 C 
ATOM     21  C   UNL     1      38.541  13.614 111.752  1.00  0.00    -0.027 C 
ATOM     22  C   UNL     1      41.349  14.438 112.121  1.00  0.00    -0.023 C 
ATOM     23  C   UNL     1      38.827  14.872 112.514  1.00  0.00     0.031 C 
ATOM     24  C   UNL     1      40.211  15.502 112.217  1.00  0.00     0.002 C 
ATOM     25  C   UNL     1      41.569  13.810 113.531  1.00  0.00     0.010 C 
ATOM     26  C   UNL     1      42.685  15.099 111.663  1.00  0.00     0.012 C 
ATOM     27  C   UNL     1      40.531  16.588 113.276  1.00  0.00     0.036 C 
ATOM     28  C   UNL     1      41.876  14.845 114.630  1.00  0.00     0.032 C 
ATOM     29  C   UNL     1      40.853  16.000 114.675  1.00  0.00     0.114 C 
BRANCH  29  30
ATOM     30  O   UNL     1      41.298  17.012 115.543  1.00  0.00    -0.393 OA
ATOM     31  H   UNL     1      41.480  16.597 116.434  1.00  0.00     0.210 HD
ENDBRANCH  29  30
ENDBRANCH   9  11
ENDBRANCH   1   9
TORSDOF 7
ENDMDL
