MODEL 1
REMARK VINA RESULT:    -4.810      0.000      0.000
REMARK INTER + INTRA:          -7.905
REMARK INTER:                  -7.341
REMARK INTRA:                  -0.563
REMARK UNBOUND:                -0.563
REMARK SMILES CCCCCCCCCCC(=O)[O-]
REMARK SMILES IDX 7 1 8 2 9 3 10 4 11 5 12 6 13 7 6 8 5 9 4 10 3 11 2 12 1 13
REMARK H PARENT
REMARK Flexibility Score: inf
ROOT
ATOM      1  C   UNL     1      80.463  59.713  10.351  1.00  0.00     0.000 C 
ENDROOT
BRANCH   1   2
ATOM      2  C   UNL     1      81.671  59.008  10.992  1.00  0.00     0.000 C 
BRANCH   2   3
ATOM      3  C   UNL     1      83.013  59.335  10.304  1.00  0.00     0.006 C 
BRANCH   3   4
ATOM      4  C   UNL     1      83.730  60.520  10.963  1.00  0.00     0.053 C 
BRANCH   4   5
ATOM      5  C   UNL     1      83.790  61.683  10.023  1.00  0.00     0.041 C 
ATOM      6  O   UNL     1      82.767  62.389   9.821  1.00  0.00    -0.550 OA
ATOM      7  O   UNL     1      84.963  61.958   9.332  1.00  0.00    -0.550 OA
ENDBRANCH   4   5
ENDBRANCH   3   4
ENDBRANCH   2   3
ENDBRANCH   1   2
BRANCH   1   8
ATOM      8  C   UNL     1      79.334  58.739   9.977  1.00  0.00     0.000 C 
BRANCH   8   9
ATOM      9  C   UNL     1      79.447  57.390  10.705  1.00  0.00    -0.000 C 
BRANCH   9  10
ATOM     10  C   UNL     1      78.955  56.213   9.844  1.00  0.00    -0.000 C 
BRANCH  10  11
ATOM     11  C   UNL     1      77.725  56.577   8.996  1.00  0.00    -0.000 C 
BRANCH  11  12
ATOM     12  C   UNL     1      77.782  55.979   7.582  1.00  0.00    -0.003 C 
ATOM     13  C   UNL     1      77.809  57.077   6.523  1.00  0.00     0.004 C 
ENDBRANCH  11  12
ENDBRANCH  10  11
ENDBRANCH   9  10
ENDBRANCH   8   9
ENDBRANCH   1   8
TORSDOF 9
ENDMDL
MODEL 2
REMARK VINA RESULT:    -4.681      1.452      1.816
REMARK INTER + INTRA:          -7.708
REMARK INTER:                  -7.199
REMARK INTRA:                  -0.509
REMARK UNBOUND:                -0.563
REMARK SMILES CCCCCCCCCCC(=O)[O-]
REMARK SMILES IDX 7 1 8 2 9 3 10 4 11 5 12 6 13 7 6 8 5 9 4 10 3 11 2 12 1 13
REMARK H PARENT
REMARK Flexibility Score: inf
ROOT
ATOM      1  C   UNL     1      80.408  59.703  10.367  1.00  0.00     0.000 C 
ENDROOT
BRANCH   1   2
ATOM      2  C   UNL     1      81.708  59.080  10.905  1.00  0.00     0.000 C 
BRANCH   2   3
ATOM      3  C   UNL     1      82.983  59.636  10.235  1.00  0.00     0.006 C 
BRANCH   3   4
ATOM      4  C   UNL     1      84.245  58.883  10.675  1.00  0.00     0.053 C 
BRANCH   4   5
ATOM      5  C   UNL     1      85.109  59.762  11.523  1.00  0.00     0.041 C 
ATOM      6  O   UNL     1      86.022  59.260  12.230  1.00  0.00    -0.550 OA
ATOM      7  O   UNL     1      84.873  61.130  11.572  1.00  0.00    -0.550 OA
ENDBRANCH   4   5
ENDBRANCH   3   4
ENDBRANCH   2   3
ENDBRANCH   1   2
BRANCH   1   8
ATOM      8  C   UNL     1      79.343  58.650  10.019  1.00  0.00     0.000 C 
BRANCH   8   9
ATOM      9  C   UNL     1      79.625  57.283  10.661  1.00  0.00    -0.000 C 
BRANCH   9  10
ATOM     10  C   UNL     1      79.139  56.111   9.790  1.00  0.00    -0.000 C 
BRANCH  10  11
ATOM     11  C   UNL     1      77.830  56.430   9.051  1.00  0.00    -0.000 C 
BRANCH  11  12
ATOM     12  C   UNL     1      77.816  55.892   7.612  1.00  0.00    -0.003 C 
ATOM     13  C   UNL     1      77.779  57.034   6.600  1.00  0.00     0.004 C 
ENDBRANCH  11  12
ENDBRANCH  10  11
ENDBRANCH   9  10
ENDBRANCH   8   9
ENDBRANCH   1   8
TORSDOF 9
ENDMDL
MODEL 3
REMARK VINA RESULT:    -4.655      3.489      6.760
REMARK INTER + INTRA:          -7.668
REMARK INTER:                  -7.197
REMARK INTRA:                  -0.471
REMARK UNBOUND:                -0.563
REMARK SMILES CCCCCCCCCCC(=O)[O-]
REMARK SMILES IDX 7 1 8 2 9 3 10 4 11 5 12 6 13 7 6 8 5 9 4 10 3 11 2 12 1 13
REMARK H PARENT
REMARK Flexibility Score: inf
ROOT
ATOM      1  C   UNL     1      79.236  58.577  10.279  1.00  0.00     0.000 C 
ENDROOT
BRANCH   1   2
ATOM      2  C   UNL     1      79.679  57.115  10.467  1.00  0.00     0.000 C 
BRANCH   2   3
ATOM      3  C   UNL     1      78.654  56.086   9.944  1.00  0.00     0.006 C 
BRANCH   3   4
ATOM      4  C   UNL     1      77.621  56.723   9.005  1.00  0.00     0.053 C 
BRANCH   4   5
ATOM      5  C   UNL     1      77.780  56.191   7.616  1.00  0.00     0.041 C 
ATOM      6  O   UNL     1      77.787  56.978   6.633  1.00  0.00    -0.550 OA
ATOM      7  O   UNL     1      77.870  54.821   7.402  1.00  0.00    -0.550 OA
ENDBRANCH   4   5
ENDBRANCH   3   4
ENDBRANCH   2   3
ENDBRANCH   1   2
BRANCH   1   8
ATOM      8  C   UNL     1      80.406  59.570  10.364  1.00  0.00     0.000 C 
BRANCH   8   9
ATOM      9  C   UNL     1      81.730  58.897  10.761  1.00  0.00    -0.000 C 
BRANCH   9  10
ATOM     10  C   UNL     1      82.755  59.899  11.320  1.00  0.00    -0.000 C 
BRANCH  10  11
ATOM     11  C   UNL     1      83.001  61.083  10.370  1.00  0.00    -0.000 C 
BRANCH  11  12
ATOM     12  C   UNL     1      84.466  61.544  10.364  1.00  0.00    -0.003 C 
ATOM     13  C   UNL     1      85.417  60.352  10.418  1.00  0.00     0.004 C 
ENDBRANCH  11  12
ENDBRANCH  10  11
ENDBRANCH   9  10
ENDBRANCH   8   9
ENDBRANCH   1   8
TORSDOF 9
ENDMDL
MODEL 4
REMARK VINA RESULT:    -4.533      2.520      3.963
REMARK INTER + INTRA:          -7.481
REMARK INTER:                  -6.880
REMARK INTRA:                  -0.601
REMARK UNBOUND:                -0.563
REMARK SMILES CCCCCCCCCCC(=O)[O-]
REMARK SMILES IDX 7 1 8 2 9 3 10 4 11 5 12 6 13 7 6 8 5 9 4 10 3 11 2 12 1 13
REMARK H PARENT
REMARK Flexibility Score: inf
ROOT
ATOM      1  C   UNL     1      77.770  56.944   9.565  1.00  0.00     0.000 C 
ENDROOT
BRANCH   1   2
ATOM      2  C   UNL     1      78.811  56.369  10.542  1.00  0.00     0.000 C 
BRANCH   2   3
ATOM      3  C   UNL     1      80.102  57.210  10.634  1.00  0.00     0.006 C 
BRANCH   3   4
ATOM      4  C   UNL     1      79.843  58.700  10.380  1.00  0.00     0.053 C 
BRANCH   4   5
ATOM      5  C   UNL     1      81.113  59.481  10.508  1.00  0.00     0.041 C 
ATOM      6  O   UNL     1      81.171  60.669  10.095  1.00  0.00    -0.550 OA
ATOM      7  O   UNL     1      82.247  58.880  11.039  1.00  0.00    -0.550 OA
ENDBRANCH   4   5
ENDBRANCH   3   4
ENDBRANCH   2   3
ENDBRANCH   1   2
BRANCH   1   8
ATOM      8  C   UNL     1      77.878  56.341   8.156  1.00  0.00     0.000 C 
BRANCH   8   9
ATOM      9  C   UNL     1      77.958  54.806   8.170  1.00  0.00    -0.000 C 
BRANCH   9  10
ATOM     10  C   UNL     1      79.308  54.281   7.650  1.00  0.00    -0.000 C 
BRANCH  10  11
ATOM     11  C   UNL     1      80.012  53.363   8.662  1.00  0.00    -0.000 C 
BRANCH  11  12
ATOM     12  C   UNL     1      79.728  51.875   8.411  1.00  0.00    -0.003 C 
ATOM     13  C   UNL     1      79.212  51.647   6.993  1.00  0.00     0.004 C 
ENDBRANCH  11  12
ENDBRANCH  10  11
ENDBRANCH   9  10
ENDBRANCH   8   9
ENDBRANCH   1   8
TORSDOF 9
ENDMDL
MODEL 5
REMARK VINA RESULT:    -4.443      2.405      4.561
REMARK INTER + INTRA:          -7.344
REMARK INTER:                  -6.384
REMARK INTRA:                  -0.960
REMARK UNBOUND:                -0.563
REMARK SMILES CCCCCCCCCCC(=O)[O-]
REMARK SMILES IDX 7 1 8 2 9 3 10 4 11 5 12 6 13 7 6 8 5 9 4 10 3 11 2 12 1 13
REMARK H PARENT
REMARK Flexibility Score: inf
ROOT
ATOM      1  C   UNL     1      78.113  56.499   8.120  1.00  0.00     0.000 C 
ENDROOT
BRANCH   1   2
ATOM      2  C   UNL     1      77.843  56.743   9.615  1.00  0.00     0.000 C 
BRANCH   2   3
ATOM      3  C   UNL     1      79.080  57.241  10.392  1.00  0.00     0.006 C 
BRANCH   3   4
ATOM      4  C   UNL     1      79.370  58.725  10.135  1.00  0.00     0.053 C 
BRANCH   4   5
ATOM      5  C   UNL     1      80.796  59.043  10.456  1.00  0.00     0.041 C 
ATOM      6  O   UNL     1      81.599  58.120  10.755  1.00  0.00    -0.550 OA
ATOM      7  O   UNL     1      81.227  60.363  10.474  1.00  0.00    -0.550 OA
ENDBRANCH   4   5
ENDBRANCH   3   4
ENDBRANCH   2   3
ENDBRANCH   1   2
BRANCH   1   8
ATOM      8  C   UNL     1      77.686  55.096   7.658  1.00  0.00     0.000 C 
BRANCH   8   9
ATOM      9  C   UNL     1      78.709  54.012   8.031  1.00  0.00    -0.000 C 
BRANCH   9  10
ATOM     10  C   UNL     1      80.157  54.439   7.732  1.00  0.00    -0.000 C 
BRANCH  10  11
ATOM     11  C   UNL     1      81.177  53.745   8.649  1.00  0.00    -0.000 C 
BRANCH  11  12
ATOM     12  C   UNL     1      81.702  54.670   9.758  1.00  0.00    -0.003 C 
ATOM     13  C   UNL     1      81.084  54.313  11.107  1.00  0.00     0.004 C 
ENDBRANCH  11  12
ENDBRANCH  10  11
ENDBRANCH   9  10
ENDBRANCH   8   9
ENDBRANCH   1   8
TORSDOF 9
ENDMDL
MODEL 6
REMARK VINA RESULT:    -4.427      5.607      7.727
REMARK INTER + INTRA:          -7.320
REMARK INTER:                  -6.418
REMARK INTRA:                  -0.902
REMARK UNBOUND:                -0.563
REMARK SMILES CCCCCCCCCCC(=O)[O-]
REMARK SMILES IDX 7 1 8 2 9 3 10 4 11 5 12 6 13 7 6 8 5 9 4 10 3 11 2 12 1 13
REMARK H PARENT
REMARK Flexibility Score: inf
ROOT
ATOM      1  C   UNL     1      78.050  54.589   8.023  1.00  0.00     0.000 C 
ENDROOT
BRANCH   1   2
ATOM      2  C   UNL     1      79.524  54.231   7.765  1.00  0.00     0.000 C 
BRANCH   2   3
ATOM      3  C   UNL     1      80.027  53.039   8.607  1.00  0.00     0.006 C 
BRANCH   3   4
ATOM      4  C   UNL     1      79.402  51.711   8.164  1.00  0.00     0.053 C 
BRANCH   4   5
ATOM      5  C   UNL     1      80.195  50.558   8.692  1.00  0.00     0.041 C 
ATOM      6  O   UNL     1      80.925  50.702   9.708  1.00  0.00    -0.550 OA
ATOM      7  O   UNL     1      80.167  49.335   8.033  1.00  0.00    -0.550 OA
ENDBRANCH   4   5
ENDBRANCH   3   4
ENDBRANCH   2   3
ENDBRANCH   1   2
BRANCH   1   8
ATOM      8  C   UNL     1      77.782  56.101   7.955  1.00  0.00     0.000 C 
BRANCH   8   9
ATOM      9  C   UNL     1      77.601  56.736   9.343  1.00  0.00    -0.000 C 
BRANCH   9  10
ATOM     10  C   UNL     1      78.723  57.731   9.687  1.00  0.00    -0.000 C 
BRANCH  10  11
ATOM     11  C   UNL     1      79.695  57.182  10.743  1.00  0.00    -0.000 C 
BRANCH  11  12
ATOM     12  C   UNL     1      79.189  55.887  11.398  1.00  0.00    -0.003 C 
ATOM     13  C   UNL     1      80.338  54.913  11.646  1.00  0.00     0.004 C 
ENDBRANCH  11  12
ENDBRANCH  10  11
ENDBRANCH   9  10
ENDBRANCH   8   9
ENDBRANCH   1   8
TORSDOF 9
ENDMDL
MODEL 7
REMARK VINA RESULT:    -4.405      5.773      8.736
REMARK INTER + INTRA:          -7.287
REMARK INTER:                  -6.714
REMARK INTRA:                  -0.572
REMARK UNBOUND:                -0.563
REMARK SMILES CCCCCCCCCCC(=O)[O-]
REMARK SMILES IDX 7 1 8 2 9 3 10 4 11 5 12 6 13 7 6 8 5 9 4 10 3 11 2 12 1 13
REMARK H PARENT
REMARK Flexibility Score: inf
ROOT
ATOM      1  C   UNL     1      84.865  60.955  16.011  1.00  0.00     0.000 C 
ENDROOT
BRANCH   1   2
ATOM      2  C   UNL     1      84.238  60.326  14.753  1.00  0.00     0.000 C 
BRANCH   2   3
ATOM      3  C   UNL     1      85.276  59.899  13.694  1.00  0.00     0.006 C 
BRANCH   3   4
ATOM      4  C   UNL     1      84.995  60.526  12.322  1.00  0.00     0.053 C 
BRANCH   4   5
ATOM      5  C   UNL     1      85.159  59.507  11.238  1.00  0.00     0.041 C 
ATOM      6  O   UNL     1      84.147  59.012  10.676  1.00  0.00    -0.550 OA
ATOM      7  O   UNL     1      86.427  59.067  10.883  1.00  0.00    -0.550 OA
ENDBRANCH   4   5
ENDBRANCH   3   4
ENDBRANCH   2   3
ENDBRANCH   1   2
BRANCH   1   8
ATOM      8  C   UNL     1      86.062  61.864  15.689  1.00  0.00     0.000 C 
BRANCH   8   9
ATOM      9  C   UNL     1      85.636  63.268  15.232  1.00  0.00    -0.000 C 
BRANCH   9  10
ATOM     10  C   UNL     1      84.751  63.982  16.270  1.00  0.00    -0.000 C 
BRANCH  10  11
ATOM     11  C   UNL     1      84.329  65.389  15.816  1.00  0.00    -0.000 C 
BRANCH  11  12
ATOM     12  C   UNL     1      84.774  65.707  14.380  1.00  0.00    -0.003 C 
ATOM     13  C   UNL     1      83.988  66.885  13.811  1.00  0.00     0.004 C 
ENDBRANCH  11  12
ENDBRANCH  10  11
ENDBRANCH   9  10
ENDBRANCH   8   9
ENDBRANCH   1   8
TORSDOF 9
ENDMDL
MODEL 8
REMARK VINA RESULT:    -4.354      5.053      6.989
REMARK INTER + INTRA:          -7.208
REMARK INTER:                  -6.020
REMARK INTRA:                  -1.188
REMARK UNBOUND:                -0.563
REMARK SMILES CCCCCCCCCCC(=O)[O-]
REMARK SMILES IDX 7 1 8 2 9 3 10 4 11 5 12 6 13 7 6 8 5 9 4 10 3 11 2 12 1 13
REMARK H PARENT
REMARK Flexibility Score: inf
ROOT
ATOM      1  C   UNL     1      78.638  55.616   7.480  1.00  0.00     0.000 C 
ENDROOT
BRANCH   1   2
ATOM      2  C   UNL     1      78.105  54.201   7.766  1.00  0.00     0.000 C 
BRANCH   2   3
ATOM      3  C   UNL     1      79.211  53.183   8.113  1.00  0.00     0.006 C 
BRANCH   3   4
ATOM      4  C   UNL     1      80.562  53.558   7.489  1.00  0.00     0.053 C 
BRANCH   4   5
ATOM      5  C   UNL     1      81.073  52.440   6.637  1.00  0.00     0.041 C 
ATOM      6  O   UNL     1      82.306  52.327   6.412  1.00  0.00    -0.550 OA
ATOM      7  O   UNL     1      80.182  51.550   6.050  1.00  0.00    -0.550 OA
ENDBRANCH   4   5
ENDBRANCH   3   4
ENDBRANCH   2   3
ENDBRANCH   1   2
BRANCH   1   8
ATOM      8  C   UNL     1      77.609  56.715   7.790  1.00  0.00     0.000 C 
BRANCH   8   9
ATOM      9  C   UNL     1      77.543  57.063   9.285  1.00  0.00    -0.000 C 
BRANCH   9  10
ATOM     10  C   UNL     1      78.918  56.980   9.971  1.00  0.00    -0.000 C 
BRANCH  10  11
ATOM     11  C   UNL     1      78.937  55.972  11.132  1.00  0.00    -0.000 C 
BRANCH  11  12
ATOM     12  C   UNL     1      80.271  55.219  11.242  1.00  0.00    -0.003 C 
ATOM     13  C   UNL     1      81.340  55.866  10.366  1.00  0.00     0.004 C 
ENDBRANCH  11  12
ENDBRANCH  10  11
ENDBRANCH   9  10
ENDBRANCH   8   9
ENDBRANCH   1   8
TORSDOF 9
ENDMDL
MODEL 9
REMARK VINA RESULT:    -4.292      4.553      6.226
REMARK INTER + INTRA:          -7.114
REMARK INTER:                  -6.006
REMARK INTRA:                  -1.109
REMARK UNBOUND:                -0.563
REMARK SMILES CCCCCCCCCCC(=O)[O-]
REMARK SMILES IDX 7 1 8 2 9 3 10 4 11 5 12 6 13 7 6 8 5 9 4 10 3 11 2 12 1 13
REMARK H PARENT
REMARK Flexibility Score: inf
ROOT
ATOM      1  C   UNL     1      80.298  54.490   7.670  1.00  0.00     0.000 C 
ENDROOT
BRANCH   1   2
ATOM      2  C   UNL     1      81.426  53.936   8.559  1.00  0.00     0.000 C 
BRANCH   2   3
ATOM      3  C   UNL     1      80.920  53.056   9.722  1.00  0.00     0.006 C 
BRANCH   3   4
ATOM      4  C   UNL     1      81.489  53.500  11.075  1.00  0.00     0.053 C 
BRANCH   4   5
ATOM      5  C   UNL     1      82.940  53.148  11.173  1.00  0.00     0.041 C 
ATOM      6  O   UNL     1      83.294  51.946  11.295  1.00  0.00    -0.550 OA
ATOM      7  O   UNL     1      83.900  54.152  11.179  1.00  0.00    -0.550 OA
ENDBRANCH   4   5
ENDBRANCH   3   4
ENDBRANCH   2   3
ENDBRANCH   1   2
BRANCH   1   8
ATOM      8  C   UNL     1      78.947  53.803   7.925  1.00  0.00     0.000 C 
BRANCH   8   9
ATOM      9  C   UNL     1      77.751  54.746   7.716  1.00  0.00    -0.000 C 
BRANCH   9  10
ATOM     10  C   UNL     1      78.137  56.228   7.871  1.00  0.00    -0.000 C 
BRANCH  10  11
ATOM     11  C   UNL     1      77.771  56.791   9.254  1.00  0.00    -0.000 C 
BRANCH  11  12
ATOM     12  C   UNL     1      78.992  56.942  10.174  1.00  0.00    -0.003 C 
ATOM     13  C   UNL     1      78.855  56.064  11.415  1.00  0.00     0.004 C 
ENDBRANCH  11  12
ENDBRANCH  10  11
ENDBRANCH   9  10
ENDBRANCH   8   9
ENDBRANCH   1   8
TORSDOF 9
ENDMDL
