MODEL 1
REMARK VINA RESULT:    -3.581      0.000      0.000
REMARK INTER + INTRA:          -4.435
REMARK INTER:                  -4.209
REMARK INTRA:                  -0.226
REMARK UNBOUND:                -0.226
REMARK SMILES [NH3+][C@@H](CO)C(=O)[O-]
REMARK SMILES IDX 3 1 2 2 1 3 5 7 6 8 7 9 4 10
REMARK H PARENT 1 4 1 5 1 6 4 11
REMARK Flexibility Score: inf
ROOT
ATOM      1  C   UNL     1      -1.426 -16.719  19.788  1.00  0.00     0.227 C 
ENDROOT
BRANCH   1   2
ATOM      2  C   UNL     1      -1.852 -15.450  20.551  1.00  0.00     0.253 C 
BRANCH   2   3
ATOM      3  N   UNL     1      -2.808 -15.767  21.619  1.00  0.00    -0.348 N 
ATOM      4  H   UNL     1      -3.546 -16.410  21.252  1.00  0.00     0.345 HD
ATOM      5  H   UNL     1      -2.330 -16.222  22.431  1.00  0.00     0.345 HD
ATOM      6  H   UNL     1      -3.274 -14.889  21.948  1.00  0.00     0.345 HD
ENDBRANCH   2   3
BRANCH   2   7
ATOM      7  C   UNL     1      -2.411 -14.417  19.608  1.00  0.00     0.102 C 
ATOM      8  O   UNL     1      -2.110 -14.432  18.385  1.00  0.00    -0.544 OA
ATOM      9  O   UNL     1      -3.231 -13.408  20.097  1.00  0.00    -0.544 OA
ENDBRANCH   2   7
ENDBRANCH   1   2
BRANCH   1  10
ATOM     10  O   UNL     1      -0.218 -16.522  19.101  1.00  0.00    -0.390 OA
ATOM     11  H   UNL     1       0.495 -16.445  19.789  1.00  0.00     0.210 HD
ENDBRANCH   1  10
TORSDOF 4
ENDMDL
MODEL 2
REMARK VINA RESULT:    -3.518      2.047      2.371
REMARK INTER + INTRA:          -4.361
REMARK INTER:                  -4.133
REMARK INTRA:                  -0.227
REMARK UNBOUND:                -0.226
REMARK SMILES [NH3+][C@@H](CO)C(=O)[O-]
REMARK SMILES IDX 3 1 2 2 1 3 5 7 6 8 7 9 4 10
REMARK H PARENT 1 4 1 5 1 6 4 11
REMARK Flexibility Score: inf
ROOT
ATOM      1  C   UNL     1      -2.382 -16.743  20.495  1.00  0.00     0.227 C 
ENDROOT
BRANCH   1   2
ATOM      2  C   UNL     1      -1.646 -16.042  19.337  1.00  0.00     0.253 C 
BRANCH   2   3
ATOM      3  N   UNL     1      -0.275 -16.547  19.195  1.00  0.00    -0.348 N 
ATOM      4  H   UNL     1      -0.229 -17.538  19.525  1.00  0.00     0.345 HD
ATOM      5  H   UNL     1       0.042 -16.503  18.199  1.00  0.00     0.345 HD
ATOM      6  H   UNL     1       0.375 -15.977  19.784  1.00  0.00     0.345 HD
ENDBRANCH   2   3
BRANCH   2   7
ATOM      7  C   UNL     1      -1.659 -14.547  19.518  1.00  0.00     0.102 C 
ATOM      8  O   UNL     1      -2.746 -13.925  19.662  1.00  0.00    -0.544 OA
ATOM      9  O   UNL     1      -0.466 -13.836  19.479  1.00  0.00    -0.544 OA
ENDBRANCH   2   7
ENDBRANCH   1   2
BRANCH   1  10
ATOM     10  O   UNL     1      -2.560 -15.878  21.587  1.00  0.00    -0.390 OA
ATOM     11  H   UNL     1      -3.445 -15.443  21.468  1.00  0.00     0.210 HD
ENDBRANCH   1  10
TORSDOF 4
ENDMDL
MODEL 3
REMARK VINA RESULT:    -3.328      2.226      2.573
REMARK INTER + INTRA:          -4.138
REMARK INTER:                  -3.915
REMARK INTRA:                  -0.222
REMARK UNBOUND:                -0.226
REMARK SMILES [NH3+][C@@H](CO)C(=O)[O-]
REMARK SMILES IDX 3 1 2 2 1 3 5 7 6 8 7 9 4 10
REMARK H PARENT 1 4 1 5 1 6 4 11
REMARK Flexibility Score: inf
ROOT
ATOM      1  C   UNL     1      -1.294 -15.962  19.864  1.00  0.00     0.227 C 
ENDROOT
BRANCH   1   2
ATOM      2  C   UNL     1      -1.742 -14.554  19.428  1.00  0.00     0.253 C 
BRANCH   2   3
ATOM      3  N   UNL     1      -2.086 -14.523  18.001  1.00  0.00    -0.348 N 
ATOM      4  H   UNL     1      -2.670 -15.358  17.762  1.00  0.00     0.345 HD
ATOM      5  H   UNL     1      -2.616 -13.654  17.759  1.00  0.00     0.345 HD
ATOM      6  H   UNL     1      -1.213 -14.561  17.426  1.00  0.00     0.345 HD
ENDBRANCH   2   3
BRANCH   2   7
ATOM      7  C   UNL     1      -0.689 -13.529  19.756  1.00  0.00     0.102 C 
ATOM      8  O   UNL     1      -0.964 -12.531  20.475  1.00  0.00    -0.544 OA
ATOM      9  O   UNL     1       0.588 -13.656  19.223  1.00  0.00    -0.544 OA
ENDBRANCH   2   7
ENDBRANCH   1   2
BRANCH   1  10
ATOM     10  O   UNL     1      -0.176 -16.393  19.133  1.00  0.00    -0.390 OA
ATOM     11  H   UNL     1       0.485 -16.734  19.791  1.00  0.00     0.210 HD
ENDBRANCH   1  10
TORSDOF 4
ENDMDL
MODEL 4
REMARK VINA RESULT:    -3.269      2.037      2.723
REMARK INTER + INTRA:          -4.068
REMARK INTER:                  -3.833
REMARK INTRA:                  -0.235
REMARK UNBOUND:                -0.226
REMARK SMILES [NH3+][C@@H](CO)C(=O)[O-]
REMARK SMILES IDX 3 1 2 2 1 3 5 7 6 8 7 9 4 10
REMARK H PARENT 1 4 1 5 1 6 4 11
REMARK Flexibility Score: inf
ROOT
ATOM      1  C   UNL     1      -0.377 -13.882  19.348  1.00  0.00     0.227 C 
ENDROOT
BRANCH   1   2
ATOM      2  C   UNL     1      -1.833 -14.377  19.425  1.00  0.00     0.253 C 
BRANCH   2   3
ATOM      3  N   UNL     1      -2.759 -13.267  19.686  1.00  0.00    -0.348 N 
ATOM      4  H   UNL     1      -2.303 -12.569  20.316  1.00  0.00     0.345 HD
ATOM      5  H   UNL     1      -3.041 -12.793  18.797  1.00  0.00     0.345 HD
ATOM      6  H   UNL     1      -3.617 -13.628  20.165  1.00  0.00     0.345 HD
ENDBRANCH   2   3
BRANCH   2   7
ATOM      7  C   UNL     1      -1.980 -15.463  20.458  1.00  0.00     0.102 C 
ATOM      8  O   UNL     1      -2.519 -15.223  21.571  1.00  0.00    -0.544 OA
ATOM      9  O   UNL     1      -1.473 -16.731  20.203  1.00  0.00    -0.544 OA
ENDBRANCH   2   7
ENDBRANCH   1   2
BRANCH   1  10
ATOM     10  O   UNL     1       0.504 -14.931  19.041  1.00  0.00    -0.390 OA
ATOM     11  H   UNL     1       1.393 -14.677  19.404  1.00  0.00     0.210 HD
ENDBRANCH   1  10
TORSDOF 4
ENDMDL
MODEL 5
REMARK VINA RESULT:    -3.239      1.985      3.426
REMARK INTER + INTRA:          -4.033
REMARK INTER:                  -3.806
REMARK INTRA:                  -0.226
REMARK UNBOUND:                -0.226
REMARK SMILES [NH3+][C@@H](CO)C(=O)[O-]
REMARK SMILES IDX 3 1 2 2 1 3 5 7 6 8 7 9 4 10
REMARK H PARENT 1 4 1 5 1 6 4 11
REMARK Flexibility Score: inf
ROOT
ATOM      1  C   UNL     1      -2.280 -13.314  20.545  1.00  0.00     0.227 C 
ENDROOT
BRANCH   1   2
ATOM      2  C   UNL     1      -1.471 -14.231  19.608  1.00  0.00     0.253 C 
BRANCH   2   3
ATOM      3  N   UNL     1      -1.907 -14.085  18.213  1.00  0.00    -0.348 N 
ATOM      4  H   UNL     1      -1.773 -13.095  17.904  1.00  0.00     0.345 HD
ATOM      5  H   UNL     1      -1.365 -14.718  17.581  1.00  0.00     0.345 HD
ATOM      6  H   UNL     1      -2.924 -14.317  18.135  1.00  0.00     0.345 HD
ENDBRANCH   2   3
BRANCH   2   7
ATOM      7  C   UNL     1      -1.552 -15.666  20.057  1.00  0.00     0.102 C 
ATOM      8  O   UNL     1      -2.330 -16.006  20.988  1.00  0.00    -0.544 OA
ATOM      9  O   UNL     1      -0.727 -16.620  19.473  1.00  0.00    -0.544 OA
ENDBRANCH   2   7
ENDBRANCH   1   2
BRANCH   1  10
ATOM     10  O   UNL     1      -3.661 -13.468  20.344  1.00  0.00    -0.390 OA
ATOM     11  H   UNL     1      -4.089 -12.617  20.624  1.00  0.00     0.210 HD
ENDBRANCH   1  10
TORSDOF 4
ENDMDL
MODEL 6
REMARK VINA RESULT:    -3.232     13.385     14.021
REMARK INTER + INTRA:          -4.024
REMARK INTER:                  -3.655
REMARK INTRA:                  -0.369
REMARK UNBOUND:                -0.226
REMARK SMILES [NH3+][C@@H](CO)C(=O)[O-]
REMARK SMILES IDX 3 1 2 2 1 3 5 7 6 8 7 9 4 10
REMARK H PARENT 1 4 1 5 1 6 4 11
REMARK Flexibility Score: inf
ROOT
ATOM      1  C   UNL     1      -7.001 -26.493  17.573  1.00  0.00     0.227 C 
ENDROOT
BRANCH   1   2
ATOM      2  C   UNL     1      -7.982 -27.586  17.111  1.00  0.00     0.253 C 
BRANCH   2   3
ATOM      3  N   UNL     1      -8.418 -27.359  15.727  1.00  0.00    -0.348 N 
ATOM      4  H   UNL     1      -9.462 -27.398  15.676  1.00  0.00     0.345 HD
ATOM      5  H   UNL     1      -8.092 -26.429  15.376  1.00  0.00     0.345 HD
ATOM      6  H   UNL     1      -8.033 -28.110  15.108  1.00  0.00     0.345 HD
ENDBRANCH   2   3
BRANCH   2   7
ATOM      7  C   UNL     1      -9.160 -27.682  18.044  1.00  0.00     0.102 C 
ATOM      8  O   UNL     1     -10.278 -27.198  17.721  1.00  0.00    -0.544 OA
ATOM      9  O   UNL     1      -9.005 -28.268  19.294  1.00  0.00    -0.544 OA
ENDBRANCH   2   7
ENDBRANCH   1   2
BRANCH   1  10
ATOM     10  O   UNL     1      -7.550 -25.716  18.606  1.00  0.00    -0.390 OA
ATOM     11  H   UNL     1      -6.900 -24.990  18.797  1.00  0.00     0.210 HD
ENDBRANCH   1  10
TORSDOF 4
ENDMDL
MODEL 7
REMARK VINA RESULT:    -3.220      1.865      2.034
REMARK INTER + INTRA:          -4.011
REMARK INTER:                  -4.000
REMARK INTRA:                  -0.010
REMARK UNBOUND:                -0.226
REMARK SMILES [NH3+][C@@H](CO)C(=O)[O-]
REMARK SMILES IDX 3 1 2 2 1 3 5 7 6 8 7 9 4 10
REMARK H PARENT 1 4 1 5 1 6 4 11
REMARK Flexibility Score: inf
ROOT
ATOM      1  C   UNL     1      -1.283 -16.165  19.797  1.00  0.00     0.227 C 
ENDROOT
BRANCH   1   2
ATOM      2  C   UNL     1      -1.756 -14.780  19.317  1.00  0.00     0.253 C 
BRANCH   2   3
ATOM      3  N   UNL     1      -0.620 -13.940  18.915  1.00  0.00    -0.348 N 
ATOM      4  H   UNL     1      -0.316 -13.349  19.723  1.00  0.00     0.345 HD
ATOM      5  H   UNL     1       0.186 -14.524  18.595  1.00  0.00     0.345 HD
ATOM      6  H   UNL     1      -0.910 -13.304  18.136  1.00  0.00     0.345 HD
ENDBRANCH   2   3
BRANCH   2   7
ATOM      7  C   UNL     1      -2.590 -14.101  20.371  1.00  0.00     0.102 C 
ATOM      8  O   UNL     1      -2.615 -14.537  21.552  1.00  0.00    -0.544 OA
ATOM      9  O   UNL     1      -3.378 -13.009  20.029  1.00  0.00    -0.544 OA
ENDBRANCH   2   7
ENDBRANCH   1   2
BRANCH   1  10
ATOM     10  O   UNL     1      -0.209 -16.636  19.025  1.00  0.00    -0.390 OA
ATOM     11  H   UNL     1       0.357 -15.849  18.809  1.00  0.00     0.210 HD
ENDBRANCH   1  10
TORSDOF 4
ENDMDL
MODEL 8
REMARK VINA RESULT:    -3.206      1.435      2.024
REMARK INTER + INTRA:          -3.994
REMARK INTER:                  -3.668
REMARK INTRA:                  -0.326
REMARK UNBOUND:                -0.226
REMARK SMILES [NH3+][C@@H](CO)C(=O)[O-]
REMARK SMILES IDX 3 1 2 2 1 3 5 7 6 8 7 9 4 10
REMARK H PARENT 1 4 1 5 1 6 4 11
REMARK Flexibility Score: inf
ROOT
ATOM      1  C   UNL     1      -2.056 -15.288  19.126  1.00  0.00     0.227 C 
ENDROOT
BRANCH   1   2
ATOM      2  C   UNL     1      -1.946 -14.728  20.557  1.00  0.00     0.253 C 
BRANCH   2   3
ATOM      3  N   UNL     1      -2.700 -15.553  21.510  1.00  0.00    -0.348 N 
ATOM      4  H   UNL     1      -3.454 -16.074  21.006  1.00  0.00     0.345 HD
ATOM      5  H   UNL     1      -2.075 -16.238  21.993  1.00  0.00     0.345 HD
ATOM      6  H   UNL     1      -3.152 -14.940  22.228  1.00  0.00     0.345 HD
ENDBRANCH   2   3
BRANCH   2   7
ATOM      7  C   UNL     1      -2.393 -13.291  20.609  1.00  0.00     0.102 C 
ATOM      8  O   UNL     1      -3.613 -12.992  20.510  1.00  0.00    -0.544 OA
ATOM      9  O   UNL     1      -1.448 -12.278  20.718  1.00  0.00    -0.544 OA
ENDBRANCH   2   7
ENDBRANCH   1   2
BRANCH   1  10
ATOM     10  O   UNL     1      -2.022 -14.260  18.170  1.00  0.00    -0.390 OA
ATOM     11  H   UNL     1      -1.725 -14.670  17.317  1.00  0.00     0.210 HD
ENDBRANCH   1  10
TORSDOF 4
ENDMDL
MODEL 9
REMARK VINA RESULT:    -3.203      7.786      8.395
REMARK INTER + INTRA:          -3.991
REMARK INTER:                  -3.946
REMARK INTRA:                  -0.045
REMARK UNBOUND:                -0.226
REMARK SMILES [NH3+][C@@H](CO)C(=O)[O-]
REMARK SMILES IDX 3 1 2 2 1 3 5 7 6 8 7 9 4 10
REMARK H PARENT 1 4 1 5 1 6 4 11
REMARK Flexibility Score: inf
ROOT
ATOM      1  C   UNL     1       3.419 -11.786  17.631  1.00  0.00     0.227 C 
ENDROOT
BRANCH   1   2
ATOM      2  C   UNL     1       4.456 -12.041  16.521  1.00  0.00     0.253 C 
BRANCH   2   3
ATOM      3  N   UNL     1       3.989 -13.069  15.583  1.00  0.00    -0.348 N 
ATOM      4  H   UNL     1       3.329 -13.717  16.070  1.00  0.00     0.345 HD
ATOM      5  H   UNL     1       3.504 -12.639  14.762  1.00  0.00     0.345 HD
ATOM      6  H   UNL     1       4.803 -13.630  15.240  1.00  0.00     0.345 HD
ENDBRANCH   2   3
BRANCH   2   7
ATOM      7  C   UNL     1       5.794 -12.406  17.108  1.00  0.00     0.102 C 
ATOM      8  O   UNL     1       6.574 -11.514  17.537  1.00  0.00    -0.544 OA
ATOM      9  O   UNL     1       6.196 -13.736  17.135  1.00  0.00    -0.544 OA
ENDBRANCH   2   7
ENDBRANCH   1   2
BRANCH   1  10
ATOM     10  O   UNL     1       2.917 -12.991  18.149  1.00  0.00    -0.390 OA
ATOM     11  H   UNL     1       3.543 -13.280  18.864  1.00  0.00     0.210 HD
ENDBRANCH   1  10
TORSDOF 4
ENDMDL
