MODEL 1
REMARK VINA RESULT:    -2.965      0.000      0.000
REMARK INTER + INTRA:          -3.521
REMARK INTER:                  -3.484
REMARK INTRA:                  -0.036
REMARK UNBOUND:                -0.036
REMARK SMILES O=C([O-])CCC(=O)[O-]
REMARK SMILES IDX 4 1 2 2 1 3 3 4 5 5 6 6 7 7 8 8
REMARK H PARENT
REMARK Flexibility Score: inf
ROOT
ATOM      1  C   UNL     1     -18.023   4.210 -19.006  1.00  0.00     0.059 C 
ENDROOT
BRANCH   1   2
ATOM      2  C   UNL     1     -16.644   3.820 -18.569  1.00  0.00     0.042 C 
ATOM      3  O   UNL     1     -16.482   2.875 -17.751  1.00  0.00    -0.550 OA
ATOM      4  O   UNL     1     -15.542   4.526 -19.032  1.00  0.00    -0.550 OA
ENDBRANCH   1   2
BRANCH   1   5
ATOM      5  C   UNL     1     -19.060   3.155 -18.611  1.00  0.00     0.059 C 
BRANCH   5   6
ATOM      6  C   UNL     1     -20.456   3.689 -18.714  1.00  0.00     0.042 C 
ATOM      7  O   UNL     1     -21.363   3.246 -17.959  1.00  0.00    -0.550 OA
ATOM      8  O   UNL     1     -20.764   4.650 -19.669  1.00  0.00    -0.550 OA
ENDBRANCH   5   6
ENDBRANCH   1   5
TORSDOF 3
ENDMDL
MODEL 2
REMARK VINA RESULT:    -2.961      0.335      4.148
REMARK INTER + INTRA:          -3.517
REMARK INTER:                  -3.483
REMARK INTRA:                  -0.033
REMARK UNBOUND:                -0.036
REMARK SMILES O=C([O-])CCC(=O)[O-]
REMARK SMILES IDX 4 1 2 2 1 3 3 4 5 5 6 6 7 7 8 8
REMARK H PARENT
REMARK Flexibility Score: inf
ROOT
ATOM      1  C   UNL     1     -19.067   3.181 -18.542  1.00  0.00     0.059 C 
ENDROOT
BRANCH   1   2
ATOM      2  C   UNL     1     -20.498   3.616 -18.643  1.00  0.00     0.042 C 
ATOM      3  O   UNL     1     -21.355   3.172 -17.834  1.00  0.00    -0.550 OA
ATOM      4  O   UNL     1     -20.891   4.480 -19.657  1.00  0.00    -0.550 OA
ENDBRANCH   1   2
BRANCH   1   5
ATOM      5  C   UNL     1     -18.110   4.274 -19.026  1.00  0.00     0.059 C 
BRANCH   5   6
ATOM      6  C   UNL     1     -16.678   3.862 -18.868  1.00  0.00     0.042 C 
ATOM      7  O   UNL     1     -16.333   3.123 -17.907  1.00  0.00    -0.550 OA
ATOM      8  O   UNL     1     -15.718   4.326 -19.758  1.00  0.00    -0.550 OA
ENDBRANCH   5   6
ENDBRANCH   1   5
TORSDOF 3
ENDMDL
MODEL 3
REMARK VINA RESULT:    -2.303      1.696      4.762
REMARK INTER + INTRA:          -2.743
REMARK INTER:                  -2.716
REMARK INTRA:                  -0.027
REMARK UNBOUND:                -0.036
REMARK SMILES O=C([O-])CCC(=O)[O-]
REMARK SMILES IDX 4 1 2 2 1 3 3 4 5 5 6 6 7 7 8 8
REMARK H PARENT
REMARK Flexibility Score: inf
ROOT
ATOM      1  C   UNL     1     -17.276   4.184 -18.537  1.00  0.00     0.059 C 
ENDROOT
BRANCH   1   2
ATOM      2  C   UNL     1     -18.685   4.115 -19.042  1.00  0.00     0.042 C 
ATOM      3  O   UNL     1     -19.223   5.129 -19.561  1.00  0.00    -0.550 OA
ATOM      4  O   UNL     1     -19.417   2.944 -18.901  1.00  0.00    -0.550 OA
ENDBRANCH   1   2
BRANCH   1   5
ATOM      5  C   UNL     1     -16.262   4.093 -19.682  1.00  0.00     0.059 C 
BRANCH   5   6
ATOM      6  C   UNL     1     -14.853   4.105 -19.172  1.00  0.00     0.042 C 
ATOM      7  O   UNL     1     -14.358   5.162 -18.698  1.00  0.00    -0.550 OA
ATOM      8  O   UNL     1     -14.074   2.957 -19.256  1.00  0.00    -0.550 OA
ENDBRANCH   5   6
ENDBRANCH   1   5
TORSDOF 3
ENDMDL
MODEL 4
REMARK VINA RESULT:    -1.259     19.248     20.735
REMARK INTER + INTRA:          -1.516
REMARK INTER:                  -1.578
REMARK INTRA:                   0.063
REMARK UNBOUND:                -0.036
REMARK SMILES O=C([O-])CCC(=O)[O-]
REMARK SMILES IDX 4 1 2 2 1 3 3 4 5 5 6 6 7 7 8 8
REMARK H PARENT
REMARK Flexibility Score: inf
ROOT
ATOM      1  C   UNL     1     -30.479  19.229 -10.820  1.00  0.00     0.059 C 
ENDROOT
BRANCH   1   2
ATOM      2  C   UNL     1     -31.938  19.221 -10.480  1.00  0.00     0.042 C 
ATOM      3  O   UNL     1     -32.554  18.130 -10.350  1.00  0.00    -0.550 OA
ATOM      4  O   UNL     1     -32.627  20.420 -10.347  1.00  0.00    -0.550 OA
ENDBRANCH   1   2
BRANCH   1   5
ATOM      5  C   UNL     1     -29.806  17.905 -10.444  1.00  0.00     0.059 C 
BRANCH   5   6
ATOM      6  C   UNL     1     -29.923  16.896 -11.546  1.00  0.00     0.042 C 
ATOM      7  O   UNL     1     -29.464  17.150 -12.691  1.00  0.00    -0.550 OA
ATOM      8  O   UNL     1     -30.573  15.690 -11.317  1.00  0.00    -0.550 OA
ENDBRANCH   5   6
ENDBRANCH   1   5
TORSDOF 3
ENDMDL
MODEL 5
REMARK VINA RESULT:    -1.252     22.259     23.543
REMARK INTER + INTRA:          -1.508
REMARK INTER:                  -1.468
REMARK INTRA:                  -0.040
REMARK UNBOUND:                -0.036
REMARK SMILES O=C([O-])CCC(=O)[O-]
REMARK SMILES IDX 4 1 2 2 1 3 3 4 5 5 6 6 7 7 8 8
REMARK H PARENT
REMARK Flexibility Score: inf
ROOT
ATOM      1  C   UNL     1     -32.820  20.110 -10.367  1.00  0.00     0.059 C 
ENDROOT
BRANCH   1   2
ATOM      2  C   UNL     1     -31.886  18.945 -10.497  1.00  0.00     0.042 C 
ATOM      3  O   UNL     1     -32.321  17.768 -10.385  1.00  0.00    -0.550 OA
ATOM      4  O   UNL     1     -30.530  19.161 -10.700  1.00  0.00    -0.550 OA
ENDBRANCH   1   2
BRANCH   1   5
ATOM      5  C   UNL     1     -32.197  21.397 -10.919  1.00  0.00     0.059 C 
BRANCH   5   6
ATOM      6  C   UNL     1     -32.652  22.601 -10.153  1.00  0.00     0.042 C 
ATOM      7  O   UNL     1     -31.902  23.125  -9.287  1.00  0.00    -0.550 OA
ATOM      8  O   UNL     1     -33.922  23.122 -10.369  1.00  0.00    -0.550 OA
ENDBRANCH   5   6
ENDBRANCH   1   5
TORSDOF 3
ENDMDL
MODEL 6
REMARK VINA RESULT:    -1.250     19.254     20.543
REMARK INTER + INTRA:          -1.505
REMARK INTER:                  -1.544
REMARK INTRA:                   0.039
REMARK UNBOUND:                -0.036
REMARK SMILES O=C([O-])CCC(=O)[O-]
REMARK SMILES IDX 4 1 2 2 1 3 3 4 5 5 6 6 7 7 8 8
REMARK H PARENT
REMARK Flexibility Score: inf
ROOT
ATOM      1  C   UNL     1     -29.811  17.919 -10.423  1.00  0.00     0.059 C 
ENDROOT
BRANCH   1   2
ATOM      2  C   UNL     1     -29.883  16.915 -11.532  1.00  0.00     0.042 C 
ATOM      3  O   UNL     1     -29.418  17.192 -12.670  1.00  0.00    -0.550 OA
ATOM      4  O   UNL     1     -30.500  15.689 -11.321  1.00  0.00    -0.550 OA
ENDBRANCH   1   2
BRANCH   1   5
ATOM      5  C   UNL     1     -30.497  19.234 -10.806  1.00  0.00     0.059 C 
BRANCH   5   6
ATOM      6  C   UNL     1     -31.955  19.214 -10.463  1.00  0.00     0.042 C 
ATOM      7  O   UNL     1     -32.564  18.118 -10.339  1.00  0.00    -0.550 OA
ATOM      8  O   UNL     1     -32.651  20.408 -10.317  1.00  0.00    -0.550 OA
ENDBRANCH   5   6
ENDBRANCH   1   5
TORSDOF 3
ENDMDL
MODEL 7
REMARK VINA RESULT:    -0.847      1.877      2.316
REMARK INTER + INTRA:          -1.032
REMARK INTER:                  -1.427
REMARK INTRA:                   0.396
REMARK UNBOUND:                -0.036
REMARK SMILES O=C([O-])CCC(=O)[O-]
REMARK SMILES IDX 4 1 2 2 1 3 3 4 5 5 6 6 7 7 8 8
REMARK H PARENT
REMARK Flexibility Score: inf
ROOT
ATOM      1  C   UNL     1     -19.619   4.898 -19.555  1.00  0.00     0.059 C 
ENDROOT
BRANCH   1   2
ATOM      2  C   UNL     1     -18.227   4.395 -19.789  1.00  0.00     0.042 C 
ATOM      3  O   UNL     1     -17.307   5.197 -20.103  1.00  0.00    -0.550 OA
ATOM      4  O   UNL     1     -17.955   3.037 -19.702  1.00  0.00    -0.550 OA
ENDBRANCH   1   2
BRANCH   1   5
ATOM      5  C   UNL     1     -20.608   3.747 -19.350  1.00  0.00     0.059 C 
BRANCH   5   6
ATOM      6  C   UNL     1     -20.659   3.314 -17.917  1.00  0.00     0.042 C 
ATOM      7  O   UNL     1     -21.742   3.369 -17.275  1.00  0.00    -0.550 OA
ATOM      8  O   UNL     1     -19.502   2.885 -17.279  1.00  0.00    -0.550 OA
ENDBRANCH   5   6
ENDBRANCH   1   5
TORSDOF 3
ENDMDL
MODEL 8
REMARK VINA RESULT:    -0.357     18.547     19.161
REMARK INTER + INTRA:          -0.456
REMARK INTER:                  -0.411
REMARK INTRA:                  -0.045
REMARK UNBOUND:                -0.036
REMARK SMILES O=C([O-])CCC(=O)[O-]
REMARK SMILES IDX 4 1 2 2 1 3 3 4 5 5 6 6 7 7 8 8
REMARK H PARENT
REMARK Flexibility Score: inf
ROOT
ATOM      1  C   UNL     1     -15.454  10.815  -1.931  1.00  0.00     0.059 C 
ENDROOT
BRANCH   1   2
ATOM      2  C   UNL     1     -14.585   9.602  -1.788  1.00  0.00     0.042 C 
ATOM      3  O   UNL     1     -13.876   9.448  -0.758  1.00  0.00    -0.550 OA
ATOM      4  O   UNL     1     -14.527   8.665  -2.810  1.00  0.00    -0.550 OA
ENDBRANCH   1   2
BRANCH   1   5
ATOM      5  C   UNL     1     -14.960  11.969  -1.053  1.00  0.00     0.059 C 
BRANCH   5   6
ATOM      6  C   UNL     1     -15.285  13.300  -1.660  1.00  0.00     0.042 C 
ATOM      7  O   UNL     1     -15.513  13.396  -2.895  1.00  0.00    -0.550 OA
ATOM      8  O   UNL     1     -15.297  14.441  -0.868  1.00  0.00    -0.550 OA
ENDBRANCH   5   6
ENDBRANCH   1   5
TORSDOF 3
ENDMDL
MODEL 9
REMARK VINA RESULT:    -0.289     22.292     23.671
REMARK INTER + INTRA:          -0.376
REMARK INTER:                  -0.333
REMARK INTRA:                  -0.042
REMARK UNBOUND:                -0.036
REMARK SMILES O=C([O-])CCC(=O)[O-]
REMARK SMILES IDX 4 1 2 2 1 3 3 4 5 5 6 6 7 7 8 8
REMARK H PARENT
REMARK Flexibility Score: inf
ROOT
ATOM      1  C   UNL     1     -32.250  21.368 -10.919  1.00  0.00     0.059 C 
ENDROOT
BRANCH   1   2
ATOM      2  C   UNL     1     -32.669  22.592 -10.162  1.00  0.00     0.042 C 
ATOM      3  O   UNL     1     -31.887  23.119  -9.326  1.00  0.00    -0.550 OA
ATOM      4  O   UNL     1     -33.937  23.125 -10.349  1.00  0.00    -0.550 OA
ENDBRANCH   1   2
BRANCH   1   5
ATOM      5  C   UNL     1     -32.914  20.105 -10.361  1.00  0.00     0.059 C 
BRANCH   5   6
ATOM      6  C   UNL     1     -31.994  18.925 -10.427  1.00  0.00     0.042 C 
ATOM      7  O   UNL     1     -32.459  17.754 -10.393  1.00  0.00    -0.550 OA
ATOM      8  O   UNL     1     -30.620  19.117 -10.488  1.00  0.00    -0.550 OA
ENDBRANCH   5   6
ENDBRANCH   1   5
TORSDOF 3
ENDMDL
