MODEL 1
REMARK VINA RESULT:    -7.848      0.000      0.000
REMARK INTER + INTRA:          -9.538
REMARK INTER:                  -9.225
REMARK INTRA:                  -0.313
REMARK UNBOUND:                -0.313
REMARK SMILES O=c1cc(-c2ccc(O)c(O)c2)oc2cc(O)cc(O)c12
REMARK SMILES IDX 4 1 3 2 2 3 1 4 21 5 19 6 18 7 16 8 15 9 14 10 13 11 5 12
REMARK SMILES IDX 6 13 7 14 8 15 12 16 10 17 9 18 11 20 20 22 17 24
REMARK H PARENT 9 19 11 21 20 23 17 25
REMARK Flexibility Score: inf
ROOT
ATOM      1  C   UNL     1      38.516 -12.617   8.447  1.00  0.00     0.138 A 
ATOM      2  C   UNL     1      38.540 -11.408   9.157  1.00  0.00     0.100 A 
ATOM      3  C   UNL     1      39.649 -11.090   9.941  1.00  0.00     0.197 A 
ATOM      4  O   UNL     1      39.615 -10.029  10.615  1.00  0.00    -0.289 OA
ATOM      5  C   UNL     1      40.754 -11.974   9.988  1.00  0.00     0.107 A 
ATOM      6  C   UNL     1      41.954 -11.735  10.721  1.00  0.00     0.134 A 
ATOM      7  C   UNL     1      42.934 -12.735  10.788  1.00  0.00     0.093 A 
ATOM      8  C   UNL     1      42.782 -13.938  10.101  1.00  0.00     0.123 A 
ATOM      9  C   UNL     1      41.635 -14.162   9.337  1.00  0.00     0.094 A 
ATOM     10  C   UNL     1      40.625 -13.198   9.279  1.00  0.00     0.146 A 
ATOM     11  O   UNL     1      39.543 -13.455   8.553  1.00  0.00    -0.456 OA
ENDROOT
BRANCH   1  12
ATOM     12  C   UNL     1      37.361 -13.005   7.598  1.00  0.00     0.021 A 
ATOM     13  C   UNL     1      36.107 -12.377   7.723  1.00  0.00     0.016 A 
ATOM     14  C   UNL     1      35.041 -12.754   6.903  1.00  0.00     0.051 A 
ATOM     15  C   UNL     1      35.207 -13.756   5.942  1.00  0.00     0.157 A 
ATOM     16  C   UNL     1      37.525 -14.003   6.620  1.00  0.00     0.062 A 
ATOM     17  C   UNL     1      36.454 -14.383   5.798  1.00  0.00     0.158 A 
BRANCH  15  18
ATOM     18  O   UNL     1      34.122 -14.112   5.140  1.00  0.00    -0.504 OA
ATOM     19  H   UNL     1      34.133 -13.989   4.135  1.00  0.00     0.293 HD
ENDBRANCH  15  18
BRANCH  17  20
ATOM     20  O   UNL     1      36.628 -15.380   4.839  1.00  0.00    -0.504 OA
ATOM     21  H   UNL     1      35.867 -15.989   4.560  1.00  0.00     0.293 HD
ENDBRANCH  17  20
ENDBRANCH   1  12
BRANCH   6  22
ATOM     22  O   UNL     1      42.245 -10.533  11.374  1.00  0.00    -0.507 OA
ATOM     23  H   UNL     1      43.082  -9.988  11.234  1.00  0.00     0.293 HD
ENDBRANCH   6  22
BRANCH   8  24
ATOM     24  O   UNL     1      43.783 -14.904  10.178  1.00  0.00    -0.508 OA
ATOM     25  H   UNL     1      43.914 -15.467  11.010  1.00  0.00     0.293 HD
ENDBRANCH   8  24
TORSDOF 5
ENDMDL
MODEL 2
REMARK VINA RESULT:    -7.433      2.034      7.221
REMARK INTER + INTRA:          -9.049
REMARK INTER:                  -8.764
REMARK INTRA:                  -0.286
REMARK UNBOUND:                -0.313
REMARK SMILES O=c1cc(-c2ccc(O)c(O)c2)oc2cc(O)cc(O)c12
REMARK SMILES IDX 4 1 3 2 2 3 1 4 21 5 19 6 18 7 16 8 15 9 14 10 13 11 5 12
REMARK SMILES IDX 6 13 7 14 8 15 12 16 10 17 9 18 11 20 20 22 17 24
REMARK H PARENT 9 19 11 21 20 23 17 25
REMARK Flexibility Score: inf
ROOT
ATOM      1  C   UNL     1      39.275 -12.707   8.005  1.00  0.00     0.138 A 
ATOM      2  C   UNL     1      38.629 -13.932   7.789  1.00  0.00     0.100 A 
ATOM      3  C   UNL     1      37.597 -14.012   6.854  1.00  0.00     0.197 A 
ATOM      4  O   UNL     1      36.994 -15.109   6.726  1.00  0.00    -0.289 OA
ATOM      5  C   UNL     1      37.231 -12.865   6.109  1.00  0.00     0.107 A 
ATOM      6  C   UNL     1      36.222 -12.838   5.102  1.00  0.00     0.134 A 
ATOM      7  C   UNL     1      35.866 -11.618   4.513  1.00  0.00     0.093 A 
ATOM      8  C   UNL     1      36.523 -10.436   4.851  1.00  0.00     0.123 A 
ATOM      9  C   UNL     1      37.549 -10.459   5.797  1.00  0.00     0.094 A 
ATOM     10  C   UNL     1      37.904 -11.654   6.427  1.00  0.00     0.146 A 
ATOM     11  O   UNL     1      38.875 -11.632   7.333  1.00  0.00    -0.456 OA
ENDROOT
BRANCH   1  12
ATOM     12  C   UNL     1      40.380 -12.565   8.988  1.00  0.00     0.021 A 
ATOM     13  C   UNL     1      40.605 -11.359   9.678  1.00  0.00     0.016 A 
ATOM     14  C   UNL     1      41.645 -11.257  10.605  1.00  0.00     0.051 A 
ATOM     15  C   UNL     1      42.471 -12.354  10.866  1.00  0.00     0.157 A 
ATOM     16  C   UNL     1      41.207 -13.669   9.264  1.00  0.00     0.062 A 
ATOM     17  C   UNL     1      42.252 -13.566  10.194  1.00  0.00     0.158 A 
BRANCH  15  18
ATOM     18  O   UNL     1      43.503 -12.220  11.795  1.00  0.00    -0.504 OA
ATOM     19  H   UNL     1      44.193 -11.482  11.731  1.00  0.00     0.293 HD
ENDBRANCH  15  18
BRANCH  17  20
ATOM     20  O   UNL     1      43.069 -14.666  10.452  1.00  0.00    -0.504 OA
ATOM     21  H   UNL     1      42.938 -15.550   9.974  1.00  0.00     0.293 HD
ENDBRANCH  17  20
ENDBRANCH   1  12
BRANCH   6  22
ATOM     22  O   UNL     1      35.561 -13.976   4.628  1.00  0.00    -0.507 OA
ATOM     23  H   UNL     1      34.674 -13.968   4.145  1.00  0.00     0.293 HD
ENDBRANCH   6  22
BRANCH   8  24
ATOM     24  O   UNL     1      36.153  -9.243   4.234  1.00  0.00    -0.508 OA
ATOM     25  H   UNL     1      35.265  -8.797   4.431  1.00  0.00     0.293 HD
ENDBRANCH   8  24
TORSDOF 5
ENDMDL
MODEL 3
REMARK VINA RESULT:    -7.405      4.996     11.162
REMARK INTER + INTRA:          -9.017
REMARK INTER:                  -8.704
REMARK INTRA:                  -0.313
REMARK UNBOUND:                -0.313
REMARK SMILES O=c1cc(-c2ccc(O)c(O)c2)oc2cc(O)cc(O)c12
REMARK SMILES IDX 4 1 3 2 2 3 1 4 21 5 19 6 18 7 16 8 15 9 14 10 13 11 5 12
REMARK SMILES IDX 6 13 7 14 8 15 12 16 10 17 9 18 11 20 20 22 17 24
REMARK H PARENT 9 19 11 21 20 23 17 25
REMARK Flexibility Score: inf
ROOT
ATOM      1  C   UNL     1      33.499 -14.774   3.089  1.00  0.00     0.138 A 
ATOM      2  C   UNL     1      33.874 -15.148   1.791  1.00  0.00     0.100 A 
ATOM      3  C   UNL     1      32.891 -15.375   0.827  1.00  0.00     0.197 A 
ATOM      4  O   UNL     1      33.254 -15.769  -0.311  1.00  0.00    -0.289 OA
ATOM      5  C   UNL     1      31.526 -15.194   1.158  1.00  0.00     0.107 A 
ATOM      6  C   UNL     1      30.441 -15.357   0.246  1.00  0.00     0.134 A 
ATOM      7  C   UNL     1      29.125 -15.266   0.716  1.00  0.00     0.093 A 
ATOM      8  C   UNL     1      28.855 -14.959   2.049  1.00  0.00     0.123 A 
ATOM      9  C   UNL     1      29.909 -14.745   2.938  1.00  0.00     0.094 A 
ATOM     10  C   UNL     1      31.233 -14.863   2.508  1.00  0.00     0.146 A 
ATOM     11  O   UNL     1      32.208 -14.666   3.388  1.00  0.00    -0.456 OA
ENDROOT
BRANCH   1  12
ATOM     12  C   UNL     1      34.503 -14.521   4.153  1.00  0.00     0.021 A 
ATOM     13  C   UNL     1      35.826 -14.994   4.049  1.00  0.00     0.016 A 
ATOM     14  C   UNL     1      36.753 -14.731   5.061  1.00  0.00     0.051 A 
ATOM     15  C   UNL     1      36.383 -13.989   6.185  1.00  0.00     0.157 A 
ATOM     16  C   UNL     1      34.141 -13.763   5.281  1.00  0.00     0.062 A 
ATOM     17  C   UNL     1      35.072 -13.500   6.297  1.00  0.00     0.158 A 
BRANCH  15  18
ATOM     18  O   UNL     1      37.331 -13.745   7.179  1.00  0.00    -0.504 OA
ATOM     19  H   UNL     1      38.321 -13.900   7.028  1.00  0.00     0.293 HD
ENDBRANCH  15  18
BRANCH  17  20
ATOM     20  O   UNL     1      34.697 -12.755   7.414  1.00  0.00    -0.504 OA
ATOM     21  H   UNL     1      34.386 -11.794   7.332  1.00  0.00     0.293 HD
ENDBRANCH  17  20
ENDBRANCH   1  12
BRANCH   6  22
ATOM     22  O   UNL     1      30.599 -15.582  -1.125  1.00  0.00    -0.507 OA
ATOM     23  H   UNL     1      29.843 -15.661  -1.787  1.00  0.00     0.293 HD
ENDBRANCH   6  22
BRANCH   8  24
ATOM     24  O   UNL     1      27.534 -14.861   2.478  1.00  0.00    -0.508 OA
ATOM     25  H   UNL     1      26.872 -15.615   2.334  1.00  0.00     0.293 HD
ENDBRANCH   8  24
TORSDOF 5
ENDMDL
MODEL 4
REMARK VINA RESULT:    -7.103      5.662      8.710
REMARK INTER + INTRA:          -8.663
REMARK INTER:                  -8.373
REMARK INTRA:                  -0.290
REMARK UNBOUND:                -0.313
REMARK SMILES O=c1cc(-c2ccc(O)c(O)c2)oc2cc(O)cc(O)c12
REMARK SMILES IDX 4 1 3 2 2 3 1 4 21 5 19 6 18 7 16 8 15 9 14 10 13 11 5 12
REMARK SMILES IDX 6 13 7 14 8 15 12 16 10 17 9 18 11 20 20 22 17 24
REMARK H PARENT 9 19 11 21 20 23 17 25
REMARK Flexibility Score: inf
ROOT
ATOM      1  C   UNL     1      32.881 -14.473   2.469  1.00  0.00     0.138 A 
ATOM      2  C   UNL     1      32.786 -14.622   3.859  1.00  0.00     0.100 A 
ATOM      3  C   UNL     1      33.902 -14.372   4.658  1.00  0.00     0.197 A 
ATOM      4  O   UNL     1      33.804 -14.574   5.896  1.00  0.00    -0.289 OA
ATOM      5  C   UNL     1      35.111 -13.939   4.061  1.00  0.00     0.107 A 
ATOM      6  C   UNL     1      36.300 -13.616   4.780  1.00  0.00     0.134 A 
ATOM      7  C   UNL     1      37.472 -13.311   4.074  1.00  0.00     0.093 A 
ATOM      8  C   UNL     1      37.481 -13.260   2.681  1.00  0.00     0.123 A 
ATOM      9  C   UNL     1      36.309 -13.522   1.969  1.00  0.00     0.094 A 
ATOM     10  C   UNL     1      35.133 -13.863   2.643  1.00  0.00     0.146 A 
ATOM     11  O   UNL     1      34.043 -14.120   1.929  1.00  0.00    -0.456 OA
ENDROOT
BRANCH   1  12
ATOM     12  C   UNL     1      31.724 -14.726   1.572  1.00  0.00     0.021 A 
ATOM     13  C   UNL     1      31.899 -15.048   0.212  1.00  0.00     0.016 A 
ATOM     14  C   UNL     1      30.794 -15.292  -0.606  1.00  0.00     0.051 A 
ATOM     15  C   UNL     1      29.499 -15.228  -0.084  1.00  0.00     0.157 A 
ATOM     16  C   UNL     1      30.419 -14.677   2.094  1.00  0.00     0.062 A 
ATOM     17  C   UNL     1      29.309 -14.921   1.272  1.00  0.00     0.158 A 
BRANCH  15  18
ATOM     18  O   UNL     1      28.415 -15.475  -0.927  1.00  0.00    -0.504 OA
ATOM     19  H   UNL     1      28.351 -15.071  -1.854  1.00  0.00     0.293 HD
ENDBRANCH  15  18
BRANCH  17  20
ATOM     20  O   UNL     1      28.020 -14.860   1.800  1.00  0.00    -0.504 OA
ATOM     21  H   UNL     1      27.424 -14.053   1.657  1.00  0.00     0.293 HD
ENDBRANCH  17  20
ENDBRANCH   1  12
BRANCH   6  22
ATOM     22  O   UNL     1      36.379 -13.554   6.174  1.00  0.00    -0.507 OA
ATOM     23  H   UNL     1      35.749 -13.033   6.765  1.00  0.00     0.293 HD
ENDBRANCH   6  22
BRANCH   8  24
ATOM     24  O   UNL     1      38.660 -12.938   2.013  1.00  0.00    -0.508 OA
ATOM     25  H   UNL     1      38.665 -12.308   1.220  1.00  0.00     0.293 HD
ENDBRANCH   8  24
TORSDOF 5
ENDMDL
MODEL 5
REMARK VINA RESULT:    -7.048      3.114      8.817
REMARK INTER + INTRA:          -8.598
REMARK INTER:                  -8.334
REMARK INTRA:                  -0.263
REMARK UNBOUND:                -0.313
REMARK SMILES O=c1cc(-c2ccc(O)c(O)c2)oc2cc(O)cc(O)c12
REMARK SMILES IDX 4 1 3 2 2 3 1 4 21 5 19 6 18 7 16 8 15 9 14 10 13 11 5 12
REMARK SMILES IDX 6 13 7 14 8 15 12 16 10 17 9 18 11 20 20 22 17 24
REMARK H PARENT 9 19 11 21 20 23 17 25
REMARK Flexibility Score: inf
ROOT
ATOM      1  C   UNL     1      36.118 -13.526   4.926  1.00  0.00     0.138 A 
ATOM      2  C   UNL     1      36.842 -13.711   3.740  1.00  0.00     0.100 A 
ATOM      3  C   UNL     1      36.197 -14.212   2.609  1.00  0.00     0.197 A 
ATOM      4  O   UNL     1      36.887 -14.425   1.578  1.00  0.00    -0.289 OA
ATOM      5  C   UNL     1      34.812 -14.499   2.658  1.00  0.00     0.107 A 
ATOM      6  C   UNL     1      34.042 -14.976   1.556  1.00  0.00     0.134 A 
ATOM      7  C   UNL     1      32.703 -15.337   1.754  1.00  0.00     0.093 A 
ATOM      8  C   UNL     1      32.092 -15.183   2.997  1.00  0.00     0.123 A 
ATOM      9  C   UNL     1      32.821 -14.667   4.070  1.00  0.00     0.094 A 
ATOM     10  C   UNL     1      34.167 -14.330   3.913  1.00  0.00     0.146 A 
ATOM     11  O   UNL     1      34.831 -13.856   4.961  1.00  0.00    -0.456 OA
ENDROOT
BRANCH   1  12
ATOM     12  C   UNL     1      36.754 -12.995   6.159  1.00  0.00     0.021 A 
ATOM     13  C   UNL     1      37.365 -13.846   7.100  1.00  0.00     0.016 A 
ATOM     14  C   UNL     1      37.966 -13.319   8.246  1.00  0.00     0.051 A 
ATOM     15  C   UNL     1      37.975 -11.939   8.470  1.00  0.00     0.157 A 
ATOM     16  C   UNL     1      36.778 -11.607   6.384  1.00  0.00     0.062 A 
ATOM     17  C   UNL     1      37.380 -11.078   7.535  1.00  0.00     0.158 A 
BRANCH  15  18
ATOM     18  O   UNL     1      38.581 -11.444   9.625  1.00  0.00    -0.504 OA
ATOM     19  H   UNL     1      39.126 -10.590   9.623  1.00  0.00     0.293 HD
ENDBRANCH  15  18
BRANCH  17  20
ATOM     20  O   UNL     1      37.389  -9.701   7.749  1.00  0.00    -0.504 OA
ATOM     21  H   UNL     1      38.000  -9.273   8.436  1.00  0.00     0.293 HD
ENDBRANCH  17  20
ENDBRANCH   1  12
BRANCH   6  22
ATOM     22  O   UNL     1      34.532 -15.089   0.251  1.00  0.00    -0.507 OA
ATOM     23  H   UNL     1      34.753 -15.959  -0.209  1.00  0.00     0.293 HD
ENDBRANCH   6  22
BRANCH   8  24
ATOM     24  O   UNL     1      30.754 -15.538   3.154  1.00  0.00    -0.508 OA
ATOM     25  H   UNL     1      30.465 -16.508   3.201  1.00  0.00     0.293 HD
ENDBRANCH   8  24
TORSDOF 5
ENDMDL
MODEL 6
REMARK VINA RESULT:    -7.047      1.812      2.532
REMARK INTER + INTRA:          -8.596
REMARK INTER:                  -8.328
REMARK INTRA:                  -0.268
REMARK UNBOUND:                -0.313
REMARK SMILES O=c1cc(-c2ccc(O)c(O)c2)oc2cc(O)cc(O)c12
REMARK SMILES IDX 4 1 3 2 2 3 1 4 21 5 19 6 18 7 16 8 15 9 14 10 13 11 5 12
REMARK SMILES IDX 6 13 7 14 8 15 12 16 10 17 9 18 11 20 20 22 17 24
REMARK H PARENT 9 19 11 21 20 23 17 25
REMARK Flexibility Score: inf
ROOT
ATOM      1  C   UNL     1      37.071 -13.116   6.518  1.00  0.00     0.138 A 
ATOM      2  C   UNL     1      37.166 -11.728   6.691  1.00  0.00     0.100 A 
ATOM      3  C   UNL     1      38.155 -11.203   7.523  1.00  0.00     0.197 A 
ATOM      4  O   UNL     1      38.176  -9.959   7.708  1.00  0.00    -0.289 OA
ATOM      5  C   UNL     1      39.074 -12.071   8.159  1.00  0.00     0.107 A 
ATOM      6  C   UNL     1      40.148 -11.645   8.996  1.00  0.00     0.134 A 
ATOM      7  C   UNL     1      40.922 -12.602   9.666  1.00  0.00     0.093 A 
ATOM      8  C   UNL     1      40.700 -13.965   9.482  1.00  0.00     0.123 A 
ATOM      9  C   UNL     1      39.687 -14.394   8.623  1.00  0.00     0.094 A 
ATOM     10  C   UNL     1      38.875 -13.465   7.968  1.00  0.00     0.146 A 
ATOM     11  O   UNL     1      37.911 -13.913   7.171  1.00  0.00    -0.456 OA
ENDROOT
BRANCH   1  12
ATOM     12  C   UNL     1      36.038 -13.729   5.645  1.00  0.00     0.021 A 
ATOM     13  C   UNL     1      34.672 -13.707   5.988  1.00  0.00     0.016 A 
ATOM     14  C   UNL     1      33.720 -14.282   5.142  1.00  0.00     0.051 A 
ATOM     15  C   UNL     1      34.109 -14.879   3.940  1.00  0.00     0.157 A 
ATOM     16  C   UNL     1      36.421 -14.320   4.428  1.00  0.00     0.062 A 
ATOM     17  C   UNL     1      35.465 -14.898   3.579  1.00  0.00     0.158 A 
BRANCH  15  18
ATOM     18  O   UNL     1      33.136 -15.446   3.118  1.00  0.00    -0.504 OA
ATOM     19  H   UNL     1      32.488 -16.148   3.455  1.00  0.00     0.293 HD
ENDBRANCH  15  18
BRANCH  17  20
ATOM     20  O   UNL     1      35.861 -15.488   2.379  1.00  0.00    -0.504 OA
ATOM     21  H   UNL     1      35.516 -16.397   2.094  1.00  0.00     0.293 HD
ENDBRANCH  17  20
ENDBRANCH   1  12
BRANCH   6  22
ATOM     22  O   UNL     1      40.510 -10.308   9.183  1.00  0.00    -0.507 OA
ATOM     23  H   UNL     1      41.048  -9.760   8.529  1.00  0.00     0.293 HD
ENDBRANCH   6  22
BRANCH   8  24
ATOM     24  O   UNL     1      41.500 -14.889  10.152  1.00  0.00    -0.508 OA
ATOM     25  H   UNL     1      41.714 -14.788  11.137  1.00  0.00     0.293 HD
ENDBRANCH   8  24
TORSDOF 5
ENDMDL
MODEL 7
REMARK VINA RESULT:    -7.003      5.877      9.299
REMARK INTER + INTRA:          -8.545
REMARK INTER:                  -8.264
REMARK INTRA:                  -0.281
REMARK UNBOUND:                -0.313
REMARK SMILES O=c1cc(-c2ccc(O)c(O)c2)oc2cc(O)cc(O)c12
REMARK SMILES IDX 4 1 3 2 2 3 1 4 21 5 19 6 18 7 16 8 15 9 14 10 13 11 5 12
REMARK SMILES IDX 6 13 7 14 8 15 12 16 10 17 9 18 11 20 20 22 17 24
REMARK H PARENT 9 19 11 21 20 23 17 25
REMARK Flexibility Score: inf
ROOT
ATOM      1  C   UNL     1      32.813 -13.864   1.277  1.00  0.00     0.138 A 
ATOM      2  C   UNL     1      33.519 -12.826   0.654  1.00  0.00     0.100 A 
ATOM      3  C   UNL     1      34.691 -12.342   1.236  1.00  0.00     0.197 A 
ATOM      4  O   UNL     1      35.269 -11.368   0.687  1.00  0.00    -0.289 OA
ATOM      5  C   UNL     1      35.174 -12.923   2.433  1.00  0.00     0.107 A 
ATOM      6  C   UNL     1      36.377 -12.538   3.094  1.00  0.00     0.134 A 
ATOM      7  C   UNL     1      36.695 -13.105   4.336  1.00  0.00     0.093 A 
ATOM      8  C   UNL     1      35.884 -14.083   4.909  1.00  0.00     0.123 A 
ATOM      9  C   UNL     1      34.732 -14.506   4.245  1.00  0.00     0.094 A 
ATOM     10  C   UNL     1      34.370 -13.935   3.022  1.00  0.00     0.146 A 
ATOM     11  O   UNL     1      33.258 -14.354   2.429  1.00  0.00    -0.456 OA
ENDROOT
BRANCH   1  12
ATOM     12  C   UNL     1      31.560 -14.417   0.700  1.00  0.00     0.021 A 
ATOM     13  C   UNL     1      31.527 -14.983  -0.588  1.00  0.00     0.016 A 
ATOM     14  C   UNL     1      30.337 -15.506  -1.101  1.00  0.00     0.051 A 
ATOM     15  C   UNL     1      29.166 -15.482  -0.339  1.00  0.00     0.157 A 
ATOM     16  C   UNL     1      30.381 -14.407   1.467  1.00  0.00     0.062 A 
ATOM     17  C   UNL     1      29.187 -14.932   0.952  1.00  0.00     0.158 A 
BRANCH  15  18
ATOM     18  O   UNL     1      27.994 -16.010  -0.880  1.00  0.00    -0.504 OA
ATOM     19  H   UNL     1      27.884 -17.000  -1.064  1.00  0.00     0.293 HD
ENDBRANCH  15  18
BRANCH  17  20
ATOM     20  O   UNL     1      28.023 -14.908   1.720  1.00  0.00    -0.504 OA
ATOM     21  H   UNL     1      27.752 -14.087   2.249  1.00  0.00     0.293 HD
ENDBRANCH  17  20
ENDBRANCH   1  12
BRANCH   6  22
ATOM     22  O   UNL     1      37.303 -11.631   2.569  1.00  0.00    -0.507 OA
ATOM     23  H   UNL     1      37.493 -10.716   2.949  1.00  0.00     0.293 HD
ENDBRANCH   6  22
BRANCH   8  24
ATOM     24  O   UNL     1      36.238 -14.636   6.138  1.00  0.00    -0.508 OA
ATOM     25  H   UNL     1      36.556 -15.594   6.216  1.00  0.00     0.293 HD
ENDBRANCH   8  24
TORSDOF 5
ENDMDL
MODEL 8
REMARK VINA RESULT:    -6.917      6.730      9.595
REMARK INTER + INTRA:          -8.443
REMARK INTER:                  -8.178
REMARK INTRA:                  -0.265
REMARK UNBOUND:                -0.313
REMARK SMILES O=c1cc(-c2ccc(O)c(O)c2)oc2cc(O)cc(O)c12
REMARK SMILES IDX 4 1 3 2 2 3 1 4 21 5 19 6 18 7 16 8 15 9 14 10 13 11 5 12
REMARK SMILES IDX 6 13 7 14 8 15 12 16 10 17 9 18 11 20 20 22 17 24
REMARK H PARENT 9 19 11 21 20 23 17 25
REMARK Flexibility Score: inf
ROOT
ATOM      1  C   UNL     1      33.145 -14.037   1.338  1.00  0.00     0.138 A 
ATOM      2  C   UNL     1      33.913 -14.914   2.117  1.00  0.00     0.100 A 
ATOM      3  C   UNL     1      35.109 -14.470   2.681  1.00  0.00     0.197 A 
ATOM      4  O   UNL     1      35.807 -15.297   3.322  1.00  0.00    -0.289 OA
ATOM      5  C   UNL     1      35.522 -13.129   2.489  1.00  0.00     0.107 A 
ATOM      6  C   UNL     1      36.701 -12.555   3.049  1.00  0.00     0.134 A 
ATOM      7  C   UNL     1      37.069 -11.250   2.696  1.00  0.00     0.093 A 
ATOM      8  C   UNL     1      36.270 -10.481   1.852  1.00  0.00     0.123 A 
ATOM      9  C   UNL     1      35.086 -11.014   1.340  1.00  0.00     0.094 A 
ATOM     10  C   UNL     1      34.710 -12.324   1.647  1.00  0.00     0.146 A 
ATOM     11  O   UNL     1      33.583 -12.799   1.128  1.00  0.00    -0.456 OA
ENDROOT
BRANCH   1  12
ATOM     12  C   UNL     1      31.864 -14.458   0.715  1.00  0.00     0.021 A 
ATOM     13  C   UNL     1      31.830 -15.139  -0.517  1.00  0.00     0.016 A 
ATOM     14  C   UNL     1      30.612 -15.532  -1.075  1.00  0.00     0.051 A 
ATOM     15  C   UNL     1      29.410 -15.263  -0.414  1.00  0.00     0.157 A 
ATOM     16  C   UNL     1      30.653 -14.201   1.381  1.00  0.00     0.062 A 
ATOM     17  C   UNL     1      29.429 -14.595   0.820  1.00  0.00     0.158 A 
BRANCH  15  18
ATOM     18  O   UNL     1      28.209 -15.667  -0.998  1.00  0.00    -0.504 OA
ATOM     19  H   UNL     1      27.598 -16.345  -0.559  1.00  0.00     0.293 HD
ENDBRANCH  15  18
BRANCH  17  20
ATOM     20  O   UNL     1      28.234 -14.327   1.487  1.00  0.00    -0.504 OA
ATOM     21  H   UNL     1      27.679 -13.506   1.275  1.00  0.00     0.293 HD
ENDBRANCH  17  20
ENDBRANCH   1  12
BRANCH   6  22
ATOM     22  O   UNL     1      37.527 -13.207   3.971  1.00  0.00    -0.507 OA
ATOM     23  H   UNL     1      37.945 -12.772   4.779  1.00  0.00     0.293 HD
ENDBRANCH   6  22
BRANCH   8  24
ATOM     24  O   UNL     1      36.659  -9.181   1.533  1.00  0.00    -0.508 OA
ATOM     25  H   UNL     1      36.975  -8.533   2.244  1.00  0.00     0.293 HD
ENDBRANCH   8  24
TORSDOF 5
ENDMDL
MODEL 9
REMARK VINA RESULT:    -5.354      1.934      3.420
REMARK INTER + INTRA:          -6.607
REMARK INTER:                  -6.342
REMARK INTRA:                  -0.265
REMARK UNBOUND:                -0.313
REMARK SMILES O=c1cc(-c2ccc(O)c(O)c2)oc2cc(O)cc(O)c12
REMARK SMILES IDX 4 1 3 2 2 3 1 4 21 5 19 6 18 7 16 8 15 9 14 10 13 11 5 12
REMARK SMILES IDX 6 13 7 14 8 15 12 16 10 17 9 18 11 20 20 22 17 24
REMARK H PARENT 9 19 11 21 20 23 17 25
REMARK Flexibility Score: inf
ROOT
ATOM      1  C   UNL     1      37.458 -13.118   7.060  1.00  0.00     0.138 A 
ATOM      2  C   UNL     1      38.362 -13.991   7.680  1.00  0.00     0.100 A 
ATOM      3  C   UNL     1      39.367 -13.476   8.500  1.00  0.00     0.197 A 
ATOM      4  O   UNL     1      40.201 -14.278   8.993  1.00  0.00    -0.289 OA
ATOM      5  C   UNL     1      39.446 -12.080   8.724  1.00  0.00     0.107 A 
ATOM      6  C   UNL     1      40.402 -11.447   9.572  1.00  0.00     0.134 A 
ATOM      7  C   UNL     1      40.458 -10.048   9.626  1.00  0.00     0.093 A 
ATOM      8  C   UNL     1      39.555  -9.263   8.910  1.00  0.00     0.123 A 
ATOM      9  C   UNL     1      38.580  -9.873   8.119  1.00  0.00     0.094 A 
ATOM     10  C   UNL     1      38.521 -11.265   8.018  1.00  0.00     0.146 A 
ATOM     11  O   UNL     1      37.588 -11.807   7.243  1.00  0.00    -0.456 OA
ENDROOT
BRANCH   1  12
ATOM     12  C   UNL     1      36.370 -13.612   6.178  1.00  0.00     0.021 A 
ATOM     13  C   UNL     1      35.012 -13.419   6.500  1.00  0.00     0.016 A 
ATOM     14  C   UNL     1      34.009 -13.885   5.647  1.00  0.00     0.051 A 
ATOM     15  C   UNL     1      34.339 -14.542   4.458  1.00  0.00     0.157 A 
ATOM     16  C   UNL     1      36.695 -14.262   4.975  1.00  0.00     0.062 A 
ATOM     17  C   UNL     1      35.687 -14.731   4.118  1.00  0.00     0.158 A 
BRANCH  15  18
ATOM     18  O   UNL     1      33.315 -14.997   3.628  1.00  0.00    -0.504 OA
ATOM     19  H   UNL     1      32.855 -14.392   2.959  1.00  0.00     0.293 HD
ENDBRANCH  15  18
BRANCH  17  20
ATOM     20  O   UNL     1      36.024 -15.381   2.932  1.00  0.00    -0.504 OA
ATOM     21  H   UNL     1      36.312 -14.868   2.106  1.00  0.00     0.293 HD
ENDBRANCH  17  20
ENDBRANCH   1  12
BRANCH   6  22
ATOM     22  O   UNL     1      41.296 -12.138  10.395  1.00  0.00    -0.507 OA
ATOM     23  H   UNL     1      41.099 -12.435  11.339  1.00  0.00     0.293 HD
ENDBRANCH   6  22
BRANCH   8  24
ATOM     24  O   UNL     1      39.630  -7.875   8.999  1.00  0.00    -0.508 OA
ATOM     25  H   UNL     1      39.024  -7.350   9.618  1.00  0.00     0.293 HD
ENDBRANCH   8  24
TORSDOF 5
ENDMDL
