MODEL 1
REMARK VINA RESULT:    -3.154      0.000      0.000
REMARK INTER + INTRA:          -3.733
REMARK INTER:                  -3.707
REMARK INTRA:                  -0.026
REMARK UNBOUND:                -0.026
REMARK SMILES CCCCC(=O)[O-]
REMARK SMILES IDX 4 1 5 2 6 3 7 4 3 5 2 6 1 7
REMARK H PARENT
REMARK Flexibility Score: inf
ROOT
ATOM      1  C   UNL     1      19.133   8.451  28.258  1.00  0.00     0.053 C 
ENDROOT
BRANCH   1   2
ATOM      2  C   UNL     1      18.661   7.039  28.106  1.00  0.00     0.041 C 
ATOM      3  O   UNL     1      19.486   6.117  27.875  1.00  0.00    -0.550 OA
ATOM      4  O   UNL     1      17.304   6.748  28.171  1.00  0.00    -0.550 OA
ENDBRANCH   1   2
BRANCH   1   5
ATOM      5  C   UNL     1      19.876   8.626  29.589  1.00  0.00     0.006 C 
BRANCH   5   6
ATOM      6  C   UNL     1      20.565   9.994  29.703  1.00  0.00    -0.003 C 
ATOM      7  C   UNL     1      21.456  10.309  28.502  1.00  0.00     0.004 C 
ENDBRANCH   5   6
ENDBRANCH   1   5
TORSDOF 3
ENDMDL
MODEL 2
REMARK VINA RESULT:    -2.701     22.845     23.386
REMARK INTER + INTRA:          -3.201
REMARK INTER:                  -3.157
REMARK INTRA:                  -0.044
REMARK UNBOUND:                -0.026
REMARK SMILES CCCCC(=O)[O-]
REMARK SMILES IDX 4 1 5 2 6 3 7 4 3 5 2 6 1 7
REMARK H PARENT
REMARK Flexibility Score: inf
ROOT
ATOM      1  C   UNL     1      19.228  23.886  45.644  1.00  0.00     0.053 C 
ENDROOT
BRANCH   1   2
ATOM      2  C   UNL     1      17.957  24.309  44.979  1.00  0.00     0.041 C 
ATOM      3  O   UNL     1      16.880  24.339  45.630  1.00  0.00    -0.550 OA
ATOM      4  O   UNL     1      17.952  24.625  43.626  1.00  0.00    -0.550 OA
ENDBRANCH   1   2
BRANCH   1   5
ATOM      5  C   UNL     1      18.990  23.628  47.139  1.00  0.00     0.006 C 
BRANCH   5   6
ATOM      6  C   UNL     1      19.996  22.631  47.732  1.00  0.00    -0.003 C 
ATOM      7  C   UNL     1      21.037  22.166  46.715  1.00  0.00     0.004 C 
ENDBRANCH   5   6
ENDBRANCH   1   5
TORSDOF 3
ENDMDL
MODEL 3
REMARK VINA RESULT:    -2.650      2.464      3.806
REMARK INTER + INTRA:          -3.140
REMARK INTER:                  -3.041
REMARK INTRA:                  -0.099
REMARK UNBOUND:                -0.026
REMARK SMILES CCCCC(=O)[O-]
REMARK SMILES IDX 4 1 5 2 6 3 7 4 3 5 2 6 1 7
REMARK H PARENT
REMARK Flexibility Score: inf
ROOT
ATOM      1  C   UNL     1      19.592   8.082  29.423  1.00  0.00     0.053 C 
ENDROOT
BRANCH   1   2
ATOM      2  C   UNL     1      19.881   9.532  29.190  1.00  0.00     0.041 C 
ATOM      3  O   UNL     1      20.778  10.113  29.855  1.00  0.00    -0.550 OA
ATOM      4  O   UNL     1      19.127  10.253  28.272  1.00  0.00    -0.550 OA
ENDBRANCH   1   2
BRANCH   1   5
ATOM      5  C   UNL     1      19.686   7.299  28.106  1.00  0.00     0.006 C 
BRANCH   5   6
ATOM      6  C   UNL     1      18.473   6.387  27.875  1.00  0.00    -0.003 C 
ATOM      7  C   UNL     1      17.150   7.152  27.876  1.00  0.00     0.004 C 
ENDBRANCH   5   6
ENDBRANCH   1   5
TORSDOF 3
ENDMDL
MODEL 4
REMARK VINA RESULT:    -2.569     22.967     23.426
REMARK INTER + INTRA:          -3.045
REMARK INTER:                  -3.008
REMARK INTRA:                  -0.037
REMARK UNBOUND:                -0.026
REMARK SMILES CCCCC(=O)[O-]
REMARK SMILES IDX 4 1 5 2 6 3 7 4 3 5 2 6 1 7
REMARK H PARENT
REMARK Flexibility Score: inf
ROOT
ATOM      1  C   UNL     1      19.870  23.234  45.989  1.00  0.00     0.053 C 
ENDROOT
BRANCH   1   2
ATOM      2  C   UNL     1      20.886  22.360  46.653  1.00  0.00     0.041 C 
ATOM      3  O   UNL     1      22.020  22.196  46.131  1.00  0.00    -0.550 OA
ATOM      4  O   UNL     1      20.565  21.687  47.826  1.00  0.00    -0.550 OA
ENDBRANCH   1   2
BRANCH   1   5
ATOM      5  C   UNL     1      18.879  23.785  47.023  1.00  0.00     0.006 C 
BRANCH   5   6
ATOM      6  C   UNL     1      17.561  24.252  46.387  1.00  0.00    -0.003 C 
ATOM      7  C   UNL     1      17.653  24.384  44.868  1.00  0.00     0.004 C 
ENDBRANCH   5   6
ENDBRANCH   1   5
TORSDOF 3
ENDMDL
MODEL 5
REMARK VINA RESULT:    -2.410     23.021     24.040
REMARK INTER + INTRA:          -2.858
REMARK INTER:                  -2.752
REMARK INTRA:                  -0.106
REMARK UNBOUND:                -0.026
REMARK SMILES CCCCC(=O)[O-]
REMARK SMILES IDX 4 1 5 2 6 3 7 4 3 5 2 6 1 7
REMARK H PARENT
REMARK Flexibility Score: inf
ROOT
ATOM      1  C   UNL     1      19.813  22.778  47.888  1.00  0.00     0.053 C 
ENDROOT
BRANCH   1   2
ATOM      2  C   UNL     1      20.497  22.632  46.565  1.00  0.00     0.041 C 
ATOM      3  O   UNL     1      19.973  23.110  45.525  1.00  0.00    -0.550 OA
ATOM      4  O   UNL     1      21.689  21.924  46.473  1.00  0.00    -0.550 OA
ENDBRANCH   1   2
BRANCH   1   5
ATOM      5  C   UNL     1      19.168  24.166  48.006  1.00  0.00     0.006 C 
BRANCH   5   6
ATOM      6  C   UNL     1      17.635  24.099  48.080  1.00  0.00    -0.003 C 
ATOM      7  C   UNL     1      16.963  24.508  46.770  1.00  0.00     0.004 C 
ENDBRANCH   5   6
ENDBRANCH   1   5
TORSDOF 3
ENDMDL
MODEL 6
REMARK VINA RESULT:    -2.366     23.128     23.992
REMARK INTER + INTRA:          -2.807
REMARK INTER:                  -2.762
REMARK INTRA:                  -0.045
REMARK UNBOUND:                -0.026
REMARK SMILES CCCCC(=O)[O-]
REMARK SMILES IDX 4 1 5 2 6 3 7 4 3 5 2 6 1 7
REMARK H PARENT
REMARK Flexibility Score: inf
ROOT
ATOM      1  C   UNL     1      19.055  24.301  46.833  1.00  0.00     0.053 C 
ENDROOT
BRANCH   1   2
ATOM      2  C   UNL     1      17.559  24.342  46.846  1.00  0.00     0.041 C 
ATOM      3  O   UNL     1      16.915  24.307  45.764  1.00  0.00    -0.550 OA
ATOM      4  O   UNL     1      16.877  24.469  48.050  1.00  0.00    -0.550 OA
ENDBRANCH   1   2
BRANCH   1   5
ATOM      5  C   UNL     1      19.553  23.287  45.794  1.00  0.00     0.006 C 
BRANCH   5   6
ATOM      6  C   UNL     1      20.818  22.547  46.253  1.00  0.00    -0.003 C 
ATOM      7  C   UNL     1      20.703  22.009  47.678  1.00  0.00     0.004 C 
ENDBRANCH   5   6
ENDBRANCH   1   5
TORSDOF 3
ENDMDL
MODEL 7
REMARK VINA RESULT:    -2.233     19.575     20.613
REMARK INTER + INTRA:          -2.650
REMARK INTER:                  -2.716
REMARK INTRA:                   0.066
REMARK UNBOUND:                -0.026
REMARK SMILES CCCCC(=O)[O-]
REMARK SMILES IDX 4 1 5 2 6 3 7 4 3 5 2 6 1 7
REMARK H PARENT
REMARK Flexibility Score: inf
ROOT
ATOM      1  C   UNL     1      30.380  24.036  31.749  1.00  0.00     0.053 C 
ENDROOT
BRANCH   1   2
ATOM      2  C   UNL     1      30.858  24.379  30.373  1.00  0.00     0.041 C 
ATOM      3  O   UNL     1      30.033  24.526  29.434  1.00  0.00    -0.550 OA
ATOM      4  O   UNL     1      32.220  24.488  30.117  1.00  0.00    -0.550 OA
ENDBRANCH   1   2
BRANCH   1   5
ATOM      5  C   UNL     1      30.797  25.125  32.747  1.00  0.00     0.006 C 
BRANCH   5   6
ATOM      6  C   UNL     1      32.189  24.874  33.345  1.00  0.00    -0.003 C 
ATOM      7  C   UNL     1      32.217  25.036  34.864  1.00  0.00     0.004 C 
ENDBRANCH   5   6
ENDBRANCH   1   5
TORSDOF 3
ENDMDL
MODEL 8
REMARK VINA RESULT:    -2.166     20.052     21.167
REMARK INTER + INTRA:          -2.572
REMARK INTER:                  -2.548
REMARK INTRA:                  -0.024
REMARK UNBOUND:                -0.026
REMARK SMILES CCCCC(=O)[O-]
REMARK SMILES IDX 4 1 5 2 6 3 7 4 3 5 2 6 1 7
REMARK H PARENT
REMARK Flexibility Score: inf
ROOT
ATOM      1  C   UNL     1      31.123  25.123  33.311  1.00  0.00     0.053 C 
ENDROOT
BRANCH   1   2
ATOM      2  C   UNL     1      30.081  24.849  32.272  1.00  0.00     0.041 C 
ATOM      3  O   UNL     1      30.416  24.425  31.135  1.00  0.00    -0.550 OA
ATOM      4  O   UNL     1      28.743  25.109  32.544  1.00  0.00    -0.550 OA
ENDBRANCH   1   2
BRANCH   1   5
ATOM      5  C   UNL     1      32.521  25.125  32.679  1.00  0.00     0.006 C 
BRANCH   5   6
ATOM      6  C   UNL     1      33.640  24.979  33.722  1.00  0.00    -0.003 C 
ATOM      7  C   UNL     1      35.030  24.909  33.091  1.00  0.00     0.004 C 
ENDBRANCH   5   6
ENDBRANCH   1   5
TORSDOF 3
ENDMDL
MODEL 9
REMARK VINA RESULT:    -2.141     18.778     19.589
REMARK INTER + INTRA:          -2.543
REMARK INTER:                  -2.438
REMARK INTRA:                  -0.105
REMARK UNBOUND:                -0.026
REMARK SMILES CCCCC(=O)[O-]
REMARK SMILES IDX 4 1 5 2 6 3 7 4 3 5 2 6 1 7
REMARK H PARENT
REMARK Flexibility Score: inf
ROOT
ATOM      1  C   UNL     1      31.350  23.994  29.533  1.00  0.00     0.053 C 
ENDROOT
BRANCH   1   2
ATOM      2  C   UNL     1      30.123  23.925  28.679  1.00  0.00     0.041 C 
ATOM      3  O   UNL     1      29.270  24.851  28.719  1.00  0.00    -0.550 OA
ATOM      4  O   UNL     1      29.896  22.815  27.875  1.00  0.00    -0.550 OA
ENDBRANCH   1   2
BRANCH   1   5
ATOM      5  C   UNL     1      31.182  25.059  30.626  1.00  0.00     0.006 C 
BRANCH   5   6
ATOM      6  C   UNL     1      30.665  24.472  31.947  1.00  0.00    -0.003 C 
ATOM      7  C   UNL     1      29.359  25.116  32.409  1.00  0.00     0.004 C 
ENDBRANCH   5   6
ENDBRANCH   1   5
TORSDOF 3
ENDMDL
