MODEL 1
REMARK VINA RESULT:    -5.181      0.000      0.000
REMARK INTER + INTRA:          -5.656
REMARK INTER:                  -5.484
REMARK INTRA:                  -0.172
REMARK UNBOUND:                -0.172
REMARK SMILES CC1=CC=C(C(C)C)CC1
REMARK SMILES IDX 1 1 2 2 3 3 4 4 5 5 9 6 10 7 6 8 7 9 8 10
REMARK H PARENT
REMARK Flexibility Score: inf
ROOT
ATOM      1  C   UNL     1       9.367  10.125  29.998  1.00  0.00     0.039 C 
ATOM      2  C   UNL     1       9.433   8.635  29.827  1.00  0.00    -0.073 C 
ATOM      3  C   UNL     1       9.322   7.834  30.898  1.00  0.00    -0.001 C 
ATOM      4  C   UNL     1       9.381   6.367  30.753  1.00  0.00    -0.001 C 
ATOM      5  C   UNL     1       9.310   5.788  29.540  1.00  0.00    -0.067 C 
ATOM      6  C   UNL     1       9.050   6.659  28.325  1.00  0.00     0.035 C 
ATOM      7  C   UNL     1       9.719   8.034  28.470  1.00  0.00     0.035 C 
ENDROOT
BRANCH   5   8
ATOM      8  C   UNL     1       9.440   4.282  29.404  1.00  0.00     0.009 C 
ATOM      9  C   UNL     1       9.739   3.878  27.956  1.00  0.00     0.012 C 
ATOM     10  C   UNL     1      10.509   3.739  30.359  1.00  0.00     0.012 C 
ENDBRANCH   5   8
TORSDOF 1
ENDMDL
MODEL 2
REMARK VINA RESULT:    -4.759      0.279      1.583
REMARK INTER + INTRA:          -5.209
REMARK INTER:                  -5.068
REMARK INTRA:                  -0.141
REMARK UNBOUND:                -0.172
REMARK SMILES CC1=CC=C(C(C)C)CC1
REMARK SMILES IDX 1 1 2 2 3 3 4 4 5 5 9 6 10 7 6 8 7 9 8 10
REMARK H PARENT
REMARK Flexibility Score: inf
ROOT
ATOM      1  C   UNL     1       9.378  10.069  29.798  1.00  0.00     0.039 C 
ATOM      2  C   UNL     1       9.362   8.571  29.700  1.00  0.00    -0.073 C 
ATOM      3  C   UNL     1       9.569   7.976  28.515  1.00  0.00    -0.001 C 
ATOM      4  C   UNL     1       9.560   6.506  28.396  1.00  0.00    -0.001 C 
ATOM      5  C   UNL     1       9.582   5.723  29.491  1.00  0.00    -0.067 C 
ATOM      6  C   UNL     1       9.735   6.371  30.854  1.00  0.00     0.035 C 
ATOM      7  C   UNL     1       9.021   7.731  30.909  1.00  0.00     0.035 C 
ENDROOT
BRANCH   5   8
ATOM      8  C   UNL     1       9.505   4.213  29.351  1.00  0.00     0.009 C 
ATOM      9  C   UNL     1       9.736   3.777  27.901  1.00  0.00     0.012 C 
ATOM     10  C   UNL     1      10.497   3.528  30.298  1.00  0.00     0.012 C 
ENDBRANCH   5   8
TORSDOF 1
ENDMDL
MODEL 3
REMARK VINA RESULT:    -4.581      2.528      3.891
REMARK INTER + INTRA:          -5.021
REMARK INTER:                  -4.849
REMARK INTRA:                  -0.173
REMARK UNBOUND:                -0.172
REMARK SMILES CC1=CC=C(C(C)C)CC1
REMARK SMILES IDX 1 1 2 2 3 3 4 4 5 5 9 6 10 7 6 8 7 9 8 10
REMARK H PARENT
REMARK Flexibility Score: inf
ROOT
ATOM      1  C   UNL     1      13.701   7.239  25.666  1.00  0.00     0.039 C 
ATOM      2  C   UNL     1      12.571   6.928  26.604  1.00  0.00    -0.073 C 
ATOM      3  C   UNL     1      11.586   7.820  26.784  1.00  0.00    -0.001 C 
ATOM      4  C   UNL     1      10.464   7.533  27.698  1.00  0.00    -0.001 C 
ATOM      5  C   UNL     1      10.271   6.295  28.190  1.00  0.00    -0.067 C 
ATOM      6  C   UNL     1      11.156   5.165  27.699  1.00  0.00     0.035 C 
ATOM      7  C   UNL     1      12.585   5.655  27.419  1.00  0.00     0.035 C 
ENDROOT
BRANCH   5   8
ATOM      8  C   UNL     1       9.153   6.033  29.182  1.00  0.00     0.009 C 
ATOM      9  C   UNL     1       9.440   4.787  30.027  1.00  0.00     0.012 C 
ATOM     10  C   UNL     1       8.915   7.259  30.071  1.00  0.00     0.012 C 
ENDBRANCH   5   8
TORSDOF 1
ENDMDL
MODEL 4
REMARK VINA RESULT:    -4.526     14.606     16.010
REMARK INTER + INTRA:          -4.963
REMARK INTER:                  -4.822
REMARK INTRA:                  -0.140
REMARK UNBOUND:                -0.172
REMARK SMILES CC1=CC=C(C(C)C)CC1
REMARK SMILES IDX 1 1 2 2 3 3 4 4 5 5 9 6 10 7 6 8 7 9 8 10
REMARK H PARENT
REMARK Flexibility Score: inf
ROOT
ATOM      1  C   UNL     1       2.630   8.269  15.834  1.00  0.00     0.039 C 
ATOM      2  C   UNL     1       3.985   7.937  15.280  1.00  0.00    -0.073 C 
ATOM      3  C   UNL     1       4.097   7.070  14.263  1.00  0.00    -0.001 C 
ATOM      4  C   UNL     1       5.418   6.732  13.701  1.00  0.00    -0.001 C 
ATOM      5  C   UNL     1       6.512   7.447  14.024  1.00  0.00    -0.067 C 
ATOM      6  C   UNL     1       6.350   8.684  14.887  1.00  0.00     0.035 C 
ATOM      7  C   UNL     1       5.231   8.500  15.924  1.00  0.00     0.035 C 
ENDROOT
BRANCH   5   8
ATOM      8  C   UNL     1       7.874   7.043  13.490  1.00  0.00     0.009 C 
ATOM      9  C   UNL     1       7.865   5.598  12.981  1.00  0.00     0.012 C 
ATOM     10  C   UNL     1       8.339   8.011  12.396  1.00  0.00     0.012 C 
ENDBRANCH   5   8
TORSDOF 1
ENDMDL
MODEL 5
REMARK VINA RESULT:    -4.510     15.008     16.019
REMARK INTER + INTRA:          -4.945
REMARK INTER:                  -4.777
REMARK INTRA:                  -0.169
REMARK UNBOUND:                -0.172
REMARK SMILES CC1=CC=C(C(C)C)CC1
REMARK SMILES IDX 1 1 2 2 3 3 4 4 5 5 9 6 10 7 6 8 7 9 8 10
REMARK H PARENT
REMARK Flexibility Score: inf
ROOT
ATOM      1  C   UNL     1       2.992   8.463  16.126  1.00  0.00     0.039 C 
ATOM      2  C   UNL     1       4.247   8.204  15.344  1.00  0.00    -0.073 C 
ATOM      3  C   UNL     1       5.328   8.973  15.539  1.00  0.00    -0.001 C 
ATOM      4  C   UNL     1       6.572   8.734  14.784  1.00  0.00    -0.001 C 
ATOM      5  C   UNL     1       6.738   7.611  14.061  1.00  0.00    -0.067 C 
ATOM      6  C   UNL     1       5.673   6.532  14.126  1.00  0.00     0.035 C 
ATOM      7  C   UNL     1       4.270   7.141  14.269  1.00  0.00     0.035 C 
ENDROOT
BRANCH   5   8
ATOM      8  C   UNL     1       7.997   7.412  13.236  1.00  0.00     0.009 C 
ATOM      9  C   UNL     1       7.902   6.149  12.373  1.00  0.00     0.012 C 
ATOM     10  C   UNL     1       8.284   8.648  12.375  1.00  0.00     0.012 C 
ENDBRANCH   5   8
TORSDOF 1
ENDMDL
MODEL 6
REMARK VINA RESULT:    -4.401      2.635      3.826
REMARK INTER + INTRA:          -4.830
REMARK INTER:                  -4.690
REMARK INTRA:                  -0.140
REMARK UNBOUND:                -0.172
REMARK SMILES CC1=CC=C(C(C)C)CC1
REMARK SMILES IDX 1 1 2 2 3 3 4 4 5 5 9 6 10 7 6 8 7 9 8 10
REMARK H PARENT
REMARK Flexibility Score: inf
ROOT
ATOM      1  C   UNL     1      13.681   7.619  25.459  1.00  0.00     0.039 C 
ATOM      2  C   UNL     1      12.521   7.214  26.321  1.00  0.00    -0.073 C 
ATOM      3  C   UNL     1      12.560   6.053  26.993  1.00  0.00    -0.001 C 
ATOM      4  C   UNL     1      11.432   5.637  27.848  1.00  0.00    -0.001 C 
ATOM      5  C   UNL     1      10.448   6.499  28.165  1.00  0.00    -0.067 C 
ATOM      6  C   UNL     1      10.572   7.946  27.727  1.00  0.00     0.035 C 
ATOM      7  C   UNL     1      11.269   8.059  26.362  1.00  0.00     0.035 C 
ENDROOT
BRANCH   5   8
ATOM      8  C   UNL     1       9.262   6.035  28.990  1.00  0.00     0.009 C 
ATOM      9  C   UNL     1       9.508   4.644  29.584  1.00  0.00     0.012 C 
ATOM     10  C   UNL     1       8.929   7.052  30.087  1.00  0.00     0.012 C 
ENDBRANCH   5   8
TORSDOF 1
ENDMDL
MODEL 7
REMARK VINA RESULT:    -4.365     14.620     16.236
REMARK INTER + INTRA:          -4.792
REMARK INTER:                  -4.647
REMARK INTRA:                  -0.145
REMARK UNBOUND:                -0.172
REMARK SMILES CC1=CC=C(C(C)C)CC1
REMARK SMILES IDX 1 1 2 2 3 3 4 4 5 5 9 6 10 7 6 8 7 9 8 10
REMARK H PARENT
REMARK Flexibility Score: inf
ROOT
ATOM      1  C   UNL     1       6.755   5.568  10.875  1.00  0.00     0.039 C 
ATOM      2  C   UNL     1       6.744   6.333  12.167  1.00  0.00    -0.073 C 
ATOM      3  C   UNL     1       5.625   6.383  12.905  1.00  0.00    -0.001 C 
ATOM      4  C   UNL     1       5.593   7.127  14.178  1.00  0.00    -0.001 C 
ATOM      5  C   UNL     1       6.728   7.572  14.750  1.00  0.00    -0.067 C 
ATOM      6  C   UNL     1       8.059   7.196  14.125  1.00  0.00     0.035 C 
ATOM      7  C   UNL     1       7.958   7.127  12.594  1.00  0.00     0.035 C 
ENDROOT
BRANCH   5   8
ATOM      8  C   UNL     1       6.671   8.393  16.025  1.00  0.00     0.009 C 
ATOM      9  C   UNL     1       5.678   9.553  15.894  1.00  0.00     0.012 C 
ATOM     10  C   UNL     1       6.328   7.507  17.228  1.00  0.00     0.012 C 
ENDBRANCH   5   8
TORSDOF 1
ENDMDL
MODEL 8
REMARK VINA RESULT:    -4.270      2.257      4.199
REMARK INTER + INTRA:          -4.691
REMARK INTER:                  -4.526
REMARK INTRA:                  -0.165
REMARK UNBOUND:                -0.172
REMARK SMILES CC1=CC=C(C(C)C)CC1
REMARK SMILES IDX 1 1 2 2 3 3 4 4 5 5 9 6 10 7 6 8 7 9 8 10
REMARK H PARENT
REMARK Flexibility Score: inf
ROOT
ATOM      1  C   UNL     1       9.752   4.601  30.918  1.00  0.00     0.039 C 
ATOM      2  C   UNL     1      10.042   5.385  29.671  1.00  0.00    -0.073 C 
ATOM      3  C   UNL     1      11.112   5.077  28.922  1.00  0.00    -0.001 C 
ATOM      4  C   UNL     1      11.414   5.832  27.691  1.00  0.00    -0.001 C 
ATOM      5  C   UNL     1      10.515   6.681  27.160  1.00  0.00    -0.067 C 
ATOM      6  C   UNL     1       9.132   6.766  27.780  1.00  0.00     0.035 C 
ATOM      7  C   UNL     1       9.191   6.579  29.304  1.00  0.00     0.035 C 
ENDROOT
BRANCH   5   8
ATOM      8  C   UNL     1      10.868   7.500  25.932  1.00  0.00     0.009 C 
ATOM      9  C   UNL     1      11.284   8.924  26.314  1.00  0.00     0.012 C 
ATOM     10  C   UNL     1      11.963   6.807  25.112  1.00  0.00     0.012 C 
ENDBRANCH   5   8
TORSDOF 1
ENDMDL
MODEL 9
REMARK VINA RESULT:    -4.238     14.685     16.316
REMARK INTER + INTRA:          -4.658
REMARK INTER:                  -4.504
REMARK INTRA:                  -0.154
REMARK UNBOUND:                -0.172
REMARK SMILES CC1=CC=C(C(C)C)CC1
REMARK SMILES IDX 1 1 2 2 3 3 4 4 5 5 9 6 10 7 6 8 7 9 8 10
REMARK H PARENT
REMARK Flexibility Score: inf
ROOT
ATOM      1  C   UNL     1       7.000   5.678  10.875  1.00  0.00     0.039 C 
ATOM      2  C   UNL     1       6.548   6.100  12.243  1.00  0.00    -0.073 C 
ATOM      3  C   UNL     1       5.246   6.322  12.478  1.00  0.00    -0.001 C 
ATOM      4  C   UNL     1       4.780   6.734  13.815  1.00  0.00    -0.001 C 
ATOM      5  C   UNL     1       5.597   6.673  14.883  1.00  0.00    -0.067 C 
ATOM      6  C   UNL     1       6.975   6.060  14.718  1.00  0.00     0.035 C 
ATOM      7  C   UNL     1       7.561   6.369  13.332  1.00  0.00     0.035 C 
ENDROOT
BRANCH   5   8
ATOM      8  C   UNL     1       5.122   7.165  16.238  1.00  0.00     0.009 C 
ATOM      9  C   UNL     1       5.108   8.696  16.300  1.00  0.00     0.012 C 
ATOM     10  C   UNL     1       3.742   6.587  16.575  1.00  0.00     0.012 C 
ENDBRANCH   5   8
TORSDOF 1
ENDMDL
