MODEL 1
REMARK VINA RESULT:    -4.294      0.000      0.000
REMARK INTER + INTRA:          -4.832
REMARK INTER:                  -4.796
REMARK INTRA:                  -0.036
REMARK UNBOUND:                -0.036
REMARK SMILES O=C([O-])c1ccc(O)c(O)c1
REMARK SMILES IDX 4 1 11 2 5 3 9 4 6 5 7 6 2 7 1 8 3 9 10 10 8 12
REMARK H PARENT 10 11 8 13
REMARK Flexibility Score: inf
ROOT
ATOM      1  C   UNL     1       3.952 -15.905  14.967  1.00  0.00     0.001 A 
ATOM      2  C   UNL     1       2.593 -15.617  14.742  1.00  0.00     0.060 A 
ATOM      3  C   UNL     1       4.803 -14.876  15.403  1.00  0.00     0.014 A 
ATOM      4  C   UNL     1       2.093 -14.326  14.949  1.00  0.00     0.158 A 
ATOM      5  C   UNL     1       4.307 -13.586  15.610  1.00  0.00     0.051 A 
ATOM      6  C   UNL     1       2.953 -13.304  15.385  1.00  0.00     0.157 A 
ENDROOT
BRANCH   1   7
ATOM      7  C   UNL     1       4.480 -17.269  14.748  1.00  0.00     0.072 C 
ATOM      8  O   UNL     1       5.033 -17.576  13.658  1.00  0.00    -0.545 OA
ATOM      9  O   UNL     1       4.375 -18.233  15.744  1.00  0.00    -0.545 OA
ENDBRANCH   1   7
BRANCH   4  10
ATOM     10  O   UNL     1       0.741 -14.078  14.716  1.00  0.00    -0.504 OA
ATOM     11  H   UNL     1       0.345 -13.148  14.780  1.00  0.00     0.293 HD
ENDBRANCH   4  10
BRANCH   6  12
ATOM     12  O   UNL     1       2.462 -12.017  15.592  1.00  0.00    -0.504 OA
ATOM     13  H   UNL     1       3.082 -11.221  15.690  1.00  0.00     0.293 HD
ENDBRANCH   6  12
TORSDOF 3
ENDMDL
MODEL 2
REMARK VINA RESULT:    -4.259      1.854      2.932
REMARK INTER + INTRA:          -4.792
REMARK INTER:                  -4.749
REMARK INTRA:                  -0.044
REMARK UNBOUND:                -0.036
REMARK SMILES O=C([O-])c1ccc(O)c(O)c1
REMARK SMILES IDX 4 1 11 2 5 3 9 4 6 5 7 6 2 7 1 8 3 9 10 10 8 12
REMARK H PARENT 10 11 8 13
REMARK Flexibility Score: inf
ROOT
ATOM      1  C   UNL     1       4.927 -14.404  14.791  1.00  0.00     0.001 A 
ATOM      2  C   UNL     1       4.192 -13.249  15.114  1.00  0.00     0.060 A 
ATOM      3  C   UNL     1       4.248 -15.625  14.643  1.00  0.00     0.014 A 
ATOM      4  C   UNL     1       2.804 -13.311  15.285  1.00  0.00     0.158 A 
ATOM      5  C   UNL     1       2.862 -15.690  14.814  1.00  0.00     0.051 A 
ATOM      6  C   UNL     1       2.134 -14.536  15.135  1.00  0.00     0.157 A 
ENDROOT
BRANCH   1   7
ATOM      7  C   UNL     1       6.394 -14.340  14.610  1.00  0.00     0.072 C 
ATOM      8  O   UNL     1       7.043 -13.329  14.990  1.00  0.00    -0.545 OA
ATOM      9  O   UNL     1       7.078 -15.395  14.017  1.00  0.00    -0.545 OA
ENDBRANCH   1   7
BRANCH   4  10
ATOM     10  O   UNL     1       2.109 -12.145  15.604  1.00  0.00    -0.504 OA
ATOM     11  H   UNL     1       2.572 -11.249  15.692  1.00  0.00     0.293 HD
ENDBRANCH   4  10
BRANCH   6  12
ATOM     12  O   UNL     1       0.753 -14.604  15.305  1.00  0.00    -0.504 OA
ATOM     13  H   UNL     1       0.178 -13.770  15.329  1.00  0.00     0.293 HD
ENDBRANCH   6  12
TORSDOF 3
ENDMDL
MODEL 3
REMARK VINA RESULT:    -3.958      1.361      4.411
REMARK INTER + INTRA:          -4.457
REMARK INTER:                  -4.414
REMARK INTRA:                  -0.043
REMARK UNBOUND:                -0.036
REMARK SMILES O=C([O-])c1ccc(O)c(O)c1
REMARK SMILES IDX 4 1 11 2 5 3 9 4 6 5 7 6 2 7 1 8 3 9 10 10 8 12
REMARK H PARENT 10 11 8 13
REMARK Flexibility Score: inf
ROOT
ATOM      1  C   UNL     1       4.052 -15.187  14.750  1.00  0.00     0.001 A 
ATOM      2  C   UNL     1       3.855 -16.532  14.389  1.00  0.00     0.060 A 
ATOM      3  C   UNL     1       5.364 -14.713  14.922  1.00  0.00     0.014 A 
ATOM      4  C   UNL     1       4.946 -17.388  14.201  1.00  0.00     0.158 A 
ATOM      5  C   UNL     1       6.455 -15.566  14.736  1.00  0.00     0.051 A 
ATOM      6  C   UNL     1       6.253 -16.905  14.375  1.00  0.00     0.157 A 
ENDROOT
BRANCH   1   7
ATOM      7  C   UNL     1       2.899 -14.281  14.949  1.00  0.00     0.072 C 
ATOM      8  O   UNL     1       2.996 -13.277  15.704  1.00  0.00    -0.545 OA
ATOM      9  O   UNL     1       1.693 -14.525  14.303  1.00  0.00    -0.545 OA
ENDBRANCH   1   7
BRANCH   4  10
ATOM     10  O   UNL     1       4.711 -18.715  13.842  1.00  0.00    -0.504 OA
ATOM     11  H   UNL     1       5.445 -19.316  13.488  1.00  0.00     0.293 HD
ENDBRANCH   4  10
BRANCH   6  12
ATOM     12  O   UNL     1       7.344 -17.753  14.190  1.00  0.00    -0.504 OA
ATOM     13  H   UNL     1       8.072 -17.840  14.889  1.00  0.00     0.293 HD
ENDBRANCH   6  12
TORSDOF 3
ENDMDL
MODEL 4
REMARK VINA RESULT:    -3.944      1.204      4.460
REMARK INTER + INTRA:          -4.441
REMARK INTER:                  -4.401
REMARK INTRA:                  -0.040
REMARK UNBOUND:                -0.036
REMARK SMILES O=C([O-])c1ccc(O)c(O)c1
REMARK SMILES IDX 4 1 11 2 5 3 9 4 6 5 7 6 2 7 1 8 3 9 10 10 8 12
REMARK H PARENT 10 11 8 13
REMARK Flexibility Score: inf
ROOT
ATOM      1  C   UNL     1       3.248 -15.405  15.554  1.00  0.00     0.001 A 
ATOM      2  C   UNL     1       3.610 -16.117  14.396  1.00  0.00     0.060 A 
ATOM      3  C   UNL     1       3.619 -15.916  16.810  1.00  0.00     0.014 A 
ATOM      4  C   UNL     1       4.328 -17.314  14.488  1.00  0.00     0.158 A 
ATOM      5  C   UNL     1       4.335 -17.112  16.905  1.00  0.00     0.051 A 
ATOM      6  C   UNL     1       4.694 -17.816  15.748  1.00  0.00     0.157 A 
ENDROOT
BRANCH   1   7
ATOM      7  C   UNL     1       2.489 -14.139  15.457  1.00  0.00     0.072 C 
ATOM      8  O   UNL     1       1.502 -14.042  14.681  1.00  0.00    -0.545 OA
ATOM      9  O   UNL     1       2.855 -13.038  16.222  1.00  0.00    -0.545 OA
ENDBRANCH   1   7
BRANCH   4  10
ATOM     10  O   UNL     1       4.670 -17.991  13.317  1.00  0.00    -0.504 OA
ATOM     11  H   UNL     1       5.518 -17.785  12.804  1.00  0.00     0.293 HD
ENDBRANCH   4  10
BRANCH   6  12
ATOM     12  O   UNL     1       5.408 -19.008  15.847  1.00  0.00    -0.504 OA
ATOM     13  H   UNL     1       5.173 -19.713  16.535  1.00  0.00     0.293 HD
ENDBRANCH   6  12
TORSDOF 3
ENDMDL
MODEL 5
REMARK VINA RESULT:    -3.912      2.190      4.114
REMARK INTER + INTRA:          -4.405
REMARK INTER:                  -4.360
REMARK INTRA:                  -0.044
REMARK UNBOUND:                -0.036
REMARK SMILES O=C([O-])c1ccc(O)c(O)c1
REMARK SMILES IDX 4 1 11 2 5 3 9 4 6 5 7 6 2 7 1 8 3 9 10 10 8 12
REMARK H PARENT 10 11 8 13
REMARK Flexibility Score: inf
ROOT
ATOM      1  C   UNL     1       5.034 -13.216  14.323  1.00  0.00     0.001 A 
ATOM      2  C   UNL     1       3.647 -13.404  14.174  1.00  0.00     0.060 A 
ATOM      3  C   UNL     1       5.828 -14.304  14.725  1.00  0.00     0.014 A 
ATOM      4  C   UNL     1       3.065 -14.652  14.419  1.00  0.00     0.158 A 
ATOM      5  C   UNL     1       5.249 -15.551  14.971  1.00  0.00     0.051 A 
ATOM      6  C   UNL     1       3.868 -15.732  14.819  1.00  0.00     0.157 A 
ENDROOT
BRANCH   1   7
ATOM      7  C   UNL     1       5.650 -11.897  14.064  1.00  0.00     0.072 C 
ATOM      8  O   UNL     1       6.876 -11.708  14.285  1.00  0.00    -0.545 OA
ATOM      9  O   UNL     1       4.884 -10.846  13.572  1.00  0.00    -0.545 OA
ENDBRANCH   1   7
BRANCH   4  10
ATOM     10  O   UNL     1       1.687 -14.799  14.259  1.00  0.00    -0.504 OA
ATOM     11  H   UNL     1       1.250 -15.708  14.165  1.00  0.00     0.293 HD
ENDBRANCH   4  10
BRANCH   6  12
ATOM     12  O   UNL     1       3.294 -16.978  15.066  1.00  0.00    -0.504 OA
ATOM     13  H   UNL     1       2.475 -17.296  14.561  1.00  0.00     0.293 HD
ENDBRANCH   6  12
TORSDOF 3
ENDMDL
MODEL 6
REMARK VINA RESULT:    -3.799      2.267      4.203
REMARK INTER + INTRA:          -4.279
REMARK INTER:                  -4.238
REMARK INTRA:                  -0.041
REMARK UNBOUND:                -0.036
REMARK SMILES O=C([O-])c1ccc(O)c(O)c1
REMARK SMILES IDX 4 1 11 2 5 3 9 4 6 5 7 6 2 7 1 8 3 9 10 10 8 12
REMARK H PARENT 10 11 8 13
REMARK Flexibility Score: inf
ROOT
ATOM      1  C   UNL     1       3.091 -14.571  17.233  1.00  0.00     0.001 A 
ATOM      2  C   UNL     1       2.537 -14.297  15.970  1.00  0.00     0.060 A 
ATOM      3  C   UNL     1       3.937 -15.684  17.379  1.00  0.00     0.014 A 
ATOM      4  C   UNL     1       2.821 -15.116  14.872  1.00  0.00     0.158 A 
ATOM      5  C   UNL     1       4.223 -16.504  16.284  1.00  0.00     0.051 A 
ATOM      6  C   UNL     1       3.668 -16.225  15.027  1.00  0.00     0.157 A 
ENDROOT
BRANCH   1   7
ATOM      7  C   UNL     1       2.791 -13.705  18.395  1.00  0.00     0.072 C 
ATOM      8  O   UNL     1       2.680 -14.197  19.549  1.00  0.00    -0.545 OA
ATOM      9  O   UNL     1       2.627 -12.335  18.227  1.00  0.00    -0.545 OA
ENDBRANCH   1   7
BRANCH   4  10
ATOM     10  O   UNL     1       2.254 -14.812  13.635  1.00  0.00    -0.504 OA
ATOM     11  H   UNL     1       2.786 -14.848  12.775  1.00  0.00     0.293 HD
ENDBRANCH   4  10
BRANCH   6  12
ATOM     12  O   UNL     1       3.955 -17.046  13.938  1.00  0.00    -0.504 OA
ATOM     13  H   UNL     1       3.599 -17.992  13.878  1.00  0.00     0.293 HD
ENDBRANCH   6  12
TORSDOF 3
ENDMDL
MODEL 7
REMARK VINA RESULT:    -3.797     13.667     14.362
REMARK INTER + INTRA:          -4.277
REMARK INTER:                  -4.239
REMARK INTRA:                  -0.038
REMARK UNBOUND:                -0.036
REMARK SMILES O=C([O-])c1ccc(O)c(O)c1
REMARK SMILES IDX 4 1 11 2 5 3 9 4 6 5 7 6 2 7 1 8 3 9 10 10 8 12
REMARK H PARENT 10 11 8 13
REMARK Flexibility Score: inf
ROOT
ATOM      1  C   UNL     1       2.973 -23.477   3.917  1.00  0.00     0.001 A 
ATOM      2  C   UNL     1       1.758 -23.453   3.210  1.00  0.00     0.060 A 
ATOM      3  C   UNL     1       3.026 -24.136   5.157  1.00  0.00     0.014 A 
ATOM      4  C   UNL     1       0.617 -24.074   3.729  1.00  0.00     0.158 A 
ATOM      5  C   UNL     1       1.888 -24.757   5.679  1.00  0.00     0.051 A 
ATOM      6  C   UNL     1       0.680 -24.730   4.969  1.00  0.00     0.157 A 
ENDROOT
BRANCH   1   7
ATOM      7  C   UNL     1       4.180 -22.820   3.368  1.00  0.00     0.072 C 
ATOM      8  O   UNL     1       4.175 -21.588   3.104  1.00  0.00    -0.545 OA
ATOM      9  O   UNL     1       5.338 -23.554   3.137  1.00  0.00    -0.545 OA
ENDBRANCH   1   7
BRANCH   4  10
ATOM     10  O   UNL     1      -0.571 -24.030   2.999  1.00  0.00    -0.504 OA
ATOM     11  H   UNL     1      -0.992 -23.157   2.708  1.00  0.00     0.293 HD
ENDBRANCH   4  10
BRANCH   6  12
ATOM     12  O   UNL     1      -0.453 -25.351   5.493  1.00  0.00    -0.504 OA
ATOM     13  H   UNL     1      -1.382 -25.133   5.154  1.00  0.00     0.293 HD
ENDBRANCH   6  12
TORSDOF 3
ENDMDL
MODEL 8
REMARK VINA RESULT:    -3.742     13.134     14.109
REMARK INTER + INTRA:          -4.215
REMARK INTER:                  -4.176
REMARK INTRA:                  -0.039
REMARK UNBOUND:                -0.036
REMARK SMILES O=C([O-])c1ccc(O)c(O)c1
REMARK SMILES IDX 4 1 11 2 5 3 9 4 6 5 7 6 2 7 1 8 3 9 10 10 8 12
REMARK H PARENT 10 11 8 13
REMARK Flexibility Score: inf
ROOT
ATOM      1  C   UNL     1       3.115 -23.387   4.067  1.00  0.00     0.001 A 
ATOM      2  C   UNL     1       3.012 -23.886   5.378  1.00  0.00     0.060 A 
ATOM      3  C   UNL     1       2.040 -23.571   3.182  1.00  0.00     0.014 A 
ATOM      4  C   UNL     1       1.857 -24.555   5.799  1.00  0.00     0.158 A 
ATOM      5  C   UNL     1       0.886 -24.239   3.599  1.00  0.00     0.051 A 
ATOM      6  C   UNL     1       0.787 -24.733   4.907  1.00  0.00     0.157 A 
ENDROOT
BRANCH   1   7
ATOM      7  C   UNL     1       4.336 -22.680   3.622  1.00  0.00     0.072 C 
ATOM      8  O   UNL     1       4.255 -21.559   3.052  1.00  0.00    -0.545 OA
ATOM      9  O   UNL     1       5.591 -23.242   3.827  1.00  0.00    -0.545 OA
ENDBRANCH   1   7
BRANCH   4  10
ATOM     10  O   UNL     1       1.791 -25.035   7.107  1.00  0.00    -0.504 OA
ATOM     11  H   UNL     1       2.324 -25.840   7.413  1.00  0.00     0.293 HD
ENDBRANCH   4  10
BRANCH   6  12
ATOM     12  O   UNL     1      -0.365 -25.400   5.318  1.00  0.00    -0.504 OA
ATOM     13  H   UNL     1      -0.723 -25.309   6.262  1.00  0.00     0.293 HD
ENDBRANCH   6  12
TORSDOF 3
ENDMDL
MODEL 9
REMARK VINA RESULT:    -3.672      1.681      4.728
REMARK INTER + INTRA:          -4.137
REMARK INTER:                  -4.100
REMARK INTRA:                  -0.036
REMARK UNBOUND:                -0.036
REMARK SMILES O=C([O-])c1ccc(O)c(O)c1
REMARK SMILES IDX 4 1 11 2 5 3 9 4 6 5 7 6 2 7 1 8 3 9 10 10 8 12
REMARK H PARENT 10 11 8 13
REMARK Flexibility Score: inf
ROOT
ATOM      1  C   UNL     1       4.273 -13.549  14.728  1.00  0.00     0.001 A 
ATOM      2  C   UNL     1       5.428 -14.347  14.821  1.00  0.00     0.060 A 
ATOM      3  C   UNL     1       3.015 -14.174  14.691  1.00  0.00     0.014 A 
ATOM      4  C   UNL     1       5.330 -15.741  14.876  1.00  0.00     0.158 A 
ATOM      5  C   UNL     1       2.914 -15.566  14.746  1.00  0.00     0.051 A 
ATOM      6  C   UNL     1       4.068 -16.356  14.839  1.00  0.00     0.157 A 
ENDROOT
BRANCH   1   7
ATOM      7  C   UNL     1       4.376 -12.074  14.670  1.00  0.00     0.072 C 
ATOM      8  O   UNL     1       4.032 -11.368  15.655  1.00  0.00    -0.545 OA
ATOM      9  O   UNL     1       4.855 -11.446  13.526  1.00  0.00    -0.545 OA
ENDBRANCH   1   7
BRANCH   4  10
ATOM     10  O   UNL     1       6.497 -16.499  14.969  1.00  0.00    -0.504 OA
ATOM     11  H   UNL     1       6.515 -17.489  14.756  1.00  0.00     0.293 HD
ENDBRANCH   4  10
BRANCH   6  12
ATOM     12  O   UNL     1       3.963 -17.745  14.893  1.00  0.00    -0.504 OA
ATOM     13  H   UNL     1       4.582 -18.345  14.361  1.00  0.00     0.293 HD
ENDBRANCH   6  12
TORSDOF 3
ENDMDL
