MODEL 1
REMARK VINA RESULT:    -3.995      0.000      0.000
REMARK INTER + INTRA:          -7.052
REMARK INTER:                  -6.097
REMARK INTRA:                  -0.955
REMARK UNBOUND:                -0.955
REMARK SMILES CCCCCCCCCC=CC(=O)[O-]
REMARK SMILES IDX 7 1 8 2 9 3 10 4 11 5 12 6 13 7 14 8 6 9 5 10 4 11 3 12 2 13
REMARK SMILES IDX 1 14
REMARK H PARENT
REMARK Flexibility Score: inf
ROOT
ATOM      1  C   UNL     1       2.215   4.863   7.697  1.00  0.00     0.000 C 
ENDROOT
BRANCH   1   2
ATOM      2  C   UNL     1       2.786   5.508   8.968  1.00  0.00     0.004 C 
BRANCH   2   3
ATOM      3  C   UNL     1       4.142   4.908   9.364  1.00  0.00     0.027 C 
BRANCH   3   4
ATOM      4  C   UNL     1       5.218   5.280   8.382  1.00  0.00    -0.025 C 
ATOM      5  C   UNL     1       6.429   4.714   8.423  1.00  0.00     0.020 C 
BRANCH   5   6
ATOM      6  C   UNL     1       7.476   5.044   7.447  1.00  0.00     0.064 C 
ATOM      7  O   UNL     1       7.383   6.098   6.765  1.00  0.00    -0.545 OA
ATOM      8  O   UNL     1       8.573   4.209   7.263  1.00  0.00    -0.545 OA
ENDBRANCH   5   6
ENDBRANCH   3   4
ENDBRANCH   2   3
ENDBRANCH   1   2
BRANCH   1   9
ATOM      9  C   UNL     1       0.989   3.998   8.024  1.00  0.00     0.000 C 
BRANCH   9  10
ATOM     10  C   UNL     1       1.280   2.493   7.916  1.00  0.00     0.000 C 
BRANCH  10  11
ATOM     11  C   UNL     1       2.384   2.172   6.893  1.00  0.00    -0.000 C 
BRANCH  11  12
ATOM     12  C   UNL     1       1.812   1.916   5.482  1.00  0.00    -0.000 C 
BRANCH  12  13
ATOM     13  C   UNL     1       2.704   2.455   4.350  1.00  0.00    -0.003 C 
ATOM     14  C   UNL     1       3.946   3.182   4.863  1.00  0.00     0.004 C 
ENDBRANCH  12  13
ENDBRANCH  11  12
ENDBRANCH  10  11
ENDBRANCH   9  10
ENDBRANCH   1   9
TORSDOF 9
ENDMDL
MODEL 2
REMARK VINA RESULT:    -3.985      1.758      3.352
REMARK INTER + INTRA:          -7.036
REMARK INTER:                  -5.687
REMARK INTRA:                  -1.349
REMARK UNBOUND:                -0.955
REMARK SMILES CCCCCCCCCC=CC(=O)[O-]
REMARK SMILES IDX 7 1 8 2 9 3 10 4 11 5 12 6 13 7 14 8 6 9 5 10 4 11 3 12 2 13
REMARK SMILES IDX 1 14
REMARK H PARENT
REMARK Flexibility Score: inf
ROOT
ATOM      1  C   UNL     1       2.807   3.961   7.347  1.00  0.00     0.000 C 
ENDROOT
BRANCH   1   2
ATOM      2  C   UNL     1       2.626   5.331   8.017  1.00  0.00     0.004 C 
BRANCH   2   3
ATOM      3  C   UNL     1       3.758   5.648   9.003  1.00  0.00     0.027 C 
BRANCH   3   4
ATOM      4  C   UNL     1       4.993   4.845   8.702  1.00  0.00    -0.025 C 
ATOM      5  C   UNL     1       6.152   5.434   8.390  1.00  0.00     0.020 C 
BRANCH   5   6
ATOM      6  C   UNL     1       7.375   4.661   8.130  1.00  0.00     0.064 C 
ATOM      7  O   UNL     1       7.686   4.369   6.946  1.00  0.00    -0.545 OA
ATOM      8  O   UNL     1       8.196   4.246   9.172  1.00  0.00    -0.545 OA
ENDBRANCH   5   6
ENDBRANCH   3   4
ENDBRANCH   2   3
ENDBRANCH   1   2
BRANCH   1   9
ATOM      9  C   UNL     1       1.537   3.110   7.487  1.00  0.00     0.000 C 
BRANCH   9  10
ATOM     10  C   UNL     1       0.521   3.716   8.467  1.00  0.00     0.000 C 
BRANCH  10  11
ATOM     11  C   UNL     1       0.497   2.988   9.823  1.00  0.00    -0.000 C 
BRANCH  11  12
ATOM     12  C   UNL     1       0.808   3.938  10.999  1.00  0.00    -0.000 C 
BRANCH  12  13
ATOM     13  C   UNL     1       2.211   3.739  11.596  1.00  0.00    -0.003 C 
ATOM     14  C   UNL     1       2.944   2.533  11.010  1.00  0.00     0.004 C 
ENDBRANCH  12  13
ENDBRANCH  11  12
ENDBRANCH  10  11
ENDBRANCH   9  10
ENDBRANCH   1   9
TORSDOF 9
ENDMDL
MODEL 3
REMARK VINA RESULT:    -3.984     11.396     13.818
REMARK INTER + INTRA:          -7.035
REMARK INTER:                  -6.184
REMARK INTRA:                  -0.851
REMARK UNBOUND:                -0.955
REMARK SMILES CCCCCCCCCC=CC(=O)[O-]
REMARK SMILES IDX 7 1 8 2 9 3 10 4 11 5 12 6 13 7 14 8 6 9 5 10 4 11 3 12 2 13
REMARK SMILES IDX 1 14
REMARK H PARENT
REMARK Flexibility Score: inf
ROOT
ATOM      1  C   UNL     1      -5.081  -3.238   9.122  1.00  0.00     0.000 C 
ENDROOT
BRANCH   1   2
ATOM      2  C   UNL     1      -6.574  -3.516   8.896  1.00  0.00     0.004 C 
BRANCH   2   3
ATOM      3  C   UNL     1      -6.871  -5.016   8.764  1.00  0.00     0.027 C 
BRANCH   3   4
ATOM      4  C   UNL     1      -7.521  -5.335   7.446  1.00  0.00    -0.025 C 
ATOM      5  C   UNL     1      -7.420  -4.512   6.398  1.00  0.00     0.020 C 
BRANCH   5   6
ATOM      6  C   UNL     1      -8.020  -4.831   5.095  1.00  0.00     0.064 C 
ATOM      7  O   UNL     1      -8.319  -6.023   4.822  1.00  0.00    -0.545 OA
ATOM      8  O   UNL     1      -8.265  -3.836   4.155  1.00  0.00    -0.545 OA
ENDBRANCH   5   6
ENDBRANCH   3   4
ENDBRANCH   2   3
ENDBRANCH   1   2
BRANCH   1   9
ATOM      9  C   UNL     1      -4.295  -4.547   9.276  1.00  0.00     0.000 C 
BRANCH   9  10
ATOM     10  C   UNL     1      -3.251  -4.747   8.166  1.00  0.00     0.000 C 
BRANCH  10  11
ATOM     11  C   UNL     1      -1.813  -4.820   8.709  1.00  0.00    -0.000 C 
BRANCH  11  12
ATOM     12  C   UNL     1      -1.333  -3.465   9.272  1.00  0.00    -0.000 C 
BRANCH  12  13
ATOM     13  C   UNL     1      -1.028  -3.499  10.779  1.00  0.00    -0.003 C 
ATOM     14  C   UNL     1      -2.114  -2.835  11.624  1.00  0.00     0.004 C 
ENDBRANCH  12  13
ENDBRANCH  11  12
ENDBRANCH  10  11
ENDBRANCH   9  10
ENDBRANCH   1   9
TORSDOF 9
ENDMDL
MODEL 4
REMARK VINA RESULT:    -3.981      3.257      4.696
REMARK INTER + INTRA:          -7.031
REMARK INTER:                  -5.620
REMARK INTRA:                  -1.411
REMARK UNBOUND:                -0.955
REMARK SMILES CCCCCCCCCC=CC(=O)[O-]
REMARK SMILES IDX 7 1 8 2 9 3 10 4 11 5 12 6 13 7 14 8 6 9 5 10 4 11 3 12 2 13
REMARK SMILES IDX 1 14
REMARK H PARENT
REMARK Flexibility Score: inf
ROOT
ATOM      1  C   UNL     1       3.104   5.224   7.674  1.00  0.00     0.000 C 
ENDROOT
BRANCH   1   2
ATOM      2  C   UNL     1       4.096   5.527   8.806  1.00  0.00     0.004 C 
BRANCH   2   3
ATOM      3  C   UNL     1       5.270   4.540   8.829  1.00  0.00     0.027 C 
BRANCH   3   4
ATOM      4  C   UNL     1       4.822   3.141   8.506  1.00  0.00    -0.025 C 
ATOM      5  C   UNL     1       4.828   2.174   9.429  1.00  0.00     0.020 C 
BRANCH   5   6
ATOM      6  C   UNL     1       4.357   0.813   9.134  1.00  0.00     0.064 C 
ATOM      7  O   UNL     1       3.321   0.649   8.439  1.00  0.00    -0.545 OA
ATOM      8  O   UNL     1       5.040  -0.300   9.613  1.00  0.00    -0.545 OA
ENDBRANCH   5   6
ENDBRANCH   3   4
ENDBRANCH   2   3
ENDBRANCH   1   2
BRANCH   1   9
ATOM      9  C   UNL     1       1.680   5.057   8.222  1.00  0.00     0.000 C 
BRANCH   9  10
ATOM     10  C   UNL     1       1.216   3.592   8.234  1.00  0.00     0.000 C 
BRANCH  10  11
ATOM     11  C   UNL     1       0.840   3.099   9.643  1.00  0.00    -0.000 C 
BRANCH  11  12
ATOM     12  C   UNL     1       1.219   4.120  10.737  1.00  0.00    -0.000 C 
BRANCH  12  13
ATOM     13  C   UNL     1       2.408   3.677  11.606  1.00  0.00    -0.003 C 
ATOM     14  C   UNL     1       2.270   4.101  13.067  1.00  0.00     0.004 C 
ENDBRANCH  12  13
ENDBRANCH  11  12
ENDBRANCH  10  11
ENDBRANCH   9  10
ENDBRANCH   1   9
TORSDOF 9
ENDMDL
MODEL 5
REMARK VINA RESULT:    -3.962     12.171     14.219
REMARK INTER + INTRA:          -7.002
REMARK INTER:                  -5.353
REMARK INTRA:                  -1.649
REMARK UNBOUND:                -0.955
REMARK SMILES CCCCCCCCCC=CC(=O)[O-]
REMARK SMILES IDX 7 1 8 2 9 3 10 4 11 5 12 6 13 7 14 8 6 9 5 10 4 11 3 12 2 13
REMARK SMILES IDX 1 14
REMARK H PARENT
REMARK Flexibility Score: inf
ROOT
ATOM      1  C   UNL     1      -4.037  -2.839   7.214  1.00  0.00     0.000 C 
ENDROOT
BRANCH   1   2
ATOM      2  C   UNL     1      -5.209  -1.848   7.179  1.00  0.00     0.004 C 
BRANCH   2   3
ATOM      3  C   UNL     1      -5.840  -1.746   5.784  1.00  0.00     0.027 C 
BRANCH   3   4
ATOM      4  C   UNL     1      -7.040  -2.642   5.654  1.00  0.00    -0.025 C 
ATOM      5  C   UNL     1      -6.956  -3.847   5.082  1.00  0.00     0.020 C 
BRANCH   5   6
ATOM      6  C   UNL     1      -8.114  -4.746   4.982  1.00  0.00     0.064 C 
ATOM      7  O   UNL     1      -8.021  -5.930   5.400  1.00  0.00    -0.545 OA
ATOM      8  O   UNL     1      -9.314  -4.310   4.432  1.00  0.00    -0.545 OA
ENDBRANCH   5   6
ENDBRANCH   3   4
ENDBRANCH   2   3
ENDBRANCH   1   2
BRANCH   1   9
ATOM      9  C   UNL     1      -4.422  -4.118   7.970  1.00  0.00     0.000 C 
BRANCH   9  10
ATOM     10  C   UNL     1      -5.584  -3.900   8.953  1.00  0.00     0.000 C 
BRANCH  10  11
ATOM     11  C   UNL     1      -6.752  -4.874   8.717  1.00  0.00    -0.000 C 
BRANCH  11  12
ATOM     12  C   UNL     1      -8.113  -4.148   8.658  1.00  0.00    -0.000 C 
BRANCH  12  13
ATOM     13  C   UNL     1      -8.161  -2.863   9.503  1.00  0.00    -0.003 C 
ATOM     14  C   UNL     1      -8.809  -1.690   8.770  1.00  0.00     0.004 C 
ENDBRANCH  12  13
ENDBRANCH  11  12
ENDBRANCH  10  11
ENDBRANCH   9  10
ENDBRANCH   1   9
TORSDOF 9
ENDMDL
MODEL 6
REMARK VINA RESULT:    -3.957      1.209      2.386
REMARK INTER + INTRA:          -6.994
REMARK INTER:                  -5.742
REMARK INTRA:                  -1.252
REMARK UNBOUND:                -0.955
REMARK SMILES CCCCCCCCCC=CC(=O)[O-]
REMARK SMILES IDX 7 1 8 2 9 3 10 4 11 5 12 6 13 7 14 8 6 9 5 10 4 11 3 12 2 13
REMARK SMILES IDX 1 14
REMARK H PARENT
REMARK Flexibility Score: inf
ROOT
ATOM      1  C   UNL     1       2.242   4.910   7.639  1.00  0.00     0.000 C 
ENDROOT
BRANCH   1   2
ATOM      2  C   UNL     1       2.844   5.596   8.873  1.00  0.00     0.004 C 
BRANCH   2   3
ATOM      3  C   UNL     1       4.148   4.928   9.330  1.00  0.00     0.027 C 
BRANCH   3   4
ATOM      4  C   UNL     1       5.167   4.895   8.225  1.00  0.00    -0.025 C 
ATOM      5  C   UNL     1       6.375   5.447   8.371  1.00  0.00     0.020 C 
BRANCH   5   6
ATOM      6  C   UNL     1       7.392   5.389   7.311  1.00  0.00     0.064 C 
ATOM      7  O   UNL     1       8.215   4.436   7.290  1.00  0.00    -0.545 OA
ATOM      8  O   UNL     1       7.462   6.371   6.329  1.00  0.00    -0.545 OA
ENDBRANCH   5   6
ENDBRANCH   3   4
ENDBRANCH   2   3
ENDBRANCH   1   2
BRANCH   1   9
ATOM      9  C   UNL     1       1.095   3.971   8.037  1.00  0.00     0.000 C 
BRANCH   9  10
ATOM     10  C   UNL     1       1.210   2.584   7.384  1.00  0.00     0.000 C 
BRANCH  10  11
ATOM     11  C   UNL     1       2.628   2.288   6.864  1.00  0.00    -0.000 C 
BRANCH  11  12
ATOM     12  C   UNL     1       3.488   1.546   7.909  1.00  0.00    -0.000 C 
BRANCH  12  13
ATOM     13  C   UNL     1       2.671   0.951   9.068  1.00  0.00    -0.003 C 
ATOM     14  C   UNL     1       3.069   1.516  10.431  1.00  0.00     0.004 C 
ENDBRANCH  12  13
ENDBRANCH  11  12
ENDBRANCH  10  11
ENDBRANCH   9  10
ENDBRANCH   1   9
TORSDOF 9
ENDMDL
MODEL 7
REMARK VINA RESULT:    -3.945      9.854     11.684
REMARK INTER + INTRA:          -6.976
REMARK INTER:                  -5.331
REMARK INTRA:                  -1.645
REMARK UNBOUND:                -0.955
REMARK SMILES CCCCCCCCCC=CC(=O)[O-]
REMARK SMILES IDX 7 1 8 2 9 3 10 4 11 5 12 6 13 7 14 8 6 9 5 10 4 11 3 12 2 13
REMARK SMILES IDX 1 14
REMARK H PARENT
REMARK Flexibility Score: inf
ROOT
ATOM      1  C   UNL     1      -1.439  -3.267  10.414  1.00  0.00     0.000 C 
ENDROOT
BRANCH   1   2
ATOM      2  C   UNL     1      -1.288  -3.878   9.014  1.00  0.00     0.004 C 
BRANCH   2   3
ATOM      3  C   UNL     1      -2.187  -5.106   8.817  1.00  0.00     0.027 C 
BRANCH   3   4
ATOM      4  C   UNL     1      -3.556  -4.717   8.333  1.00  0.00    -0.025 C 
ATOM      5  C   UNL     1      -4.649  -4.945   9.067  1.00  0.00     0.020 C 
BRANCH   5   6
ATOM      6  C   UNL     1      -5.988  -4.536   8.620  1.00  0.00     0.064 C 
ATOM      7  O   UNL     1      -6.592  -3.613   9.226  1.00  0.00    -0.545 OA
ATOM      8  O   UNL     1      -6.601  -5.153   7.535  1.00  0.00    -0.545 OA
ENDBRANCH   5   6
ENDBRANCH   3   4
ENDBRANCH   2   3
ENDBRANCH   1   2
BRANCH   1   9
ATOM      9  C   UNL     1      -1.874  -1.797  10.328  1.00  0.00     0.000 C 
BRANCH   9  10
ATOM     10  C   UNL     1      -3.392  -1.617  10.480  1.00  0.00     0.000 C 
BRANCH  10  11
ATOM     11  C   UNL     1      -4.070  -1.159   9.176  1.00  0.00    -0.000 C 
BRANCH  11  12
ATOM     12  C   UNL     1      -3.054  -0.600   8.158  1.00  0.00    -0.000 C 
BRANCH  12  13
ATOM     13  C   UNL     1      -3.101  -1.306   6.792  1.00  0.00    -0.003 C 
ATOM     14  C   UNL     1      -1.714  -1.553   6.200  1.00  0.00     0.004 C 
ENDBRANCH  12  13
ENDBRANCH  11  12
ENDBRANCH  10  11
ENDBRANCH   9  10
ENDBRANCH   1   9
TORSDOF 9
ENDMDL
MODEL 8
REMARK VINA RESULT:    -3.927     10.633     12.971
REMARK INTER + INTRA:          -6.948
REMARK INTER:                  -5.796
REMARK INTRA:                  -1.152
REMARK UNBOUND:                -0.955
REMARK SMILES CCCCCCCCCC=CC(=O)[O-]
REMARK SMILES IDX 7 1 8 2 9 3 10 4 11 5 12 6 13 7 14 8 6 9 5 10 4 11 3 12 2 13
REMARK SMILES IDX 1 14
REMARK H PARENT
REMARK Flexibility Score: inf
ROOT
ATOM      1  C   UNL     1      -1.796  -4.843   8.749  1.00  0.00     0.000 C 
ENDROOT
BRANCH   1   2
ATOM      2  C   UNL     1      -3.233  -4.878   8.210  1.00  0.00     0.004 C 
BRANCH   2   3
ATOM      3  C   UNL     1      -4.275  -4.894   9.336  1.00  0.00     0.027 C 
BRANCH   3   4
ATOM      4  C   UNL     1      -5.531  -4.171   8.936  1.00  0.00    -0.025 C 
ATOM      5  C   UNL     1      -6.659  -4.832   8.656  1.00  0.00     0.020 C 
BRANCH   5   6
ATOM      6  C   UNL     1      -7.903  -4.134   8.299  1.00  0.00     0.064 C 
ATOM      7  O   UNL     1      -8.153  -3.887   7.090  1.00  0.00    -0.545 OA
ATOM      8  O   UNL     1      -8.811  -3.743   9.276  1.00  0.00    -0.545 OA
ENDBRANCH   5   6
ENDBRANCH   3   4
ENDBRANCH   2   3
ENDBRANCH   1   2
BRANCH   1   9
ATOM      9  C   UNL     1      -1.134  -3.489   8.458  1.00  0.00     0.000 C 
BRANCH   9  10
ATOM     10  C   UNL     1      -0.692  -2.758   9.736  1.00  0.00     0.000 C 
BRANCH  10  11
ATOM     11  C   UNL     1      -1.203  -3.441  11.018  1.00  0.00    -0.000 C 
BRANCH  11  12
ATOM     12  C   UNL     1      -2.436  -2.723  11.607  1.00  0.00    -0.000 C 
BRANCH  12  13
ATOM     13  C   UNL     1      -2.642  -1.302  11.056  1.00  0.00    -0.003 C 
ATOM     14  C   UNL     1      -3.966  -1.135  10.312  1.00  0.00     0.004 C 
ENDBRANCH  12  13
ENDBRANCH  11  12
ENDBRANCH  10  11
ENDBRANCH   9  10
ENDBRANCH   1   9
TORSDOF 9
ENDMDL
