MODEL 1
REMARK VINA RESULT:    -5.834      0.000      0.000
REMARK INTER + INTRA:          -9.520
REMARK INTER:                  -8.222
REMARK INTRA:                  -1.298
REMARK UNBOUND:                -1.298
REMARK SMILES OC[C@H]1O[C@H](O[C@@H]2OC=C[C@@H]3[C@@H](O)[C@@H]4O[C@]4(CO)[C@@H]23)[C@@H](O)[C@H](O)[C@@H]1O
REMARK SMILES IDX 6 1 7 2 10 3 9 4 11 5 8 6 19 7 12 8 16 9 14 10 15 11 13 12
REMARK SMILES IDX 17 14 18 15 5 17 20 18 4 19 22 20 3 21 24 22 21 23 23 25
REMARK SMILES IDX 2 27 1 28 25 30
REMARK H PARENT 13 13 18 16 21 24 23 26 1 29 25 31
REMARK Flexibility Score: inf
ROOT
ATOM      1  O   UNL     1      -0.028  25.909  28.114  1.00  0.00    -0.310 OA
ENDROOT
BRANCH   1   2
ATOM      2  C   UNL     1      -1.393  26.320  28.086  1.00  0.00     0.315 C 
ATOM      3  C   UNL     1      -3.711  27.545  29.333  1.00  0.00     0.018 C 
ATOM      4  C   UNL     1      -2.718  28.320  28.880  1.00  0.00     0.186 C 
ATOM      5  C   UNL     1      -3.634  26.064  29.063  1.00  0.00     0.059 C 
ATOM      6  O   UNL     1      -1.563  27.743  28.302  1.00  0.00    -0.472 OA
ATOM      7  C   UNL     1      -2.188  25.601  29.186  1.00  0.00     0.105 C 
ATOM      8  C   UNL     1      -4.401  25.125  29.990  1.00  0.00     0.154 C 
ATOM      9  C   UNL     1      -2.320  24.079  29.270  1.00  0.00     0.130 C 
ATOM     10  C   UNL     1      -3.682  23.772  29.792  1.00  0.00     0.183 C 
ATOM     11  O   UNL     1      -2.531  23.623  30.590  1.00  0.00    -0.360 OA
BRANCH   8  12
ATOM     12  O   UNL     1      -5.765  25.057  29.651  1.00  0.00    -0.390 OA
ATOM     13  H   UNL     1      -6.194  25.919  29.903  1.00  0.00     0.211 HD
ENDBRANCH   8  12
BRANCH   9  14
ATOM     14  C   UNL     1      -1.615  23.043  28.383  1.00  0.00     0.195 C 
BRANCH  14  15
ATOM     15  O   UNL     1      -0.256  22.959  28.714  1.00  0.00    -0.393 OA
ATOM     16  H   UNL     1       0.015  22.011  28.577  1.00  0.00     0.210 HD
ENDBRANCH  14  15
ENDBRANCH   9  14
ENDBRANCH   1   2
BRANCH   1  17
ATOM     17  C   UNL     1       0.805  26.609  27.188  1.00  0.00     0.286 C 
ATOM     18  C   UNL     1       1.574  25.696  26.195  1.00  0.00     0.202 C 
ATOM     19  O   UNL     1       1.697  27.468  27.883  1.00  0.00    -0.341 OA
ATOM     20  C   UNL     1       2.675  24.918  26.920  1.00  0.00     0.179 C 
ATOM     21  C   UNL     1       2.642  26.755  28.664  1.00  0.00     0.178 C 
ATOM     22  C   UNL     1       3.538  25.853  27.778  1.00  0.00     0.177 C 
BRANCH  18  23
ATOM     23  O   UNL     1       2.147  26.498  25.189  1.00  0.00    -0.385 OA
ATOM     24  H   UNL     1       2.865  27.038  25.624  1.00  0.00     0.211 HD
ENDBRANCH  18  23
BRANCH  20  25
ATOM     25  O   UNL     1       2.084  23.931  27.740  1.00  0.00    -0.387 OA
ATOM     26  H   UNL     1       2.736  23.183  27.830  1.00  0.00     0.211 HD
ENDBRANCH  20  25
BRANCH  21  27
ATOM     27  C   UNL     1       3.475  27.796  29.429  1.00  0.00     0.191 C 
BRANCH  27  28
ATOM     28  O   UNL     1       4.556  28.240  28.647  1.00  0.00    -0.394 OA
ATOM     29  H   UNL     1       5.078  27.443  28.374  1.00  0.00     0.210 HD
ENDBRANCH  27  28
ENDBRANCH  21  27
BRANCH  22  30
ATOM     30  O   UNL     1       4.381  25.066  28.580  1.00  0.00    -0.387 OA
ATOM     31  H   UNL     1       3.900  24.896  29.433  1.00  0.00     0.211 HD
ENDBRANCH  22  30
ENDBRANCH   1  17
TORSDOF 10
ENDMDL
MODEL 2
REMARK VINA RESULT:    -5.833      2.591      4.068
REMARK INTER + INTRA:          -9.519
REMARK INTER:                  -8.219
REMARK INTRA:                  -1.300
REMARK UNBOUND:                -1.298
REMARK SMILES OC[C@H]1O[C@H](O[C@@H]2OC=C[C@@H]3[C@@H](O)[C@@H]4O[C@]4(CO)[C@@H]23)[C@@H](O)[C@H](O)[C@@H]1O
REMARK SMILES IDX 6 1 7 2 10 3 9 4 11 5 8 6 19 7 12 8 16 9 14 10 15 11 13 12
REMARK SMILES IDX 17 14 18 15 5 17 20 18 4 19 22 20 3 21 24 22 21 23 23 25
REMARK SMILES IDX 2 27 1 28 25 30
REMARK H PARENT 13 13 18 16 21 24 23 26 1 29 25 31
REMARK Flexibility Score: inf
ROOT
ATOM      1  O   UNL     1      -2.209  26.719  26.149  1.00  0.00    -0.310 OA
ENDROOT
BRANCH   1   2
ATOM      2  C   UNL     1      -3.127  26.029  26.995  1.00  0.00     0.315 C 
ATOM      3  C   UNL     1      -4.211  25.422  29.618  1.00  0.00     0.018 C 
ATOM      4  C   UNL     1      -4.510  26.588  29.034  1.00  0.00     0.186 C 
ATOM      5  C   UNL     1      -3.415  24.416  28.827  1.00  0.00     0.059 C 
ATOM      6  O   UNL     1      -3.965  26.921  27.772  1.00  0.00    -0.472 OA
ATOM      7  C   UNL     1      -2.368  25.142  27.993  1.00  0.00     0.105 C 
ATOM      8  C   UNL     1      -2.611  23.371  29.597  1.00  0.00     0.154 C 
ATOM      9  C   UNL     1      -1.424  24.016  27.568  1.00  0.00     0.130 C 
ATOM     10  C   UNL     1      -1.548  22.920  28.570  1.00  0.00     0.183 C 
ATOM     11  O   UNL     1      -0.417  23.758  28.525  1.00  0.00    -0.360 OA
BRANCH   8  12
ATOM     12  O   UNL     1      -3.421  22.304  30.027  1.00  0.00    -0.390 OA
ATOM     13  H   UNL     1      -3.945  22.607  30.818  1.00  0.00     0.211 HD
ENDBRANCH   8  12
BRANCH   9  14
ATOM     14  C   UNL     1      -0.993  23.665  26.137  1.00  0.00     0.195 C 
BRANCH  14  15
ATOM     15  O   UNL     1      -0.122  24.641  25.634  1.00  0.00    -0.393 OA
ATOM     16  H   UNL     1      -0.119  25.389  26.291  1.00  0.00     0.210 HD
ENDBRANCH  14  15
ENDBRANCH   9  14
ENDBRANCH   1   2
BRANCH   1  17
ATOM     17  C   UNL     1      -1.498  27.770  26.805  1.00  0.00     0.286 C 
ATOM     18  C   UNL     1      -1.957  29.201  26.416  1.00  0.00     0.202 C 
ATOM     19  O   UNL     1      -0.100  27.614  26.606  1.00  0.00    -0.341 OA
ATOM     20  C   UNL     1      -1.539  29.529  24.980  1.00  0.00     0.179 C 
ATOM     21  C   UNL     1       0.280  27.788  25.252  1.00  0.00     0.178 C 
ATOM     22  C   UNL     1      -0.054  29.216  24.753  1.00  0.00     0.177 C 
BRANCH  18  23
ATOM     23  O   UNL     1      -1.370  30.125  27.302  1.00  0.00    -0.385 OA
ATOM     24  H   UNL     1      -2.115  30.648  27.709  1.00  0.00     0.211 HD
ENDBRANCH  18  23
BRANCH  20  25
ATOM     25  O   UNL     1      -2.327  28.776  24.082  1.00  0.00    -0.387 OA
ATOM     26  H   UNL     1      -2.727  28.020  24.592  1.00  0.00     0.211 HD
ENDBRANCH  20  25
BRANCH  21  27
ATOM     27  C   UNL     1       1.788  27.501  25.164  1.00  0.00     0.191 C 
BRANCH  27  28
ATOM     28  O   UNL     1       2.486  28.639  24.724  1.00  0.00    -0.394 OA
ATOM     29  H   UNL     1       2.156  29.415  25.244  1.00  0.00     0.210 HD
ENDBRANCH  27  28
ENDBRANCH  21  27
BRANCH  22  30
ATOM     30  O   UNL     1       0.217  29.328  23.379  1.00  0.00    -0.387 OA
ATOM     31  H   UNL     1       1.205  29.318  23.272  1.00  0.00     0.211 HD
ENDBRANCH  22  30
ENDBRANCH   1  17
TORSDOF 10
ENDMDL
MODEL 3
REMARK VINA RESULT:    -5.782      2.506      6.740
REMARK INTER + INTRA:          -9.447
REMARK INTER:                  -8.135
REMARK INTRA:                  -1.312
REMARK UNBOUND:                -1.298
REMARK SMILES OC[C@H]1O[C@H](O[C@@H]2OC=C[C@@H]3[C@@H](O)[C@@H]4O[C@]4(CO)[C@@H]23)[C@@H](O)[C@H](O)[C@@H]1O
REMARK SMILES IDX 6 1 7 2 10 3 9 4 11 5 8 6 19 7 12 8 16 9 14 10 15 11 13 12
REMARK SMILES IDX 17 14 18 15 5 17 20 18 4 19 22 20 3 21 24 22 21 23 23 25
REMARK SMILES IDX 2 27 1 28 25 30
REMARK H PARENT 13 13 18 16 21 24 23 26 1 29 25 31
REMARK Flexibility Score: inf
ROOT
ATOM      1  O   UNL     1      -2.560  23.858  28.919  1.00  0.00    -0.310 OA
ENDROOT
BRANCH   1   2
ATOM      2  C   UNL     1      -1.479  23.851  27.989  1.00  0.00     0.315 C 
ATOM      3  C   UNL     1       1.269  24.454  27.271  1.00  0.00     0.018 C 
ATOM      4  C   UNL     1       1.009  23.419  28.079  1.00  0.00     0.186 C 
ATOM      5  C   UNL     1       0.102  25.192  26.667  1.00  0.00     0.059 C 
ATOM      6  O   UNL     1      -0.318  23.128  28.471  1.00  0.00    -0.472 OA
ATOM      7  C   UNL     1      -1.022  25.287  27.692  1.00  0.00     0.105 C 
ATOM      8  C   UNL     1       0.318  26.638  26.225  1.00  0.00     0.154 C 
ATOM      9  C   UNL     1      -1.942  26.356  27.097  1.00  0.00     0.130 C 
ATOM     10  C   UNL     1      -1.115  27.215  26.204  1.00  0.00     0.183 C 
ATOM     11  O   UNL     1      -1.560  27.667  27.461  1.00  0.00    -0.360 OA
BRANCH   8  12
ATOM     12  O   UNL     1       0.939  26.709  24.965  1.00  0.00    -0.390 OA
ATOM     13  H   UNL     1       0.537  27.467  24.460  1.00  0.00     0.211 HD
ENDBRANCH   8  12
BRANCH   9  14
ATOM     14  C   UNL     1      -3.445  26.225  26.817  1.00  0.00     0.195 C 
BRANCH  14  15
ATOM     15  O   UNL     1      -4.189  26.784  27.865  1.00  0.00    -0.393 OA
ATOM     16  H   UNL     1      -5.139  26.526  27.711  1.00  0.00     0.210 HD
ENDBRANCH  14  15
ENDBRANCH   9  14
ENDBRANCH   1   2
BRANCH   1  17
ATOM     17  C   UNL     1      -2.318  24.657  30.078  1.00  0.00     0.286 C 
ATOM     18  C   UNL     1      -1.922  23.852  31.345  1.00  0.00     0.202 C 
ATOM     19  O   UNL     1      -3.436  25.495  30.338  1.00  0.00    -0.341 OA
ATOM     20  C   UNL     1      -3.121  23.064  31.880  1.00  0.00     0.179 C 
ATOM     21  C   UNL     1      -4.591  24.762  30.709  1.00  0.00     0.178 C 
ATOM     22  C   UNL     1      -4.356  23.964  32.016  1.00  0.00     0.177 C 
BRANCH  18  23
ATOM     23  O   UNL     1      -1.469  24.749  32.332  1.00  0.00    -0.385 OA
ATOM     24  H   UNL     1      -0.874  25.406  31.873  1.00  0.00     0.211 HD
ENDBRANCH  18  23
BRANCH  20  25
ATOM     25  O   UNL     1      -3.405  21.996  31.000  1.00  0.00    -0.387 OA
ATOM     26  H   UNL     1      -2.766  22.053  30.239  1.00  0.00     0.211 HD
ENDBRANCH  20  25
BRANCH  21  27
ATOM     27  C   UNL     1      -5.738  25.773  30.866  1.00  0.00     0.191 C 
BRANCH  27  28
ATOM     28  O   UNL     1      -6.984  25.137  30.731  1.00  0.00    -0.394 OA
ATOM     29  H   UNL     1      -7.388  25.443  29.878  1.00  0.00     0.210 HD
ENDBRANCH  27  28
ENDBRANCH  21  27
BRANCH  22  30
ATOM     30  O   UNL     1      -5.467  23.152  32.297  1.00  0.00    -0.387 OA
ATOM     31  H   UNL     1      -5.136  22.218  32.378  1.00  0.00     0.211 HD
ENDBRANCH  22  30
ENDBRANCH   1  17
TORSDOF 10
ENDMDL
MODEL 4
REMARK VINA RESULT:    -5.766      1.309      1.414
REMARK INTER + INTRA:          -9.424
REMARK INTER:                  -8.471
REMARK INTRA:                  -0.954
REMARK UNBOUND:                -1.298
REMARK SMILES OC[C@H]1O[C@H](O[C@@H]2OC=C[C@@H]3[C@@H](O)[C@@H]4O[C@]4(CO)[C@@H]23)[C@@H](O)[C@H](O)[C@@H]1O
REMARK SMILES IDX 6 1 7 2 10 3 9 4 11 5 8 6 19 7 12 8 16 9 14 10 15 11 13 12
REMARK SMILES IDX 17 14 18 15 5 17 20 18 4 19 22 20 3 21 24 22 21 23 23 25
REMARK SMILES IDX 2 27 1 28 25 30
REMARK H PARENT 13 13 18 16 21 24 23 26 1 29 25 31
REMARK Flexibility Score: inf
ROOT
ATOM      1  O   UNL     1       0.196  26.063  28.449  1.00  0.00    -0.310 OA
ENDROOT
BRANCH   1   2
ATOM      2  C   UNL     1      -1.132  25.719  28.058  1.00  0.00     0.315 C 
ATOM      3  C   UNL     1      -3.896  26.431  27.527  1.00  0.00     0.018 C 
ATOM      4  C   UNL     1      -2.948  26.757  26.640  1.00  0.00     0.186 C 
ATOM      5  C   UNL     1      -3.498  25.593  28.714  1.00  0.00     0.059 C 
ATOM      6  O   UNL     1      -1.591  26.453  26.895  1.00  0.00    -0.472 OA
ATOM      7  C   UNL     1      -2.118  26.022  29.196  1.00  0.00     0.105 C 
ATOM      8  C   UNL     1      -4.365  25.667  29.969  1.00  0.00     0.154 C 
ATOM      9  C   UNL     1      -2.023  25.381  30.583  1.00  0.00     0.130 C 
ATOM     10  C   UNL     1      -3.412  25.179  31.083  1.00  0.00     0.183 C 
ATOM     11  O   UNL     1      -2.580  26.192  31.597  1.00  0.00    -0.360 OA
BRANCH   8  12
ATOM     12  O   UNL     1      -5.512  24.860  29.858  1.00  0.00    -0.390 OA
ATOM     13  H   UNL     1      -5.792  24.587  30.774  1.00  0.00     0.211 HD
ENDBRANCH   8  12
BRANCH   9  14
ATOM     14  C   UNL     1      -0.909  24.459  31.097  1.00  0.00     0.195 C 
BRANCH  14  15
ATOM     15  O   UNL     1      -0.391  23.684  30.050  1.00  0.00    -0.393 OA
ATOM     16  H   UNL     1      -0.949  23.876  29.248  1.00  0.00     0.210 HD
ENDBRANCH  14  15
ENDBRANCH   9  14
ENDBRANCH   1   2
BRANCH   1  17
ATOM     17  C   UNL     1       1.009  26.539  27.375  1.00  0.00     0.286 C 
ATOM     18  C   UNL     1       1.565  25.427  26.445  1.00  0.00     0.202 C 
ATOM     19  O   UNL     1       2.058  27.352  27.878  1.00  0.00    -0.341 OA
ATOM     20  C   UNL     1       2.635  24.604  27.170  1.00  0.00     0.179 C 
ATOM     21  C   UNL     1       2.986  26.621  28.662  1.00  0.00     0.178 C 
ATOM     22  C   UNL     1       3.680  25.516  27.827  1.00  0.00     0.177 C 
BRANCH  18  23
ATOM     23  O   UNL     1       2.125  26.026  25.301  1.00  0.00    -0.385 OA
ATOM     24  H   UNL     1       2.730  25.349  24.887  1.00  0.00     0.211 HD
ENDBRANCH  18  23
BRANCH  20  25
ATOM     25  O   UNL     1       2.017  23.802  28.155  1.00  0.00    -0.387 OA
ATOM     26  H   UNL     1       2.660  23.087  28.410  1.00  0.00     0.211 HD
ENDBRANCH  20  25
BRANCH  21  27
ATOM     27  C   UNL     1       4.006  27.629  29.216  1.00  0.00     0.191 C 
BRANCH  27  28
ATOM     28  O   UNL     1       4.799  27.037  30.214  1.00  0.00    -0.394 OA
ATOM     29  H   UNL     1       4.203  26.492  30.789  1.00  0.00     0.210 HD
ENDBRANCH  27  28
ENDBRANCH  21  27
BRANCH  22  30
ATOM     30  O   UNL     1       4.501  24.726  28.649  1.00  0.00    -0.387 OA
ATOM     31  H   UNL     1       3.916  24.311  29.337  1.00  0.00     0.211 HD
ENDBRANCH  22  30
ENDBRANCH   1  17
TORSDOF 10
ENDMDL
MODEL 5
REMARK VINA RESULT:    -5.754      1.667      3.222
REMARK INTER + INTRA:          -9.407
REMARK INTER:                  -7.970
REMARK INTRA:                  -1.437
REMARK UNBOUND:                -1.298
REMARK SMILES OC[C@H]1O[C@H](O[C@@H]2OC=C[C@@H]3[C@@H](O)[C@@H]4O[C@]4(CO)[C@@H]23)[C@@H](O)[C@H](O)[C@@H]1O
REMARK SMILES IDX 6 1 7 2 10 3 9 4 11 5 8 6 19 7 12 8 16 9 14 10 15 11 13 12
REMARK SMILES IDX 17 14 18 15 5 17 20 18 4 19 22 20 3 21 24 22 21 23 23 25
REMARK SMILES IDX 2 27 1 28 25 30
REMARK H PARENT 13 13 18 16 21 24 23 26 1 29 25 31
REMARK Flexibility Score: inf
ROOT
ATOM      1  O   UNL     1      -0.026  26.449  28.793  1.00  0.00    -0.310 OA
ENDROOT
BRANCH   1   2
ATOM      2  C   UNL     1      -1.048  26.091  29.721  1.00  0.00     0.315 C 
ATOM      3  C   UNL     1      -2.813  24.131  30.936  1.00  0.00     0.018 C 
ATOM      4  C   UNL     1      -1.516  24.147  31.266  1.00  0.00     0.186 C 
ATOM      5  C   UNL     1      -3.327  25.221  30.030  1.00  0.00     0.059 C 
ATOM      6  O   UNL     1      -0.631  25.068  30.660  1.00  0.00    -0.472 OA
ATOM      7  C   UNL     1      -2.274  25.542  28.976  1.00  0.00     0.105 C 
ATOM      8  C   UNL     1      -4.589  24.943  29.216  1.00  0.00     0.154 C 
ATOM      9  C   UNL     1      -3.059  26.349  27.940  1.00  0.00     0.130 C 
ATOM     10  C   UNL     1      -4.494  25.967  28.063  1.00  0.00     0.183 C 
ATOM     11  O   UNL     1      -3.702  25.530  26.984  1.00  0.00    -0.360 OA
BRANCH   8  12
ATOM     12  O   UNL     1      -5.753  25.115  29.987  1.00  0.00    -0.390 OA
ATOM     13  H   UNL     1      -6.451  24.493  29.643  1.00  0.00     0.211 HD
ENDBRANCH   8  12
BRANCH   9  14
ATOM     14  C   UNL     1      -2.707  27.741  27.397  1.00  0.00     0.195 C 
BRANCH  14  15
ATOM     15  O   UNL     1      -1.688  27.649  26.438  1.00  0.00    -0.393 OA
ATOM     16  H   UNL     1      -2.122  27.379  25.583  1.00  0.00     0.210 HD
ENDBRANCH  14  15
ENDBRANCH   9  14
ENDBRANCH   1   2
BRANCH   1  17
ATOM     17  C   UNL     1       0.465  25.351  28.022  1.00  0.00     0.286 C 
ATOM     18  C   UNL     1       1.753  24.693  28.584  1.00  0.00     0.202 C 
ATOM     19  O   UNL     1       0.644  25.744  26.669  1.00  0.00    -0.341 OA
ATOM     20  C   UNL     1       2.955  25.626  28.410  1.00  0.00     0.179 C 
ATOM     21  C   UNL     1       1.671  26.709  26.514  1.00  0.00     0.178 C 
ATOM     22  C   UNL     1       3.042  26.149  26.970  1.00  0.00     0.177 C 
BRANCH  18  23
ATOM     23  O   UNL     1       1.987  23.487  27.896  1.00  0.00    -0.385 OA
ATOM     24  H   UNL     1       2.061  22.770  28.586  1.00  0.00     0.211 HD
ENDBRANCH  18  23
BRANCH  20  25
ATOM     25  O   UNL     1       2.835  26.712  29.304  1.00  0.00    -0.387 OA
ATOM     26  H   UNL     1       1.986  26.594  29.811  1.00  0.00     0.211 HD
ENDBRANCH  20  25
BRANCH  21  27
ATOM     27  C   UNL     1       1.695  27.111  25.031  1.00  0.00     0.191 C 
BRANCH  27  28
ATOM     28  O   UNL     1       0.584  27.913  24.715  1.00  0.00    -0.394 OA
ATOM     29  H   UNL     1      -0.122  27.728  25.387  1.00  0.00     0.210 HD
ENDBRANCH  27  28
ENDBRANCH  21  27
BRANCH  22  30
ATOM     30  O   UNL     1       4.020  27.157  26.923  1.00  0.00    -0.387 OA
ATOM     31  H   UNL     1       4.497  27.144  27.795  1.00  0.00     0.211 HD
ENDBRANCH  22  30
ENDBRANCH   1  17
TORSDOF 10
ENDMDL
MODEL 6
REMARK VINA RESULT:    -5.741      2.012      5.943
REMARK INTER + INTRA:          -9.388
REMARK INTER:                  -7.909
REMARK INTRA:                  -1.479
REMARK UNBOUND:                -1.298
REMARK SMILES OC[C@H]1O[C@H](O[C@@H]2OC=C[C@@H]3[C@@H](O)[C@@H]4O[C@]4(CO)[C@@H]23)[C@@H](O)[C@H](O)[C@@H]1O
REMARK SMILES IDX 6 1 7 2 10 3 9 4 11 5 8 6 19 7 12 8 16 9 14 10 15 11 13 12
REMARK SMILES IDX 17 14 18 15 5 17 20 18 4 19 22 20 3 21 24 22 21 23 23 25
REMARK SMILES IDX 2 27 1 28 25 30
REMARK H PARENT 13 13 18 16 21 24 23 26 1 29 25 31
REMARK Flexibility Score: inf
ROOT
ATOM      1  O   UNL     1      -1.586  27.028  28.333  1.00  0.00    -0.310 OA
ENDROOT
BRANCH   1   2
ATOM      2  C   UNL     1      -1.055  28.017  27.453  1.00  0.00     0.315 C 
ATOM      3  C   UNL     1      -0.623  29.088  24.790  1.00  0.00     0.018 C 
ATOM      4  C   UNL     1      -1.827  29.206  25.362  1.00  0.00     0.186 C 
ATOM      5  C   UNL     1       0.498  28.506  25.612  1.00  0.00     0.059 C 
ATOM      6  O   UNL     1      -2.071  28.660  26.643  1.00  0.00    -0.472 OA
ATOM      7  C   UNL     1      -0.045  27.382  26.485  1.00  0.00     0.105 C 
ATOM      8  C   UNL     1       1.671  27.863  24.874  1.00  0.00     0.154 C 
ATOM      9  C   UNL     1       1.222  26.661  26.948  1.00  0.00     0.130 C 
ATOM     10  C   UNL     1       2.288  26.932  25.942  1.00  0.00     0.183 C 
ATOM     11  O   UNL     1       1.655  25.677  26.030  1.00  0.00    -0.360 OA
BRANCH   8  12
ATOM     12  O   UNL     1       2.587  28.826  24.414  1.00  0.00    -0.390 OA
ATOM     13  H   UNL     1       3.062  29.208  25.201  1.00  0.00     0.211 HD
ENDBRANCH   8  12
BRANCH   9  14
ATOM     14  C   UNL     1       1.631  26.351  28.395  1.00  0.00     0.195 C 
BRANCH  14  15
ATOM     15  O   UNL     1       0.757  25.413  28.960  1.00  0.00    -0.393 OA
ATOM     16  H   UNL     1       1.198  24.524  28.879  1.00  0.00     0.210 HD
ENDBRANCH  14  15
ENDBRANCH   9  14
ENDBRANCH   1   2
BRANCH   1  17
ATOM     17  C   UNL     1      -2.832  26.479  27.901  1.00  0.00     0.286 C 
ATOM     18  C   UNL     1      -3.740  25.960  29.048  1.00  0.00     0.202 C 
ATOM     19  O   UNL     1      -2.610  25.465  26.931  1.00  0.00    -0.341 OA
ATOM     20  C   UNL     1      -3.154  24.688  29.667  1.00  0.00     0.179 C 
ATOM     21  C   UNL     1      -1.948  24.332  27.468  1.00  0.00     0.178 C 
ATOM     22  C   UNL     1      -2.790  23.665  28.583  1.00  0.00     0.177 C 
BRANCH  18  23
ATOM     23  O   UNL     1      -5.019  25.685  28.527  1.00  0.00    -0.385 OA
ATOM     24  H   UNL     1      -4.886  25.116  27.719  1.00  0.00     0.211 HD
ENDBRANCH  18  23
BRANCH  20  25
ATOM     25  O   UNL     1      -2.001  25.022  30.411  1.00  0.00    -0.387 OA
ATOM     26  H   UNL     1      -1.589  25.824  29.988  1.00  0.00     0.211 HD
ENDBRANCH  20  25
BRANCH  21  27
ATOM     27  C   UNL     1      -1.689  23.364  26.303  1.00  0.00     0.191 C 
BRANCH  27  28
ATOM     28  O   UNL     1      -0.617  23.812  25.512  1.00  0.00    -0.394 OA
ATOM     29  H   UNL     1       0.178  23.893  26.099  1.00  0.00     0.210 HD
ENDBRANCH  27  28
ENDBRANCH  21  27
BRANCH  22  30
ATOM     30  O   UNL     1      -2.065  22.622  29.184  1.00  0.00    -0.387 OA
ATOM     31  H   UNL     1      -2.134  21.832  28.584  1.00  0.00     0.211 HD
ENDBRANCH  22  30
ENDBRANCH   1  17
TORSDOF 10
ENDMDL
MODEL 7
REMARK VINA RESULT:    -5.650      2.337      6.856
REMARK INTER + INTRA:          -9.261
REMARK INTER:                  -8.578
REMARK INTRA:                  -0.683
REMARK UNBOUND:                -1.298
REMARK SMILES OC[C@H]1O[C@H](O[C@@H]2OC=C[C@@H]3[C@@H](O)[C@@H]4O[C@]4(CO)[C@@H]23)[C@@H](O)[C@H](O)[C@@H]1O
REMARK SMILES IDX 6 1 7 2 10 3 9 4 11 5 8 6 19 7 12 8 16 9 14 10 15 11 13 12
REMARK SMILES IDX 17 14 18 15 5 17 20 18 4 19 22 20 3 21 24 22 21 23 23 25
REMARK SMILES IDX 2 27 1 28 25 30
REMARK H PARENT 13 13 18 16 21 24 23 26 1 29 25 31
REMARK Flexibility Score: inf
ROOT
ATOM      1  O   UNL     1      -1.651  26.593  27.528  1.00  0.00    -0.310 OA
ENDROOT
BRANCH   1   2
ATOM      2  C   UNL     1      -0.643  26.269  26.572  1.00  0.00     0.315 C 
ATOM      3  C   UNL     1       2.138  26.117  25.754  1.00  0.00     0.018 C 
ATOM      4  C   UNL     1       1.655  25.219  26.621  1.00  0.00     0.186 C 
ATOM      5  C   UNL     1       1.176  27.103  25.144  1.00  0.00     0.059 C 
ATOM      6  O   UNL     1       0.313  25.296  27.061  1.00  0.00    -0.472 OA
ATOM      7  C   UNL     1       0.153  27.527  26.191  1.00  0.00     0.105 C 
ATOM      8  C   UNL     1       1.736  28.425  24.622  1.00  0.00     0.154 C 
ATOM      9  C   UNL     1      -0.486  28.768  25.565  1.00  0.00     0.130 C 
ATOM     10  C   UNL     1       0.498  29.348  24.608  1.00  0.00     0.183 C 
ATOM     11  O   UNL     1       0.230  29.952  25.852  1.00  0.00    -0.360 OA
BRANCH   8  12
ATOM     12  O   UNL     1       2.306  28.280  23.345  1.00  0.00    -0.390 OA
ATOM     13  H   UNL     1       2.941  27.513  23.370  1.00  0.00     0.211 HD
ENDBRANCH   8  12
BRANCH   9  14
ATOM     14  C   UNL     1      -1.983  29.015  25.331  1.00  0.00     0.195 C 
BRANCH  14  15
ATOM     15  O   UNL     1      -2.455  28.208  24.287  1.00  0.00    -0.393 OA
ATOM     16  H   UNL     1      -3.162  28.729  23.818  1.00  0.00     0.210 HD
ENDBRANCH  14  15
ENDBRANCH   9  14
ENDBRANCH   1   2
BRANCH   1  17
ATOM     17  C   UNL     1      -2.908  25.962  27.279  1.00  0.00     0.286 C 
ATOM     18  C   UNL     1      -4.063  26.440  28.198  1.00  0.00     0.202 C 
ATOM     19  O   UNL     1      -2.766  24.550  27.333  1.00  0.00    -0.341 OA
ATOM     20  C   UNL     1      -3.856  25.937  29.630  1.00  0.00     0.179 C 
ATOM     21  C   UNL     1      -2.445  24.085  28.633  1.00  0.00     0.178 C 
ATOM     22  C   UNL     1      -3.564  24.431  29.647  1.00  0.00     0.177 C 
BRANCH  18  23
ATOM     23  O   UNL     1      -5.281  25.945  27.695  1.00  0.00    -0.385 OA
ATOM     24  H   UNL     1      -5.778  25.559  28.470  1.00  0.00     0.211 HD
ENDBRANCH  18  23
BRANCH  20  25
ATOM     25  O   UNL     1      -2.780  26.637  30.218  1.00  0.00    -0.387 OA
ATOM     26  H   UNL     1      -2.749  26.390  31.182  1.00  0.00     0.211 HD
ENDBRANCH  20  25
BRANCH  21  27
ATOM     27  C   UNL     1      -2.230  22.566  28.531  1.00  0.00     0.191 C 
BRANCH  27  28
ATOM     28  O   UNL     1      -3.128  21.879  29.365  1.00  0.00    -0.394 OA
ATOM     29  H   UNL     1      -3.392  21.044  28.900  1.00  0.00     0.210 HD
ENDBRANCH  27  28
ENDBRANCH  21  27
BRANCH  22  30
ATOM     30  O   UNL     1      -3.171  24.071  30.947  1.00  0.00    -0.387 OA
ATOM     31  H   UNL     1      -3.567  23.179  31.138  1.00  0.00     0.211 HD
ENDBRANCH  22  30
ENDBRANCH   1  17
TORSDOF 10
ENDMDL
MODEL 8
REMARK VINA RESULT:    -5.613      2.232      6.377
REMARK INTER + INTRA:          -9.208
REMARK INTER:                  -7.853
REMARK INTRA:                  -1.355
REMARK UNBOUND:                -1.298
REMARK SMILES OC[C@H]1O[C@H](O[C@@H]2OC=C[C@@H]3[C@@H](O)[C@@H]4O[C@]4(CO)[C@@H]23)[C@@H](O)[C@H](O)[C@@H]1O
REMARK SMILES IDX 6 1 7 2 10 3 9 4 11 5 8 6 19 7 12 8 16 9 14 10 15 11 13 12
REMARK SMILES IDX 17 14 18 15 5 17 20 18 4 19 22 20 3 21 24 22 21 23 23 25
REMARK SMILES IDX 2 27 1 28 25 30
REMARK H PARENT 13 13 18 16 21 24 23 26 1 29 25 31
REMARK Flexibility Score: inf
ROOT
ATOM      1  O   UNL     1      -1.180  25.129  28.666  1.00  0.00    -0.310 OA
ENDROOT
BRANCH   1   2
ATOM      2  C   UNL     1      -0.238  25.011  27.602  1.00  0.00     0.315 C 
ATOM      3  C   UNL     1       2.392  25.478  26.465  1.00  0.00     0.018 C 
ATOM      4  C   UNL     1       2.234  24.528  27.394  1.00  0.00     0.186 C 
ATOM      5  C   UNL     1       1.162  26.188  25.959  1.00  0.00     0.059 C 
ATOM      6  O   UNL     1       0.969  24.307  27.988  1.00  0.00    -0.472 OA
ATOM      7  C   UNL     1       0.192  26.402  27.114  1.00  0.00     0.105 C 
ATOM      8  C   UNL     1       1.333  27.581  25.359  1.00  0.00     0.154 C 
ATOM      9  C   UNL     1      -0.788  27.435  26.552  1.00  0.00     0.130 C 
ATOM     10  C   UNL     1      -0.082  28.190  25.479  1.00  0.00     0.183 C 
ATOM     11  O   UNL     1      -0.344  28.764  26.737  1.00  0.00    -0.360 OA
BRANCH   8  12
ATOM     12  O   UNL     1       1.776  27.523  24.025  1.00  0.00    -0.390 OA
ATOM     13  H   UNL     1       1.109  27.991  23.453  1.00  0.00     0.211 HD
ENDBRANCH   8  12
BRANCH   9  14
ATOM     14  C   UNL     1      -2.317  27.317  26.492  1.00  0.00     0.195 C 
BRANCH  14  15
ATOM     15  O   UNL     1      -2.873  27.488  27.767  1.00  0.00    -0.393 OA
ATOM     16  H   UNL     1      -3.838  27.256  27.693  1.00  0.00     0.210 HD
ENDBRANCH  14  15
ENDBRANCH   9  14
ENDBRANCH   1   2
BRANCH   1  17
ATOM     17  C   UNL     1      -1.478  23.891  29.314  1.00  0.00     0.286 C 
ATOM     18  C   UNL     1      -2.981  23.503  29.305  1.00  0.00     0.202 C 
ATOM     19  O   UNL     1      -0.963  23.895  30.637  1.00  0.00    -0.341 OA
ATOM     20  C   UNL     1      -3.781  24.423  30.232  1.00  0.00     0.179 C 
ATOM     21  C   UNL     1      -1.612  24.839  31.472  1.00  0.00     0.178 C 
ATOM     22  C   UNL     1      -3.121  24.521  31.614  1.00  0.00     0.177 C 
BRANCH  18  23
ATOM     23  O   UNL     1      -3.110  22.169  29.736  1.00  0.00    -0.385 OA
ATOM     24  H   UNL     1      -4.079  22.018  29.918  1.00  0.00     0.211 HD
ENDBRANCH  18  23
BRANCH  20  25
ATOM     25  O   UNL     1      -3.865  25.708  29.652  1.00  0.00    -0.387 OA
ATOM     26  H   UNL     1      -4.497  26.247  30.201  1.00  0.00     0.211 HD
ENDBRANCH  20  25
BRANCH  21  27
ATOM     27  C   UNL     1      -0.901  24.805  32.834  1.00  0.00     0.191 C 
BRANCH  27  28
ATOM     28  O   UNL     1      -1.686  24.136  33.789  1.00  0.00    -0.394 OA
ATOM     29  H   UNL     1      -2.343  23.577  33.301  1.00  0.00     0.210 HD
ENDBRANCH  27  28
ENDBRANCH  21  27
BRANCH  22  30
ATOM     30  O   UNL     1      -3.767  25.534  32.341  1.00  0.00    -0.387 OA
ATOM     31  H   UNL     1      -4.432  25.093  32.934  1.00  0.00     0.211 HD
ENDBRANCH  22  30
ENDBRANCH   1  17
TORSDOF 10
ENDMDL
MODEL 9
REMARK VINA RESULT:    -5.565      2.006      2.773
REMARK INTER + INTRA:          -9.141
REMARK INTER:                  -7.775
REMARK INTRA:                  -1.366
REMARK UNBOUND:                -1.298
REMARK SMILES OC[C@H]1O[C@H](O[C@@H]2OC=C[C@@H]3[C@@H](O)[C@@H]4O[C@]4(CO)[C@@H]23)[C@@H](O)[C@H](O)[C@@H]1O
REMARK SMILES IDX 6 1 7 2 10 3 9 4 11 5 8 6 19 7 12 8 16 9 14 10 15 11 13 12
REMARK SMILES IDX 17 14 18 15 5 17 20 18 4 19 22 20 3 21 24 22 21 23 23 25
REMARK SMILES IDX 2 27 1 28 25 30
REMARK H PARENT 13 13 18 16 21 24 23 26 1 29 25 31
REMARK Flexibility Score: inf
ROOT
ATOM      1  O   UNL     1      -1.748  24.874  28.859  1.00  0.00    -0.310 OA
ENDROOT
BRANCH   1   2
ATOM      2  C   UNL     1      -3.153  25.023  29.053  1.00  0.00     0.315 C 
ATOM      3  C   UNL     1      -5.488  26.655  29.612  1.00  0.00     0.018 C 
ATOM      4  C   UNL     1      -4.921  26.706  28.401  1.00  0.00     0.186 C 
ATOM      5  C   UNL     1      -4.956  25.651  30.602  1.00  0.00     0.059 C 
ATOM      6  O   UNL     1      -3.761  25.948  28.117  1.00  0.00    -0.472 OA
ATOM      7  C   UNL     1      -3.441  25.558  30.464  1.00  0.00     0.105 C 
ATOM      8  C   UNL     1      -5.172  25.924  32.089  1.00  0.00     0.154 C 
ATOM      9  C   UNL     1      -3.023  24.827  31.742  1.00  0.00     0.130 C 
ATOM     10  C   UNL     1      -4.078  25.068  32.765  1.00  0.00     0.183 C 
ATOM     11  O   UNL     1      -2.824  25.705  32.831  1.00  0.00    -0.360 OA
BRANCH   8  12
ATOM     12  O   UNL     1      -6.466  25.557  32.502  1.00  0.00    -0.390 OA
ATOM     13  H   UNL     1      -6.835  26.291  33.066  1.00  0.00     0.211 HD
ENDBRANCH   8  12
BRANCH   9  14
ATOM     14  C   UNL     1      -2.174  23.552  31.838  1.00  0.00     0.195 C 
BRANCH  14  15
ATOM     15  O   UNL     1      -0.860  23.805  31.422  1.00  0.00    -0.393 OA
ATOM     16  H   UNL     1      -0.331  22.987  31.630  1.00  0.00     0.210 HD
ENDBRANCH  14  15
ENDBRANCH   9  14
ENDBRANCH   1   2
BRANCH   1  17
ATOM     17  C   UNL     1      -1.347  24.917  27.488  1.00  0.00     0.286 C 
ATOM     18  C   UNL     1      -0.951  23.541  26.888  1.00  0.00     0.202 C 
ATOM     19  O   UNL     1      -0.306  25.867  27.312  1.00  0.00    -0.341 OA
ATOM     20  C   UNL     1       0.376  23.057  27.480  1.00  0.00     0.179 C 
ATOM     21  C   UNL     1       0.893  25.488  27.967  1.00  0.00     0.178 C 
ATOM     22  C   UNL     1       1.445  24.155  27.405  1.00  0.00     0.177 C 
BRANCH  18  23
ATOM     23  O   UNL     1      -0.826  23.671  25.492  1.00  0.00    -0.385 OA
ATOM     24  H   UNL     1      -0.808  24.649  25.293  1.00  0.00     0.211 HD
ENDBRANCH  18  23
BRANCH  20  25
ATOM     25  O   UNL     1       0.175  22.679  28.826  1.00  0.00    -0.387 OA
ATOM     26  H   UNL     1       1.059  22.706  29.283  1.00  0.00     0.211 HD
ENDBRANCH  20  25
BRANCH  21  27
ATOM     27  C   UNL     1       1.896  26.637  27.776  1.00  0.00     0.191 C 
BRANCH  27  28
ATOM     28  O   UNL     1       3.001  26.212  27.018  1.00  0.00    -0.394 OA
ATOM     29  H   UNL     1       2.970  25.222  26.969  1.00  0.00     0.210 HD
ENDBRANCH  27  28
ENDBRANCH  21  27
BRANCH  22  30
ATOM     30  O   UNL     1       2.561  23.737  28.149  1.00  0.00    -0.387 OA
ATOM     31  H   UNL     1       2.890  24.527  28.655  1.00  0.00     0.211 HD
ENDBRANCH  22  30
ENDBRANCH   1  17
TORSDOF 10
ENDMDL
