MODEL 1
REMARK VINA RESULT:    -3.778      0.000      0.000
REMARK INTER + INTRA:          -5.050
REMARK INTER:                  -4.551
REMARK INTRA:                  -0.499
REMARK UNBOUND:                -0.499
REMARK SMILES NC(=O)C[C@@H]([NH3+])C(=O)[O-]
REMARK SMILES IDX 4 1 5 2 6 3 7 7 8 8 9 9 2 10 3 11 1 12
REMARK H PARENT 6 4 6 5 6 6 1 13 1 14
REMARK Flexibility Score: inf
ROOT
ATOM      1  C   UNL     1       0.894   6.132   9.936  1.00  0.00     0.171 C 
ENDROOT
BRANCH   1   2
ATOM      2  C   UNL     1       1.395   4.834   9.274  1.00  0.00     0.237 C 
BRANCH   2   3
ATOM      3  N   UNL     1       2.863   4.781   9.235  1.00  0.00    -0.350 N 
ATOM      4  H   UNL     1       3.191   4.750   8.241  1.00  0.00     0.345 HD
ATOM      5  H   UNL     1       3.265   5.640   9.677  1.00  0.00     0.345 HD
ATOM      6  H   UNL     1       3.217   3.936   9.739  1.00  0.00     0.345 HD
ENDBRANCH   2   3
BRANCH   2   7
ATOM      7  C   UNL     1       0.856   3.644  10.022  1.00  0.00     0.100 C 
ATOM      8  O   UNL     1       0.232   2.738   9.407  1.00  0.00    -0.544 OA
ATOM      9  O   UNL     1       1.027   3.545  11.397  1.00  0.00    -0.544 OA
ENDBRANCH   2   7
ENDBRANCH   1   2
BRANCH   1  10
ATOM     10  C   UNL     1       1.961   6.777  10.773  1.00  0.00     0.223 C 
ATOM     11  O   UNL     1       2.779   7.572  10.238  1.00  0.00    -0.275 OA
ATOM     12  N   UNL     1       2.078   6.470  12.162  1.00  0.00    -0.369 N 
ATOM     13  H   UNL     1       1.423   5.795  12.617  1.00  0.00     0.159 HD
ATOM     14  H   UNL     1       2.828   6.912  12.738  1.00  0.00     0.159 HD
ENDBRANCH   1  10
TORSDOF 4
ENDMDL
MODEL 2
REMARK VINA RESULT:    -3.758      7.971      9.403
REMARK INTER + INTRA:          -5.026
REMARK INTER:                  -4.786
REMARK INTRA:                  -0.239
REMARK UNBOUND:                -0.499
REMARK SMILES NC(=O)C[C@@H]([NH3+])C(=O)[O-]
REMARK SMILES IDX 4 1 5 2 6 3 7 7 8 8 9 9 2 10 3 11 1 12
REMARK H PARENT 6 4 6 5 6 6 1 13 1 14
REMARK Flexibility Score: inf
ROOT
ATOM      1  C   UNL     1       1.969  -2.201  14.757  1.00  0.00     0.171 C 
ENDROOT
BRANCH   1   2
ATOM      2  C   UNL     1       0.784  -1.704  15.609  1.00  0.00     0.237 C 
BRANCH   2   3
ATOM      3  N   UNL     1       1.244  -1.068  16.851  1.00  0.00    -0.350 N 
ATOM      4  H   UNL     1       1.910  -0.293  16.628  1.00  0.00     0.345 HD
ATOM      5  H   UNL     1       0.431  -0.653  17.364  1.00  0.00     0.345 HD
ATOM      6  H   UNL     1       1.721  -1.764  17.469  1.00  0.00     0.345 HD
ENDBRANCH   2   3
BRANCH   2   7
ATOM      7  C   UNL     1      -0.042  -0.734  14.807  1.00  0.00     0.100 C 
ATOM      8  O   UNL     1      -1.273  -0.939  14.639  1.00  0.00    -0.544 OA
ATOM      9  O   UNL     1       0.550   0.385  14.235  1.00  0.00    -0.544 OA
ENDBRANCH   2   7
ENDBRANCH   1   2
BRANCH   1  10
ATOM     10  C   UNL     1       2.457  -3.545  15.215  1.00  0.00     0.223 C 
ATOM     11  O   UNL     1       2.987  -3.663  16.352  1.00  0.00    -0.275 OA
ATOM     12  N   UNL     1       2.358  -4.683  14.359  1.00  0.00    -0.369 N 
ATOM     13  H   UNL     1       1.944  -4.599  13.404  1.00  0.00     0.159 HD
ATOM     14  H   UNL     1       2.710  -5.614  14.677  1.00  0.00     0.159 HD
ENDBRANCH   1  10
TORSDOF 4
ENDMDL
MODEL 3
REMARK VINA RESULT:    -3.738      8.334      9.021
REMARK INTER + INTRA:          -5.001
REMARK INTER:                  -4.619
REMARK INTRA:                  -0.382
REMARK UNBOUND:                -0.499
REMARK SMILES NC(=O)C[C@@H]([NH3+])C(=O)[O-]
REMARK SMILES IDX 4 1 5 2 6 3 7 7 8 8 9 9 2 10 3 11 1 12
REMARK H PARENT 6 4 6 5 6 6 1 13 1 14
REMARK Flexibility Score: inf
ROOT
ATOM      1  C   UNL     1       1.346  -0.260  15.260  1.00  0.00     0.171 C 
ENDROOT
BRANCH   1   2
ATOM      2  C   UNL     1       2.617  -0.994  15.734  1.00  0.00     0.237 C 
BRANCH   2   3
ATOM      3  N   UNL     1       2.691  -1.050  17.200  1.00  0.00    -0.350 N 
ATOM      4  H   UNL     1       2.831  -2.040  17.510  1.00  0.00     0.345 HD
ATOM      5  H   UNL     1       3.507  -0.491  17.540  1.00  0.00     0.345 HD
ATOM      6  H   UNL     1       1.814  -0.677  17.630  1.00  0.00     0.345 HD
ENDBRANCH   2   3
BRANCH   2   7
ATOM      7  C   UNL     1       2.640  -2.386  15.161  1.00  0.00     0.100 C 
ATOM      8  O   UNL     1       2.727  -2.558  13.917  1.00  0.00    -0.544 OA
ATOM      9  O   UNL     1       2.548  -3.490  16.000  1.00  0.00    -0.544 OA
ENDBRANCH   2   7
ENDBRANCH   1   2
BRANCH   1  10
ATOM     10  C   UNL     1       0.099  -0.934  15.755  1.00  0.00     0.223 C 
ATOM     11  O   UNL     1      -0.114  -1.023  16.994  1.00  0.00    -0.275 OA
ATOM     12  N   UNL     1      -0.831  -1.505  14.835  1.00  0.00    -0.369 N 
ATOM     13  H   UNL     1      -0.659  -1.462  13.806  1.00  0.00     0.159 HD
ATOM     14  H   UNL     1      -1.692  -1.983  15.184  1.00  0.00     0.159 HD
ENDBRANCH   1  10
TORSDOF 4
ENDMDL
MODEL 4
REMARK VINA RESULT:    -3.710      7.241      8.390
REMARK INTER + INTRA:          -4.968
REMARK INTER:                  -4.676
REMARK INTRA:                  -0.292
REMARK UNBOUND:                -0.499
REMARK SMILES NC(=O)C[C@@H]([NH3+])C(=O)[O-]
REMARK SMILES IDX 4 1 5 2 6 3 7 7 8 8 9 9 2 10 3 11 1 12
REMARK H PARENT 6 4 6 5 6 6 1 13 1 14
REMARK Flexibility Score: inf
ROOT
ATOM      1  C   UNL     1       2.140  -0.629  15.213  1.00  0.00     0.171 C 
ENDROOT
BRANCH   1   2
ATOM      2  C   UNL     1       0.856  -1.179  14.560  1.00  0.00     0.237 C 
BRANCH   2   3
ATOM      3  N   UNL     1      -0.020  -1.820  15.550  1.00  0.00    -0.350 N 
ATOM      4  H   UNL     1      -0.338  -2.751  15.192  1.00  0.00     0.345 HD
ATOM      5  H   UNL     1       0.505  -1.982  16.441  1.00  0.00     0.345 HD
ATOM      6  H   UNL     1      -0.856  -1.223  15.747  1.00  0.00     0.345 HD
ENDBRANCH   2   3
BRANCH   2   7
ATOM      7  C   UNL     1       0.122  -0.060  13.869  1.00  0.00     0.100 C 
ATOM      8  O   UNL     1      -0.189   0.981  14.504  1.00  0.00    -0.544 OA
ATOM      9  O   UNL     1      -0.232  -0.177  12.530  1.00  0.00    -0.544 OA
ENDBRANCH   2   7
ENDBRANCH   1   2
BRANCH   1  10
ATOM     10  C   UNL     1       2.631  -1.525  16.313  1.00  0.00     0.223 C 
ATOM     11  O   UNL     1       2.776  -2.759  16.096  1.00  0.00    -0.275 OA
ATOM     12  N   UNL     1       2.902  -0.999  17.611  1.00  0.00    -0.369 N 
ATOM     13  H   UNL     1       2.766   0.017  17.815  1.00  0.00     0.159 HD
ATOM     14  H   UNL     1       3.233  -1.628  18.377  1.00  0.00     0.159 HD
ENDBRANCH   1  10
TORSDOF 4
ENDMDL
MODEL 5
REMARK VINA RESULT:    -3.705     11.442     12.480
REMARK INTER + INTRA:          -4.962
REMARK INTER:                  -4.722
REMARK INTRA:                  -0.240
REMARK UNBOUND:                -0.499
REMARK SMILES NC(=O)C[C@@H]([NH3+])C(=O)[O-]
REMARK SMILES IDX 4 1 5 2 6 3 7 7 8 8 9 9 2 10 3 11 1 12
REMARK H PARENT 6 4 6 5 6 6 1 13 1 14
REMARK Flexibility Score: inf
ROOT
ATOM      1  C   UNL     1      -3.992   1.485  20.443  1.00  0.00     0.171 C 
ENDROOT
BRANCH   1   2
ATOM      2  C   UNL     1      -3.143   0.206  20.300  1.00  0.00     0.237 C 
BRANCH   2   3
ATOM      3  N   UNL     1      -3.958  -1.003  20.481  1.00  0.00    -0.350 N 
ATOM      4  H   UNL     1      -3.336  -1.841  20.560  1.00  0.00     0.345 HD
ATOM      5  H   UNL     1      -4.514  -0.933  21.364  1.00  0.00     0.345 HD
ATOM      6  H   UNL     1      -4.610  -1.135  19.673  1.00  0.00     0.345 HD
ENDBRANCH   2   3
BRANCH   2   7
ATOM      7  C   UNL     1      -2.482   0.187  18.948  1.00  0.00     0.100 C 
ATOM      8  O   UNL     1      -2.402   1.243  18.266  1.00  0.00    -0.544 OA
ATOM      9  O   UNL     1      -1.972  -0.999  18.435  1.00  0.00    -0.544 OA
ENDBRANCH   2   7
ENDBRANCH   1   2
BRANCH   1  10
ATOM     10  C   UNL     1      -4.467   1.682  21.854  1.00  0.00     0.223 C 
ATOM     11  O   UNL     1      -5.565   1.182  22.218  1.00  0.00    -0.275 OA
ATOM     12  N   UNL     1      -3.705   2.461  22.775  1.00  0.00    -0.369 N 
ATOM     13  H   UNL     1      -2.804   2.903  22.483  1.00  0.00     0.159 HD
ATOM     14  H   UNL     1      -4.045   2.605  23.752  1.00  0.00     0.159 HD
ENDBRANCH   1  10
TORSDOF 4
ENDMDL
MODEL 6
REMARK VINA RESULT:    -3.697      2.069      3.454
REMARK INTER + INTRA:          -4.952
REMARK INTER:                  -4.445
REMARK INTRA:                  -0.506
REMARK UNBOUND:                -0.499
REMARK SMILES NC(=O)C[C@@H]([NH3+])C(=O)[O-]
REMARK SMILES IDX 4 1 5 2 6 3 7 7 8 8 9 9 2 10 3 11 1 12
REMARK H PARENT 6 4 6 5 6 6 1 13 1 14
REMARK Flexibility Score: inf
ROOT
ATOM      1  C   UNL     1       1.482   4.189   9.954  1.00  0.00     0.171 C 
ENDROOT
BRANCH   1   2
ATOM      2  C   UNL     1       2.926   4.704   9.786  1.00  0.00     0.237 C 
BRANCH   2   3
ATOM      3  N   UNL     1       3.197   5.105   8.399  1.00  0.00    -0.350 N 
ATOM      4  H   UNL     1       2.294   5.257   7.891  1.00  0.00     0.345 HD
ATOM      5  H   UNL     1       3.728   6.006   8.384  1.00  0.00     0.345 HD
ATOM      6  H   UNL     1       3.751   4.370   7.903  1.00  0.00     0.345 HD
ENDBRANCH   2   3
BRANCH   2   7
ATOM      7  C   UNL     1       3.159   5.866  10.715  1.00  0.00     0.100 C 
ATOM      8  O   UNL     1       3.751   5.691  11.813  1.00  0.00    -0.544 OA
ATOM      9  O   UNL     1       2.708   7.135  10.375  1.00  0.00    -0.544 OA
ENDBRANCH   2   7
ENDBRANCH   1   2
BRANCH   1  10
ATOM     10  C   UNL     1       0.553   4.802   8.946  1.00  0.00     0.223 C 
ATOM     11  O   UNL     1       0.413   4.261   7.816  1.00  0.00    -0.275 OA
ATOM     12  N   UNL     1      -0.144   6.011   9.243  1.00  0.00    -0.369 N 
ATOM     13  H   UNL     1      -0.022   6.486  10.165  1.00  0.00     0.159 HD
ATOM     14  H   UNL     1      -0.781   6.440   8.535  1.00  0.00     0.159 HD
ENDBRANCH   1  10
TORSDOF 4
ENDMDL
MODEL 7
REMARK VINA RESULT:    -3.691      7.251      8.367
REMARK INTER + INTRA:          -4.945
REMARK INTER:                  -4.578
REMARK INTRA:                  -0.366
REMARK UNBOUND:                -0.499
REMARK SMILES NC(=O)C[C@@H]([NH3+])C(=O)[O-]
REMARK SMILES IDX 4 1 5 2 6 3 7 7 8 8 9 9 2 10 3 11 1 12
REMARK H PARENT 6 4 6 5 6 6 1 13 1 14
REMARK Flexibility Score: inf
ROOT
ATOM      1  C   UNL     1       1.583  -0.279  14.950  1.00  0.00     0.171 C 
ENDROOT
BRANCH   1   2
ATOM      2  C   UNL     1       1.392  -1.587  15.743  1.00  0.00     0.237 C 
BRANCH   2   3
ATOM      3  N   UNL     1      -0.030  -1.867  15.986  1.00  0.00    -0.350 N 
ATOM      4  H   UNL     1      -0.591  -1.611  15.140  1.00  0.00     0.345 HD
ATOM      5  H   UNL     1      -0.170  -2.889  16.164  1.00  0.00     0.345 HD
ATOM      6  H   UNL     1      -0.380  -1.323  16.808  1.00  0.00     0.345 HD
ENDBRANCH   2   3
BRANCH   2   7
ATOM      7  C   UNL     1       2.022  -2.730  14.992  1.00  0.00     0.100 C 
ATOM      8  O   UNL     1       1.955  -3.902  15.450  1.00  0.00    -0.544 OA
ATOM      9  O   UNL     1       2.696  -2.498  13.800  1.00  0.00    -0.544 OA
ENDBRANCH   2   7
ENDBRANCH   1   2
BRANCH   1  10
ATOM     10  C   UNL     1       0.345   0.094  14.187  1.00  0.00     0.223 C 
ATOM     11  O   UNL     1      -0.465   0.925  14.679  1.00  0.00    -0.275 OA
ATOM     12  N   UNL     1       0.060  -0.511  12.926  1.00  0.00    -0.369 N 
ATOM     13  H   UNL     1       0.707  -1.219  12.514  1.00  0.00     0.159 HD
ATOM     14  H   UNL     1      -0.808  -0.256  12.404  1.00  0.00     0.159 HD
ENDBRANCH   1  10
TORSDOF 4
ENDMDL
MODEL 8
REMARK VINA RESULT:    -3.652      2.182      2.231
REMARK INTER + INTRA:          -4.898
REMARK INTER:                  -4.619
REMARK INTRA:                  -0.279
REMARK UNBOUND:                -0.499
REMARK SMILES NC(=O)C[C@@H]([NH3+])C(=O)[O-]
REMARK SMILES IDX 4 1 5 2 6 3 7 7 8 8 9 9 2 10 3 11 1 12
REMARK H PARENT 6 4 6 5 6 6 1 13 1 14
REMARK Flexibility Score: inf
ROOT
ATOM      1  C   UNL     1       1.287   6.349  10.055  1.00  0.00     0.171 C 
ENDROOT
BRANCH   1   2
ATOM      2  C   UNL     1       0.603   5.041  10.500  1.00  0.00     0.237 C 
BRANCH   2   3
ATOM      3  N   UNL     1       0.438   4.989  11.958  1.00  0.00    -0.350 N 
ATOM      4  H   UNL     1       0.693   4.037  12.310  1.00  0.00     0.345 HD
ATOM      5  H   UNL     1       1.075   5.680  12.417  1.00  0.00     0.345 HD
ATOM      6  H   UNL     1      -0.551   5.201  12.227  1.00  0.00     0.345 HD
ENDBRANCH   2   3
BRANCH   2   7
ATOM      7  C   UNL     1      -0.736   4.916   9.823  1.00  0.00     0.100 C 
ATOM      8  O   UNL     1      -0.814   4.926   8.566  1.00  0.00    -0.544 OA
ATOM      9  O   UNL     1      -1.895   4.805  10.580  1.00  0.00    -0.544 OA
ENDBRANCH   2   7
ENDBRANCH   1   2
BRANCH   1  10
ATOM     10  C   UNL     1       2.164   6.913  11.136  1.00  0.00     0.223 C 
ATOM     11  O   UNL     1       3.080   6.203  11.630  1.00  0.00    -0.275 OA
ATOM     12  N   UNL     1       1.946   8.233  11.632  1.00  0.00    -0.369 N 
ATOM     13  H   UNL     1       1.177   8.828  11.251  1.00  0.00     0.159 HD
ATOM     14  H   UNL     1       2.552   8.617  12.392  1.00  0.00     0.159 HD
ENDBRANCH   1  10
TORSDOF 4
ENDMDL
MODEL 9
REMARK VINA RESULT:    -3.582      7.650      8.336
REMARK INTER + INTRA:          -4.813
REMARK INTER:                  -4.396
REMARK INTRA:                  -0.417
REMARK UNBOUND:                -0.499
REMARK SMILES NC(=O)C[C@@H]([NH3+])C(=O)[O-]
REMARK SMILES IDX 4 1 5 2 6 3 7 7 8 8 9 9 2 10 3 11 1 12
REMARK H PARENT 6 4 6 5 6 6 1 13 1 14
REMARK Flexibility Score: inf
ROOT
ATOM      1  C   UNL     1       0.613   0.301  14.619  1.00  0.00     0.171 C 
ENDROOT
BRANCH   1   2
ATOM      2  C   UNL     1      -0.847   0.041  15.040  1.00  0.00     0.237 C 
BRANCH   2   3
ATOM      3  N   UNL     1      -1.220  -1.367  14.848  1.00  0.00    -0.350 N 
ATOM      4  H   UNL     1      -1.533  -1.778  15.759  1.00  0.00     0.345 HD
ATOM      5  H   UNL     1      -2.017  -1.439  14.174  1.00  0.00     0.345 HD
ATOM      6  H   UNL     1      -0.410  -1.919  14.483  1.00  0.00     0.345 HD
ENDBRANCH   2   3
BRANCH   2   7
ATOM      7  C   UNL     1      -1.035   0.433  16.481  1.00  0.00     0.100 C 
ATOM      8  O   UNL     1      -1.363   1.612  16.779  1.00  0.00    -0.544 OA
ATOM      9  O   UNL     1      -0.832  -0.497  17.492  1.00  0.00    -0.544 OA
ENDBRANCH   2   7
ENDBRANCH   1   2
BRANCH   1  10
ATOM     10  C   UNL     1       1.533  -0.780  15.108  1.00  0.00     0.223 C 
ATOM     11  O   UNL     1       1.652  -1.846  14.446  1.00  0.00    -0.275 OA
ATOM     12  N   UNL     1       2.248  -0.625  16.333  1.00  0.00    -0.369 N 
ATOM     13  H   UNL     1       2.144   0.242  16.907  1.00  0.00     0.159 HD
ATOM     14  H   UNL     1       2.879  -1.385  16.675  1.00  0.00     0.159 HD
ENDBRANCH   1  10
TORSDOF 4
ENDMDL
