MODEL 1
REMARK VINA RESULT:    -3.947      0.000      0.000
REMARK INTER + INTRA:          -7.498
REMARK INTER:                  -6.254
REMARK INTRA:                  -1.244
REMARK UNBOUND:                -1.244
REMARK SMILES CCCCCCCCCCCC(=O)[O-]
REMARK SMILES IDX 7 1 8 2 9 3 10 4 11 5 12 6 13 7 14 8 6 9 5 10 4 11 3 12 2 13
REMARK SMILES IDX 1 14
REMARK H PARENT
REMARK Flexibility Score: inf
ROOT
ATOM      1  C   UNL     1      18.237  11.312  -7.304  1.00  0.00     0.000 C 
ENDROOT
BRANCH   1   2
ATOM      2  C   UNL     1      18.005  11.711  -5.840  1.00  0.00     0.000 C 
BRANCH   2   3
ATOM      3  C   UNL     1      19.282  12.222  -5.154  1.00  0.00     0.000 C 
BRANCH   3   4
ATOM      4  C   UNL     1      19.156  13.676  -4.678  1.00  0.00     0.006 C 
BRANCH   4   5
ATOM      5  C   UNL     1      17.686  14.085  -4.548  1.00  0.00     0.053 C 
BRANCH   5   6
ATOM      6  C   UNL     1      17.382  15.243  -5.444  1.00  0.00     0.041 C 
ATOM      7  O   UNL     1      16.334  15.919  -5.274  1.00  0.00    -0.550 OA
ATOM      8  O   UNL     1      18.232  15.546  -6.501  1.00  0.00    -0.550 OA
ENDBRANCH   5   6
ENDBRANCH   4   5
ENDBRANCH   3   4
ENDBRANCH   2   3
ENDBRANCH   1   2
BRANCH   1   9
ATOM      9  C   UNL     1      19.158  12.316  -8.007  1.00  0.00     0.000 C 
BRANCH   9  10
ATOM     10  C   UNL     1      18.518  12.843  -9.297  1.00  0.00    -0.000 C 
BRANCH  10  11
ATOM     11  C   UNL     1      17.225  13.614  -8.995  1.00  0.00    -0.000 C 
BRANCH  11  12
ATOM     12  C   UNL     1      16.025  13.100  -9.805  1.00  0.00    -0.000 C 
BRANCH  12  13
ATOM     13  C   UNL     1      14.799  12.808  -8.927  1.00  0.00    -0.003 C 
ATOM     14  C   UNL     1      15.052  13.214  -7.478  1.00  0.00     0.004 C 
ENDBRANCH  12  13
ENDBRANCH  11  12
ENDBRANCH  10  11
ENDBRANCH   9  10
ENDBRANCH   1   9
TORSDOF 10
ENDMDL
MODEL 2
REMARK VINA RESULT:    -3.931      2.064      4.903
REMARK INTER + INTRA:          -7.474
REMARK INTER:                  -6.244
REMARK INTRA:                  -1.230
REMARK UNBOUND:                -1.244
REMARK SMILES CCCCCCCCCCCC(=O)[O-]
REMARK SMILES IDX 7 1 8 2 9 3 10 4 11 5 12 6 13 7 14 8 6 9 5 10 4 11 3 12 2 13
REMARK SMILES IDX 1 14
REMARK H PARENT
REMARK Flexibility Score: inf
ROOT
ATOM      1  C   UNL     1      15.488  12.692  -6.745  1.00  0.00     0.000 C 
ENDROOT
BRANCH   1   2
ATOM      2  C   UNL     1      14.894  13.548  -7.873  1.00  0.00     0.000 C 
BRANCH   2   3
ATOM      3  C   UNL     1      15.147  12.950  -9.266  1.00  0.00     0.000 C 
BRANCH   3   4
ATOM      4  C   UNL     1      16.609  13.091  -9.715  1.00  0.00     0.006 C 
BRANCH   4   5
ATOM      5  C   UNL     1      17.067  14.550  -9.636  1.00  0.00     0.053 C 
BRANCH   5   6
ATOM      6  C   UNL     1      18.375  14.652  -8.919  1.00  0.00     0.041 C 
ATOM      7  O   UNL     1      18.972  13.610  -8.539  1.00  0.00    -0.550 OA
ATOM      8  O   UNL     1      18.912  15.898  -8.625  1.00  0.00    -0.550 OA
ENDBRANCH   5   6
ENDBRANCH   4   5
ENDBRANCH   3   4
ENDBRANCH   2   3
ENDBRANCH   1   2
BRANCH   1   9
ATOM      9  C   UNL     1      16.517  13.489  -5.934  1.00  0.00     0.000 C 
BRANCH   9  10
ATOM     10  C   UNL     1      16.195  14.989  -5.956  1.00  0.00    -0.000 C 
BRANCH  10  11
ATOM     11  C   UNL     1      17.223  15.785  -5.139  1.00  0.00    -0.000 C 
BRANCH  11  12
ATOM     12  C   UNL     1      18.627  15.161  -5.185  1.00  0.00    -0.000 C 
BRANCH  12  13
ATOM     13  C   UNL     1      19.266  15.040  -3.794  1.00  0.00    -0.003 C 
ATOM     14  C   UNL     1      19.770  13.622  -3.542  1.00  0.00     0.004 C 
ENDBRANCH  12  13
ENDBRANCH  11  12
ENDBRANCH  10  11
ENDBRANCH   9  10
ENDBRANCH   1   9
TORSDOF 10
ENDMDL
MODEL 3
REMARK VINA RESULT:    -3.923      1.702      4.812
REMARK INTER + INTRA:          -7.461
REMARK INTER:                  -6.304
REMARK INTRA:                  -1.157
REMARK UNBOUND:                -1.244
REMARK SMILES CCCCCCCCCCCC(=O)[O-]
REMARK SMILES IDX 7 1 8 2 9 3 10 4 11 5 12 6 13 7 14 8 6 9 5 10 4 11 3 12 2 13
REMARK SMILES IDX 1 14
REMARK H PARENT
REMARK Flexibility Score: inf
ROOT
ATOM      1  C   UNL     1      16.176  14.633  -6.059  1.00  0.00     0.000 C 
ENDROOT
BRANCH   1   2
ATOM      2  C   UNL     1      15.796  13.220  -6.527  1.00  0.00     0.000 C 
BRANCH   2   3
ATOM      3  C   UNL     1      14.747  13.229  -7.650  1.00  0.00     0.000 C 
BRANCH   3   4
ATOM      4  C   UNL     1      15.326  12.795  -9.004  1.00  0.00     0.006 C 
BRANCH   4   5
ATOM      5  C   UNL     1      15.883  13.997  -9.772  1.00  0.00     0.053 C 
BRANCH   5   6
ATOM      6  C   UNL     1      17.373  14.046  -9.662  1.00  0.00     0.041 C 
ATOM      7  O   UNL     1      18.052  12.991  -9.768  1.00  0.00    -0.550 OA
ATOM      8  O   UNL     1      18.010  15.250  -9.391  1.00  0.00    -0.550 OA
ENDBRANCH   5   6
ENDBRANCH   4   5
ENDBRANCH   3   4
ENDBRANCH   2   3
ENDBRANCH   1   2
BRANCH   1   9
ATOM      9  C   UNL     1      17.695  14.770  -5.903  1.00  0.00     0.000 C 
BRANCH   9  10
ATOM     10  C   UNL     1      18.109  14.679  -4.429  1.00  0.00    -0.000 C 
BRANCH  10  11
ATOM     11  C   UNL     1      18.983  13.441  -4.178  1.00  0.00    -0.000 C 
BRANCH  11  12
ATOM     12  C   UNL     1      19.531  12.831  -5.477  1.00  0.00    -0.000 C 
BRANCH  12  13
ATOM     13  C   UNL     1      19.222  11.331  -5.602  1.00  0.00    -0.003 C 
ATOM     14  C   UNL     1      18.601  11.009  -6.959  1.00  0.00     0.004 C 
ENDBRANCH  12  13
ENDBRANCH  11  12
ENDBRANCH  10  11
ENDBRANCH   9  10
ENDBRANCH   1   9
TORSDOF 10
ENDMDL
MODEL 4
REMARK VINA RESULT:    -3.860      2.090      4.648
REMARK INTER + INTRA:          -7.360
REMARK INTER:                  -6.044
REMARK INTRA:                  -1.316
REMARK UNBOUND:                -1.244
REMARK SMILES CCCCCCCCCCCC(=O)[O-]
REMARK SMILES IDX 7 1 8 2 9 3 10 4 11 5 12 6 13 7 14 8 6 9 5 10 4 11 3 12 2 13
REMARK SMILES IDX 1 14
REMARK H PARENT
REMARK Flexibility Score: inf
ROOT
ATOM      1  C   UNL     1      15.728  12.574  -6.384  1.00  0.00     0.000 C 
ENDROOT
BRANCH   1   2
ATOM      2  C   UNL     1      15.332  13.552  -7.500  1.00  0.00     0.000 C 
BRANCH   2   3
ATOM      3  C   UNL     1      14.849  12.837  -8.771  1.00  0.00     0.000 C 
BRANCH   3   4
ATOM      4  C   UNL     1      15.762  13.095  -9.979  1.00  0.00     0.006 C 
BRANCH   4   5
ATOM      5  C   UNL     1      16.585  14.371  -9.780  1.00  0.00     0.053 C 
BRANCH   5   6
ATOM      6  C   UNL     1      18.048  14.070  -9.864  1.00  0.00     0.041 C 
ATOM      7  O   UNL     1      18.879  15.004 -10.017  1.00  0.00    -0.550 OA
ATOM      8  O   UNL     1      18.491  12.754  -9.823  1.00  0.00    -0.550 OA
ENDBRANCH   5   6
ENDBRANCH   4   5
ENDBRANCH   3   4
ENDBRANCH   2   3
ENDBRANCH   1   2
BRANCH   1   9
ATOM      9  C   UNL     1      17.140  12.021  -6.614  1.00  0.00     0.000 C 
BRANCH   9  10
ATOM     10  C   UNL     1      18.138  12.627  -5.620  1.00  0.00    -0.000 C 
BRANCH  10  11
ATOM     11  C   UNL     1      18.986  13.720  -6.289  1.00  0.00    -0.000 C 
BRANCH  11  12
ATOM     12  C   UNL     1      18.897  15.069  -5.559  1.00  0.00    -0.000 C 
BRANCH  12  13
ATOM     13  C   UNL     1      17.700  15.143  -4.599  1.00  0.00    -0.003 C 
ATOM     14  C   UNL     1      16.598  16.035  -5.162  1.00  0.00     0.004 C 
ENDBRANCH  12  13
ENDBRANCH  11  12
ENDBRANCH  10  11
ENDBRANCH   9  10
ENDBRANCH   1   9
TORSDOF 10
ENDMDL
MODEL 5
REMARK VINA RESULT:    -3.846      9.628     10.685
REMARK INTER + INTRA:          -7.338
REMARK INTER:                  -6.597
REMARK INTRA:                  -0.741
REMARK UNBOUND:                -1.244
REMARK SMILES CCCCCCCCCCCC(=O)[O-]
REMARK SMILES IDX 7 1 8 2 9 3 10 4 11 5 12 6 13 7 14 8 6 9 5 10 4 11 3 12 2 13
REMARK SMILES IDX 1 14
REMARK H PARENT
REMARK Flexibility Score: inf
ROOT
ATOM      1  C   UNL     1      18.316   2.341  -5.424  1.00  0.00     0.000 C 
ENDROOT
BRANCH   1   2
ATOM      2  C   UNL     1      18.570   2.913  -4.021  1.00  0.00     0.000 C 
BRANCH   2   3
ATOM      3  C   UNL     1      17.270   3.248  -3.273  1.00  0.00     0.000 C 
BRANCH   3   4
ATOM      4  C   UNL     1      17.469   3.342  -1.753  1.00  0.00     0.006 C 
BRANCH   4   5
ATOM      5  C   UNL     1      16.247   3.973  -1.079  1.00  0.00     0.053 C 
BRANCH   5   6
ATOM      6  C   UNL     1      16.019   3.367   0.268  1.00  0.00     0.041 C 
ATOM      7  O   UNL     1      14.971   2.708   0.499  1.00  0.00    -0.550 OA
ATOM      8  O   UNL     1      16.941   3.571   1.287  1.00  0.00    -0.550 OA
ENDBRANCH   5   6
ENDBRANCH   4   5
ENDBRANCH   3   4
ENDBRANCH   2   3
ENDBRANCH   1   2
BRANCH   1   9
ATOM      9  C   UNL     1      16.821   2.087  -5.651  1.00  0.00     0.000 C 
BRANCH   9  10
ATOM     10  C   UNL     1      16.363   2.657  -6.999  1.00  0.00    -0.000 C 
BRANCH  10  11
ATOM     11  C   UNL     1      17.111   3.957  -7.330  1.00  0.00    -0.000 C 
BRANCH  11  12
ATOM     12  C   UNL     1      16.343   5.212  -6.886  1.00  0.00    -0.000 C 
BRANCH  12  13
ATOM     13  C   UNL     1      14.938   4.889  -6.356  1.00  0.00    -0.003 C 
ATOM     14  C   UNL     1      13.942   5.979  -6.740  1.00  0.00     0.004 C 
ENDBRANCH  12  13
ENDBRANCH  11  12
ENDBRANCH  10  11
ENDBRANCH   9  10
ENDBRANCH   1   9
TORSDOF 10
ENDMDL
MODEL 6
REMARK VINA RESULT:    -3.844      1.912      3.353
REMARK INTER + INTRA:          -7.335
REMARK INTER:                  -6.010
REMARK INTRA:                  -1.325
REMARK UNBOUND:                -1.244
REMARK SMILES CCCCCCCCCCCC(=O)[O-]
REMARK SMILES IDX 7 1 8 2 9 3 10 4 11 5 12 6 13 7 14 8 6 9 5 10 4 11 3 12 2 13
REMARK SMILES IDX 1 14
REMARK H PARENT
REMARK Flexibility Score: inf
ROOT
ATOM      1  C   UNL     1      16.241  13.551  -6.477  1.00  0.00     0.000 C 
ENDROOT
BRANCH   1   2
ATOM      2  C   UNL     1      16.147  14.925  -5.798  1.00  0.00     0.000 C 
BRANCH   2   3
ATOM      3  C   UNL     1      17.512  15.448  -5.325  1.00  0.00     0.000 C 
BRANCH   3   4
ATOM      4  C   UNL     1      18.666  14.992  -6.230  1.00  0.00     0.006 C 
BRANCH   4   5
ATOM      5  C   UNL     1      19.877  14.560  -5.398  1.00  0.00     0.053 C 
BRANCH   5   6
ATOM      6  C   UNL     1      19.500  13.462  -4.455  1.00  0.00     0.041 C 
ATOM      7  O   UNL     1      19.581  13.639  -3.211  1.00  0.00    -0.550 OA
ATOM      8  O   UNL     1      19.107  12.225  -4.949  1.00  0.00    -0.550 OA
ENDBRANCH   5   6
ENDBRANCH   4   5
ENDBRANCH   3   4
ENDBRANCH   2   3
ENDBRANCH   1   2
BRANCH   1   9
ATOM      9  C   UNL     1      14.937  13.210  -7.207  1.00  0.00     0.000 C 
BRANCH   9  10
ATOM     10  C   UNL     1      15.200  12.880  -8.682  1.00  0.00    -0.000 C 
BRANCH  10  11
ATOM     11  C   UNL     1      16.256  13.825  -9.277  1.00  0.00    -0.000 C 
BRANCH  11  12
ATOM     12  C   UNL     1      17.342  13.078 -10.065  1.00  0.00    -0.000 C 
BRANCH  12  13
ATOM     13  C   UNL     1      18.730  13.196  -9.417  1.00  0.00    -0.003 C 
ATOM     14  C   UNL     1      19.001  12.022  -8.481  1.00  0.00     0.004 C 
ENDBRANCH  12  13
ENDBRANCH  11  12
ENDBRANCH  10  11
ENDBRANCH   9  10
ENDBRANCH   1   9
TORSDOF 10
ENDMDL
MODEL 7
REMARK VINA RESULT:    -3.644      1.764      4.210
REMARK INTER + INTRA:          -7.018
REMARK INTER:                  -5.830
REMARK INTRA:                  -1.187
REMARK UNBOUND:                -1.244
REMARK SMILES CCCCCCCCCCCC(=O)[O-]
REMARK SMILES IDX 7 1 8 2 9 3 10 4 11 5 12 6 13 7 14 8 6 9 5 10 4 11 3 12 2 13
REMARK SMILES IDX 1 14
REMARK H PARENT
REMARK Flexibility Score: inf
ROOT
ATOM      1  C   UNL     1      18.627  11.208  -7.180  1.00  0.00     0.000 C 
ENDROOT
BRANCH   1   2
ATOM      2  C   UNL     1      19.045  12.464  -7.958  1.00  0.00     0.000 C 
BRANCH   2   3
ATOM      3  C   UNL     1      18.403  12.539  -9.352  1.00  0.00     0.000 C 
BRANCH   3   4
ATOM      4  C   UNL     1      17.537  13.793  -9.539  1.00  0.00     0.006 C 
BRANCH   4   5
ATOM      5  C   UNL     1      16.799  14.146  -8.244  1.00  0.00     0.053 C 
BRANCH   5   6
ATOM      6  C   UNL     1      15.598  13.273  -8.069  1.00  0.00     0.041 C 
ATOM      7  O   UNL     1      15.219  12.939  -6.916  1.00  0.00    -0.550 OA
ATOM      8  O   UNL     1      14.926  12.785  -9.182  1.00  0.00    -0.550 OA
ENDBRANCH   5   6
ENDBRANCH   4   5
ENDBRANCH   3   4
ENDBRANCH   2   3
ENDBRANCH   1   2
BRANCH   1   9
ATOM      9  C   UNL     1      18.302  11.549  -5.720  1.00  0.00     0.000 C 
BRANCH   9  10
ATOM     10  C   UNL     1      19.535  12.103  -4.996  1.00  0.00    -0.000 C 
BRANCH  10  11
ATOM     11  C   UNL     1      19.208  13.425  -4.285  1.00  0.00    -0.000 C 
BRANCH  11  12
ATOM     12  C   UNL     1      17.806  13.950  -4.628  1.00  0.00    -0.000 C 
BRANCH  12  13
ATOM     13  C   UNL     1      17.788  15.463  -4.890  1.00  0.00    -0.003 C 
ATOM     14  C   UNL     1      16.377  15.950  -5.206  1.00  0.00     0.004 C 
ENDBRANCH  12  13
ENDBRANCH  11  12
ENDBRANCH  10  11
ENDBRANCH   9  10
ENDBRANCH   1   9
TORSDOF 10
ENDMDL
MODEL 8
REMARK VINA RESULT:    -3.607      1.619      3.054
REMARK INTER + INTRA:          -6.960
REMARK INTER:                  -5.699
REMARK INTRA:                  -1.261
REMARK UNBOUND:                -1.244
REMARK SMILES CCCCCCCCCCCC(=O)[O-]
REMARK SMILES IDX 7 1 8 2 9 3 10 4 11 5 12 6 13 7 14 8 6 9 5 10 4 11 3 12 2 13
REMARK SMILES IDX 1 14
REMARK H PARENT
REMARK Flexibility Score: inf
ROOT
ATOM      1  C   UNL     1      16.753  13.758  -6.150  1.00  0.00     0.000 C 
ENDROOT
BRANCH   1   2
ATOM      2  C   UNL     1      16.822  12.234  -5.973  1.00  0.00     0.000 C 
BRANCH   2   3
ATOM      3  C   UNL     1      18.025  11.607  -6.695  1.00  0.00     0.000 C 
BRANCH   3   4
ATOM      4  C   UNL     1      19.328  12.384  -6.459  1.00  0.00     0.006 C 
BRANCH   4   5
ATOM      5  C   UNL     1      19.785  12.257  -5.002  1.00  0.00     0.053 C 
BRANCH   5   6
ATOM      6  C   UNL     1      19.923  13.608  -4.376  1.00  0.00     0.041 C 
ATOM      7  O   UNL     1      19.815  13.742  -3.129  1.00  0.00    -0.550 OA
ATOM      8  O   UNL     1      20.122  14.727  -5.174  1.00  0.00    -0.550 OA
ENDBRANCH   5   6
ENDBRANCH   4   5
ENDBRANCH   3   4
ENDBRANCH   2   3
ENDBRANCH   1   2
BRANCH   1   9
ATOM      9  C   UNL     1      15.631  14.147  -7.120  1.00  0.00     0.000 C 
BRANCH   9  10
ATOM     10  C   UNL     1      14.912  12.905  -7.659  1.00  0.00    -0.000 C 
BRANCH  10  11
ATOM     11  C   UNL     1      14.990  12.846  -9.193  1.00  0.00    -0.000 C 
BRANCH  11  12
ATOM     12  C   UNL     1      16.058  13.788  -9.768  1.00  0.00    -0.000 C 
BRANCH  12  13
ATOM     13  C   UNL     1      17.392  13.075 -10.037  1.00  0.00    -0.003 C 
ATOM     14  C   UNL     1      18.575  13.989  -9.728  1.00  0.00     0.004 C 
ENDBRANCH  12  13
ENDBRANCH  11  12
ENDBRANCH  10  11
ENDBRANCH   9  10
ENDBRANCH   1   9
TORSDOF 10
ENDMDL
MODEL 9
REMARK VINA RESULT:    -3.605      1.853      3.690
REMARK INTER + INTRA:          -6.956
REMARK INTER:                  -5.558
REMARK INTRA:                  -1.399
REMARK UNBOUND:                -1.244
REMARK SMILES CCCCCCCCCCCC(=O)[O-]
REMARK SMILES IDX 7 1 8 2 9 3 10 4 11 5 12 6 13 7 14 8 6 9 5 10 4 11 3 12 2 13
REMARK SMILES IDX 1 14
REMARK H PARENT
REMARK Flexibility Score: inf
ROOT
ATOM      1  C   UNL     1      19.851  12.699  -4.524  1.00  0.00     0.000 C 
ENDROOT
BRANCH   1   2
ATOM      2  C   UNL     1      18.963  11.885  -5.477  1.00  0.00     0.000 C 
BRANCH   2   3
ATOM      3  C   UNL     1      19.701  11.457  -6.755  1.00  0.00     0.000 C 
BRANCH   3   4
ATOM      4  C   UNL     1      18.940  11.839  -8.034  1.00  0.00     0.006 C 
BRANCH   4   5
ATOM      5  C   UNL     1      19.186  13.306  -8.399  1.00  0.00     0.053 C 
BRANCH   5   6
ATOM      6  C   UNL     1      18.208  13.760  -9.435  1.00  0.00     0.041 C 
ATOM      7  O   UNL     1      18.065  14.987  -9.678  1.00  0.00    -0.550 OA
ATOM      8  O   UNL     1      17.417  12.831 -10.099  1.00  0.00    -0.550 OA
ENDBRANCH   5   6
ENDBRANCH   4   5
ENDBRANCH   3   4
ENDBRANCH   2   3
ENDBRANCH   1   2
BRANCH   1   9
ATOM      9  C   UNL     1      19.081  13.889  -3.939  1.00  0.00     0.000 C 
BRANCH   9  10
ATOM     10  C   UNL     1      18.497  14.769  -5.050  1.00  0.00    -0.000 C 
BRANCH  10  11
ATOM     11  C   UNL     1      16.962  14.763  -5.008  1.00  0.00    -0.000 C 
BRANCH  11  12
ATOM     12  C   UNL     1      16.332  14.585  -6.397  1.00  0.00    -0.000 C 
BRANCH  12  13
ATOM     13  C   UNL     1      15.740  13.183  -6.604  1.00  0.00    -0.003 C 
ATOM     14  C   UNL     1      14.817  13.150  -7.818  1.00  0.00     0.004 C 
ENDBRANCH  12  13
ENDBRANCH  11  12
ENDBRANCH  10  11
ENDBRANCH   9  10
ENDBRANCH   1   9
TORSDOF 10
ENDMDL
