MODEL 1
REMARK VINA RESULT:    -3.693      0.000      0.000
REMARK INTER + INTRA:          -3.801
REMARK INTER:                  -3.801
REMARK INTRA:                   0.000
REMARK UNBOUND:                 0.000
REMARK SMILES Oc1ccc2[nH]ccc2c1
REMARK SMILES IDX 3 1 4 2 5 3 9 4 8 5 7 6 6 7 10 8 2 9 1 11
REMARK H PARENT 6 10 1 12
REMARK Flexibility Score: inf
ROOT
ATOM      1  C   UNL     1      40.624 -22.971   7.924  1.00  0.00     0.048 A 
ATOM      2  C   UNL     1      40.081 -23.107   9.215  1.00  0.00     0.030 A 
ATOM      3  C   UNL     1      40.543 -22.246  10.209  1.00  0.00     0.046 A 
ATOM      4  C   UNL     1      41.493 -21.294   9.952  1.00  0.00     0.003 A 
ATOM      5  C   UNL     1      41.727 -20.618  11.129  1.00  0.00     0.028 A 
ATOM      6  C   UNL     1      40.885 -21.212  12.063  1.00  0.00     0.083 A 
ATOM      7  N   UNL     1      40.163 -22.206  11.497  1.00  0.00    -0.361 N 
ATOM      8  C   UNL     1      42.050 -21.133   8.685  1.00  0.00     0.056 A 
ATOM      9  C   UNL     1      41.605 -21.989   7.655  1.00  0.00     0.116 A 
ATOM     10  H   UNL     1      39.457 -22.815  11.967  1.00  0.00     0.166 HD
ENDROOT
BRANCH   9  11
ATOM     11  O   UNL     1      42.125 -21.874   6.369  1.00  0.00    -0.508 OA
ATOM     12  H   UNL     1      41.661 -22.292   5.571  1.00  0.00     0.293 HD
ENDBRANCH   9  11
TORSDOF 1
ENDMDL
MODEL 2
REMARK VINA RESULT:    -3.247      2.634      4.101
REMARK INTER + INTRA:          -3.342
REMARK INTER:                  -3.342
REMARK INTRA:                   0.000
REMARK UNBOUND:                 0.000
REMARK SMILES Oc1ccc2[nH]ccc2c1
REMARK SMILES IDX 3 1 4 2 5 3 9 4 8 5 7 6 6 7 10 8 2 9 1 11
REMARK H PARENT 6 10 1 12
REMARK Flexibility Score: inf
ROOT
ATOM      1  C   UNL     1      41.540 -20.734  11.589  1.00  0.00     0.048 A 
ATOM      2  C   UNL     1      42.116 -20.499  10.327  1.00  0.00     0.030 A 
ATOM      3  C   UNL     1      41.706 -21.304   9.265  1.00  0.00     0.046 A 
ATOM      4  C   UNL     1      40.774 -22.294   9.430  1.00  0.00     0.003 A 
ATOM      5  C   UNL     1      40.593 -22.896   8.205  1.00  0.00     0.028 A 
ATOM      6  C   UNL     1      41.447 -22.222   7.338  1.00  0.00     0.083 A 
ATOM      7  N   UNL     1      42.125 -21.250   7.990  1.00  0.00    -0.361 N 
ATOM      8  C   UNL     1      40.185 -22.552  10.665  1.00  0.00     0.056 A 
ATOM      9  C   UNL     1      40.578 -21.755  11.763  1.00  0.00     0.116 A 
ATOM     10  H   UNL     1      42.829 -20.595   7.582  1.00  0.00     0.166 HD
ENDROOT
BRANCH   9  11
ATOM     11  O   UNL     1      40.022 -21.966  13.022  1.00  0.00    -0.508 OA
ATOM     12  H   UNL     1      39.209 -21.449  13.334  1.00  0.00     0.293 HD
ENDBRANCH   9  11
TORSDOF 1
ENDMDL
MODEL 3
REMARK VINA RESULT:    -2.764      2.683      3.698
REMARK INTER + INTRA:          -2.845
REMARK INTER:                  -2.845
REMARK INTRA:                   0.000
REMARK UNBOUND:                 0.000
REMARK SMILES Oc1ccc2[nH]ccc2c1
REMARK SMILES IDX 3 1 4 2 5 3 9 4 8 5 7 6 6 7 10 8 2 9 1 11
REMARK H PARENT 6 10 1 12
REMARK Flexibility Score: inf
ROOT
ATOM      1  C   UNL     1      41.060 -22.644  11.776  1.00  0.00     0.048 A 
ATOM      2  C   UNL     1      41.008 -23.124  10.454  1.00  0.00     0.030 A 
ATOM      3  C   UNL     1      41.396 -22.259   9.432  1.00  0.00     0.046 A 
ATOM      4  C   UNL     1      41.818 -20.982   9.690  1.00  0.00     0.003 A 
ATOM      5  C   UNL     1      42.125 -20.398   8.482  1.00  0.00     0.028 A 
ATOM      6  C   UNL     1      41.866 -21.376   7.528  1.00  0.00     0.083 A 
ATOM      7  N   UNL     1      41.422 -22.512   8.113  1.00  0.00    -0.361 N 
ATOM      8  C   UNL     1      41.881 -20.476  10.987  1.00  0.00     0.056 A 
ATOM      9  C   UNL     1      41.495 -21.326  12.046  1.00  0.00     0.116 A 
ATOM     10  H   UNL     1      41.154 -23.401   7.634  1.00  0.00     0.166 HD
ENDROOT
BRANCH   9  11
ATOM     11  O   UNL     1      41.539 -20.876  13.362  1.00  0.00    -0.508 OA
ATOM     12  H   UNL     1      40.726 -20.922  13.965  1.00  0.00     0.293 HD
ENDBRANCH   9  11
TORSDOF 1
ENDMDL
MODEL 4
REMARK VINA RESULT:    -2.542     21.415     22.235
REMARK INTER + INTRA:          -2.617
REMARK INTER:                  -2.617
REMARK INTRA:                   0.000
REMARK UNBOUND:                 0.000
REMARK SMILES Oc1ccc2[nH]ccc2c1
REMARK SMILES IDX 3 1 4 2 5 3 9 4 8 5 7 6 6 7 10 8 2 9 1 11
REMARK H PARENT 6 10 1 12
REMARK Flexibility Score: inf
ROOT
ATOM      1  C   UNL     1      40.446  -4.386  -5.602  1.00  0.00     0.048 A 
ATOM      2  C   UNL     1      41.380  -4.986  -4.737  1.00  0.00     0.030 A 
ATOM      3  C   UNL     1      41.333  -4.639  -3.388  1.00  0.00     0.046 A 
ATOM      4  C   UNL     1      40.414  -3.745  -2.906  1.00  0.00     0.003 A 
ATOM      5  C   UNL     1      40.631  -3.622  -1.551  1.00  0.00     0.028 A 
ATOM      6  C   UNL     1      41.700  -4.469  -1.275  1.00  0.00     0.083 A 
ATOM      7  N   UNL     1      42.125  -5.089  -2.400  1.00  0.00    -0.361 N 
ATOM      8  C   UNL     1      39.476  -3.134  -3.734  1.00  0.00     0.056 A 
ATOM      9  C   UNL     1      39.496  -3.463  -5.107  1.00  0.00     0.116 A 
ATOM     10  H   UNL     1      42.909  -5.774  -2.480  1.00  0.00     0.166 HD
ENDROOT
BRANCH   9  11
ATOM     11  O   UNL     1      38.582  -2.885  -5.984  1.00  0.00    -0.508 OA
ATOM     12  H   UNL     1      38.510  -1.880  -6.086  1.00  0.00     0.293 HD
ENDBRANCH   9  11
TORSDOF 1
ENDMDL
MODEL 5
REMARK VINA RESULT:    -2.508     21.550     22.493
REMARK INTER + INTRA:          -2.581
REMARK INTER:                  -2.581
REMARK INTRA:                   0.000
REMARK UNBOUND:                 0.000
REMARK SMILES Oc1ccc2[nH]ccc2c1
REMARK SMILES IDX 3 1 4 2 5 3 9 4 8 5 7 6 6 7 10 8 2 9 1 11
REMARK H PARENT 6 10 1 12
REMARK Flexibility Score: inf
ROOT
ATOM      1  C   UNL     1      42.107  -5.160  -3.186  1.00  0.00     0.048 A 
ATOM      2  C   UNL     1      41.824  -4.982  -4.553  1.00  0.00     0.030 A 
ATOM      3  C   UNL     1      40.701  -4.228  -4.891  1.00  0.00     0.046 A 
ATOM      4  C   UNL     1      39.892  -3.673  -3.937  1.00  0.00     0.003 A 
ATOM      5  C   UNL     1      38.885  -2.999  -4.592  1.00  0.00     0.028 A 
ATOM      6  C   UNL     1      39.142  -3.187  -5.946  1.00  0.00     0.083 A 
ATOM      7  N   UNL     1      40.253  -3.937  -6.124  1.00  0.00    -0.361 N 
ATOM      8  C   UNL     1      40.144  -3.830  -2.576  1.00  0.00     0.056 A 
ATOM      9  C   UNL     1      41.273  -4.588  -2.198  1.00  0.00     0.116 A 
ATOM     10  H   UNL     1      40.673  -4.230  -7.035  1.00  0.00     0.166 HD
ENDROOT
BRANCH   9  11
ATOM     11  O   UNL     1      41.576  -4.779  -0.852  1.00  0.00    -0.508 OA
ATOM     12  H   UNL     1      42.363  -4.313  -0.416  1.00  0.00     0.293 HD
ENDBRANCH   9  11
TORSDOF 1
ENDMDL
MODEL 6
REMARK VINA RESULT:    -2.345      1.274      2.099
REMARK INTER + INTRA:          -2.413
REMARK INTER:                  -2.413
REMARK INTRA:                   0.000
REMARK UNBOUND:                 0.000
REMARK SMILES Oc1ccc2[nH]ccc2c1
REMARK SMILES IDX 3 1 4 2 5 3 9 4 8 5 7 6 6 7 10 8 2 9 1 11
REMARK H PARENT 6 10 1 12
REMARK Flexibility Score: inf
ROOT
ATOM      1  C   UNL     1      41.764 -21.218   8.267  1.00  0.00     0.048 A 
ATOM      2  C   UNL     1      42.125 -20.473   9.405  1.00  0.00     0.030 A 
ATOM      3  C   UNL     1      41.709 -20.943  10.649  1.00  0.00     0.046 A 
ATOM      4  C   UNL     1      40.973 -22.090  10.776  1.00  0.00     0.003 A 
ATOM      5  C   UNL     1      40.727 -22.275  12.119  1.00  0.00     0.028 A 
ATOM      6  C   UNL     1      41.343 -21.201  12.753  1.00  0.00     0.083 A 
ATOM      7  N   UNL     1      41.942 -20.390  11.851  1.00  0.00    -0.361 N 
ATOM      8  C   UNL     1      40.598 -22.851   9.671  1.00  0.00     0.056 A 
ATOM      9  C   UNL     1      41.003 -22.403   8.395  1.00  0.00     0.116 A 
ATOM     10  H   UNL     1      42.475 -19.514  12.052  1.00  0.00     0.166 HD
ENDROOT
BRANCH   9  11
ATOM     11  O   UNL     1      40.660 -23.123   7.254  1.00  0.00    -0.508 OA
ATOM     12  H   UNL     1      39.942 -22.795   6.617  1.00  0.00     0.293 HD
ENDBRANCH   9  11
TORSDOF 1
ENDMDL
MODEL 7
REMARK VINA RESULT:    -2.083     21.391     22.316
REMARK INTER + INTRA:          -2.144
REMARK INTER:                  -2.144
REMARK INTRA:                   0.000
REMARK UNBOUND:                 0.000
REMARK SMILES Oc1ccc2[nH]ccc2c1
REMARK SMILES IDX 3 1 4 2 5 3 9 4 8 5 7 6 6 7 10 8 2 9 1 11
REMARK H PARENT 6 10 1 12
REMARK Flexibility Score: inf
ROOT
ATOM      1  C   UNL     1      39.907  -2.905  -3.196  1.00  0.00     0.048 A 
ATOM      2  C   UNL     1      39.939  -3.285  -4.550  1.00  0.00     0.030 A 
ATOM      3  C   UNL     1      40.731  -4.378  -4.900  1.00  0.00     0.046 A 
ATOM      4  C   UNL     1      41.460  -5.067  -3.968  1.00  0.00     0.003 A 
ATOM      5  C   UNL     1      42.125  -6.076  -4.630  1.00  0.00     0.028 A 
ATOM      6  C   UNL     1      41.756  -5.941  -5.964  1.00  0.00     0.083 A 
ATOM      7  N   UNL     1      40.904  -4.903  -6.125  1.00  0.00    -0.361 N 
ATOM      8  C   UNL     1      41.450  -4.717  -2.620  1.00  0.00     0.056 A 
ATOM      9  C   UNL     1      40.658  -3.615  -2.231  1.00  0.00     0.116 A 
ATOM     10  H   UNL     1      40.473  -4.578  -7.019  1.00  0.00     0.166 HD
ENDROOT
BRANCH   9  11
ATOM     11  O   UNL     1      40.607  -3.220  -0.897  1.00  0.00    -0.508 OA
ATOM     12  H   UNL     1      40.421  -3.884  -0.155  1.00  0.00     0.293 HD
ENDBRANCH   9  11
TORSDOF 1
ENDMDL
MODEL 8
REMARK VINA RESULT:    -0.866     21.050     21.878
REMARK INTER + INTRA:          -0.892
REMARK INTER:                  -0.892
REMARK INTRA:                   0.000
REMARK UNBOUND:                 0.000
REMARK SMILES Oc1ccc2[nH]ccc2c1
REMARK SMILES IDX 3 1 4 2 5 3 9 4 8 5 7 6 6 7 10 8 2 9 1 11
REMARK H PARENT 6 10 1 12
REMARK Flexibility Score: inf
ROOT
ATOM      1  C   UNL     1      40.122  -3.602  -4.799  1.00  0.00     0.048 A 
ATOM      2  C   UNL     1      39.921  -2.941  -3.573  1.00  0.00     0.030 A 
ATOM      3  C   UNL     1      40.665  -3.368  -2.474  1.00  0.00     0.046 A 
ATOM      4  C   UNL     1      41.564  -4.396  -2.569  1.00  0.00     0.003 A 
ATOM      5  C   UNL     1      42.125  -4.569  -1.323  1.00  0.00     0.028 A 
ATOM      6  C   UNL     1      41.519  -3.612  -0.516  1.00  0.00     0.083 A 
ATOM      7  N   UNL     1      40.629  -2.880  -1.223  1.00  0.00    -0.361 N 
ATOM      8  C   UNL     1      41.786  -5.072  -3.767  1.00  0.00     0.056 A 
ATOM      9  C   UNL     1      41.049  -4.664  -4.900  1.00  0.00     0.116 A 
ATOM     10  H   UNL     1      40.036  -2.098  -0.866  1.00  0.00     0.166 HD
ENDROOT
BRANCH   9  11
ATOM     11  O   UNL     1      41.230  -5.301  -6.125  1.00  0.00    -0.508 OA
ATOM     12  H   UNL     1      40.496  -5.325  -6.822  1.00  0.00     0.293 HD
ENDBRANCH   9  11
TORSDOF 1
ENDMDL
