MODEL 1
REMARK VINA RESULT:    -5.205      0.000      0.000
REMARK INTER + INTRA:          -9.457
REMARK INTER:                  -8.248
REMARK INTRA:                  -1.208
REMARK UNBOUND:                -1.208
REMARK SMILES CCCCCCCCCCCC(=O)[O-]
REMARK SMILES IDX 7 1 8 2 9 3 10 4 11 5 12 6 13 7 14 8 6 9 5 10 4 11 3 12 2 13
REMARK SMILES IDX 1 14
REMARK H PARENT
REMARK Flexibility Score: inf
ROOT
ATOM      1  C   UNL     1      43.124  39.630  15.424  1.00  0.00     0.000 C 
ENDROOT
BRANCH   1   2
ATOM      2  C   UNL     1      42.859  41.091  15.029  1.00  0.00     0.000 C 
BRANCH   2   3
ATOM      3  C   UNL     1      41.381  41.488  15.190  1.00  0.00     0.000 C 
BRANCH   3   4
ATOM      4  C   UNL     1      40.682  40.712  16.318  1.00  0.00     0.006 C 
BRANCH   4   5
ATOM      5  C   UNL     1      40.611  41.507  17.628  1.00  0.00     0.053 C 
BRANCH   5   6
ATOM      6  C   UNL     1      41.646  41.018  18.591  1.00  0.00     0.041 C 
ATOM      7  O   UNL     1      41.378  40.080  19.388  1.00  0.00    -0.550 OA
ATOM      8  O   UNL     1      42.924  41.563  18.576  1.00  0.00    -0.550 OA
ENDBRANCH   5   6
ENDBRANCH   4   5
ENDBRANCH   3   4
ENDBRANCH   2   3
ENDBRANCH   1   2
BRANCH   1   9
ATOM      9  C   UNL     1      43.848  38.838  14.321  1.00  0.00     0.000 C 
BRANCH   9  10
ATOM     10  C   UNL     1      42.885  38.308  13.246  1.00  0.00    -0.000 C 
BRANCH  10  11
ATOM     11  C   UNL     1      42.140  37.042  13.692  1.00  0.00    -0.000 C 
BRANCH  11  12
ATOM     12  C   UNL     1      40.627  37.189  13.464  1.00  0.00    -0.000 C 
BRANCH  12  13
ATOM     13  C   UNL     1      40.207  38.645  13.213  1.00  0.00    -0.003 C 
ATOM     14  C   UNL     1      39.092  38.769  12.176  1.00  0.00     0.004 C 
ENDBRANCH  12  13
ENDBRANCH  11  12
ENDBRANCH  10  11
ENDBRANCH   9  10
ENDBRANCH   1   9
TORSDOF 10
ENDMDL
MODEL 2
REMARK VINA RESULT:    -5.042      1.301      2.322
REMARK INTER + INTRA:          -9.197
REMARK INTER:                  -8.231
REMARK INTRA:                  -0.966
REMARK UNBOUND:                -1.208
REMARK SMILES CCCCCCCCCCCC(=O)[O-]
REMARK SMILES IDX 7 1 8 2 9 3 10 4 11 5 12 6 13 7 14 8 6 9 5 10 4 11 3 12 2 13
REMARK SMILES IDX 1 14
REMARK H PARENT
REMARK Flexibility Score: inf
ROOT
ATOM      1  C   UNL     1      41.746  41.425  15.284  1.00  0.00     0.000 C 
ENDROOT
BRANCH   1   2
ATOM      2  C   UNL     1      40.815  40.588  16.176  1.00  0.00     0.000 C 
BRANCH   2   3
ATOM      3  C   UNL     1      40.628  41.203  17.574  1.00  0.00     0.000 C 
BRANCH   3   4
ATOM      4  C   UNL     1      41.724  40.769  18.561  1.00  0.00     0.006 C 
BRANCH   4   5
ATOM      5  C   UNL     1      42.731  41.888  18.857  1.00  0.00     0.053 C 
BRANCH   5   6
ATOM      6  C   UNL     1      42.586  42.360  20.270  1.00  0.00     0.041 C 
ATOM      7  O   UNL     1      43.585  42.800  20.897  1.00  0.00    -0.550 OA
ATOM      8  O   UNL     1      41.337  42.359  20.878  1.00  0.00    -0.550 OA
ENDBRANCH   5   6
ENDBRANCH   4   5
ENDBRANCH   3   4
ENDBRANCH   2   3
ENDBRANCH   1   2
BRANCH   1   9
ATOM      9  C   UNL     1      43.093  40.730  15.015  1.00  0.00     0.000 C 
BRANCH   9  10
ATOM     10  C   UNL     1      42.974  39.197  15.003  1.00  0.00    -0.000 C 
BRANCH  10  11
ATOM     11  C   UNL     1      42.694  38.636  13.601  1.00  0.00    -0.000 C 
BRANCH  11  12
ATOM     12  C   UNL     1      42.120  37.213  13.686  1.00  0.00    -0.000 C 
BRANCH  12  13
ATOM     13  C   UNL     1      40.596  37.180  13.495  1.00  0.00    -0.003 C 
ATOM     14  C   UNL     1      40.051  38.458  12.859  1.00  0.00     0.004 C 
ENDBRANCH  12  13
ENDBRANCH  11  12
ENDBRANCH  10  11
ENDBRANCH   9  10
ENDBRANCH   1   9
TORSDOF 10
ENDMDL
MODEL 3
REMARK VINA RESULT:    -4.977      1.011      1.816
REMARK INTER + INTRA:          -9.094
REMARK INTER:                  -8.274
REMARK INTRA:                  -0.821
REMARK UNBOUND:                -1.208
REMARK SMILES CCCCCCCCCCCC(=O)[O-]
REMARK SMILES IDX 7 1 8 2 9 3 10 4 11 5 12 6 13 7 14 8 6 9 5 10 4 11 3 12 2 13
REMARK SMILES IDX 1 14
REMARK H PARENT
REMARK Flexibility Score: inf
ROOT
ATOM      1  C   UNL     1      42.938  41.225  15.651  1.00  0.00     0.000 C 
ENDROOT
BRANCH   1   2
ATOM      2  C   UNL     1      41.428  41.124  15.380  1.00  0.00     0.000 C 
BRANCH   2   3
ATOM      3  C   UNL     1      40.613  40.887  16.663  1.00  0.00     0.000 C 
BRANCH   3   4
ATOM      4  C   UNL     1      41.504  40.605  17.884  1.00  0.00     0.006 C 
BRANCH   4   5
ATOM      5  C   UNL     1      41.379  41.682  18.970  1.00  0.00     0.053 C 
BRANCH   5   6
ATOM      6  C   UNL     1      42.343  41.414  20.082  1.00  0.00     0.041 C 
ATOM      7  O   UNL     1      43.018  42.355  20.575  1.00  0.00    -0.550 OA
ATOM      8  O   UNL     1      42.460  40.134  20.609  1.00  0.00    -0.550 OA
ENDBRANCH   5   6
ENDBRANCH   4   5
ENDBRANCH   3   4
ENDBRANCH   2   3
ENDBRANCH   1   2
BRANCH   1   9
ATOM      9  C   UNL     1      43.762  40.250  14.790  1.00  0.00     0.000 C 
BRANCH   9  10
ATOM     10  C   UNL     1      43.264  38.800  14.899  1.00  0.00    -0.000 C 
BRANCH  10  11
ATOM     11  C   UNL     1      42.852  38.213  13.541  1.00  0.00    -0.000 C 
BRANCH  11  12
ATOM     12  C   UNL     1      42.041  36.921  13.727  1.00  0.00    -0.000 C 
BRANCH  12  13
ATOM     13  C   UNL     1      40.585  37.066  13.259  1.00  0.00    -0.003 C 
ATOM     14  C   UNL     1      40.134  38.523  13.170  1.00  0.00     0.004 C 
ENDBRANCH  12  13
ENDBRANCH  11  12
ENDBRANCH  10  11
ENDBRANCH   9  10
ENDBRANCH   1   9
TORSDOF 10
ENDMDL
MODEL 4
REMARK VINA RESULT:    -4.707      2.976      5.619
REMARK INTER + INTRA:          -8.667
REMARK INTER:                  -7.805
REMARK INTRA:                  -0.862
REMARK UNBOUND:                -1.208
REMARK SMILES CCCCCCCCCCCC(=O)[O-]
REMARK SMILES IDX 7 1 8 2 9 3 10 4 11 5 12 6 13 7 14 8 6 9 5 10 4 11 3 12 2 13
REMARK SMILES IDX 1 14
REMARK H PARENT
REMARK Flexibility Score: inf
ROOT
ATOM      1  C   UNL     1      43.273  40.928  15.773  1.00  0.00     0.000 C 
ENDROOT
BRANCH   1   2
ATOM      2  C   UNL     1      43.822  40.055  14.633  1.00  0.00     0.000 C 
BRANCH   2   3
ATOM      3  C   UNL     1      43.563  38.555  14.862  1.00  0.00     0.000 C 
BRANCH   3   4
ATOM      4  C   UNL     1      42.534  37.977  13.878  1.00  0.00     0.006 C 
BRANCH   4   5
ATOM      5  C   UNL     1      41.224  38.776  13.854  1.00  0.00     0.053 C 
BRANCH   5   6
ATOM      6  C   UNL     1      40.197  38.068  13.028  1.00  0.00     0.041 C 
ATOM      7  O   UNL     1      40.073  36.818  13.106  1.00  0.00    -0.550 OA
ATOM      8  O   UNL     1      39.343  38.795  12.207  1.00  0.00    -0.550 OA
ENDBRANCH   5   6
ENDBRANCH   4   5
ENDBRANCH   3   4
ENDBRANCH   2   3
ENDBRANCH   1   2
BRANCH   1   9
ATOM      9  C   UNL     1      42.305  42.016  15.275  1.00  0.00     0.000 C 
BRANCH   9  10
ATOM     10  C   UNL     1      40.893  41.864  15.864  1.00  0.00    -0.000 C 
BRANCH  10  11
ATOM     11  C   UNL     1      40.889  41.116  17.205  1.00  0.00    -0.000 C 
BRANCH  11  12
ATOM     12  C   UNL     1      41.005  42.099  18.380  1.00  0.00    -0.000 C 
BRANCH  12  13
ATOM     13  C   UNL     1      41.819  41.527  19.550  1.00  0.00    -0.003 C 
ATOM     14  C   UNL     1      41.745  40.003  19.633  1.00  0.00     0.004 C 
ENDBRANCH  12  13
ENDBRANCH  11  12
ENDBRANCH  10  11
ENDBRANCH   9  10
ENDBRANCH   1   9
TORSDOF 10
ENDMDL
MODEL 5
REMARK VINA RESULT:    -4.608      2.952      6.360
REMARK INTER + INTRA:          -8.511
REMARK INTER:                  -7.813
REMARK INTRA:                  -0.697
REMARK UNBOUND:                -1.208
REMARK SMILES CCCCCCCCCCCC(=O)[O-]
REMARK SMILES IDX 7 1 8 2 9 3 10 4 11 5 12 6 13 7 14 8 6 9 5 10 4 11 3 12 2 13
REMARK SMILES IDX 1 14
REMARK H PARENT
REMARK Flexibility Score: inf
ROOT
ATOM      1  C   UNL     1      40.635  40.630  16.391  1.00  0.00     0.000 C 
ENDROOT
BRANCH   1   2
ATOM      2  C   UNL     1      41.412  41.426  15.330  1.00  0.00     0.000 C 
BRANCH   2   3
ATOM      3  C   UNL     1      42.832  40.879  15.105  1.00  0.00     0.000 C 
BRANCH   3   4
ATOM      4  C   UNL     1      42.884  39.343  15.134  1.00  0.00     0.006 C 
BRANCH   4   5
ATOM      5  C   UNL     1      42.933  38.726  13.730  1.00  0.00     0.053 C 
BRANCH   5   6
ATOM      6  C   UNL     1      41.745  37.845  13.506  1.00  0.00     0.041 C 
ATOM      7  O   UNL     1      41.886  36.596  13.441  1.00  0.00    -0.550 OA
ATOM      8  O   UNL     1      40.474  38.400  13.417  1.00  0.00    -0.550 OA
ENDBRANCH   5   6
ENDBRANCH   4   5
ENDBRANCH   3   4
ENDBRANCH   2   3
ENDBRANCH   1   2
BRANCH   1   9
ATOM      9  C   UNL     1      40.817  41.197  17.810  1.00  0.00     0.000 C 
BRANCH   9  10
ATOM     10  C   UNL     1      41.875  40.432  18.621  1.00  0.00    -0.000 C 
BRANCH  10  11
ATOM     11  C   UNL     1      41.743  40.663  20.133  1.00  0.00    -0.000 C 
BRANCH  11  12
ATOM     12  C   UNL     1      41.892  42.154  20.473  1.00  0.00    -0.000 C 
BRANCH  12  13
ATOM     13  C   UNL     1      43.250  42.726  20.036  1.00  0.00    -0.003 C 
ATOM     14  C   UNL     1      44.033  43.342  21.195  1.00  0.00     0.004 C 
ENDBRANCH  12  13
ENDBRANCH  11  12
ENDBRANCH  10  11
ENDBRANCH   9  10
ENDBRANCH   1   9
TORSDOF 10
ENDMDL
MODEL 6
REMARK VINA RESULT:    -4.533      1.552      3.154
REMARK INTER + INTRA:          -8.391
REMARK INTER:                  -7.412
REMARK INTRA:                  -0.979
REMARK UNBOUND:                -1.208
REMARK SMILES CCCCCCCCCCCC(=O)[O-]
REMARK SMILES IDX 7 1 8 2 9 3 10 4 11 5 12 6 13 7 14 8 6 9 5 10 4 11 3 12 2 13
REMARK SMILES IDX 1 14
REMARK H PARENT
REMARK Flexibility Score: inf
ROOT
ATOM      1  C   UNL     1      40.685  43.086  16.098  1.00  0.00     0.000 C 
ENDROOT
BRANCH   1   2
ATOM      2  C   UNL     1      41.517  43.691  17.240  1.00  0.00     0.000 C 
BRANCH   2   3
ATOM      3  C   UNL     1      43.002  43.294  17.162  1.00  0.00     0.000 C 
BRANCH   3   4
ATOM      4  C   UNL     1      43.379  42.211  18.185  1.00  0.00     0.006 C 
BRANCH   4   5
ATOM      5  C   UNL     1      42.406  42.153  19.371  1.00  0.00     0.053 C 
BRANCH   5   6
ATOM      6  C   UNL     1      41.813  40.785  19.491  1.00  0.00     0.041 C 
ATOM      7  O   UNL     1      41.061  40.338  18.586  1.00  0.00    -0.550 OA
ATOM      8  O   UNL     1      42.129  39.983  20.581  1.00  0.00    -0.550 OA
ENDBRANCH   5   6
ENDBRANCH   4   5
ENDBRANCH   3   4
ENDBRANCH   2   3
ENDBRANCH   1   2
BRANCH   1   9
ATOM      9  C   UNL     1      41.536  42.262  15.115  1.00  0.00     0.000 C 
BRANCH   9  10
ATOM     10  C   UNL     1      41.190  40.765  15.146  1.00  0.00    -0.000 C 
BRANCH  10  11
ATOM     11  C   UNL     1      42.406  39.883  15.465  1.00  0.00    -0.000 C 
BRANCH  11  12
ATOM     12  C   UNL     1      42.875  39.124  14.215  1.00  0.00    -0.000 C 
BRANCH  12  13
ATOM     13  C   UNL     1      41.777  38.226  13.623  1.00  0.00    -0.003 C 
ATOM     14  C   UNL     1      42.207  36.764  13.510  1.00  0.00     0.004 C 
ENDBRANCH  12  13
ENDBRANCH  11  12
ENDBRANCH  10  11
ENDBRANCH   9  10
ENDBRANCH   1   9
TORSDOF 10
ENDMDL
MODEL 7
REMARK VINA RESULT:    -4.387      9.709     10.429
REMARK INTER + INTRA:          -8.159
REMARK INTER:                  -7.742
REMARK INTRA:                  -0.417
REMARK UNBOUND:                -1.208
REMARK SMILES CCCCCCCCCCCC(=O)[O-]
REMARK SMILES IDX 7 1 8 2 9 3 10 4 11 5 12 6 13 7 14 8 6 9 5 10 4 11 3 12 2 13
REMARK SMILES IDX 1 14
REMARK H PARENT
REMARK Flexibility Score: inf
ROOT
ATOM      1  C   UNL     1      40.584  29.281  14.192  1.00  0.00     0.000 C 
ENDROOT
BRANCH   1   2
ATOM      2  C   UNL     1      40.809  30.130  15.453  1.00  0.00     0.000 C 
BRANCH   2   3
ATOM      3  C   UNL     1      42.128  29.786  16.168  1.00  0.00     0.000 C 
BRANCH   3   4
ATOM      4  C   UNL     1      42.058  30.028  17.684  1.00  0.00     0.006 C 
BRANCH   4   5
ATOM      5  C   UNL     1      42.900  29.025  18.483  1.00  0.00     0.053 C 
BRANCH   5   6
ATOM      6  C   UNL     1      43.953  29.739  19.270  1.00  0.00     0.041 C 
ATOM      7  O   UNL     1      43.953  29.681  20.528  1.00  0.00    -0.550 OA
ATOM      8  O   UNL     1      44.965  30.429  18.613  1.00  0.00    -0.550 OA
ENDBRANCH   5   6
ENDBRANCH   4   5
ENDBRANCH   3   4
ENDBRANCH   2   3
ENDBRANCH   1   2
BRANCH   1   9
ATOM      9  C   UNL     1      39.093  29.108  13.850  1.00  0.00     0.000 C 
BRANCH   9  10
ATOM     10  C   UNL     1      38.330  30.443  13.848  1.00  0.00    -0.000 C 
BRANCH  10  11
ATOM     11  C   UNL     1      37.228  30.495  14.916  1.00  0.00    -0.000 C 
BRANCH  11  12
ATOM     12  C   UNL     1      36.304  31.702  14.690  1.00  0.00    -0.000 C 
BRANCH  12  13
ATOM     13  C   UNL     1      35.403  31.532  13.456  1.00  0.00    -0.003 C 
ATOM     14  C   UNL     1      34.621  30.219  13.471  1.00  0.00     0.004 C 
ENDBRANCH  12  13
ENDBRANCH  11  12
ENDBRANCH  10  11
ENDBRANCH   9  10
ENDBRANCH   1   9
TORSDOF 10
ENDMDL
MODEL 8
REMARK VINA RESULT:    -4.335      2.887      5.620
REMARK INTER + INTRA:          -8.078
REMARK INTER:                  -6.701
REMARK INTRA:                  -1.377
REMARK UNBOUND:                -1.208
REMARK SMILES CCCCCCCCCCCC(=O)[O-]
REMARK SMILES IDX 7 1 8 2 9 3 10 4 11 5 12 6 13 7 14 8 6 9 5 10 4 11 3 12 2 13
REMARK SMILES IDX 1 14
REMARK H PARENT
REMARK Flexibility Score: inf
ROOT
ATOM      1  C   UNL     1      41.527  40.566  17.974  1.00  0.00     0.000 C 
ENDROOT
BRANCH   1   2
ATOM      2  C   UNL     1      40.604  41.050  16.844  1.00  0.00     0.000 C 
BRANCH   2   3
ATOM      3  C   UNL     1      41.018  40.500  15.468  1.00  0.00     0.000 C 
BRANCH   3   4
ATOM      4  C   UNL     1      42.531  40.244  15.366  1.00  0.00     0.006 C 
BRANCH   4   5
ATOM      5  C   UNL     1      42.860  38.863  14.786  1.00  0.00     0.053 C 
BRANCH   5   6
ATOM      6  C   UNL     1      44.149  38.908  14.029  1.00  0.00     0.041 C 
ATOM      7  O   UNL     1      44.993  39.811  14.269  1.00  0.00    -0.550 OA
ATOM      8  O   UNL     1      44.441  37.926  13.091  1.00  0.00    -0.550 OA
ENDBRANCH   5   6
ENDBRANCH   4   5
ENDBRANCH   3   4
ENDBRANCH   2   3
ENDBRANCH   1   2
BRANCH   1   9
ATOM      9  C   UNL     1      42.007  41.713  18.881  1.00  0.00     0.000 C 
BRANCH   9  10
ATOM     10  C   UNL     1      43.243  42.434  18.318  1.00  0.00    -0.000 C 
BRANCH  10  11
ATOM     11  C   UNL     1      42.888  43.749  17.608  1.00  0.00    -0.000 C 
BRANCH  11  12
ATOM     12  C   UNL     1      43.288  43.695  16.126  1.00  0.00    -0.000 C 
BRANCH  12  13
ATOM     13  C   UNL     1      42.127  44.058  15.187  1.00  0.00    -0.003 C 
ATOM     14  C   UNL     1      40.925  44.638  15.931  1.00  0.00     0.004 C 
ENDBRANCH  12  13
ENDBRANCH  11  12
ENDBRANCH  10  11
ENDBRANCH   9  10
ENDBRANCH   1   9
TORSDOF 10
ENDMDL
MODEL 9
REMARK VINA RESULT:    -4.334      2.798      5.891
REMARK INTER + INTRA:          -8.075
REMARK INTER:                  -7.094
REMARK INTRA:                  -0.981
REMARK UNBOUND:                -1.208
REMARK SMILES CCCCCCCCCCCC(=O)[O-]
REMARK SMILES IDX 7 1 8 2 9 3 10 4 11 5 12 6 13 7 14 8 6 9 5 10 4 11 3 12 2 13
REMARK SMILES IDX 1 14
REMARK H PARENT
REMARK Flexibility Score: inf
ROOT
ATOM      1  C   UNL     1      40.973  41.622  15.382  1.00  0.00     0.000 C 
ENDROOT
BRANCH   1   2
ATOM      2  C   UNL     1      42.295  41.007  14.897  1.00  0.00     0.000 C 
BRANCH   2   3
ATOM      3  C   UNL     1      42.686  39.747  15.690  1.00  0.00     0.000 C 
BRANCH   3   4
ATOM      4  C   UNL     1      43.653  38.839  14.915  1.00  0.00     0.006 C 
BRANCH   4   5
ATOM      5  C   UNL     1      43.181  38.555  13.483  1.00  0.00     0.053 C 
BRANCH   5   6
ATOM      6  C   UNL     1      42.087  37.535  13.487  1.00  0.00     0.041 C 
ATOM      7  O   UNL     1      42.365  36.308  13.512  1.00  0.00    -0.550 OA
ATOM      8  O   UNL     1      40.758  37.940  13.513  1.00  0.00    -0.550 OA
ENDBRANCH   5   6
ENDBRANCH   4   5
ENDBRANCH   3   4
ENDBRANCH   2   3
ENDBRANCH   1   2
BRANCH   1   9
ATOM      9  C   UNL     1      41.119  43.100  15.788  1.00  0.00     0.000 C 
BRANCH   9  10
ATOM     10  C   UNL     1      41.353  43.277  17.297  1.00  0.00    -0.000 C 
BRANCH  10  11
ATOM     11  C   UNL     1      42.796  42.956  17.713  1.00  0.00    -0.000 C 
BRANCH  11  12
ATOM     12  C   UNL     1      42.819  42.100  18.988  1.00  0.00    -0.000 C 
BRANCH  12  13
ATOM     13  C   UNL     1      41.606  41.162  19.092  1.00  0.00    -0.003 C 
ATOM     14  C   UNL     1      41.911  39.884  19.872  1.00  0.00     0.004 C 
ENDBRANCH  12  13
ENDBRANCH  11  12
ENDBRANCH  10  11
ENDBRANCH   9  10
ENDBRANCH   1   9
TORSDOF 10
ENDMDL
