MODEL 1
REMARK VINA RESULT:    -2.358      0.000      0.000
REMARK INTER + INTRA:          -5.147
REMARK INTER:                  -4.427
REMARK INTRA:                  -0.720
REMARK UNBOUND:                -0.720
REMARK SMILES CCCCCCCCC=CCCCCCCCC(=O)[O-]
REMARK SMILES IDX 10 1 9 2 11 3 12 4 13 5 14 6 15 7 16 8 17 9 18 10 19 11
REMARK SMILES IDX 20 12 8 13 7 14 6 15 5 16 4 17 3 18 2 19 1 20
REMARK H PARENT
REMARK Flexibility Score: inf
ROOT
ATOM      1  C   UNL     1     148.811 145.350 146.269  1.00  0.00    -0.031 C 
ATOM      2  C   UNL     1     148.386 145.894 145.113  1.00  0.00    -0.031 C 
ENDROOT
BRANCH   1   3
ATOM      3  C   UNL     1     149.602 144.067 146.345  1.00  0.00     0.027 C 
BRANCH   3   4
ATOM      4  C   UNL     1     149.219 143.255 147.587  1.00  0.00     0.004 C 
BRANCH   4   5
ATOM      5  C   UNL     1     149.548 141.767 147.396  1.00  0.00     0.000 C 
BRANCH   5   6
ATOM      6  C   UNL     1     150.681 141.277 148.316  1.00  0.00     0.000 C 
BRANCH   6   7
ATOM      7  C   UNL     1     150.317 141.185 149.810  1.00  0.00     0.000 C 
BRANCH   7   8
ATOM      8  C   UNL     1     151.536 141.336 150.736  1.00  0.00     0.006 C 
BRANCH   8   9
ATOM      9  C   UNL     1     152.816 141.668 149.956  1.00  0.00     0.053 C 
BRANCH   9  10
ATOM     10  C   UNL     1     153.534 142.846 150.538  1.00  0.00     0.041 C 
ATOM     11  O   UNL     1     153.047 143.462 151.522  1.00  0.00    -0.550 OA
ATOM     12  O   UNL     1     154.756 143.247 150.012  1.00  0.00    -0.550 OA
ENDBRANCH   9  10
ENDBRANCH   8   9
ENDBRANCH   7   8
ENDBRANCH   6   7
ENDBRANCH   5   6
ENDBRANCH   4   5
ENDBRANCH   3   4
ENDBRANCH   1   3
BRANCH   2  13
ATOM     13  C   UNL     1     148.693 145.333 143.747  1.00  0.00     0.027 C 
BRANCH  13  14
ATOM     14  C   UNL     1     147.433 144.737 143.111  1.00  0.00     0.004 C 
BRANCH  14  15
ATOM     15  C   UNL     1     146.168 145.425 143.645  1.00  0.00     0.000 C 
BRANCH  15  16
ATOM     16  C   UNL     1     146.147 146.934 143.356  1.00  0.00     0.000 C 
BRANCH  16  17
ATOM     17  C   UNL     1     145.429 147.737 144.451  1.00  0.00    -0.000 C 
BRANCH  17  18
ATOM     18  C   UNL     1     144.731 146.805 145.449  1.00  0.00    -0.000 C 
BRANCH  18  19
ATOM     19  C   UNL     1     143.626 147.543 146.212  1.00  0.00    -0.003 C 
ATOM     20  C   UNL     1     143.571 149.016 145.816  1.00  0.00     0.004 C 
ENDBRANCH  18  19
ENDBRANCH  17  18
ENDBRANCH  16  17
ENDBRANCH  15  16
ENDBRANCH  14  15
ENDBRANCH  13  14
ENDBRANCH   2  13
TORSDOF 15
ENDMDL
MODEL 2
REMARK VINA RESULT:    -2.065      1.649      3.180
REMARK INTER + INTRA:          -4.596
REMARK INTER:                  -3.457
REMARK INTRA:                  -1.139
REMARK UNBOUND:                -0.720
REMARK SMILES CCCCCCCCC=CCCCCCCCC(=O)[O-]
REMARK SMILES IDX 10 1 9 2 11 3 12 4 13 5 14 6 15 7 16 8 17 9 18 10 19 11
REMARK SMILES IDX 20 12 8 13 7 14 6 15 5 16 4 17 3 18 2 19 1 20
REMARK H PARENT
REMARK Flexibility Score: inf
ROOT
ATOM      1  C   UNL     1     149.499 142.000 148.302  1.00  0.00    -0.031 C 
ATOM      2  C   UNL     1     149.063 143.126 147.708  1.00  0.00    -0.031 C 
ENDROOT
BRANCH   1   3
ATOM      3  C   UNL     1     150.779 141.298 147.919  1.00  0.00     0.027 C 
BRANCH   3   4
ATOM      4  C   UNL     1     151.484 140.725 149.153  1.00  0.00     0.004 C 
BRANCH   4   5
ATOM      5  C   UNL     1     150.840 141.245 150.448  1.00  0.00     0.000 C 
BRANCH   5   6
ATOM      6  C   UNL     1     151.872 141.607 151.531  1.00  0.00     0.000 C 
BRANCH   6   7
ATOM      7  C   UNL     1     152.871 142.713 151.141  1.00  0.00     0.000 C 
BRANCH   7   8
ATOM      8  C   UNL     1     154.228 142.159 150.675  1.00  0.00     0.006 C 
BRANCH   8   9
ATOM      9  C   UNL     1     154.816 142.971 149.513  1.00  0.00     0.053 C 
BRANCH   9  10
ATOM     10  C   UNL     1     155.147 142.106 148.337  1.00  0.00     0.041 C 
ATOM     11  O   UNL     1     154.235 141.716 147.561  1.00  0.00    -0.550 OA
ATOM     12  O   UNL     1     156.466 141.750 148.082  1.00  0.00    -0.550 OA
ENDBRANCH   9  10
ENDBRANCH   8   9
ENDBRANCH   7   8
ENDBRANCH   6   7
ENDBRANCH   5   6
ENDBRANCH   4   5
ENDBRANCH   3   4
ENDBRANCH   1   3
BRANCH   2  13
ATOM     13  C   UNL     1     149.818 143.866 146.633  1.00  0.00     0.027 C 
BRANCH  13  14
ATOM     14  C   UNL     1     148.889 144.827 145.882  1.00  0.00     0.004 C 
BRANCH  14  15
ATOM     15  C   UNL     1     148.710 146.139 146.660  1.00  0.00     0.000 C 
BRANCH  15  16
ATOM     16  C   UNL     1     147.805 147.143 145.929  1.00  0.00     0.000 C 
BRANCH  16  17
ATOM     17  C   UNL     1     147.388 146.658 144.533  1.00  0.00    -0.000 C 
BRANCH  17  18
ATOM     18  C   UNL     1     145.951 147.085 144.209  1.00  0.00    -0.000 C 
BRANCH  18  19
ATOM     19  C   UNL     1     144.960 146.492 145.217  1.00  0.00    -0.003 C 
ATOM     20  C   UNL     1     144.144 147.586 145.900  1.00  0.00     0.004 C 
ENDBRANCH  18  19
ENDBRANCH  17  18
ENDBRANCH  16  17
ENDBRANCH  15  16
ENDBRANCH  14  15
ENDBRANCH  13  14
ENDBRANCH   2  13
TORSDOF 15
ENDMDL
MODEL 3
REMARK VINA RESULT:    -1.996      5.283      7.785
REMARK INTER + INTRA:          -4.467
REMARK INTER:                  -4.381
REMARK INTRA:                  -0.086
REMARK UNBOUND:                -0.720
REMARK SMILES CCCCCCCCC=CCCCCCCCC(=O)[O-]
REMARK SMILES IDX 10 1 9 2 11 3 12 4 13 5 14 6 15 7 16 8 17 9 18 10 19 11
REMARK SMILES IDX 20 12 8 13 7 14 6 15 5 16 4 17 3 18 2 19 1 20
REMARK H PARENT
REMARK Flexibility Score: inf
ROOT
ATOM      1  C   UNL     1     149.026 144.787 145.073  1.00  0.00    -0.031 C 
ATOM      2  C   UNL     1     148.888 145.408 146.259  1.00  0.00    -0.031 C 
ENDROOT
BRANCH   1   3
ATOM      3  C   UNL     1     148.719 145.444 143.749  1.00  0.00     0.027 C 
BRANCH   3   4
ATOM      4  C   UNL     1     147.651 144.659 142.979  1.00  0.00     0.004 C 
BRANCH   4   5
ATOM      5  C   UNL     1     146.345 145.461 142.875  1.00  0.00     0.000 C 
BRANCH   5   6
ATOM      6  C   UNL     1     146.558 146.979 143.012  1.00  0.00     0.000 C 
BRANCH   6   7
ATOM      7  C   UNL     1     145.973 147.609 144.290  1.00  0.00     0.000 C 
BRANCH   7   8
ATOM      8  C   UNL     1     145.027 146.663 145.048  1.00  0.00     0.006 C 
BRANCH   8   9
ATOM      9  C   UNL     1     144.120 147.416 146.030  1.00  0.00     0.053 C 
BRANCH   9  10
ATOM     10  C   UNL     1     143.790 148.793 145.542  1.00  0.00     0.041 C 
ATOM     11  O   UNL     1     143.098 149.568 146.253  1.00  0.00    -0.550 OA
ATOM     12  O   UNL     1     144.268 149.230 144.312  1.00  0.00    -0.550 OA
ENDBRANCH   9  10
ENDBRANCH   8   9
ENDBRANCH   7   8
ENDBRANCH   6   7
ENDBRANCH   5   6
ENDBRANCH   4   5
ENDBRANCH   3   4
ENDBRANCH   1   3
BRANCH   2  13
ATOM     13  C   UNL     1     148.471 146.848 146.421  1.00  0.00     0.027 C 
BRANCH  13  14
ATOM     14  C   UNL     1     148.849 147.369 147.812  1.00  0.00     0.004 C 
BRANCH  14  15
ATOM     15  C   UNL     1     149.255 148.849 147.755  1.00  0.00     0.000 C 
BRANCH  15  16
ATOM     16  C   UNL     1     149.351 149.492 149.147  1.00  0.00     0.000 C 
BRANCH  16  17
ATOM     17  C   UNL     1     148.139 150.375 149.476  1.00  0.00    -0.000 C 
BRANCH  17  18
ATOM     18  C   UNL     1     146.837 149.568 149.414  1.00  0.00    -0.000 C 
BRANCH  18  19
ATOM     19  C   UNL     1     145.658 150.381 149.958  1.00  0.00    -0.003 C 
ATOM     20  C   UNL     1     144.357 150.009 149.253  1.00  0.00     0.004 C 
ENDBRANCH  18  19
ENDBRANCH  17  18
ENDBRANCH  16  17
ENDBRANCH  15  16
ENDBRANCH  14  15
ENDBRANCH  13  14
ENDBRANCH   2  13
TORSDOF 15
ENDMDL
MODEL 4
REMARK VINA RESULT:    -1.843      6.255      8.988
REMARK INTER + INTRA:          -4.180
REMARK INTER:                  -2.955
REMARK INTRA:                  -1.225
REMARK UNBOUND:                -0.720
REMARK SMILES CCCCCCCCC=CCCCCCCCC(=O)[O-]
REMARK SMILES IDX 10 1 9 2 11 3 12 4 13 5 14 6 15 7 16 8 17 9 18 10 19 11
REMARK SMILES IDX 20 12 8 13 7 14 6 15 5 16 4 17 3 18 2 19 1 20
REMARK H PARENT
REMARK Flexibility Score: inf
ROOT
ATOM      1  C   UNL     1     154.600 143.093 149.980  1.00  0.00    -0.031 C 
ATOM      2  C   UNL     1     153.585 142.972 150.856  1.00  0.00    -0.031 C 
ENDROOT
BRANCH   1   3
ATOM      3  C   UNL     1     155.824 142.210 149.996  1.00  0.00     0.027 C 
BRANCH   3   4
ATOM      4  C   UNL     1     156.821 142.631 148.911  1.00  0.00     0.004 C 
BRANCH   4   5
ATOM      5  C   UNL     1     157.357 141.409 148.150  1.00  0.00     0.000 C 
BRANCH   5   6
ATOM      6  C   UNL     1     157.908 141.761 146.756  1.00  0.00     0.000 C 
BRANCH   6   7
ATOM      7  C   UNL     1     156.927 142.507 145.833  1.00  0.00     0.000 C 
BRANCH   7   8
ATOM      8  C   UNL     1     157.635 143.403 144.802  1.00  0.00     0.006 C 
BRANCH   8   9
ATOM      9  C   UNL     1     157.678 142.758 143.410  1.00  0.00     0.053 C 
BRANCH   9  10
ATOM     10  C   UNL     1     156.594 141.741 143.231  1.00  0.00     0.041 C 
ATOM     11  O   UNL     1     156.874 140.513 143.220  1.00  0.00    -0.550 OA
ATOM     12  O   UNL     1     155.272 142.147 143.103  1.00  0.00    -0.550 OA
ENDBRANCH   9  10
ENDBRANCH   8   9
ENDBRANCH   7   8
ENDBRANCH   6   7
ENDBRANCH   5   6
ENDBRANCH   4   5
ENDBRANCH   3   4
ENDBRANCH   1   3
BRANCH   2  13
ATOM     13  C   UNL     1     153.506 141.908 151.922  1.00  0.00     0.027 C 
BRANCH  13  14
ATOM     14  C   UNL     1     152.057 141.452 152.127  1.00  0.00     0.004 C 
BRANCH  14  15
ATOM     15  C   UNL     1     151.168 141.904 150.958  1.00  0.00     0.000 C 
BRANCH  15  16
ATOM     16  C   UNL     1     150.802 140.750 150.012  1.00  0.00     0.000 C 
BRANCH  16  17
ATOM     17  C   UNL     1     150.138 141.236 148.715  1.00  0.00    -0.000 C 
BRANCH  17  18
ATOM     18  C   UNL     1     151.121 141.179 147.539  1.00  0.00    -0.000 C 
BRANCH  18  19
ATOM     19  C   UNL     1     152.548 140.907 148.028  1.00  0.00    -0.003 C 
ATOM     20  C   UNL     1     153.565 141.746 147.259  1.00  0.00     0.004 C 
ENDBRANCH  18  19
ENDBRANCH  17  18
ENDBRANCH  16  17
ENDBRANCH  15  16
ENDBRANCH  14  15
ENDBRANCH  13  14
ENDBRANCH   2  13
TORSDOF 15
ENDMDL
MODEL 5
REMARK VINA RESULT:    -1.790      6.355      8.773
REMARK INTER + INTRA:          -4.081
REMARK INTER:                  -3.131
REMARK INTRA:                  -0.950
REMARK UNBOUND:                -0.720
REMARK SMILES CCCCCCCCC=CCCCCCCCC(=O)[O-]
REMARK SMILES IDX 10 1 9 2 11 3 12 4 13 5 14 6 15 7 16 8 17 9 18 10 19 11
REMARK SMILES IDX 20 12 8 13 7 14 6 15 5 16 4 17 3 18 2 19 1 20
REMARK H PARENT
REMARK Flexibility Score: inf
ROOT
ATOM      1  C   UNL     1     155.602 142.420 148.848  1.00  0.00    -0.031 C 
ATOM      2  C   UNL     1     154.333 142.516 148.409  1.00  0.00    -0.031 C 
ENDROOT
BRANCH   1   3
ATOM      3  C   UNL     1     156.533 141.296 148.464  1.00  0.00     0.027 C 
BRANCH   3   4
ATOM      4  C   UNL     1     157.739 141.822 147.679  1.00  0.00     0.004 C 
BRANCH   4   5
ATOM      5  C   UNL     1     158.116 140.864 146.539  1.00  0.00     0.000 C 
BRANCH   5   6
ATOM      6  C   UNL     1     157.790 141.430 145.144  1.00  0.00     0.000 C 
BRANCH   6   7
ATOM      7  C   UNL     1     158.033 142.942 144.978  1.00  0.00     0.000 C 
BRANCH   7   8
ATOM      8  C   UNL     1     156.844 143.673 144.332  1.00  0.00     0.006 C 
BRANCH   8   9
ATOM      9  C   UNL     1     155.498 143.057 144.737  1.00  0.00     0.053 C 
BRANCH   9  10
ATOM     10  C   UNL     1     154.876 142.287 143.613  1.00  0.00     0.041 C 
ATOM     11  O   UNL     1     153.672 142.484 143.300  1.00  0.00    -0.550 OA
ATOM     12  O   UNL     1     155.632 141.370 142.894  1.00  0.00    -0.550 OA
ENDBRANCH   9  10
ENDBRANCH   8   9
ENDBRANCH   7   8
ENDBRANCH   6   7
ENDBRANCH   5   6
ENDBRANCH   4   5
ENDBRANCH   3   4
ENDBRANCH   1   3
BRANCH   2  13
ATOM     13  C   UNL     1     153.696 141.558 147.434  1.00  0.00     0.027 C 
BRANCH  13  14
ATOM     14  C   UNL     1     152.612 140.724 148.125  1.00  0.00     0.004 C 
BRANCH  14  15
ATOM     15  C   UNL     1     151.211 141.261 147.796  1.00  0.00     0.000 C 
BRANCH  15  16
ATOM     16  C   UNL     1     150.160 140.857 148.841  1.00  0.00     0.000 C 
BRANCH  16  17
ATOM     17  C   UNL     1     150.403 141.509 150.210  1.00  0.00    -0.000 C 
BRANCH  17  18
ATOM     18  C   UNL     1     151.618 140.886 150.909  1.00  0.00    -0.000 C 
BRANCH  18  19
ATOM     19  C   UNL     1     152.112 141.777 152.053  1.00  0.00    -0.003 C 
ATOM     20  C   UNL     1     153.229 142.707 151.586  1.00  0.00     0.004 C 
ENDBRANCH  18  19
ENDBRANCH  17  18
ENDBRANCH  16  17
ENDBRANCH  15  16
ENDBRANCH  14  15
ENDBRANCH  13  14
ENDBRANCH   2  13
TORSDOF 15
ENDMDL
MODEL 6
REMARK VINA RESULT:    -1.720      6.229      8.398
REMARK INTER + INTRA:          -3.948
REMARK INTER:                  -2.460
REMARK INTRA:                  -1.489
REMARK UNBOUND:                -0.720
REMARK SMILES CCCCCCCCC=CCCCCCCCC(=O)[O-]
REMARK SMILES IDX 10 1 9 2 11 3 12 4 13 5 14 6 15 7 16 8 17 9 18 10 19 11
REMARK SMILES IDX 20 12 8 13 7 14 6 15 5 16 4 17 3 18 2 19 1 20
REMARK H PARENT
REMARK Flexibility Score: inf
ROOT
ATOM      1  C   UNL     1     150.845 140.896 148.780  1.00  0.00    -0.031 C 
ATOM      2  C   UNL     1     151.505 141.271 147.668  1.00  0.00    -0.031 C 
ENDROOT
BRANCH   1   3
ATOM      3  C   UNL     1     151.534 140.490 150.060  1.00  0.00     0.027 C 
BRANCH   3   4
ATOM      4  C   UNL     1     151.039 141.331 151.242  1.00  0.00     0.004 C 
BRANCH   4   5
ATOM      5  C   UNL     1     152.212 142.017 151.960  1.00  0.00     0.000 C 
BRANCH   5   6
ATOM      6  C   UNL     1     153.098 142.843 151.010  1.00  0.00     0.000 C 
BRANCH   6   7
ATOM      7  C   UNL     1     154.579 142.422 150.964  1.00  0.00     0.000 C 
BRANCH   7   8
ATOM      8  C   UNL     1     155.246 142.718 149.610  1.00  0.00     0.006 C 
BRANCH   8   9
ATOM      9  C   UNL     1     156.747 142.399 149.624  1.00  0.00     0.053 C 
BRANCH   9  10
ATOM     10  C   UNL     1     157.176 141.679 148.382  1.00  0.00     0.041 C 
ATOM     11  O   UNL     1     157.778 142.300 147.467  1.00  0.00    -0.550 OA
ATOM     12  O   UNL     1     156.935 140.317 148.247  1.00  0.00    -0.550 OA
ENDBRANCH   9  10
ENDBRANCH   8   9
ENDBRANCH   7   8
ENDBRANCH   6   7
ENDBRANCH   5   6
ENDBRANCH   4   5
ENDBRANCH   3   4
ENDBRANCH   1   3
BRANCH   2  13
ATOM     13  C   UNL     1     153.005 141.396 147.572  1.00  0.00     0.027 C 
BRANCH  13  14
ATOM     14  C   UNL     1     153.396 142.437 146.517  1.00  0.00     0.004 C 
BRANCH  14  15
ATOM     15  C   UNL     1     154.724 142.064 145.842  1.00  0.00     0.000 C 
BRANCH  15  16
ATOM     16  C   UNL     1     154.943 142.805 144.513  1.00  0.00     0.000 C 
BRANCH  16  17
ATOM     17  C   UNL     1     156.335 143.445 144.414  1.00  0.00    -0.000 C 
BRANCH  17  18
ATOM     18  C   UNL     1     157.402 142.393 144.085  1.00  0.00    -0.000 C 
BRANCH  18  19
ATOM     19  C   UNL     1     156.923 141.451 142.976  1.00  0.00    -0.003 C 
ATOM     20  C   UNL     1     157.798 140.204 142.894  1.00  0.00     0.004 C 
ENDBRANCH  18  19
ENDBRANCH  17  18
ENDBRANCH  16  17
ENDBRANCH  15  16
ENDBRANCH  14  15
ENDBRANCH  13  14
ENDBRANCH   2  13
TORSDOF 15
ENDMDL
MODEL 7
REMARK VINA RESULT:    -1.691      4.162      6.046
REMARK INTER + INTRA:          -3.894
REMARK INTER:                  -3.229
REMARK INTRA:                  -0.665
REMARK UNBOUND:                -0.720
REMARK SMILES CCCCCCCCC=CCCCCCCCC(=O)[O-]
REMARK SMILES IDX 10 1 9 2 11 3 12 4 13 5 14 6 15 7 16 8 17 9 18 10 19 11
REMARK SMILES IDX 20 12 8 13 7 14 6 15 5 16 4 17 3 18 2 19 1 20
REMARK H PARENT
REMARK Flexibility Score: inf
ROOT
ATOM      1  C   UNL     1     151.864 141.089 149.213  1.00  0.00    -0.031 C 
ATOM      2  C   UNL     1     150.535 141.216 149.043  1.00  0.00    -0.031 C 
ENDROOT
BRANCH   1   3
ATOM      3  C   UNL     1     152.862 141.210 148.088  1.00  0.00     0.027 C 
BRANCH   3   4
ATOM      4  C   UNL     1     154.190 141.789 148.588  1.00  0.00     0.004 C 
BRANCH   4   5
ATOM      5  C   UNL     1     155.189 141.956 147.433  1.00  0.00     0.000 C 
BRANCH   5   6
ATOM      6  C   UNL     1     156.656 141.935 147.898  1.00  0.00     0.000 C 
BRANCH   6   7
ATOM      7  C   UNL     1     157.702 141.927 146.767  1.00  0.00     0.000 C 
BRANCH   7   8
ATOM      8  C   UNL     1     157.277 142.766 145.551  1.00  0.00     0.006 C 
BRANCH   8   9
ATOM      9  C   UNL     1     157.871 142.229 144.242  1.00  0.00     0.053 C 
BRANCH   9  10
ATOM     10  C   UNL     1     156.851 141.502 143.422  1.00  0.00     0.041 C 
ATOM     11  O   UNL     1     155.863 142.121 142.946  1.00  0.00    -0.550 OA
ATOM     12  O   UNL     1     157.004 140.146 143.161  1.00  0.00    -0.550 OA
ENDBRANCH   9  10
ENDBRANCH   8   9
ENDBRANCH   7   8
ENDBRANCH   6   7
ENDBRANCH   5   6
ENDBRANCH   4   5
ENDBRANCH   3   4
ENDBRANCH   1   3
BRANCH   2  13
ATOM     13  C   UNL     1     149.874 141.554 147.730  1.00  0.00     0.027 C 
BRANCH  13  14
ATOM     14  C   UNL     1     149.263 142.959 147.777  1.00  0.00     0.004 C 
BRANCH  14  15
ATOM     15  C   UNL     1     149.660 143.773 146.537  1.00  0.00     0.000 C 
BRANCH  15  16
ATOM     16  C   UNL     1     149.038 145.179 146.526  1.00  0.00     0.000 C 
BRANCH  16  17
ATOM     17  C   UNL     1     148.298 145.490 145.217  1.00  0.00    -0.000 C 
BRANCH  17  18
ATOM     18  C   UNL     1     147.472 146.776 145.345  1.00  0.00    -0.000 C 
BRANCH  18  19
ATOM     19  C   UNL     1     146.209 146.707 144.478  1.00  0.00    -0.003 C 
ATOM     20  C   UNL     1     144.983 147.185 145.251  1.00  0.00     0.004 C 
ENDBRANCH  18  19
ENDBRANCH  17  18
ENDBRANCH  16  17
ENDBRANCH  15  16
ENDBRANCH  14  15
ENDBRANCH  13  14
ENDBRANCH   2  13
TORSDOF 15
ENDMDL
MODEL 8
REMARK VINA RESULT:    -1.640      3.882      8.835
REMARK INTER + INTRA:          -3.799
REMARK INTER:                  -3.225
REMARK INTRA:                  -0.573
REMARK UNBOUND:                -0.720
REMARK SMILES CCCCCCCCC=CCCCCCCCC(=O)[O-]
REMARK SMILES IDX 10 1 9 2 11 3 12 4 13 5 14 6 15 7 16 8 17 9 18 10 19 11
REMARK SMILES IDX 20 12 8 13 7 14 6 15 5 16 4 17 3 18 2 19 1 20
REMARK H PARENT
REMARK Flexibility Score: inf
ROOT
ATOM      1  C   UNL     1     148.601 145.722 145.336  1.00  0.00    -0.031 C 
ATOM      2  C   UNL     1     148.943 145.013 146.428  1.00  0.00    -0.031 C 
ENDROOT
BRANCH   1   3
ATOM      3  C   UNL     1     149.004 145.337 143.933  1.00  0.00     0.027 C 
BRANCH   3   4
ATOM      4  C   UNL     1     147.939 144.451 143.277  1.00  0.00     0.004 C 
BRANCH   4   5
ATOM      5  C   UNL     1     146.640 145.235 143.037  1.00  0.00     0.000 C 
BRANCH   5   6
ATOM      6  C   UNL     1     146.871 146.748 142.876  1.00  0.00     0.000 C 
BRANCH   6   7
ATOM      7  C   UNL     1     146.115 147.637 143.881  1.00  0.00     0.000 C 
BRANCH   7   8
ATOM      8  C   UNL     1     145.764 146.903 145.187  1.00  0.00     0.006 C 
BRANCH   8   9
ATOM      9  C   UNL     1     144.261 146.949 145.490  1.00  0.00     0.053 C 
BRANCH   9  10
ATOM     10  C   UNL     1     143.857 148.250 146.113  1.00  0.00     0.041 C 
ATOM     11  O   UNL     1     143.879 148.386 147.365  1.00  0.00    -0.550 OA
ATOM     12  O   UNL     1     143.481 149.320 145.311  1.00  0.00    -0.550 OA
ENDBRANCH   9  10
ENDBRANCH   8   9
ENDBRANCH   7   8
ENDBRANCH   6   7
ENDBRANCH   5   6
ENDBRANCH   4   5
ENDBRANCH   3   4
ENDBRANCH   1   3
BRANCH   2  13
ATOM     13  C   UNL     1     149.715 143.718 146.392  1.00  0.00     0.027 C 
BRANCH  13  14
ATOM     14  C   UNL     1     148.939 142.605 147.104  1.00  0.00     0.004 C 
BRANCH  14  15
ATOM     15  C   UNL     1     149.687 142.127 148.358  1.00  0.00     0.000 C 
BRANCH  15  16
ATOM     16  C   UNL     1     150.929 141.287 148.024  1.00  0.00     0.000 C 
BRANCH  16  17
ATOM     17  C   UNL     1     151.813 141.020 149.251  1.00  0.00    -0.000 C 
BRANCH  17  18
ATOM     18  C   UNL     1     150.977 141.003 150.537  1.00  0.00    -0.000 C 
BRANCH  18  19
ATOM     19  C   UNL     1     151.697 141.740 151.672  1.00  0.00    -0.003 C 
ATOM     20  C   UNL     1     152.907 142.510 151.150  1.00  0.00     0.004 C 
ENDBRANCH  18  19
ENDBRANCH  17  18
ENDBRANCH  16  17
ENDBRANCH  15  16
ENDBRANCH  14  15
ENDBRANCH  13  14
ENDBRANCH   2  13
TORSDOF 15
ENDMDL
MODEL 9
REMARK VINA RESULT:    -1.612      3.909      9.411
REMARK INTER + INTRA:          -3.745
REMARK INTER:                  -2.653
REMARK INTRA:                  -1.092
REMARK UNBOUND:                -0.720
REMARK SMILES CCCCCCCCC=CCCCCCCCC(=O)[O-]
REMARK SMILES IDX 10 1 9 2 11 3 12 4 13 5 14 6 15 7 16 8 17 9 18 10 19 11
REMARK SMILES IDX 20 12 8 13 7 14 6 15 5 16 4 17 3 18 2 19 1 20
REMARK H PARENT
REMARK Flexibility Score: inf
ROOT
ATOM      1  C   UNL     1     149.064 142.959 147.458  1.00  0.00    -0.031 C 
ATOM      2  C   UNL     1     149.630 141.891 148.050  1.00  0.00    -0.031 C 
ENDROOT
BRANCH   1   3
ATOM      3  C   UNL     1     149.814 143.902 146.549  1.00  0.00     0.027 C 
BRANCH   3   4
ATOM      4  C   UNL     1     148.899 145.021 146.039  1.00  0.00     0.004 C 
BRANCH   4   5
ATOM      5  C   UNL     1     148.814 145.008 144.505  1.00  0.00     0.000 C 
BRANCH   5   6
ATOM      6  C   UNL     1     147.453 145.491 143.972  1.00  0.00     0.000 C 
BRANCH   6   7
ATOM      7  C   UNL     1     147.372 146.995 143.652  1.00  0.00     0.000 C 
BRANCH   7   8
ATOM      8  C   UNL     1     145.967 147.581 143.872  1.00  0.00     0.006 C 
BRANCH   8   9
ATOM      9  C   UNL     1     145.253 146.937 145.068  1.00  0.00     0.053 C 
BRANCH   9  10
ATOM     10  C   UNL     1     144.208 147.840 145.647  1.00  0.00     0.041 C 
ATOM     11  O   UNL     1     143.604 147.514 146.702  1.00  0.00    -0.550 OA
ATOM     12  O   UNL     1     143.919 149.054 145.036  1.00  0.00    -0.550 OA
ENDBRANCH   9  10
ENDBRANCH   8   9
ENDBRANCH   7   8
ENDBRANCH   6   7
ENDBRANCH   5   6
ENDBRANCH   4   5
ENDBRANCH   3   4
ENDBRANCH   1   3
BRANCH   2  13
ATOM     13  C   UNL     1     151.059 141.460 147.838  1.00  0.00     0.027 C 
BRANCH  13  14
ATOM     14  C   UNL     1     151.595 140.733 149.076  1.00  0.00     0.004 C 
BRANCH  14  15
ATOM     15  C   UNL     1     150.844 141.173 150.341  1.00  0.00     0.000 C 
BRANCH  15  16
ATOM     16  C   UNL     1     151.789 141.521 151.501  1.00  0.00     0.000 C 
BRANCH  16  17
ATOM     17  C   UNL     1     152.718 142.701 151.176  1.00  0.00    -0.000 C 
BRANCH  17  18
ATOM     18  C   UNL     1     154.141 142.214 150.876  1.00  0.00    -0.000 C 
BRANCH  18  19
ATOM     19  C   UNL     1     154.734 142.955 149.673  1.00  0.00    -0.003 C 
ATOM     20  C   UNL     1     154.784 142.056 148.440  1.00  0.00     0.004 C 
ENDBRANCH  18  19
ENDBRANCH  17  18
ENDBRANCH  16  17
ENDBRANCH  15  16
ENDBRANCH  14  15
ENDBRANCH  13  14
ENDBRANCH   2  13
TORSDOF 15
ENDMDL
