MODEL 1
REMARK VINA RESULT:    -6.755      0.000      0.000
REMARK INTER + INTRA:          -8.519
REMARK INTER:                  -8.138
REMARK INTRA:                  -0.381
REMARK UNBOUND:                -0.381
REMARK SMILES O=c1c(O)c(-c2ccc(O)cc2O)oc2cc(O)cc(O)c12
REMARK SMILES IDX 5 1 3 2 2 3 1 4 22 5 20 6 19 7 17 8 16 9 15 10 14 11 6 12
REMARK SMILES IDX 8 13 7 14 9 15 11 16 12 17 10 18 13 20 4 22 21 24 18 26
REMARK H PARENT 10 19 13 21 4 23 21 25 18 27
REMARK Flexibility Score: inf
ROOT
ATOM      1  C   UNL     1      -6.078   7.127 -39.483  1.00  0.00     0.184 A 
ATOM      2  C   UNL     1      -6.370   6.240 -38.435  1.00  0.00     0.208 A 
ATOM      3  C   UNL     1      -5.479   5.189 -38.166  1.00  0.00     0.238 A 
ATOM      4  O   UNL     1      -5.717   4.430 -37.191  1.00  0.00    -0.285 OA
ATOM      5  C   UNL     1      -4.317   5.030 -38.960  1.00  0.00     0.111 A 
ATOM      6  C   UNL     1      -3.366   3.978 -38.804  1.00  0.00     0.134 A 
ATOM      7  C   UNL     1      -2.188   3.993 -39.561  1.00  0.00     0.093 A 
ATOM      8  C   UNL     1      -1.957   4.987 -40.515  1.00  0.00     0.123 A 
ATOM      9  C   UNL     1      -2.908   5.986 -40.717  1.00  0.00     0.094 A 
ATOM     10  C   UNL     1      -4.076   6.018 -39.952  1.00  0.00     0.146 A 
ATOM     11  O   UNL     1      -4.951   6.994 -40.169  1.00  0.00    -0.451 OA
ENDROOT
BRANCH   1  12
ATOM     12  C   UNL     1      -6.983   8.244 -39.829  1.00  0.00     0.063 A 
ATOM     13  C   UNL     1      -7.974  10.379 -39.219  1.00  0.00     0.047 A 
ATOM     14  C   UNL     1      -7.131   9.305 -38.921  1.00  0.00     0.020 A 
ATOM     15  C   UNL     1      -8.667  10.414 -40.431  1.00  0.00     0.119 A 
ATOM     16  C   UNL     1      -8.508   9.372 -41.355  1.00  0.00     0.093 A 
ATOM     17  C   UNL     1      -7.659   8.293 -41.066  1.00  0.00     0.130 A 
BRANCH  15  18
ATOM     18  O   UNL     1      -9.507  11.489 -40.712  1.00  0.00    -0.508 OA
ATOM     19  H   UNL     1     -10.412  11.585 -40.267  1.00  0.00     0.293 HD
ENDBRANCH  15  18
BRANCH  17  20
ATOM     20  O   UNL     1      -7.470   7.286 -42.013  1.00  0.00    -0.507 OA
ATOM     21  H   UNL     1      -7.463   6.306 -41.753  1.00  0.00     0.293 HD
ENDBRANCH  17  20
ENDBRANCH   1  12
BRANCH   2  22
ATOM     22  O   UNL     1      -7.514   6.431 -37.655  1.00  0.00    -0.502 OA
ATOM     23  H   UNL     1      -8.048   5.659 -37.277  1.00  0.00     0.293 HD
ENDBRANCH   2  22
BRANCH   6  24
ATOM     24  O   UNL     1      -3.541   2.888 -37.946  1.00  0.00    -0.507 OA
ATOM     25  H   UNL     1      -2.795   2.308 -37.594  1.00  0.00     0.293 HD
ENDBRANCH   6  24
BRANCH   8  26
ATOM     26  O   UNL     1      -0.790   4.986 -41.275  1.00  0.00    -0.508 OA
ATOM     27  H   UNL     1      -0.085   4.267 -41.164  1.00  0.00     0.293 HD
ENDBRANCH   8  26
TORSDOF 6
ENDMDL
MODEL 2
REMARK VINA RESULT:    -6.448      4.124      6.255
REMARK INTER + INTRA:          -8.149
REMARK INTER:                  -7.851
REMARK INTRA:                  -0.298
REMARK UNBOUND:                -0.381
REMARK SMILES O=c1c(O)c(-c2ccc(O)cc2O)oc2cc(O)cc(O)c12
REMARK SMILES IDX 5 1 3 2 2 3 1 4 22 5 20 6 19 7 17 8 16 9 15 10 14 11 6 12
REMARK SMILES IDX 8 13 7 14 9 15 11 16 12 17 10 18 13 20 4 22 21 24 18 26
REMARK H PARENT 10 19 13 21 4 23 21 25 18 27
REMARK Flexibility Score: inf
ROOT
ATOM      1  C   UNL     1      -8.892  10.318 -38.067  1.00  0.00     0.184 A 
ATOM      2  C   UNL     1      -8.623  10.576 -39.421  1.00  0.00     0.208 A 
ATOM      3  C   UNL     1      -8.503   9.495 -40.308  1.00  0.00     0.238 A 
ATOM      4  O   UNL     1      -8.317   9.733 -41.529  1.00  0.00    -0.285 OA
ATOM      5  C   UNL     1      -8.636   8.170 -39.825  1.00  0.00     0.111 A 
ATOM      6  C   UNL     1      -8.493   6.997 -40.626  1.00  0.00     0.134 A 
ATOM      7  C   UNL     1      -8.773   5.742 -40.070  1.00  0.00     0.093 A 
ATOM      8  C   UNL     1      -9.128   5.613 -38.726  1.00  0.00     0.123 A 
ATOM      9  C   UNL     1      -9.213   6.748 -37.920  1.00  0.00     0.094 A 
ATOM     10  C   UNL     1      -8.974   8.015 -38.455  1.00  0.00     0.146 A 
ATOM     11  O   UNL     1      -9.076   9.071 -37.655  1.00  0.00    -0.451 OA
ENDROOT
BRANCH   1  12
ATOM     12  C   UNL     1      -9.014  11.410 -37.079  1.00  0.00     0.063 A 
ATOM     13  C   UNL     1      -8.096  12.584 -35.157  1.00  0.00     0.047 A 
ATOM     14  C   UNL     1      -8.014  11.559 -36.103  1.00  0.00     0.020 A 
ATOM     15  C   UNL     1      -9.166  13.481 -35.182  1.00  0.00     0.119 A 
ATOM     16  C   UNL     1     -10.156  13.356 -36.165  1.00  0.00     0.093 A 
ATOM     17  C   UNL     1     -10.079  12.333 -37.123  1.00  0.00     0.130 A 
BRANCH  15  18
ATOM     18  O   UNL     1      -9.235  14.495 -34.229  1.00  0.00    -0.508 OA
ATOM     19  H   UNL     1      -9.089  14.308 -33.244  1.00  0.00     0.293 HD
ENDBRANCH  15  18
BRANCH  17  20
ATOM     20  O   UNL     1     -11.044  12.248 -38.126  1.00  0.00    -0.507 OA
ATOM     21  H   UNL     1     -12.026  12.117 -37.911  1.00  0.00     0.293 HD
ENDBRANCH  17  20
ENDBRANCH   1  12
BRANCH   2  22
ATOM     22  O   UNL     1      -8.515  11.894 -39.874  1.00  0.00    -0.502 OA
ATOM     23  H   UNL     1      -9.233  12.587 -39.704  1.00  0.00     0.293 HD
ENDBRANCH   2  22
BRANCH   6  24
ATOM     24  O   UNL     1      -8.055   7.007 -41.953  1.00  0.00    -0.507 OA
ATOM     25  H   UNL     1      -7.304   6.438 -42.316  1.00  0.00     0.293 HD
ENDBRANCH   6  24
BRANCH   8  26
ATOM     26  O   UNL     1      -9.390   4.360 -38.177  1.00  0.00    -0.508 OA
ATOM     27  H   UNL     1      -9.065   4.107 -37.252  1.00  0.00     0.293 HD
ENDBRANCH   8  26
TORSDOF 6
ENDMDL
MODEL 3
REMARK VINA RESULT:    -6.395      2.202      6.798
REMARK INTER + INTRA:          -8.085
REMARK INTER:                  -7.688
REMARK INTRA:                  -0.397
REMARK UNBOUND:                -0.381
REMARK SMILES O=c1c(O)c(-c2ccc(O)cc2O)oc2cc(O)cc(O)c12
REMARK SMILES IDX 5 1 3 2 2 3 1 4 22 5 20 6 19 7 17 8 16 9 15 10 14 11 6 12
REMARK SMILES IDX 8 13 7 14 9 15 11 16 12 17 10 18 13 20 4 22 21 24 18 26
REMARK H PARENT 10 19 13 21 4 23 21 25 18 27
REMARK Flexibility Score: inf
ROOT
ATOM      1  C   UNL     1      -3.814   6.245 -38.639  1.00  0.00     0.184 A 
ATOM      2  C   UNL     1      -4.004   7.515 -38.073  1.00  0.00     0.208 A 
ATOM      3  C   UNL     1      -5.111   8.279 -38.475  1.00  0.00     0.238 A 
ATOM      4  O   UNL     1      -5.308   9.393 -37.925  1.00  0.00    -0.285 OA
ATOM      5  C   UNL     1      -6.003   7.768 -39.450  1.00  0.00     0.111 A 
ATOM      6  C   UNL     1      -7.135   8.471 -39.961  1.00  0.00     0.134 A 
ATOM      7  C   UNL     1      -8.021   7.818 -40.827  1.00  0.00     0.093 A 
ATOM      8  C   UNL     1      -7.780   6.509 -41.251  1.00  0.00     0.123 A 
ATOM      9  C   UNL     1      -6.646   5.834 -40.803  1.00  0.00     0.094 A 
ATOM     10  C   UNL     1      -5.763   6.447 -39.911  1.00  0.00     0.146 A 
ATOM     11  O   UNL     1      -4.699   5.764 -39.502  1.00  0.00    -0.451 OA
ENDROOT
BRANCH   1  12
ATOM     12  C   UNL     1      -2.659   5.398 -38.273  1.00  0.00     0.063 A 
ATOM     13  C   UNL     1      -1.772   3.547 -36.968  1.00  0.00     0.047 A 
ATOM     14  C   UNL     1      -2.841   4.370 -37.333  1.00  0.00     0.020 A 
ATOM     15  C   UNL     1      -0.514   3.731 -37.546  1.00  0.00     0.119 A 
ATOM     16  C   UNL     1      -0.327   4.737 -38.502  1.00  0.00     0.093 A 
ATOM     17  C   UNL     1      -1.396   5.564 -38.879  1.00  0.00     0.130 A 
BRANCH  15  18
ATOM     18  O   UNL     1       0.543   2.905 -37.169  1.00  0.00    -0.508 OA
ATOM     19  H   UNL     1       0.401   2.107 -36.560  1.00  0.00     0.293 HD
ENDBRANCH  15  18
BRANCH  17  20
ATOM     20  O   UNL     1      -1.211   6.531 -39.867  1.00  0.00    -0.507 OA
ATOM     21  H   UNL     1      -1.322   6.315 -40.851  1.00  0.00     0.293 HD
ENDBRANCH  17  20
ENDBRANCH   1  12
BRANCH   2  22
ATOM     22  O   UNL     1      -3.119   7.988 -37.100  1.00  0.00    -0.502 OA
ATOM     23  H   UNL     1      -2.838   7.428 -36.305  1.00  0.00     0.293 HD
ENDBRANCH   2  22
BRANCH   6  24
ATOM     24  O   UNL     1      -7.417   9.810 -39.674  1.00  0.00    -0.507 OA
ATOM     25  H   UNL     1      -6.820  10.588 -39.913  1.00  0.00     0.293 HD
ENDBRANCH   6  24
BRANCH   8  26
ATOM     26  O   UNL     1      -8.658   5.872 -42.125  1.00  0.00    -0.508 OA
ATOM     27  H   UNL     1      -9.404   6.377 -42.589  1.00  0.00     0.293 HD
ENDBRANCH   8  26
TORSDOF 6
ENDMDL
MODEL 4
REMARK VINA RESULT:    -6.343      2.261      4.277
REMARK INTER + INTRA:          -8.023
REMARK INTER:                  -7.605
REMARK INTRA:                  -0.418
REMARK UNBOUND:                -0.381
REMARK SMILES O=c1c(O)c(-c2ccc(O)cc2O)oc2cc(O)cc(O)c12
REMARK SMILES IDX 5 1 3 2 2 3 1 4 22 5 20 6 19 7 17 8 16 9 15 10 14 11 6 12
REMARK SMILES IDX 8 13 7 14 9 15 11 16 12 17 10 18 13 20 4 22 21 24 18 26
REMARK H PARENT 10 19 13 21 4 23 21 25 18 27
REMARK Flexibility Score: inf
ROOT
ATOM      1  C   UNL     1      -3.829   5.731 -39.361  1.00  0.00     0.184 A 
ATOM      2  C   UNL     1      -2.731   5.564 -40.220  1.00  0.00     0.208 A 
ATOM      3  C   UNL     1      -1.525   5.074 -39.695  1.00  0.00     0.238 A 
ATOM      4  O   UNL     1      -0.562   4.874 -40.479  1.00  0.00    -0.285 OA
ATOM      5  C   UNL     1      -1.429   4.774 -38.314  1.00  0.00     0.111 A 
ATOM      6  C   UNL     1      -0.245   4.310 -37.666  1.00  0.00     0.134 A 
ATOM      7  C   UNL     1      -0.301   3.921 -36.321  1.00  0.00     0.093 A 
ATOM      8  C   UNL     1      -1.482   4.041 -35.585  1.00  0.00     0.123 A 
ATOM      9  C   UNL     1      -2.628   4.549 -36.193  1.00  0.00     0.094 A 
ATOM     10  C   UNL     1      -2.613   4.911 -37.542  1.00  0.00     0.146 A 
ATOM     11  O   UNL     1      -3.731   5.381 -38.085  1.00  0.00    -0.451 OA
ENDROOT
BRANCH   1  12
ATOM     12  C   UNL     1      -5.121   6.259 -39.847  1.00  0.00     0.063 A 
ATOM     13  C   UNL     1      -7.187   5.887 -41.074  1.00  0.00     0.047 A 
ATOM     14  C   UNL     1      -5.956   5.421 -40.604  1.00  0.00     0.020 A 
ATOM     15  C   UNL     1      -7.605   7.187 -40.783  1.00  0.00     0.119 A 
ATOM     16  C   UNL     1      -6.791   8.023 -40.008  1.00  0.00     0.093 A 
ATOM     17  C   UNL     1      -5.556   7.562 -39.527  1.00  0.00     0.130 A 
BRANCH  15  18
ATOM     18  O   UNL     1      -8.833   7.637 -41.262  1.00  0.00    -0.508 OA
ATOM     19  H   UNL     1      -9.330   8.399 -40.815  1.00  0.00     0.293 HD
ENDBRANCH  15  18
BRANCH  17  20
ATOM     20  O   UNL     1      -4.776   8.386 -38.716  1.00  0.00    -0.507 OA
ATOM     21  H   UNL     1      -5.101   9.298 -38.414  1.00  0.00     0.293 HD
ENDBRANCH  17  20
ENDBRANCH   1  12
BRANCH   2  22
ATOM     22  O   UNL     1      -2.859   5.851 -41.582  1.00  0.00    -0.502 OA
ATOM     23  H   UNL     1      -2.115   6.279 -42.118  1.00  0.00     0.293 HD
ENDBRANCH   2  22
BRANCH   6  24
ATOM     24  O   UNL     1       1.006   4.238 -38.284  1.00  0.00    -0.507 OA
ATOM     25  H   UNL     1       1.840   3.864 -37.855  1.00  0.00     0.293 HD
ENDBRANCH   6  24
BRANCH   8  26
ATOM     26  O   UNL     1      -1.523   3.667 -34.244  1.00  0.00    -0.508 OA
ATOM     27  H   UNL     1      -0.882   4.058 -33.564  1.00  0.00     0.293 HD
ENDBRANCH   8  26
TORSDOF 6
ENDMDL
MODEL 5
REMARK VINA RESULT:    -6.274      2.654      3.227
REMARK INTER + INTRA:          -7.939
REMARK INTER:                  -7.669
REMARK INTRA:                  -0.270
REMARK UNBOUND:                -0.381
REMARK SMILES O=c1c(O)c(-c2ccc(O)cc2O)oc2cc(O)cc(O)c12
REMARK SMILES IDX 5 1 3 2 2 3 1 4 22 5 20 6 19 7 17 8 16 9 15 10 14 11 6 12
REMARK SMILES IDX 8 13 7 14 9 15 11 16 12 17 10 18 13 20 4 22 21 24 18 26
REMARK H PARENT 10 19 13 21 4 23 21 25 18 27
REMARK Flexibility Score: inf
ROOT
ATOM      1  C   UNL     1      -6.791   5.445 -37.703  1.00  0.00     0.184 A 
ATOM      2  C   UNL     1      -6.206   4.574 -36.771  1.00  0.00     0.208 A 
ATOM      3  C   UNL     1      -4.932   4.049 -37.039  1.00  0.00     0.238 A 
ATOM      4  O   UNL     1      -4.388   3.312 -36.176  1.00  0.00    -0.285 OA
ATOM      5  C   UNL     1      -4.269   4.389 -38.243  1.00  0.00     0.111 A 
ATOM      6  C   UNL     1      -2.993   3.884 -38.638  1.00  0.00     0.134 A 
ATOM      7  C   UNL     1      -2.375   4.390 -39.788  1.00  0.00     0.093 A 
ATOM      8  C   UNL     1      -3.016   5.334 -40.594  1.00  0.00     0.123 A 
ATOM      9  C   UNL     1      -4.287   5.789 -40.250  1.00  0.00     0.094 A 
ATOM     10  C   UNL     1      -4.914   5.330 -39.089  1.00  0.00     0.146 A 
ATOM     11  O   UNL     1      -6.121   5.799 -38.792  1.00  0.00    -0.451 OA
ENDROOT
BRANCH   1  12
ATOM     12  C   UNL     1      -8.137   6.019 -37.490  1.00  0.00     0.063 A 
ATOM     13  C   UNL     1      -9.530   7.989 -37.188  1.00  0.00     0.047 A 
ATOM     14  C   UNL     1      -8.273   7.413 -37.384  1.00  0.00     0.020 A 
ATOM     15  C   UNL     1     -10.668   7.183 -37.109  1.00  0.00     0.119 A 
ATOM     16  C   UNL     1     -10.547   5.793 -37.236  1.00  0.00     0.093 A 
ATOM     17  C   UNL     1      -9.289   5.207 -37.439  1.00  0.00     0.130 A 
BRANCH  15  18
ATOM     18  O   UNL     1     -11.915   7.772 -36.908  1.00  0.00    -0.508 OA
ATOM     19  H   UNL     1     -12.039   8.777 -36.946  1.00  0.00     0.293 HD
ENDBRANCH  15  18
BRANCH  17  20
ATOM     20  O   UNL     1      -9.186   3.827 -37.614  1.00  0.00    -0.507 OA
ATOM     21  H   UNL     1      -9.131   3.194 -36.824  1.00  0.00     0.293 HD
ENDBRANCH  17  20
ENDBRANCH   1  12
BRANCH   2  22
ATOM     22  O   UNL     1      -6.874   4.269 -35.582  1.00  0.00    -0.502 OA
ATOM     23  H   UNL     1      -7.249   4.985 -34.972  1.00  0.00     0.293 HD
ENDBRANCH   2  22
BRANCH   6  24
ATOM     24  O   UNL     1      -2.309   2.875 -37.955  1.00  0.00    -0.507 OA
ATOM     25  H   UNL     1      -2.746   2.075 -37.521  1.00  0.00     0.293 HD
ENDBRANCH   6  24
BRANCH   8  26
ATOM     26  O   UNL     1      -2.401   5.819 -41.746  1.00  0.00    -0.508 OA
ATOM     27  H   UNL     1      -2.820   6.555 -42.301  1.00  0.00     0.293 HD
ENDBRANCH   8  26
TORSDOF 6
ENDMDL
MODEL 6
REMARK VINA RESULT:    -6.229      1.598      2.476
REMARK INTER + INTRA:          -7.885
REMARK INTER:                  -7.558
REMARK INTRA:                  -0.327
REMARK UNBOUND:                -0.381
REMARK SMILES O=c1c(O)c(-c2ccc(O)cc2O)oc2cc(O)cc(O)c12
REMARK SMILES IDX 5 1 3 2 2 3 1 4 22 5 20 6 19 7 17 8 16 9 15 10 14 11 6 12
REMARK SMILES IDX 8 13 7 14 9 15 11 16 12 17 10 18 13 20 4 22 21 24 18 26
REMARK H PARENT 10 19 13 21 4 23 21 25 18 27
REMARK Flexibility Score: inf
ROOT
ATOM      1  C   UNL     1      -7.757   8.780 -39.389  1.00  0.00     0.184 A 
ATOM      2  C   UNL     1      -8.349   7.982 -38.396  1.00  0.00     0.208 A 
ATOM      3  C   UNL     1      -7.733   6.773 -38.039  1.00  0.00     0.238 A 
ATOM      4  O   UNL     1      -8.237   6.089 -37.111  1.00  0.00    -0.285 OA
ATOM      5  C   UNL     1      -6.541   6.370 -38.691  1.00  0.00     0.111 A 
ATOM      6  C   UNL     1      -5.853   5.146 -38.438  1.00  0.00     0.134 A 
ATOM      7  C   UNL     1      -4.614   4.911 -39.048  1.00  0.00     0.093 A 
ATOM      8  C   UNL     1      -4.071   5.827 -39.952  1.00  0.00     0.123 A 
ATOM      9  C   UNL     1      -4.765   6.999 -40.251  1.00  0.00     0.094 A 
ATOM     10  C   UNL     1      -5.985   7.277 -39.631  1.00  0.00     0.146 A 
ATOM     11  O   UNL     1      -6.607   8.410 -39.937  1.00  0.00    -0.451 OA
ENDROOT
BRANCH   1  12
ATOM     12  C   UNL     1      -8.365  10.055 -39.823  1.00  0.00     0.063 A 
ATOM     13  C   UNL     1      -9.080  12.311 -39.265  1.00  0.00     0.047 A 
ATOM     14  C   UNL     1      -8.515  11.091 -38.887  1.00  0.00     0.020 A 
ATOM     15  C   UNL     1      -9.489  12.518 -40.584  1.00  0.00     0.119 A 
ATOM     16  C   UNL     1      -9.322  11.500 -41.533  1.00  0.00     0.093 A 
ATOM     17  C   UNL     1      -8.750  10.274 -41.162  1.00  0.00     0.130 A 
BRANCH  15  18
ATOM     18  O   UNL     1     -10.054  13.739 -40.946  1.00  0.00    -0.508 OA
ATOM     19  H   UNL     1      -9.821  14.596 -40.457  1.00  0.00     0.293 HD
ENDBRANCH  15  18
BRANCH  17  20
ATOM     20  O   UNL     1      -8.544   9.285 -42.125  1.00  0.00    -0.507 OA
ATOM     21  H   UNL     1      -7.698   8.727 -42.142  1.00  0.00     0.293 HD
ENDBRANCH  17  20
ENDBRANCH   1  12
BRANCH   2  22
ATOM     22  O   UNL     1      -9.515   8.412 -37.756  1.00  0.00    -0.502 OA
ATOM     23  H   UNL     1      -9.838   8.006 -36.887  1.00  0.00     0.293 HD
ENDBRANCH   2  22
BRANCH   6  24
ATOM     24  O   UNL     1      -6.350   4.124 -37.624  1.00  0.00    -0.507 OA
ATOM     25  H   UNL     1      -6.340   4.137 -36.615  1.00  0.00     0.293 HD
ENDBRANCH   6  24
BRANCH   8  26
ATOM     26  O   UNL     1      -2.846   5.578 -40.567  1.00  0.00    -0.508 OA
ATOM     27  H   UNL     1      -2.414   4.663 -40.536  1.00  0.00     0.293 HD
ENDBRANCH   8  26
TORSDOF 6
ENDMDL
MODEL 7
REMARK VINA RESULT:    -6.059      2.651      3.866
REMARK INTER + INTRA:          -7.680
REMARK INTER:                  -7.402
REMARK INTRA:                  -0.279
REMARK UNBOUND:                -0.381
REMARK SMILES O=c1c(O)c(-c2ccc(O)cc2O)oc2cc(O)cc(O)c12
REMARK SMILES IDX 5 1 3 2 2 3 1 4 22 5 20 6 19 7 17 8 16 9 15 10 14 11 6 12
REMARK SMILES IDX 8 13 7 14 9 15 11 16 12 17 10 18 13 20 4 22 21 24 18 26
REMARK H PARENT 10 19 13 21 4 23 21 25 18 27
REMARK Flexibility Score: inf
ROOT
ATOM      1  C   UNL     1      -5.657   6.903 -39.316  1.00  0.00     0.184 A 
ATOM      2  C   UNL     1      -5.532   8.178 -38.743  1.00  0.00     0.208 A 
ATOM      3  C   UNL     1      -4.264   8.617 -38.331  1.00  0.00     0.238 A 
ATOM      4  O   UNL     1      -4.148   9.781 -37.868  1.00  0.00    -0.285 OA
ATOM      5  C   UNL     1      -3.141   7.767 -38.483  1.00  0.00     0.111 A 
ATOM      6  C   UNL     1      -1.816   8.091 -38.064  1.00  0.00     0.134 A 
ATOM      7  C   UNL     1      -0.760   7.229 -38.382  1.00  0.00     0.093 A 
ATOM      8  C   UNL     1      -0.991   6.022 -39.047  1.00  0.00     0.123 A 
ATOM      9  C   UNL     1      -2.290   5.668 -39.408  1.00  0.00     0.094 A 
ATOM     10  C   UNL     1      -3.359   6.525 -39.136  1.00  0.00     0.146 A 
ATOM     11  O   UNL     1      -4.579   6.154 -39.507  1.00  0.00    -0.451 OA
ENDROOT
BRANCH   1  12
ATOM     12  C   UNL     1      -6.966   6.375 -39.755  1.00  0.00     0.063 A 
ATOM     13  C   UNL     1      -8.384   5.580 -41.563  1.00  0.00     0.047 A 
ATOM     14  C   UNL     1      -7.161   6.086 -41.116  1.00  0.00     0.020 A 
ATOM     15  C   UNL     1      -9.421   5.344 -40.658  1.00  0.00     0.119 A 
ATOM     16  C   UNL     1      -9.230   5.606 -39.296  1.00  0.00     0.093 A 
ATOM     17  C   UNL     1      -8.002   6.108 -38.837  1.00  0.00     0.130 A 
BRANCH  15  18
ATOM     18  O   UNL     1     -10.636   4.843 -41.121  1.00  0.00    -0.508 OA
ATOM     19  H   UNL     1     -10.994   3.948 -40.808  1.00  0.00     0.293 HD
ENDBRANCH  15  18
BRANCH  17  20
ATOM     20  O   UNL     1      -7.806   6.320 -37.472  1.00  0.00    -0.507 OA
ATOM     21  H   UNL     1      -8.074   5.627 -36.782  1.00  0.00     0.293 HD
ENDBRANCH  17  20
ENDBRANCH   1  12
BRANCH   2  22
ATOM     22  O   UNL     1      -6.654   9.004 -38.621  1.00  0.00    -0.502 OA
ATOM     23  H   UNL     1      -7.256   8.984 -37.807  1.00  0.00     0.293 HD
ENDBRANCH   2  22
BRANCH   6  24
ATOM     24  O   UNL     1      -1.490   9.226 -37.315  1.00  0.00    -0.507 OA
ATOM     25  H   UNL     1      -0.713   9.288 -36.673  1.00  0.00     0.293 HD
ENDBRANCH   6  24
BRANCH   8  26
ATOM     26  O   UNL     1       0.063   5.162 -39.345  1.00  0.00    -0.508 OA
ATOM     27  H   UNL     1       0.196   4.789 -40.277  1.00  0.00     0.293 HD
ENDBRANCH   8  26
TORSDOF 6
ENDMDL
MODEL 8
REMARK VINA RESULT:    -5.959      2.474      6.950
REMARK INTER + INTRA:          -7.559
REMARK INTER:                  -7.261
REMARK INTRA:                  -0.298
REMARK UNBOUND:                -0.381
REMARK SMILES O=c1c(O)c(-c2ccc(O)cc2O)oc2cc(O)cc(O)c12
REMARK SMILES IDX 5 1 3 2 2 3 1 4 22 5 20 6 19 7 17 8 16 9 15 10 14 11 6 12
REMARK SMILES IDX 8 13 7 14 9 15 11 16 12 17 10 18 13 20 4 22 21 24 18 26
REMARK H PARENT 10 19 13 21 4 23 21 25 18 27
REMARK Flexibility Score: inf
ROOT
ATOM      1  C   UNL     1      -4.493   5.603 -38.768  1.00  0.00     0.184 A 
ATOM      2  C   UNL     1      -4.866   5.999 -40.062  1.00  0.00     0.208 A 
ATOM      3  C   UNL     1      -6.203   6.346 -40.308  1.00  0.00     0.238 A 
ATOM      4  O   UNL     1      -6.521   6.753 -41.455  1.00  0.00    -0.285 OA
ATOM      5  C   UNL     1      -7.153   6.277 -39.259  1.00  0.00     0.111 A 
ATOM      6  C   UNL     1      -8.543   6.566 -39.403  1.00  0.00     0.134 A 
ATOM      7  C   UNL     1      -9.365   6.590 -38.270  1.00  0.00     0.093 A 
ATOM      8  C   UNL     1      -8.861   6.270 -37.007  1.00  0.00     0.123 A 
ATOM      9  C   UNL     1      -7.517   5.928 -36.865  1.00  0.00     0.094 A 
ATOM     10  C   UNL     1      -6.665   5.931 -37.971  1.00  0.00     0.146 A 
ATOM     11  O   UNL     1      -5.389   5.608 -37.790  1.00  0.00    -0.451 OA
ENDROOT
BRANCH   1  12
ATOM     12  C   UNL     1      -3.105   5.207 -38.447  1.00  0.00     0.063 A 
ATOM     13  C   UNL     1      -1.530   3.453 -37.852  1.00  0.00     0.047 A 
ATOM     14  C   UNL     1      -2.832   3.862 -38.154  1.00  0.00     0.020 A 
ATOM     15  C   UNL     1      -0.485   4.379 -37.853  1.00  0.00     0.119 A 
ATOM     16  C   UNL     1      -0.742   5.720 -38.167  1.00  0.00     0.093 A 
ATOM     17  C   UNL     1      -2.045   6.137 -38.477  1.00  0.00     0.130 A 
BRANCH  15  18
ATOM     18  O   UNL     1       0.807   3.957 -37.546  1.00  0.00    -0.508 OA
ATOM     19  H   UNL     1       1.352   3.401 -38.195  1.00  0.00     0.293 HD
ENDBRANCH  15  18
BRANCH  17  20
ATOM     20  O   UNL     1      -2.281   7.464 -38.836  1.00  0.00    -0.507 OA
ATOM     21  H   UNL     1      -3.129   7.947 -38.561  1.00  0.00     0.293 HD
ENDBRANCH  17  20
ENDBRANCH   1  12
BRANCH   2  22
ATOM     22  O   UNL     1      -3.905   6.077 -41.074  1.00  0.00    -0.502 OA
ATOM     23  H   UNL     1      -3.998   6.703 -41.864  1.00  0.00     0.293 HD
ENDBRANCH   2  22
BRANCH   6  24
ATOM     24  O   UNL     1      -9.166   6.809 -40.631  1.00  0.00    -0.507 OA
ATOM     25  H   UNL     1      -9.220   6.146 -41.390  1.00  0.00     0.293 HD
ENDBRANCH   6  24
BRANCH   8  26
ATOM     26  O   UNL     1      -9.689   6.280 -35.888  1.00  0.00    -0.508 OA
ATOM     27  H   UNL     1      -9.709   5.506 -35.234  1.00  0.00     0.293 HD
ENDBRANCH   8  26
TORSDOF 6
ENDMDL
