MODEL 1
REMARK VINA RESULT:    -5.901      0.000      0.000
REMARK INTER + INTRA:          -6.515
REMARK INTER:                  -6.418
REMARK INTRA:                  -0.096
REMARK UNBOUND:                -0.096
REMARK SMILES CC(=O)[C@H]1CC[C@@H]2[C@H]3CC=C4C[C@H](O)CC[C@@]4(C)[C@@H]3CC[C@]12C
REMARK SMILES IDX 4 1 5 2 6 3 7 4 22 5 21 6 20 7 19 8 8 9 9 10 10 11 11 12
REMARK SMILES IDX 17 13 16 14 15 15 13 16 12 17 18 18 23 19 2 20 1 21 3 22
REMARK SMILES IDX 14 23
REMARK H PARENT 14 24
REMARK Flexibility Score: inf
ROOT
ATOM      1  C   UNL     1      35.795  12.669 106.151  1.00  0.00     0.062 C 
ATOM      2  C   UNL     1      34.469  13.390 105.921  1.00  0.00     0.012 C 
ATOM      3  C   UNL     1      33.580  12.442 105.133  1.00  0.00     0.005 C 
ATOM      4  C   UNL     1      34.132  11.013 105.329  1.00  0.00    -0.001 C 
ATOM      5  C   UNL     1      35.459  11.141 106.138  1.00  0.00    -0.020 C 
ATOM      6  C   UNL     1      35.240  10.671 107.599  1.00  0.00     0.008 C 
ATOM      7  C   UNL     1      34.758   9.217 107.702  1.00  0.00     0.005 C 
ATOM      8  C   UNL     1      33.653   8.838 106.666  1.00  0.00     0.003 C 
ATOM      9  C   UNL     1      33.043  10.078 105.965  1.00  0.00     0.000 C 
ATOM     10  C   UNL     1      32.043   9.642 104.870  1.00  0.00     0.031 C 
ATOM     11  C   UNL     1      31.172   8.476 105.239  1.00  0.00    -0.027 C 
ATOM     12  C   UNL     1      31.481   7.582 106.199  1.00  0.00    -0.065 C 
ATOM     13  C   UNL     1      32.544   7.884 107.260  1.00  0.00    -0.008 C 
ATOM     14  C   UNL     1      33.227   6.551 107.699  1.00  0.00     0.014 C 
ATOM     15  C   UNL     1      32.237   5.416 107.998  1.00  0.00     0.033 C 
ATOM     16  C   UNL     1      31.355   5.133 106.781  1.00  0.00     0.118 C 
ATOM     17  C   UNL     1      30.563   6.386 106.386  1.00  0.00     0.063 C 
ATOM     18  C   UNL     1      31.804   8.516 108.477  1.00  0.00     0.016 C 
ATOM     19  C   UNL     1      36.598  10.293 105.503  1.00  0.00     0.012 C 
ENDROOT
BRANCH   1  20
ATOM     20  C   UNL     1      36.862  13.138 105.166  1.00  0.00     0.133 C 
ATOM     21  C   UNL     1      36.575  13.433 103.719  1.00  0.00     0.088 C 
ATOM     22  O   UNL     1      38.007  13.285 105.566  1.00  0.00    -0.300 OA
ENDBRANCH   1  20
BRANCH  16  23
ATOM     23  O   UNL     1      30.470   4.089 107.091  1.00  0.00    -0.393 OA
ATOM     24  H   UNL     1      30.131   3.734 106.228  1.00  0.00     0.210 HD
ENDBRANCH  16  23
TORSDOF 2
ENDMDL
MODEL 2
REMARK VINA RESULT:    -4.083      3.724      6.113
REMARK INTER + INTRA:          -4.537
REMARK INTER:                  -4.470
REMARK INTRA:                  -0.068
REMARK UNBOUND:                -0.096
REMARK SMILES CC(=O)[C@H]1CC[C@@H]2[C@H]3CC=C4C[C@H](O)CC[C@@]4(C)[C@@H]3CC[C@]12C
REMARK SMILES IDX 4 1 5 2 6 3 7 4 22 5 21 6 20 7 19 8 8 9 9 10 10 11 11 12
REMARK SMILES IDX 17 13 16 14 15 15 13 16 12 17 18 18 23 19 2 20 1 21 3 22
REMARK SMILES IDX 14 23
REMARK H PARENT 14 24
REMARK Flexibility Score: inf
ROOT
ATOM      1  C   UNL     1      41.705  14.050 104.338  1.00  0.00     0.062 C 
ATOM      2  C   UNL     1      40.949  14.125 103.013  1.00  0.00     0.012 C 
ATOM      3  C   UNL     1      40.166  12.829 102.876  1.00  0.00     0.005 C 
ATOM      4  C   UNL     1      40.023  12.218 104.287  1.00  0.00    -0.001 C 
ATOM      5  C   UNL     1      40.864  13.105 105.257  1.00  0.00    -0.020 C 
ATOM      6  C   UNL     1      39.925  13.974 106.133  1.00  0.00     0.008 C 
ATOM      7  C   UNL     1      38.942  13.146 106.973  1.00  0.00     0.005 C 
ATOM      8  C   UNL     1      38.286  11.960 106.201  1.00  0.00     0.003 C 
ATOM      9  C   UNL     1      38.511  12.048 104.670  1.00  0.00     0.000 C 
ATOM     10  C   UNL     1      37.946  10.793 103.967  1.00  0.00     0.031 C 
ATOM     11  C   UNL     1      36.637  10.300 104.513  1.00  0.00    -0.027 C 
ATOM     12  C   UNL     1      36.184  10.584 105.750  1.00  0.00    -0.065 C 
ATOM     13  C   UNL     1      36.766  11.742 106.568  1.00  0.00    -0.008 C 
ATOM     14  C   UNL     1      36.673  11.397 108.087  1.00  0.00     0.014 C 
ATOM     15  C   UNL     1      35.303  10.852 108.517  1.00  0.00     0.033 C 
ATOM     16  C   UNL     1      34.941   9.603 107.711  1.00  0.00     0.118 C 
ATOM     17  C   UNL     1      34.897   9.922 106.212  1.00  0.00     0.063 C 
ATOM     18  C   UNL     1      35.894  12.997 106.263  1.00  0.00     0.016 C 
ATOM     19  C   UNL     1      41.759  12.239 106.189  1.00  0.00     0.012 C 
ENDROOT
BRANCH   1  20
ATOM     20  C   UNL     1      43.166  13.665 104.124  1.00  0.00     0.133 C 
ATOM     21  C   UNL     1      43.624  12.746 103.025  1.00  0.00     0.088 C 
ATOM     22  O   UNL     1      44.011  14.125 104.878  1.00  0.00    -0.300 OA
ENDBRANCH   1  20
BRANCH  16  23
ATOM     23  O   UNL     1      33.689   9.132 108.136  1.00  0.00    -0.393 OA
ATOM     24  H   UNL     1      33.007   9.730 107.733  1.00  0.00     0.210 HD
ENDBRANCH  16  23
TORSDOF 2
ENDMDL
MODEL 3
REMARK VINA RESULT:    -3.773      4.686      7.262
REMARK INTER + INTRA:          -4.200
REMARK INTER:                  -4.120
REMARK INTRA:                  -0.080
REMARK UNBOUND:                -0.096
REMARK SMILES CC(=O)[C@H]1CC[C@@H]2[C@H]3CC=C4C[C@H](O)CC[C@@]4(C)[C@@H]3CC[C@]12C
REMARK SMILES IDX 4 1 5 2 6 3 7 4 22 5 21 6 20 7 19 8 8 9 9 10 10 11 11 12
REMARK SMILES IDX 17 13 16 14 15 15 13 16 12 17 18 18 23 19 2 20 1 21 3 22
REMARK SMILES IDX 14 23
REMARK H PARENT 14 24
REMARK Flexibility Score: inf
ROOT
ATOM      1  C   UNL     1      42.448  12.040 104.416  1.00  0.00     0.062 C 
ATOM      2  C   UNL     1      42.475  11.847 105.931  1.00  0.00     0.012 C 
ATOM      3  C   UNL     1      41.434  12.787 106.515  1.00  0.00     0.005 C 
ATOM      4  C   UNL     1      40.445  13.150 105.386  1.00  0.00    -0.001 C 
ATOM      5  C   UNL     1      41.000  12.519 104.072  1.00  0.00    -0.020 C 
ATOM      6  C   UNL     1      40.151  11.283 103.675  1.00  0.00     0.008 C 
ATOM      7  C   UNL     1      38.667  11.612 103.457  1.00  0.00     0.005 C 
ATOM      8  C   UNL     1      38.062  12.565 104.534  1.00  0.00     0.003 C 
ATOM      9  C   UNL     1      38.982  12.730 105.770  1.00  0.00     0.000 C 
ATOM     10  C   UNL     1      38.393  13.771 106.748  1.00  0.00     0.031 C 
ATOM     11  C   UNL     1      36.903  13.705 106.918  1.00  0.00    -0.027 C 
ATOM     12  C   UNL     1      36.069  13.146 106.019  1.00  0.00    -0.065 C 
ATOM     13  C   UNL     1      36.583  12.188 104.939  1.00  0.00    -0.008 C 
ATOM     14  C   UNL     1      35.681  12.310 103.671  1.00  0.00     0.014 C 
ATOM     15  C   UNL     1      34.177  12.283 103.975  1.00  0.00     0.033 C 
ATOM     16  C   UNL     1      33.801  13.402 104.948  1.00  0.00     0.118 C 
ATOM     17  C   UNL     1      34.574  13.253 106.265  1.00  0.00     0.063 C 
ATOM     18  C   UNL     1      36.474  10.746 105.520  1.00  0.00     0.016 C 
ATOM     19  C   UNL     1      40.980  13.539 102.897  1.00  0.00     0.012 C 
ENDROOT
BRANCH   1  20
ATOM     20  C   UNL     1      43.590  12.939 103.949  1.00  0.00     0.133 C 
ATOM     21  C   UNL     1      44.097  14.108 104.749  1.00  0.00     0.088 C 
ATOM     22  O   UNL     1      44.123  12.702 102.875  1.00  0.00    -0.300 OA
ENDBRANCH   1  20
BRANCH  16  23
ATOM     23  O   UNL     1      32.421  13.349 105.196  1.00  0.00    -0.393 OA
ATOM     24  H   UNL     1      32.139  12.409 105.046  1.00  0.00     0.210 HD
ENDBRANCH  16  23
TORSDOF 2
ENDMDL
MODEL 4
REMARK VINA RESULT:    -3.275      3.959      8.312
REMARK INTER + INTRA:          -3.659
REMARK INTER:                  -4.622
REMARK INTRA:                   0.964
REMARK UNBOUND:                -0.096
REMARK SMILES CC(=O)[C@H]1CC[C@@H]2[C@H]3CC=C4C[C@H](O)CC[C@@]4(C)[C@@H]3CC[C@]12C
REMARK SMILES IDX 4 1 5 2 6 3 7 4 22 5 21 6 20 7 19 8 8 9 9 10 10 11 11 12
REMARK SMILES IDX 17 13 16 14 15 15 13 16 12 17 18 18 23 19 2 20 1 21 3 22
REMARK SMILES IDX 14 23
REMARK H PARENT 14 24
REMARK Flexibility Score: inf
ROOT
ATOM      1  C   UNL     1      33.927  12.541 104.371  1.00  0.00     0.062 C 
ATOM      2  C   UNL     1      33.944  13.999 104.825  1.00  0.00     0.012 C 
ATOM      3  C   UNL     1      35.043  14.125 105.868  1.00  0.00     0.005 C 
ATOM      4  C   UNL     1      36.007  12.934 105.678  1.00  0.00    -0.001 C 
ATOM      5  C   UNL     1      35.382  12.009 104.589  1.00  0.00    -0.020 C 
ATOM      6  C   UNL     1      36.164  12.150 103.257  1.00  0.00     0.008 C 
ATOM      7  C   UNL     1      37.652  11.796 103.388  1.00  0.00     0.005 C 
ATOM      8  C   UNL     1      38.333  12.370 104.670  1.00  0.00     0.003 C 
ATOM      9  C   UNL     1      37.463  13.437 105.379  1.00  0.00     0.000 C 
ATOM     10  C   UNL     1      38.128  13.886 106.701  1.00  0.00     0.031 C 
ATOM     11  C   UNL     1      39.619  14.047 106.634  1.00  0.00    -0.027 C 
ATOM     12  C   UNL     1      40.398  13.451 105.710  1.00  0.00    -0.065 C 
ATOM     13  C   UNL     1      39.808  12.874 104.418  1.00  0.00    -0.008 C 
ATOM     14  C   UNL     1      40.670  11.658 103.956  1.00  0.00     0.014 C 
ATOM     15  C   UNL     1      42.182  11.925 103.980  1.00  0.00     0.033 C 
ATOM     16  C   UNL     1      42.636  12.339 105.381  1.00  0.00     0.118 C 
ATOM     17  C   UNL     1      41.904  13.609 105.832  1.00  0.00     0.063 C 
ATOM     18  C   UNL     1      39.877  14.001 103.344  1.00  0.00     0.016 C 
ATOM     19  C   UNL     1      35.404  10.516 105.027  1.00  0.00     0.012 C 
ENDROOT
BRANCH   1  20
ATOM     20  C   UNL     1      32.809  11.758 105.054  1.00  0.00     0.133 C 
ATOM     21  C   UNL     1      31.396  12.263 105.159  1.00  0.00     0.088 C 
ATOM     22  O   UNL     1      33.068  10.666 105.538  1.00  0.00    -0.300 OA
ENDBRANCH   1  20
BRANCH  16  23
ATOM     23  O   UNL     1      44.021  12.568 105.364  1.00  0.00    -0.393 OA
ATOM     24  H   UNL     1      44.228  13.131 106.155  1.00  0.00     0.210 HD
ENDBRANCH  16  23
TORSDOF 2
ENDMDL
MODEL 5
REMARK VINA RESULT:    -3.241      3.082      4.956
REMARK INTER + INTRA:          -3.621
REMARK INTER:                  -3.739
REMARK INTRA:                   0.118
REMARK UNBOUND:                -0.096
REMARK SMILES CC(=O)[C@H]1CC[C@@H]2[C@H]3CC=C4C[C@H](O)CC[C@@]4(C)[C@@H]3CC[C@]12C
REMARK SMILES IDX 4 1 5 2 6 3 7 4 22 5 21 6 20 7 19 8 8 9 9 10 10 11 11 12
REMARK SMILES IDX 17 13 16 14 15 15 13 16 12 17 18 18 23 19 2 20 1 21 3 22
REMARK SMILES IDX 14 23
REMARK H PARENT 14 24
REMARK Flexibility Score: inf
ROOT
ATOM      1  C   UNL     1      40.051  12.164 104.662  1.00  0.00     0.062 C 
ATOM      2  C   UNL     1      39.882  13.518 105.348  1.00  0.00     0.012 C 
ATOM      3  C   UNL     1      38.593  14.125 104.818  1.00  0.00     0.005 C 
ATOM      4  C   UNL     1      37.738  12.976 104.241  1.00  0.00    -0.001 C 
ATOM      5  C   UNL     1      38.606  11.682 104.307  1.00  0.00    -0.020 C 
ATOM      6  C   UNL     1      38.099  10.758 105.445  1.00  0.00     0.008 C 
ATOM      7  C   UNL     1      36.631  10.340 105.278  1.00  0.00     0.005 C 
ATOM      8  C   UNL     1      35.685  11.501 104.839  1.00  0.00     0.003 C 
ATOM      9  C   UNL     1      36.350  12.894 104.970  1.00  0.00     0.000 C 
ATOM     10  C   UNL     1      35.417  13.993 104.414  1.00  0.00     0.031 C 
ATOM     11  C   UNL     1      33.964  13.814 104.745  1.00  0.00    -0.027 C 
ATOM     12  C   UNL     1      33.410  12.633 105.082  1.00  0.00    -0.065 C 
ATOM     13  C   UNL     1      34.270  11.448 105.537  1.00  0.00    -0.008 C 
ATOM     14  C   UNL     1      33.569  10.116 105.126  1.00  0.00     0.014 C 
ATOM     15  C   UNL     1      32.073  10.070 105.467  1.00  0.00     0.033 C 
ATOM     16  C   UNL     1      31.332  11.234 104.806  1.00  0.00     0.118 C 
ATOM     17  C   UNL     1      31.905  12.576 105.278  1.00  0.00     0.063 C 
ATOM     18  C   UNL     1      34.369  11.528 107.090  1.00  0.00     0.016 C 
ATOM     19  C   UNL     1      38.560  10.896 102.965  1.00  0.00     0.012 C 
ENDROOT
BRANCH   1  20
ATOM     20  C   UNL     1      41.043  12.246 103.505  1.00  0.00     0.133 C 
ATOM     21  C   UNL     1      41.476  13.544 102.882  1.00  0.00     0.088 C 
ATOM     22  O   UNL     1      41.513  11.209 103.061  1.00  0.00    -0.300 OA
ENDBRANCH   1  20
BRANCH  16  23
ATOM     23  O   UNL     1      29.970  11.154 105.136  1.00  0.00    -0.393 OA
ATOM     24  H   UNL     1      29.470  11.593 104.399  1.00  0.00     0.210 HD
ENDBRANCH  16  23
TORSDOF 2
ENDMDL
MODEL 6
REMARK VINA RESULT:    -3.183      3.755      8.223
REMARK INTER + INTRA:          -3.558
REMARK INTER:                  -4.034
REMARK INTRA:                   0.476
REMARK UNBOUND:                -0.096
REMARK SMILES CC(=O)[C@H]1CC[C@@H]2[C@H]3CC=C4C[C@H](O)CC[C@@]4(C)[C@@H]3CC[C@]12C
REMARK SMILES IDX 4 1 5 2 6 3 7 4 22 5 21 6 20 7 19 8 8 9 9 10 10 11 11 12
REMARK SMILES IDX 17 13 16 14 15 15 13 16 12 17 18 18 23 19 2 20 1 21 3 22
REMARK SMILES IDX 14 23
REMARK H PARENT 14 24
REMARK Flexibility Score: inf
ROOT
ATOM      1  C   UNL     1      34.048  12.098 106.003  1.00  0.00     0.062 C 
ATOM      2  C   UNL     1      34.303  10.593 105.943  1.00  0.00     0.012 C 
ATOM      3  C   UNL     1      35.338  10.363 104.854  1.00  0.00     0.005 C 
ATOM      4  C   UNL     1      36.078  11.698 104.622  1.00  0.00    -0.001 C 
ATOM      5  C   UNL     1      35.365  12.775 105.497  1.00  0.00    -0.020 C 
ATOM      6  C   UNL     1      36.242  13.130 106.725  1.00  0.00     0.008 C 
ATOM      7  C   UNL     1      37.629  13.667 106.344  1.00  0.00     0.005 C 
ATOM      8  C   UNL     1      38.321  12.880 105.188  1.00  0.00     0.003 C 
ATOM      9  C   UNL     1      37.618  11.534 104.879  1.00  0.00     0.000 C 
ATOM     10  C   UNL     1      38.269  10.853 103.654  1.00  0.00     0.031 C 
ATOM     11  C   UNL     1      39.765  10.955 103.596  1.00  0.00    -0.027 C 
ATOM     12  C   UNL     1      40.479  11.898 104.243  1.00  0.00    -0.065 C 
ATOM     13  C   UNL     1      39.876  12.705 105.398  1.00  0.00    -0.008 C 
ATOM     14  C   UNL     1      40.529  14.122 105.432  1.00  0.00     0.014 C 
ATOM     15  C   UNL     1      42.059  14.103 105.312  1.00  0.00     0.033 C 
ATOM     16  C   UNL     1      42.493  13.399 104.025  1.00  0.00     0.118 C 
ATOM     17  C   UNL     1      41.978  11.954 104.002  1.00  0.00     0.063 C 
ATOM     18  C   UNL     1      40.217  11.941 106.713  1.00  0.00     0.016 C 
ATOM     19  C   UNL     1      35.086  14.074 104.687  1.00  0.00     0.012 C 
ENDROOT
BRANCH   1  20
ATOM     20  C   UNL     1      32.765  12.475 105.268  1.00  0.00     0.133 C 
ATOM     21  C   UNL     1      32.268  13.890 105.151  1.00  0.00     0.088 C 
ATOM     22  O   UNL     1      32.106  11.589 104.745  1.00  0.00    -0.300 OA
ENDBRANCH   1  20
BRANCH  16  23
ATOM     23  O   UNL     1      43.894  13.407 103.949  1.00  0.00    -0.393 OA
ATOM     24  H   UNL     1      44.231  13.491 104.879  1.00  0.00     0.210 HD
ENDBRANCH  16  23
TORSDOF 2
ENDMDL
MODEL 7
REMARK VINA RESULT:    -3.155      3.773      5.998
REMARK INTER + INTRA:          -3.528
REMARK INTER:                  -3.499
REMARK INTRA:                  -0.029
REMARK UNBOUND:                -0.096
REMARK SMILES CC(=O)[C@H]1CC[C@@H]2[C@H]3CC=C4C[C@H](O)CC[C@@]4(C)[C@@H]3CC[C@]12C
REMARK SMILES IDX 4 1 5 2 6 3 7 4 22 5 21 6 20 7 19 8 8 9 9 10 10 11 11 12
REMARK SMILES IDX 17 13 16 14 15 15 13 16 12 17 18 18 23 19 2 20 1 21 3 22
REMARK SMILES IDX 14 23
REMARK H PARENT 14 24
REMARK Flexibility Score: inf
ROOT
ATOM      1  C   UNL     1      42.064  12.746 105.751  1.00  0.00     0.062 C 
ATOM      2  C   UNL     1      41.655  14.125 105.237  1.00  0.00     0.012 C 
ATOM      3  C   UNL     1      40.515  13.911 104.254  1.00  0.00     0.005 C 
ATOM      4  C   UNL     1      39.897  12.527 104.550  1.00  0.00    -0.001 C 
ATOM      5  C   UNL     1      40.785  11.852 105.640  1.00  0.00    -0.020 C 
ATOM      6  C   UNL     1      40.052  11.865 107.007  1.00  0.00     0.008 C 
ATOM      7  C   UNL     1      38.700  11.139 106.976  1.00  0.00     0.005 C 
ATOM      8  C   UNL     1      37.839  11.450 105.713  1.00  0.00     0.003 C 
ATOM      9  C   UNL     1      38.374  12.661 104.909  1.00  0.00     0.000 C 
ATOM     10  C   UNL     1      37.560  12.852 103.611  1.00  0.00     0.031 C 
ATOM     11  C   UNL     1      36.081  12.634 103.755  1.00  0.00    -0.027 C 
ATOM     12  C   UNL     1      35.522  11.913 104.747  1.00  0.00    -0.065 C 
ATOM     13  C   UNL     1      36.297  11.578 106.026  1.00  0.00    -0.008 C 
ATOM     14  C   UNL     1      35.795  10.211 106.588  1.00  0.00     0.014 C 
ATOM     15  C   UNL     1      34.266  10.085 106.639  1.00  0.00     0.033 C 
ATOM     16  C   UNL     1      33.659  10.292 105.251  1.00  0.00     0.118 C 
ATOM     17  C   UNL     1      34.022  11.678 104.705  1.00  0.00     0.063 C 
ATOM     18  C   UNL     1      35.990  12.709 107.053  1.00  0.00     0.016 C 
ATOM     19  C   UNL     1      41.125  10.380 105.267  1.00  0.00     0.012 C 
ENDROOT
BRANCH   1  20
ATOM     20  C   UNL     1      43.313  12.235 105.039  1.00  0.00     0.133 C 
ATOM     21  C   UNL     1      43.681  12.630 103.636  1.00  0.00     0.088 C 
ATOM     22  O   UNL     1      44.056  11.469 105.635  1.00  0.00    -0.300 OA
ENDBRANCH   1  20
BRANCH  16  23
ATOM     23  O   UNL     1      32.265  10.163 105.337  1.00  0.00    -0.393 OA
ATOM     24  H   UNL     1      32.016   9.366 104.801  1.00  0.00     0.210 HD
ENDBRANCH  16  23
TORSDOF 2
ENDMDL
