MODEL 1
REMARK VINA RESULT:    -5.041      0.000      0.000
REMARK INTER + INTRA:          -7.952
REMARK INTER:                  -7.693
REMARK INTRA:                  -0.259
REMARK UNBOUND:                -0.259
REMARK SMILES CC1=CCC[C@@H](C)C(=O)C[C@@H](C(C)C)C(=O)C1
REMARK SMILES IDX 8 1 9 2 6 3 7 4 5 5 4 6 3 7 2 8 1 9 10 11 11 12 15 13 16 14
REMARK SMILES IDX 17 15 12 17 13 18 14 19
REMARK H PARENT
REMARK Flexibility Score: 70.00
ROOT
ATOM      1  C   UNL     1      -7.445  30.053  22.988  1.00  0.00     0.136 C 
ATOM      2  O   UNL     1      -6.425  30.189  22.327  1.00  0.00    -0.299 OA
ENDROOT
BRANCH   1   3
ATOM      3  C   UNL     1      -8.700  29.549  22.298  1.00  0.00     0.053 C 
ATOM      4  C   UNL     1      -8.604  28.047  22.007  1.00  0.00     0.016 C 
BRANCH   3   5
ATOM      5  C   UNL     1      -8.997  30.347  21.016  1.00  0.00     0.015 C 
BRANCH   5   6
ATOM      6  C   UNL     1      -9.789  31.634  21.309  1.00  0.00     0.028 C 
BRANCH   6   7
ATOM      7  C   UNL     1      -8.865  32.792  21.583  1.00  0.00    -0.028 C 
ATOM      8  C   UNL     1      -8.771  33.436  22.769  1.00  0.00    -0.070 CG0
ATOM      9  C   UNL     1      -7.763  34.550  22.892  1.00  0.00     0.039 C 
ATOM     10  G   UNL     1      -9.638  33.091  23.970  1.00  0.00     0.000 G0
ENDBRANCH   6   7
ENDBRANCH   5   6
ENDBRANCH   3   5
ENDBRANCH   1   3
BRANCH   1  11
ATOM     11  C   UNL     1      -7.413  30.422  24.456  1.00  0.00     0.087 C 
BRANCH  11  12
ATOM     12  C   UNL     1      -8.813  30.828  24.992  1.00  0.00     0.066 C 
BRANCH  12  13
ATOM     13  C   UNL     1      -8.911  32.346  25.037  1.00  0.00     0.140 C 
ATOM     14  O   UNL     1      -8.465  32.948  26.004  1.00  0.00    -0.299 OA
BRANCH  13  15
ATOM     15  C   UNL     1      -9.651  33.109  23.967  1.00  0.00     0.106 CG0
ATOM     16  G   UNL     1      -8.764  33.437  22.776  1.00  0.00     0.000 G0
ENDBRANCH  13  15
ENDBRANCH  12  13
BRANCH  12  17
ATOM     17  C   UNL     1      -9.119  30.217  26.400  1.00  0.00    -0.006 C 
ATOM     18  C   UNL     1      -9.938  28.917  26.283  1.00  0.00     0.008 C 
ATOM     19  C   UNL     1      -7.833  29.915  27.196  1.00  0.00     0.008 C 
ENDBRANCH  12  17
ENDBRANCH  11  12
ENDBRANCH   1  11
TORSDOF 1
ENDMDL
MODEL 2
REMARK VINA RESULT:    -4.841      2.118      4.158
REMARK INTER + INTRA:          -7.647
REMARK INTER:                  -7.494
REMARK INTRA:                  -0.153
REMARK UNBOUND:                -0.259
REMARK SMILES CC1=CCC[C@@H](C)C(=O)C[C@@H](C(C)C)C(=O)C1
REMARK SMILES IDX 8 1 9 2 6 3 7 4 5 5 4 6 3 7 2 8 1 9 10 11 11 12 15 13 16 14
REMARK SMILES IDX 17 15 12 17 13 18 14 19
REMARK H PARENT
REMARK Flexibility Score: 70.00
ROOT
ATOM      1  C   UNL     1      -7.965  33.760  22.170  1.00  0.00     0.136 C 
ATOM      2  O   UNL     1      -7.615  34.906  21.925  1.00  0.00    -0.299 OA
ENDROOT
BRANCH   1   3
ATOM      3  C   UNL     1      -7.434  32.634  21.301  1.00  0.00     0.053 C 
ATOM      4  C   UNL     1      -7.269  33.091  19.847  1.00  0.00     0.016 C 
BRANCH   3   5
ATOM      5  C   UNL     1      -8.325  31.382  21.394  1.00  0.00     0.015 C 
BRANCH   5   6
ATOM      6  C   UNL     1      -7.663  30.264  22.220  1.00  0.00     0.028 C 
BRANCH   6   7
ATOM      7  C   UNL     1      -8.666  29.580  23.112  1.00  0.00    -0.028 C 
ATOM      8  C   UNL     1      -8.831  29.845  24.428  1.00  0.00    -0.070 CG0
ATOM      9  C   UNL     1      -9.911  29.101  25.171  1.00  0.00     0.039 C 
ATOM     10  G   UNL     1      -7.974  30.849  25.185  1.00  0.00     0.000 G0
ENDBRANCH   6   7
ENDBRANCH   5   6
ENDBRANCH   3   5
ENDBRANCH   1   3
BRANCH   1  11
ATOM     11  C   UNL     1      -8.934  33.525  23.308  1.00  0.00     0.087 C 
BRANCH  11  12
ATOM     12  C   UNL     1      -8.218  33.423  24.682  1.00  0.00     0.066 C 
BRANCH  12  13
ATOM     13  C   UNL     1      -8.688  32.167  25.401  1.00  0.00     0.140 C 
ATOM     14  O   UNL     1      -9.596  32.248  26.217  1.00  0.00    -0.299 OA
BRANCH  13  15
ATOM     15  C   UNL     1      -7.977  30.851  25.212  1.00  0.00     0.106 CG0
ATOM     16  G   UNL     1      -8.819  29.847  24.440  1.00  0.00     0.000 G0
ENDBRANCH  13  15
ENDBRANCH  12  13
BRANCH  12  17
ATOM     17  C   UNL     1      -8.448  34.687  25.576  1.00  0.00    -0.006 C 
ATOM     18  C   UNL     1      -7.118  35.383  25.922  1.00  0.00     0.008 C 
ATOM     19  C   UNL     1      -9.378  35.716  24.902  1.00  0.00     0.008 C 
ENDBRANCH  12  17
ENDBRANCH  11  12
ENDBRANCH   1  11
TORSDOF 1
ENDMDL
MODEL 3
REMARK VINA RESULT:    -4.730      1.906      4.149
REMARK INTER + INTRA:          -7.478
REMARK INTER:                  -8.103
REMARK INTRA:                   0.625
REMARK UNBOUND:                -0.259
REMARK SMILES CC1=CCC[C@@H](C)C(=O)C[C@@H](C(C)C)C(=O)C1
REMARK SMILES IDX 8 1 9 2 6 3 7 4 5 5 4 6 3 7 2 8 1 9 10 11 11 12 15 13 16 14
REMARK SMILES IDX 17 15 12 17 13 18 14 19
REMARK H PARENT
REMARK Flexibility Score: 70.00
ROOT
ATOM      1  C   UNL     1      -8.750  32.933  22.252  1.00  0.00     0.136 C 
ATOM      2  O   UNL     1      -8.258  32.449  21.242  1.00  0.00    -0.299 OA
ENDROOT
BRANCH   1   3
ATOM      3  C   UNL     1      -8.272  34.297  22.715  1.00  0.00     0.053 C 
ATOM      4  C   UNL     1      -7.420  34.977  21.636  1.00  0.00     0.016 C 
BRANCH   3   5
ATOM      5  C   UNL     1      -7.512  34.205  24.050  1.00  0.00     0.015 C 
BRANCH   5   6
ATOM      6  C   UNL     1      -8.423  34.508  25.253  1.00  0.00     0.028 C 
BRANCH   6   7
ATOM      7  C   UNL     1      -8.093  33.619  26.424  1.00  0.00    -0.028 C 
ATOM      8  C   UNL     1      -8.690  32.432  26.679  1.00  0.00    -0.070 CG0
ATOM      9  C   UNL     1      -8.212  31.641  27.870  1.00  0.00     0.039 C 
ATOM     10  G   UNL     1      -9.817  31.871  25.826  1.00  0.00     0.000 G0
ENDBRANCH   6   7
ENDBRANCH   5   6
ENDBRANCH   3   5
ENDBRANCH   1   3
BRANCH   1  11
ATOM     11  C   UNL     1      -9.790  32.133  23.007  1.00  0.00     0.087 C 
BRANCH  11  12
ATOM     12  C   UNL     1      -9.243  30.762  23.490  1.00  0.00     0.066 C 
BRANCH  12  13
ATOM     13  C   UNL     1      -9.401  30.662  25.000  1.00  0.00     0.140 C 
ATOM     14  O   UNL     1      -9.282  29.573  25.545  1.00  0.00    -0.299 OA
BRANCH  13  15
ATOM     15  C   UNL     1      -9.816  31.859  25.818  1.00  0.00     0.106 CG0
ATOM     16  G   UNL     1      -8.672  32.407  26.657  1.00  0.00     0.000 G0
ENDBRANCH  13  15
ENDBRANCH  12  13
BRANCH  12  17
ATOM     17  C   UNL     1      -7.751  30.530  23.078  1.00  0.00    -0.006 C 
ATOM     18  C   UNL     1      -6.813  30.591  24.299  1.00  0.00     0.008 C 
ATOM     19  C   UNL     1      -7.545  29.174  22.371  1.00  0.00     0.008 C 
ENDBRANCH  12  17
ENDBRANCH  11  12
ENDBRANCH   1  11
TORSDOF 1
ENDMDL
MODEL 4
REMARK VINA RESULT:    -4.490      1.559      3.832
REMARK INTER + INTRA:          -7.111
REMARK INTER:                  -7.241
REMARK INTRA:                   0.130
REMARK UNBOUND:                -0.259
REMARK SMILES CC1=CCC[C@@H](C)C(=O)C[C@@H](C(C)C)C(=O)C1
REMARK SMILES IDX 8 1 9 2 6 3 7 4 5 5 4 6 3 7 2 8 1 9 10 11 11 12 15 13 16 14
REMARK SMILES IDX 17 15 12 17 13 18 14 19
REMARK H PARENT
REMARK Flexibility Score: 70.00
ROOT
ATOM      1  C   UNL     1      -8.330  33.607  26.190  1.00  0.00     0.136 C 
ATOM      2  O   UNL     1      -7.939  33.463  27.340  1.00  0.00    -0.299 OA
ENDROOT
BRANCH   1   3
ATOM      3  C   UNL     1      -7.836  34.803  25.396  1.00  0.00     0.053 C 
ATOM      4  C   UNL     1      -8.930  35.870  25.269  1.00  0.00     0.016 C 
BRANCH   3   5
ATOM      5  C   UNL     1      -7.306  34.382  24.014  1.00  0.00     0.015 C 
BRANCH   5   6
ATOM      6  C   UNL     1      -8.298  34.726  22.888  1.00  0.00     0.028 C 
BRANCH   6   7
ATOM      7  C   UNL     1      -8.212  33.727  21.763  1.00  0.00    -0.028 C 
ATOM      8  C   UNL     1      -8.857  32.538  21.740  1.00  0.00    -0.070 CG0
ATOM      9  C   UNL     1      -8.700  31.669  20.518  1.00  0.00     0.039 C 
ATOM     10  G   UNL     1      -9.719  32.041  22.890  1.00  0.00     0.000 G0
ENDBRANCH   6   7
ENDBRANCH   5   6
ENDBRANCH   3   5
ENDBRANCH   1   3
BRANCH   1  11
ATOM     11  C   UNL     1      -9.312  32.602  25.626  1.00  0.00     0.087 C 
BRANCH  11  12
ATOM     12  C   UNL     1      -8.619  31.283  25.189  1.00  0.00     0.066 C 
BRANCH  12  13
ATOM     13  C   UNL     1      -8.964  30.994  23.735  1.00  0.00     0.140 C 
ATOM     14  O   UNL     1      -8.558  29.964  23.215  1.00  0.00    -0.299 OA
BRANCH  13  15
ATOM     15  C   UNL     1      -9.698  32.008  22.894  1.00  0.00     0.106 CG0
ATOM     16  G   UNL     1      -8.846  32.529  21.747  1.00  0.00     0.000 G0
ENDBRANCH  13  15
ENDBRANCH  12  13
BRANCH  12  17
ATOM     17  C   UNL     1      -9.007  30.069  26.097  1.00  0.00    -0.006 C 
ATOM     18  C   UNL     1      -7.761  29.409  26.718  1.00  0.00     0.008 C 
ATOM     19  C   UNL     1      -9.964  30.476  27.236  1.00  0.00     0.008 C 
ENDBRANCH  12  17
ENDBRANCH  11  12
ENDBRANCH   1  11
TORSDOF 1
ENDMDL
MODEL 5
REMARK VINA RESULT:    -4.366      1.527      3.974
REMARK INTER + INTRA:          -6.922
REMARK INTER:                  -7.479
REMARK INTRA:                   0.557
REMARK UNBOUND:                -0.259
REMARK SMILES CC1=CCC[C@@H](C)C(=O)C[C@@H](C(C)C)C(=O)C1
REMARK SMILES IDX 8 1 9 2 6 3 7 4 5 5 4 6 3 7 2 8 1 9 10 11 11 12 15 13 16 14
REMARK SMILES IDX 17 15 12 17 13 18 14 19
REMARK H PARENT
REMARK Flexibility Score: 70.00
ROOT
ATOM      1  C   UNL     1      -7.801  31.511  22.143  1.00  0.00     0.136 C 
ATOM      2  O   UNL     1      -7.171  32.001  21.216  1.00  0.00    -0.299 OA
ENDROOT
BRANCH   1   3
ATOM      3  C   UNL     1      -7.692  30.016  22.389  1.00  0.00     0.053 C 
ATOM      4  C   UNL     1      -8.810  29.256  21.665  1.00  0.00     0.016 C 
BRANCH   3   5
ATOM      5  C   UNL     1      -7.682  29.692  23.894  1.00  0.00     0.015 C 
BRANCH   5   6
ATOM      6  C   UNL     1      -9.092  29.376  24.424  1.00  0.00     0.028 C 
BRANCH   6   7
ATOM      7  C   UNL     1      -9.197  29.668  25.898  1.00  0.00    -0.028 C 
ATOM      8  C   UNL     1      -9.503  30.877  26.423  1.00  0.00    -0.070 CG0
ATOM      9  C   UNL     1      -9.612  30.992  27.922  1.00  0.00     0.039 C 
ATOM     10  G   UNL     1      -9.732  32.116  25.570  1.00  0.00     0.000 G0
ENDBRANCH   6   7
ENDBRANCH   5   6
ENDBRANCH   3   5
ENDBRANCH   1   3
BRANCH   1  11
ATOM     11  C   UNL     1      -8.681  32.413  22.980  1.00  0.00     0.087 C 
BRANCH  11  12
ATOM     12  C   UNL     1      -7.872  33.208  24.040  1.00  0.00     0.066 C 
BRANCH  12  13
ATOM     13  C   UNL     1      -8.498  32.996  25.411  1.00  0.00     0.140 C 
ATOM     14  O   UNL     1      -7.934  33.438  26.403  1.00  0.00    -0.299 OA
BRANCH  13  15
ATOM     15  C   UNL     1      -9.737  32.154  25.577  1.00  0.00     0.106 CG0
ATOM     16  G   UNL     1      -9.480  30.911  26.416  1.00  0.00     0.000 G0
ENDBRANCH  13  15
ENDBRANCH  12  13
BRANCH  12  17
ATOM     17  C   UNL     1      -7.781  34.735  23.708  1.00  0.00    -0.006 C 
ATOM     18  C   UNL     1      -7.700  34.977  22.189  1.00  0.00     0.008 C 
ATOM     19  C   UNL     1      -8.982  35.525  24.266  1.00  0.00     0.008 C 
ENDBRANCH  12  17
ENDBRANCH  11  12
ENDBRANCH   1  11
TORSDOF 1
ENDMDL
MODEL 6
REMARK VINA RESULT:    -4.165      1.793      3.895
REMARK INTER + INTRA:          -6.615
REMARK INTER:                  -7.387
REMARK INTRA:                   0.772
REMARK UNBOUND:                -0.259
REMARK SMILES CC1=CCC[C@@H](C)C(=O)C[C@@H](C(C)C)C(=O)C1
REMARK SMILES IDX 8 1 9 2 6 3 7 4 5 5 4 6 3 7 2 8 1 9 10 11 11 12 15 13 16 14
REMARK SMILES IDX 17 15 12 17 13 18 14 19
REMARK H PARENT
REMARK Flexibility Score: 70.00
ROOT
ATOM      1  C   UNL     1      -9.300  31.703  25.475  1.00  0.00     0.136 C 
ATOM      2  O   UNL     1      -9.515  32.194  26.575  1.00  0.00    -0.299 OA
ENDROOT
BRANCH   1   3
ATOM      3  C   UNL     1      -8.425  30.465  25.388  1.00  0.00     0.053 C 
ATOM      4  C   UNL     1      -7.813  30.125  26.752  1.00  0.00     0.016 C 
BRANCH   3   5
ATOM      5  C   UNL     1      -7.335  30.620  24.311  1.00  0.00     0.015 C 
BRANCH   5   6
ATOM      6  C   UNL     1      -7.813  30.126  22.934  1.00  0.00     0.028 C 
BRANCH   6   7
ATOM      7  C   UNL     1      -7.128  30.875  21.820  1.00  0.00    -0.028 C 
ATOM      8  C   UNL     1      -7.616  31.990  21.230  1.00  0.00    -0.070 CG0
ATOM      9  C   UNL     1      -6.786  32.646  20.156  1.00  0.00     0.039 C 
ATOM     10  G   UNL     1      -8.960  32.601  21.597  1.00  0.00     0.000 G0
ENDBRANCH   6   7
ENDBRANCH   5   6
ENDBRANCH   3   5
ENDBRANCH   1   3
BRANCH   1  11
ATOM     11  C   UNL     1      -9.892  32.371  24.254  1.00  0.00     0.087 C 
BRANCH  11  12
ATOM     12  C   UNL     1      -9.252  33.758  23.971  1.00  0.00     0.066 C 
BRANCH  12  13
ATOM     13  C   UNL     1      -8.802  33.815  22.519  1.00  0.00     0.140 C 
ATOM     14  O   UNL     1      -8.389  34.872  22.060  1.00  0.00    -0.299 OA
BRANCH  13  15
ATOM     15  C   UNL     1      -8.964  32.625  21.607  1.00  0.00     0.106 CG0
ATOM     16  G   UNL     1      -7.628  32.002  21.231  1.00  0.00     0.000 G0
ENDBRANCH  13  15
ENDBRANCH  12  13
BRANCH  12  17
ATOM     17  C   UNL     1      -8.057  34.075  24.930  1.00  0.00    -0.006 C 
ATOM     18  C   UNL     1      -6.749  34.297  24.145  1.00  0.00     0.008 C 
ATOM     19  C   UNL     1      -8.322  35.321  25.800  1.00  0.00     0.008 C 
ENDBRANCH  12  17
ENDBRANCH  11  12
ENDBRANCH   1  11
TORSDOF 1
ENDMDL
MODEL 7
REMARK VINA RESULT:    -4.110      1.892      3.424
REMARK INTER + INTRA:          -6.531
REMARK INTER:                  -7.698
REMARK INTRA:                   1.167
REMARK UNBOUND:                -0.259
REMARK SMILES CC1=CCC[C@@H](C)C(=O)C[C@@H](C(C)C)C(=O)C1
REMARK SMILES IDX 8 1 9 2 6 3 7 4 5 5 4 6 3 7 2 8 1 9 10 11 11 12 15 13 16 14
REMARK SMILES IDX 17 15 12 17 13 18 14 19
REMARK H PARENT
REMARK Flexibility Score: 70.00
ROOT
ATOM      1  C   UNL     1      -9.310  31.753  21.243  1.00  0.00     0.136 C 
ATOM      2  O   UNL     1      -9.803  30.931  20.483  1.00  0.00    -0.299 OA
ENDROOT
BRANCH   1   3
ATOM      3  C   UNL     1      -8.363  32.796  20.675  1.00  0.00     0.053 C 
ATOM      4  C   UNL     1      -6.904  32.339  20.798  1.00  0.00     0.016 C 
BRANCH   3   5
ATOM      5  C   UNL     1      -8.574  34.169  21.337  1.00  0.00     0.015 C 
BRANCH   5   6
ATOM      6  C   UNL     1      -7.475  34.488  22.366  1.00  0.00     0.028 C 
BRANCH   6   7
ATOM      7  C   UNL     1      -8.024  34.479  23.769  1.00  0.00    -0.028 C 
ATOM      8  C   UNL     1      -7.876  33.459  24.645  1.00  0.00    -0.070 CG0
ATOM      9  C   UNL     1      -8.450  33.625  26.030  1.00  0.00     0.039 C 
ATOM     10  G   UNL     1      -7.169  32.159  24.293  1.00  0.00     0.000 G0
ENDBRANCH   6   7
ENDBRANCH   5   6
ENDBRANCH   3   5
ENDBRANCH   1   3
BRANCH   1  11
ATOM     11  C   UNL     1      -9.645  31.672  22.717  1.00  0.00     0.087 C 
BRANCH  11  12
ATOM     12  C   UNL     1      -8.976  30.451  23.407  1.00  0.00     0.066 C 
BRANCH  12  13
ATOM     13  C   UNL     1      -8.047  30.944  24.506  1.00  0.00     0.140 C 
ATOM     14  O   UNL     1      -8.087  30.413  25.608  1.00  0.00    -0.299 OA
BRANCH  13  15
ATOM     15  C   UNL     1      -7.164  32.148  24.295  1.00  0.00     0.106 CG0
ATOM     16  G   UNL     1      -7.877  33.450  24.625  1.00  0.00     0.000 G0
ENDBRANCH  13  15
ENDBRANCH  12  13
BRANCH  12  17
ATOM     17  C   UNL     1      -8.200  29.540  22.398  1.00  0.00    -0.006 C 
ATOM     18  C   UNL     1      -6.696  29.488  22.730  1.00  0.00     0.008 C 
ATOM     19  C   UNL     1      -8.746  28.098  22.375  1.00  0.00     0.008 C 
ENDBRANCH  12  17
ENDBRANCH  11  12
ENDBRANCH   1  11
TORSDOF 1
ENDMDL
MODEL 8
REMARK VINA RESULT:    -3.842      2.304      5.057
REMARK INTER + INTRA:          -6.122
REMARK INTER:                  -6.775
REMARK INTRA:                   0.653
REMARK UNBOUND:                -0.259
REMARK SMILES CC1=CCC[C@@H](C)C(=O)C[C@@H](C(C)C)C(=O)C1
REMARK SMILES IDX 8 1 9 2 6 3 7 4 5 5 4 6 3 7 2 8 1 9 10 11 11 12 15 13 16 14
REMARK SMILES IDX 17 15 12 17 13 18 14 19
REMARK H PARENT
REMARK Flexibility Score: 70.00
ROOT
ATOM      1  C   UNL     1      -8.036  33.826  23.710  1.00  0.00     0.136 C 
ATOM      2  O   UNL     1      -8.006  34.381  22.620  1.00  0.00    -0.299 OA
ENDROOT
BRANCH   1   3
ATOM      3  C   UNL     1      -8.522  34.612  24.915  1.00  0.00     0.053 C 
ATOM      4  C   UNL     1      -7.377  35.407  25.553  1.00  0.00     0.016 C 
BRANCH   3   5
ATOM      5  C   UNL     1      -9.207  33.696  25.945  1.00  0.00     0.015 C 
BRANCH   5   6
ATOM      6  C   UNL     1      -8.249  33.288  27.079  1.00  0.00     0.028 C 
BRANCH   6   7
ATOM      7  C   UNL     1      -8.701  32.013  27.742  1.00  0.00    -0.028 C 
ATOM      8  C   UNL     1      -8.497  30.772  27.241  1.00  0.00    -0.070 CG0
ATOM      9  C   UNL     1      -8.974  29.594  28.051  1.00  0.00     0.039 C 
ATOM     10  G   UNL     1      -7.818  30.520  25.903  1.00  0.00     0.000 G0
ENDBRANCH   6   7
ENDBRANCH   5   6
ENDBRANCH   3   5
ENDBRANCH   1   3
BRANCH   1  11
ATOM     11  C   UNL     1      -7.557  32.394  23.808  1.00  0.00     0.087 C 
BRANCH  11  12
ATOM     12  C   UNL     1      -8.702  31.372  23.566  1.00  0.00     0.066 C 
BRANCH  12  13
ATOM     13  C   UNL     1      -8.783  30.422  24.752  1.00  0.00     0.140 C 
ATOM     14  O   UNL     1      -9.714  29.631  24.824  1.00  0.00    -0.299 OA
BRANCH  13  15
ATOM     15  C   UNL     1      -7.803  30.517  25.893  1.00  0.00     0.106 CG0
ATOM     16  G   UNL     1      -8.492  30.772  27.225  1.00  0.00     0.000 G0
ENDBRANCH  13  15
ENDBRANCH  12  13
BRANCH  12  17
ATOM     17  C   UNL     1      -8.523  30.573  22.233  1.00  0.00    -0.006 C 
ATOM     18  C   UNL     1      -8.085  31.494  21.078  1.00  0.00     0.008 C 
ATOM     19  C   UNL     1      -7.490  29.435  22.369  1.00  0.00     0.008 C 
ENDBRANCH  12  17
ENDBRANCH  11  12
ENDBRANCH   1  11
TORSDOF 1
ENDMDL
MODEL 9
REMARK VINA RESULT:    -3.631      2.141      3.834
REMARK INTER + INTRA:          -5.800
REMARK INTER:                  -5.891
REMARK INTRA:                   0.091
REMARK UNBOUND:                -0.259
REMARK SMILES CC1=CCC[C@@H](C)C(=O)C[C@@H](C(C)C)C(=O)C1
REMARK SMILES IDX 8 1 9 2 6 3 7 4 5 5 4 6 3 7 2 8 1 9 10 11 11 12 15 13 16 14
REMARK SMILES IDX 17 15 12 17 13 18 14 19
REMARK H PARENT
REMARK Flexibility Score: 70.00
ROOT
ATOM      1  C   UNL     1      -9.224  32.981  23.281  1.00  0.00     0.136 C 
ATOM      2  O   UNL     1     -10.112  32.576  22.544  1.00  0.00    -0.299 OA
ENDROOT
BRANCH   1   3
ATOM      3  C   UNL     1      -7.883  33.350  22.673  1.00  0.00     0.053 C 
ATOM      4  C   UNL     1      -7.868  34.815  22.218  1.00  0.00     0.016 C 
BRANCH   3   5
ATOM      5  C   UNL     1      -7.509  32.404  21.517  1.00  0.00     0.015 C 
BRANCH   5   6
ATOM      6  C   UNL     1      -6.800  31.134  22.020  1.00  0.00     0.028 C 
BRANCH   6   7
ATOM      7  C   UNL     1      -7.740  29.956  22.037  1.00  0.00    -0.028 C 
ATOM      8  C   UNL     1      -8.213  29.367  23.159  1.00  0.00    -0.070 CG0
ATOM      9  C   UNL     1      -9.183  28.223  23.004  1.00  0.00     0.039 C 
ATOM     10  G   UNL     1      -7.805  29.801  24.558  1.00  0.00     0.000 G0
ENDBRANCH   6   7
ENDBRANCH   5   6
ENDBRANCH   3   5
ENDBRANCH   1   3
BRANCH   1  11
ATOM     11  C   UNL     1      -9.497  33.066  24.767  1.00  0.00     0.087 C 
BRANCH  11  12
ATOM     12  C   UNL     1      -8.581  32.119  25.590  1.00  0.00     0.066 C 
BRANCH  12  13
ATOM     13  C   UNL     1      -8.880  30.677  25.209  1.00  0.00     0.140 C 
ATOM     14  O   UNL     1      -9.959  30.187  25.514  1.00  0.00    -0.299 OA
BRANCH  13  15
ATOM     15  C   UNL     1      -7.827  29.808  24.569  1.00  0.00     0.106 CG0
ATOM     16  G   UNL     1      -8.222  29.362  23.170  1.00  0.00     0.000 G0
ENDBRANCH  13  15
ENDBRANCH  12  13
BRANCH  12  17
ATOM     17  C   UNL     1      -8.737  32.323  27.134  1.00  0.00    -0.006 C 
ATOM     18  C   UNL     1      -8.246  31.090  27.917  1.00  0.00     0.008 C 
ATOM     19  C   UNL     1      -7.968  33.561  27.639  1.00  0.00     0.008 C 
ENDBRANCH  12  17
ENDBRANCH  11  12
ENDBRANCH   1  11
TORSDOF 1
ENDMDL
