MODEL 1
REMARK VINA RESULT:    -3.859      0.000      0.000
REMARK INTER + INTRA:          -9.284
REMARK INTER:                  -7.469
REMARK INTRA:                  -1.815
REMARK UNBOUND:                -1.815
REMARK SMILES CCCCCCCCCCCCCCCCCC(=O)[O-]
REMARK SMILES IDX 10 1 11 2 12 3 13 4 14 5 15 6 16 7 17 8 18 9 19 10 20 11
REMARK SMILES IDX 9 12 8 13 7 14 6 15 5 16 4 17 3 18 2 19 1 20
REMARK H PARENT
REMARK Flexibility Score: inf
ROOT
ATOM      1  C   UNL     1     -43.875 -21.769  27.125  1.00  0.00     0.000 C 
ENDROOT
BRANCH   1   2
ATOM      2  C   UNL     1     -44.384 -22.443  28.410  1.00  0.00     0.000 C 
BRANCH   2   3
ATOM      3  C   UNL     1     -45.921 -22.464  28.494  1.00  0.00     0.000 C 
BRANCH   3   4
ATOM      4  C   UNL     1     -46.584 -22.771  27.141  1.00  0.00     0.000 C 
BRANCH   4   5
ATOM      5  C   UNL     1     -47.640 -21.722  26.747  1.00  0.00     0.000 C 
BRANCH   5   6
ATOM      6  C   UNL     1     -47.719 -20.559  27.750  1.00  0.00     0.000 C 
BRANCH   6   7
ATOM      7  C   UNL     1     -47.353 -19.205  27.117  1.00  0.00     0.006 C 
BRANCH   7   8
ATOM      8  C   UNL     1     -46.236 -19.338  26.071  1.00  0.00     0.053 C 
BRANCH   8   9
ATOM      9  C   UNL     1     -45.225 -18.239  26.195  1.00  0.00     0.041 C 
ATOM     10  O   UNL     1     -44.090 -18.359  25.664  1.00  0.00    -0.550 OA
ATOM     11  O   UNL     1     -45.548 -17.070  26.873  1.00  0.00    -0.550 OA
ENDBRANCH   8   9
ENDBRANCH   7   8
ENDBRANCH   6   7
ENDBRANCH   5   6
ENDBRANCH   4   5
ENDBRANCH   3   4
ENDBRANCH   2   3
ENDBRANCH   1   2
BRANCH   1  12
ATOM     12  C   UNL     1     -42.371 -21.448  27.185  1.00  0.00     0.000 C 
BRANCH  12  13
ATOM     13  C   UNL     1     -41.706 -21.960  28.473  1.00  0.00    -0.000 C 
BRANCH  13  14
ATOM     14  C   UNL     1     -40.554 -21.056  28.946  1.00  0.00    -0.000 C 
BRANCH  14  15
ATOM     15  C   UNL     1     -39.190 -21.477  28.369  1.00  0.00    -0.000 C 
BRANCH  15  16
ATOM     16  C   UNL     1     -38.446 -20.387  27.568  1.00  0.00    -0.000 C 
BRANCH  16  17
ATOM     17  C   UNL     1     -38.832 -20.283  26.082  1.00  0.00    -0.000 C 
BRANCH  17  18
ATOM     18  C   UNL     1     -39.185 -18.847  25.658  1.00  0.00    -0.000 C 
BRANCH  18  19
ATOM     19  C   UNL     1     -40.007 -18.104  26.724  1.00  0.00    -0.003 C 
ATOM     20  C   UNL     1     -40.869 -16.986  26.138  1.00  0.00     0.004 C 
ENDBRANCH  18  19
ENDBRANCH  17  18
ENDBRANCH  16  17
ENDBRANCH  15  16
ENDBRANCH  14  15
ENDBRANCH  13  14
ENDBRANCH  12  13
ENDBRANCH   1  12
TORSDOF 16
ENDMDL
MODEL 2
REMARK VINA RESULT:    -3.723      1.556      2.628
REMARK INTER + INTRA:          -9.021
REMARK INTER:                  -7.062
REMARK INTRA:                  -1.959
REMARK UNBOUND:                -1.815
REMARK SMILES CCCCCCCCCCCCCCCCCC(=O)[O-]
REMARK SMILES IDX 10 1 11 2 12 3 13 4 14 5 15 6 16 7 17 8 18 9 19 10 20 11
REMARK SMILES IDX 9 12 8 13 7 14 6 15 5 16 4 17 3 18 2 19 1 20
REMARK H PARENT
REMARK Flexibility Score: inf
ROOT
ATOM      1  C   UNL     1     -43.646 -22.154  27.002  1.00  0.00     0.000 C 
ENDROOT
BRANCH   1   2
ATOM      2  C   UNL     1     -44.329 -22.250  28.376  1.00  0.00     0.000 C 
BRANCH   2   3
ATOM      3  C   UNL     1     -45.606 -23.109  28.340  1.00  0.00     0.000 C 
BRANCH   3   4
ATOM      4  C   UNL     1     -46.737 -22.457  27.530  1.00  0.00     0.000 C 
BRANCH   4   5
ATOM      5  C   UNL     1     -47.200 -21.117  28.130  1.00  0.00     0.000 C 
BRANCH   5   6
ATOM      6  C   UNL     1     -47.966 -20.250  27.117  1.00  0.00     0.000 C 
BRANCH   6   7
ATOM      7  C   UNL     1     -47.051 -19.665  26.027  1.00  0.00     0.006 C 
BRANCH   7   8
ATOM      8  C   UNL     1     -45.934 -18.791  26.617  1.00  0.00     0.053 C 
BRANCH   8   9
ATOM      9  C   UNL     1     -46.318 -17.343  26.644  1.00  0.00     0.041 C 
ATOM     10  O   UNL     1     -45.853 -16.581  27.532  1.00  0.00    -0.550 OA
ATOM     11  O   UNL     1     -47.166 -16.829  25.671  1.00  0.00    -0.550 OA
ENDBRANCH   8   9
ENDBRANCH   7   8
ENDBRANCH   6   7
ENDBRANCH   5   6
ENDBRANCH   4   5
ENDBRANCH   3   4
ENDBRANCH   2   3
ENDBRANCH   1   2
BRANCH   1  12
ATOM     12  C   UNL     1     -42.114 -22.060  27.111  1.00  0.00     0.000 C 
BRANCH  12  13
ATOM     13  C   UNL     1     -41.598 -22.387  28.522  1.00  0.00    -0.000 C 
BRANCH  13  14
ATOM     14  C   UNL     1     -40.783 -21.236  29.137  1.00  0.00    -0.000 C 
BRANCH  14  15
ATOM     15  C   UNL     1     -40.371 -20.175  28.101  1.00  0.00    -0.000 C 
BRANCH  15  16
ATOM     16  C   UNL     1     -38.858 -20.083  27.815  1.00  0.00    -0.000 C 
BRANCH  16  17
ATOM     17  C   UNL     1     -38.353 -20.954  26.650  1.00  0.00    -0.000 C 
BRANCH  17  18
ATOM     18  C   UNL     1     -37.481 -22.130  27.121  1.00  0.00    -0.000 C 
BRANCH  18  19
ATOM     19  C   UNL     1     -38.255 -23.458  27.159  1.00  0.00    -0.003 C 
ATOM     20  C   UNL     1     -38.304 -24.078  28.556  1.00  0.00     0.004 C 
ENDBRANCH  18  19
ENDBRANCH  17  18
ENDBRANCH  16  17
ENDBRANCH  15  16
ENDBRANCH  14  15
ENDBRANCH  13  14
ENDBRANCH  12  13
ENDBRANCH   1  12
TORSDOF 16
ENDMDL
MODEL 3
REMARK VINA RESULT:    -3.703      1.641      6.049
REMARK INTER + INTRA:          -8.982
REMARK INTER:                  -6.784
REMARK INTRA:                  -2.197
REMARK UNBOUND:                -1.815
REMARK SMILES CCCCCCCCCCCCCCCCCC(=O)[O-]
REMARK SMILES IDX 10 1 11 2 12 3 13 4 14 5 15 6 16 7 17 8 18 9 19 10 20 11
REMARK SMILES IDX 9 12 8 13 7 14 6 15 5 16 4 17 3 18 2 19 1 20
REMARK H PARENT
REMARK Flexibility Score: inf
ROOT
ATOM      1  C   UNL     1     -43.721 -23.416  27.877  1.00  0.00     0.000 C 
ENDROOT
BRANCH   1   2
ATOM      2  C   UNL     1     -42.222 -23.074  27.822  1.00  0.00     0.000 C 
BRANCH   2   3
ATOM      3  C   UNL     1     -41.749 -22.304  29.068  1.00  0.00     0.000 C 
BRANCH   3   4
ATOM      4  C   UNL     1     -40.807 -21.139  28.722  1.00  0.00     0.000 C 
BRANCH   4   5
ATOM      5  C   UNL     1     -39.360 -21.601  28.471  1.00  0.00     0.000 C 
BRANCH   5   6
ATOM      6  C   UNL     1     -38.533 -20.557  27.702  1.00  0.00     0.000 C 
BRANCH   6   7
ATOM      7  C   UNL     1     -39.348 -19.301  27.345  1.00  0.00     0.006 C 
BRANCH   7   8
ATOM      8  C   UNL     1     -39.558 -19.159  25.831  1.00  0.00     0.053 C 
BRANCH   8   9
ATOM      9  C   UNL     1     -40.104 -17.811  25.470  1.00  0.00     0.041 C 
ATOM     10  O   UNL     1     -39.971 -17.365  24.301  1.00  0.00    -0.550 OA
ATOM     11  O   UNL     1     -40.787 -17.060  26.420  1.00  0.00    -0.550 OA
ENDBRANCH   8   9
ENDBRANCH   7   8
ENDBRANCH   6   7
ENDBRANCH   5   6
ENDBRANCH   4   5
ENDBRANCH   3   4
ENDBRANCH   2   3
ENDBRANCH   1   2
BRANCH   1  12
ATOM     12  C   UNL     1     -44.563 -22.275  28.474  1.00  0.00     0.000 C 
BRANCH  12  13
ATOM     13  C   UNL     1     -46.061 -22.615  28.538  1.00  0.00    -0.000 C 
BRANCH  13  14
ATOM     14  C   UNL     1     -46.851 -22.048  27.345  1.00  0.00    -0.000 C 
BRANCH  14  15
ATOM     15  C   UNL     1     -47.559 -20.721  27.674  1.00  0.00    -0.000 C 
BRANCH  15  16
ATOM     16  C   UNL     1     -46.897 -19.456  27.090  1.00  0.00    -0.000 C 
BRANCH  16  17
ATOM     17  C   UNL     1     -45.922 -19.701  25.925  1.00  0.00    -0.000 C 
BRANCH  17  18
ATOM     18  C   UNL     1     -44.624 -18.884  26.052  1.00  0.00    -0.000 C 
BRANCH  18  19
ATOM     19  C   UNL     1     -43.366 -19.763  25.975  1.00  0.00    -0.003 C 
ATOM     20  C   UNL     1     -43.531 -20.957  25.035  1.00  0.00     0.004 C 
ENDBRANCH  18  19
ENDBRANCH  17  18
ENDBRANCH  16  17
ENDBRANCH  15  16
ENDBRANCH  14  15
ENDBRANCH  13  14
ENDBRANCH  12  13
ENDBRANCH   1  12
TORSDOF 16
ENDMDL
MODEL 4
REMARK VINA RESULT:    -3.665      2.293      3.633
REMARK INTER + INTRA:          -8.909
REMARK INTER:                  -6.484
REMARK INTRA:                  -2.425
REMARK UNBOUND:                -1.815
REMARK SMILES CCCCCCCCCCCCCCCCCC(=O)[O-]
REMARK SMILES IDX 10 1 11 2 12 3 13 4 14 5 15 6 16 7 17 8 18 9 19 10 20 11
REMARK SMILES IDX 9 12 8 13 7 14 6 15 5 16 4 17 3 18 2 19 1 20
REMARK H PARENT
REMARK Flexibility Score: inf
ROOT
ATOM      1  C   UNL     1     -40.734 -23.597  26.998  1.00  0.00     0.000 C 
ENDROOT
BRANCH   1   2
ATOM      2  C   UNL     1     -41.174 -23.585  28.472  1.00  0.00     0.000 C 
BRANCH   2   3
ATOM      3  C   UNL     1     -42.232 -22.504  28.760  1.00  0.00     0.000 C 
BRANCH   3   4
ATOM      4  C   UNL     1     -42.762 -21.836  27.481  1.00  0.00     0.000 C 
BRANCH   4   5
ATOM      5  C   UNL     1     -44.280 -22.017  27.303  1.00  0.00     0.000 C 
BRANCH   5   6
ATOM      6  C   UNL     1     -44.930 -22.750  28.488  1.00  0.00     0.000 C 
BRANCH   6   7
ATOM      7  C   UNL     1     -46.392 -22.327  28.718  1.00  0.00     0.006 C 
BRANCH   7   8
ATOM      8  C   UNL     1     -46.830 -21.215  27.753  1.00  0.00     0.053 C 
BRANCH   8   9
ATOM      9  C   UNL     1     -47.830 -21.711  26.753  1.00  0.00     0.041 C 
ATOM     10  O   UNL     1     -48.811 -20.992  26.428  1.00  0.00    -0.550 OA
ATOM     11  O   UNL     1     -47.662 -22.956  26.158  1.00  0.00    -0.550 OA
ENDBRANCH   8   9
ENDBRANCH   7   8
ENDBRANCH   6   7
ENDBRANCH   5   6
ENDBRANCH   4   5
ENDBRANCH   3   4
ENDBRANCH   2   3
ENDBRANCH   1   2
BRANCH   1  12
ATOM     12  C   UNL     1     -39.243 -23.257  26.827  1.00  0.00     0.000 C 
BRANCH  12  13
ATOM     13  C   UNL     1     -38.564 -22.881  28.154  1.00  0.00    -0.000 C 
BRANCH  13  14
ATOM     14  C   UNL     1     -38.019 -21.442  28.155  1.00  0.00    -0.000 C 
BRANCH  14  15
ATOM     15  C   UNL     1     -39.097 -20.396  28.495  1.00  0.00    -0.000 C 
BRANCH  15  16
ATOM     16  C   UNL     1     -39.295 -19.285  27.443  1.00  0.00    -0.000 C 
BRANCH  16  17
ATOM     17  C   UNL     1     -40.466 -19.504  26.467  1.00  0.00    -0.000 C 
BRANCH  17  18
ATOM     18  C   UNL     1     -39.997 -19.806  25.034  1.00  0.00    -0.000 C 
BRANCH  18  19
ATOM     19  C   UNL     1     -38.470 -19.718  24.883  1.00  0.00    -0.003 C 
ATOM     20  C   UNL     1     -37.855 -20.989  24.299  1.00  0.00     0.004 C 
ENDBRANCH  18  19
ENDBRANCH  17  18
ENDBRANCH  16  17
ENDBRANCH  15  16
ENDBRANCH  14  15
ENDBRANCH  13  14
ENDBRANCH  12  13
ENDBRANCH   1  12
TORSDOF 16
ENDMDL
MODEL 5
REMARK VINA RESULT:    -3.645      3.255      7.040
REMARK INTER + INTRA:          -8.869
REMARK INTER:                  -7.198
REMARK INTRA:                  -1.670
REMARK UNBOUND:                -1.815
REMARK SMILES CCCCCCCCCCCCCCCCCC(=O)[O-]
REMARK SMILES IDX 10 1 11 2 12 3 13 4 14 5 15 6 16 7 17 8 18 9 19 10 20 11
REMARK SMILES IDX 9 12 8 13 7 14 6 15 5 16 4 17 3 18 2 19 1 20
REMARK H PARENT
REMARK Flexibility Score: inf
ROOT
ATOM      1  C   UNL     1     -44.441 -22.634  28.220  1.00  0.00     0.000 C 
ENDROOT
BRANCH   1   2
ATOM      2  C   UNL     1     -42.977 -22.356  27.842  1.00  0.00     0.000 C 
BRANCH   2   3
ATOM      3  C   UNL     1     -42.038 -22.387  29.062  1.00  0.00     0.000 C 
BRANCH   3   4
ATOM      4  C   UNL     1     -41.024 -21.232  29.059  1.00  0.00     0.000 C 
BRANCH   4   5
ATOM      5  C   UNL     1     -40.381 -21.011  27.678  1.00  0.00     0.000 C 
BRANCH   5   6
ATOM      6  C   UNL     1     -39.013 -20.315  27.769  1.00  0.00     0.000 C 
BRANCH   6   7
ATOM      7  C   UNL     1     -37.880 -21.284  28.151  1.00  0.00     0.006 C 
BRANCH   7   8
ATOM      8  C   UNL     1     -37.660 -22.367  27.084  1.00  0.00     0.053 C 
BRANCH   8   9
ATOM      9  C   UNL     1     -37.810 -23.745  27.652  1.00  0.00     0.041 C 
ATOM     10  O   UNL     1     -38.566 -23.946  28.637  1.00  0.00    -0.550 OA
ATOM     11  O   UNL     1     -37.135 -24.813  27.073  1.00  0.00    -0.550 OA
ENDBRANCH   8   9
ENDBRANCH   7   8
ENDBRANCH   6   7
ENDBRANCH   5   6
ENDBRANCH   4   5
ENDBRANCH   3   4
ENDBRANCH   2   3
ENDBRANCH   1   2
BRANCH   1  12
ATOM     12  C   UNL     1     -45.415 -21.623  27.589  1.00  0.00     0.000 C 
BRANCH  12  13
ATOM     13  C   UNL     1     -46.822 -21.691  28.204  1.00  0.00    -0.000 C 
BRANCH  13  14
ATOM     14  C   UNL     1     -47.641 -20.412  27.955  1.00  0.00    -0.000 C 
BRANCH  14  15
ATOM     15  C   UNL     1     -47.220 -19.675  26.670  1.00  0.00    -0.000 C 
BRANCH  15  16
ATOM     16  C   UNL     1     -46.793 -18.205  26.862  1.00  0.00    -0.000 C 
BRANCH  16  17
ATOM     17  C   UNL     1     -45.402 -17.844  26.308  1.00  0.00    -0.000 C 
BRANCH  17  18
ATOM     18  C   UNL     1     -44.748 -19.006  25.541  1.00  0.00    -0.000 C 
BRANCH  18  19
ATOM     19  C   UNL     1     -43.259 -19.173  25.885  1.00  0.00    -0.003 C 
ATOM     20  C   UNL     1     -42.416 -19.607  24.685  1.00  0.00     0.004 C 
ENDBRANCH  18  19
ENDBRANCH  17  18
ENDBRANCH  16  17
ENDBRANCH  15  16
ENDBRANCH  14  15
ENDBRANCH  13  14
ENDBRANCH  12  13
ENDBRANCH   1  12
TORSDOF 16
ENDMDL
MODEL 6
REMARK VINA RESULT:    -3.628      1.441      5.456
REMARK INTER + INTRA:          -8.836
REMARK INTER:                  -6.502
REMARK INTRA:                  -2.334
REMARK UNBOUND:                -1.815
REMARK SMILES CCCCCCCCCCCCCCCCCC(=O)[O-]
REMARK SMILES IDX 10 1 11 2 12 3 13 4 14 5 15 6 16 7 17 8 18 9 19 10 20 11
REMARK SMILES IDX 9 12 8 13 7 14 6 15 5 16 4 17 3 18 2 19 1 20
REMARK H PARENT
REMARK Flexibility Score: inf
ROOT
ATOM      1  C   UNL     1     -40.019 -20.497  28.932  1.00  0.00     0.000 C 
ENDROOT
BRANCH   1   2
ATOM      2  C   UNL     1     -39.400 -20.639  27.531  1.00  0.00     0.000 C 
BRANCH   2   3
ATOM      3  C   UNL     1     -39.447 -19.325  26.731  1.00  0.00     0.000 C 
BRANCH   3   4
ATOM      4  C   UNL     1     -40.845 -19.025  26.165  1.00  0.00     0.000 C 
BRANCH   4   5
ATOM      5  C   UNL     1     -41.255 -20.003  25.049  1.00  0.00     0.000 C 
BRANCH   5   6
ATOM      6  C   UNL     1     -42.765 -20.295  25.047  1.00  0.00     0.000 C 
BRANCH   6   7
ATOM      7  C   UNL     1     -43.557 -19.326  25.942  1.00  0.00     0.006 C 
BRANCH   7   8
ATOM      8  C   UNL     1     -44.205 -18.191  25.135  1.00  0.00     0.053 C 
BRANCH   8   9
ATOM      9  C   UNL     1     -43.988 -16.856  25.780  1.00  0.00     0.041 C 
ATOM     10  O   UNL     1     -42.928 -16.213  25.561  1.00  0.00    -0.550 OA
ATOM     11  O   UNL     1     -44.969 -16.310  26.598  1.00  0.00    -0.550 OA
ENDBRANCH   8   9
ENDBRANCH   7   8
ENDBRANCH   6   7
ENDBRANCH   5   6
ENDBRANCH   4   5
ENDBRANCH   3   4
ENDBRANCH   2   3
ENDBRANCH   1   2
BRANCH   1  12
ATOM     12  C   UNL     1     -41.126 -21.533  29.194  1.00  0.00     0.000 C 
BRANCH  12  13
ATOM     13  C   UNL     1     -41.124 -22.676  28.166  1.00  0.00    -0.000 C 
BRANCH  13  14
ATOM     14  C   UNL     1     -42.491 -22.861  27.483  1.00  0.00    -0.000 C 
BRANCH  14  15
ATOM     15  C   UNL     1     -43.663 -22.367  28.350  1.00  0.00    -0.000 C 
BRANCH  15  16
ATOM     16  C   UNL     1     -45.056 -22.887  27.937  1.00  0.00    -0.000 C 
BRANCH  16  17
ATOM     17  C   UNL     1     -45.996 -21.835  27.320  1.00  0.00    -0.000 C 
BRANCH  17  18
ATOM     18  C   UNL     1     -47.081 -21.358  28.301  1.00  0.00    -0.000 C 
BRANCH  18  19
ATOM     19  C   UNL     1     -47.998 -20.287  27.688  1.00  0.00    -0.003 C 
ATOM     20  C   UNL     1     -47.222 -19.147  27.028  1.00  0.00     0.004 C 
ENDBRANCH  18  19
ENDBRANCH  17  18
ENDBRANCH  16  17
ENDBRANCH  15  16
ENDBRANCH  14  15
ENDBRANCH  13  14
ENDBRANCH  12  13
ENDBRANCH   1  12
TORSDOF 16
ENDMDL
MODEL 7
REMARK VINA RESULT:    -3.613      2.069      6.582
REMARK INTER + INTRA:          -8.807
REMARK INTER:                  -6.677
REMARK INTRA:                  -2.130
REMARK UNBOUND:                -1.815
REMARK SMILES CCCCCCCCCCCCCCCCCC(=O)[O-]
REMARK SMILES IDX 10 1 11 2 12 3 13 4 14 5 15 6 16 7 17 8 18 9 19 10 20 11
REMARK SMILES IDX 9 12 8 13 7 14 6 15 5 16 4 17 3 18 2 19 1 20
REMARK H PARENT
REMARK Flexibility Score: inf
ROOT
ATOM      1  C   UNL     1     -43.649 -20.649  26.550  1.00  0.00     0.000 C 
ENDROOT
BRANCH   1   2
ATOM      2  C   UNL     1     -42.883 -21.917  26.960  1.00  0.00     0.000 C 
BRANCH   2   3
ATOM      3  C   UNL     1     -43.112 -22.292  28.436  1.00  0.00     0.000 C 
BRANCH   3   4
ATOM      4  C   UNL     1     -41.802 -22.389  29.234  1.00  0.00     0.000 C 
BRANCH   4   5
ATOM      5  C   UNL     1     -40.586 -21.877  28.441  1.00  0.00     0.000 C 
BRANCH   5   6
ATOM      6  C   UNL     1     -40.111 -20.494  28.918  1.00  0.00     0.000 C 
BRANCH   6   7
ATOM      7  C   UNL     1     -39.113 -19.842  27.945  1.00  0.00     0.006 C 
BRANCH   7   8
ATOM      8  C   UNL     1     -38.808 -20.743  26.739  1.00  0.00     0.053 C 
BRANCH   8   9
ATOM      9  C   UNL     1     -39.234 -20.109  25.450  1.00  0.00     0.041 C 
ATOM     10  O   UNL     1     -40.366 -19.566  25.355  1.00  0.00    -0.550 OA
ATOM     11  O   UNL     1     -38.368 -20.092  24.363  1.00  0.00    -0.550 OA
ENDBRANCH   8   9
ENDBRANCH   7   8
ENDBRANCH   6   7
ENDBRANCH   5   6
ENDBRANCH   4   5
ENDBRANCH   3   4
ENDBRANCH   2   3
ENDBRANCH   1   2
BRANCH   1  12
ATOM     12  C   UNL     1     -43.926 -20.591  25.037  1.00  0.00     0.000 C 
BRANCH  12  13
ATOM     13  C   UNL     1     -44.073 -19.153  24.516  1.00  0.00    -0.000 C 
BRANCH  13  14
ATOM     14  C   UNL     1     -43.721 -18.097  25.578  1.00  0.00    -0.000 C 
BRANCH  14  15
ATOM     15  C   UNL     1     -44.874 -17.111  25.845  1.00  0.00    -0.000 C 
BRANCH  15  16
ATOM     16  C   UNL     1     -46.293 -17.705  25.722  1.00  0.00    -0.000 C 
BRANCH  16  17
ATOM     17  C   UNL     1     -46.843 -18.367  26.998  1.00  0.00    -0.000 C 
BRANCH  17  18
ATOM     18  C   UNL     1     -47.404 -19.776  26.743  1.00  0.00    -0.000 C 
BRANCH  18  19
ATOM     19  C   UNL     1     -47.653 -20.554  28.045  1.00  0.00    -0.003 C 
ATOM     20  C   UNL     1     -46.798 -21.816  28.157  1.00  0.00     0.004 C 
ENDBRANCH  18  19
ENDBRANCH  17  18
ENDBRANCH  16  17
ENDBRANCH  15  16
ENDBRANCH  14  15
ENDBRANCH  13  14
ENDBRANCH  12  13
ENDBRANCH   1  12
TORSDOF 16
ENDMDL
MODEL 8
REMARK VINA RESULT:    -3.603      1.605      6.388
REMARK INTER + INTRA:          -8.787
REMARK INTER:                  -6.501
REMARK INTRA:                  -2.286
REMARK UNBOUND:                -1.815
REMARK SMILES CCCCCCCCCCCCCCCCCC(=O)[O-]
REMARK SMILES IDX 10 1 11 2 12 3 13 4 14 5 15 6 16 7 17 8 18 9 19 10 20 11
REMARK SMILES IDX 9 12 8 13 7 14 6 15 5 16 4 17 3 18 2 19 1 20
REMARK H PARENT
REMARK Flexibility Score: inf
ROOT
ATOM      1  C   UNL     1     -39.042 -20.632  28.906  1.00  0.00     0.000 C 
ENDROOT
BRANCH   1   2
ATOM      2  C   UNL     1     -38.304 -21.911  28.475  1.00  0.00     0.000 C 
BRANCH   2   3
ATOM      3  C   UNL     1     -37.507 -21.720  27.172  1.00  0.00     0.000 C 
BRANCH   3   4
ATOM      4  C   UNL     1     -38.242 -22.272  25.940  1.00  0.00     0.000 C 
BRANCH   4   5
ATOM      5  C   UNL     1     -39.087 -21.202  25.225  1.00  0.00     0.000 C 
BRANCH   5   6
ATOM      6  C   UNL     1     -38.252 -19.987  24.788  1.00  0.00     0.000 C 
BRANCH   6   7
ATOM      7  C   UNL     1     -39.075 -18.686  24.747  1.00  0.00     0.006 C 
BRANCH   7   8
ATOM      8  C   UNL     1     -39.822 -18.434  26.065  1.00  0.00     0.053 C 
BRANCH   8   9
ATOM      9  C   UNL     1     -40.992 -17.518  25.873  1.00  0.00     0.041 C 
ATOM     10  O   UNL     1     -42.031 -17.929  25.293  1.00  0.00    -0.550 OA
ATOM     11  O   UNL     1     -40.945 -16.217  26.362  1.00  0.00    -0.550 OA
ENDBRANCH   8   9
ENDBRANCH   7   8
ENDBRANCH   6   7
ENDBRANCH   5   6
ENDBRANCH   4   5
ENDBRANCH   3   4
ENDBRANCH   2   3
ENDBRANCH   1   2
BRANCH   1  12
ATOM     12  C   UNL     1     -40.570 -20.762  28.777  1.00  0.00     0.000 C 
BRANCH  12  13
ATOM     13  C   UNL     1     -41.032 -22.221  28.639  1.00  0.00    -0.000 C 
BRANCH  13  14
ATOM     14  C   UNL     1     -42.110 -22.403  27.556  1.00  0.00    -0.000 C 
BRANCH  14  15
ATOM     15  C   UNL     1     -42.435 -21.094  26.812  1.00  0.00    -0.000 C 
BRANCH  15  16
ATOM     16  C   UNL     1     -43.871 -20.989  26.257  1.00  0.00    -0.000 C 
BRANCH  16  17
ATOM     17  C   UNL     1     -44.822 -22.127  26.669  1.00  0.00    -0.000 C 
BRANCH  17  18
ATOM     18  C   UNL     1     -45.842 -21.694  27.736  1.00  0.00    -0.000 C 
BRANCH  18  19
ATOM     19  C   UNL     1     -46.643 -20.451  27.314  1.00  0.00    -0.003 C 
ATOM     20  C   UNL     1     -48.059 -20.432  27.890  1.00  0.00     0.004 C 
ENDBRANCH  18  19
ENDBRANCH  17  18
ENDBRANCH  16  17
ENDBRANCH  15  16
ENDBRANCH  14  15
ENDBRANCH  13  14
ENDBRANCH  12  13
ENDBRANCH   1  12
TORSDOF 16
ENDMDL
MODEL 9
REMARK VINA RESULT:    -3.596      1.893      3.158
REMARK INTER + INTRA:          -8.775
REMARK INTER:                  -6.397
REMARK INTRA:                  -2.378
REMARK UNBOUND:                -1.815
REMARK SMILES CCCCCCCCCCCCCCCCCC(=O)[O-]
REMARK SMILES IDX 10 1 11 2 12 3 13 4 14 5 15 6 16 7 17 8 18 9 19 10 20 11
REMARK SMILES IDX 9 12 8 13 7 14 6 15 5 16 4 17 3 18 2 19 1 20
REMARK H PARENT
REMARK Flexibility Score: inf
ROOT
ATOM      1  C   UNL     1     -42.277 -22.233  26.519  1.00  0.00     0.000 C 
ENDROOT
BRANCH   1   2
ATOM      2  C   UNL     1     -43.144 -21.330  25.626  1.00  0.00     0.000 C 
BRANCH   2   3
ATOM      3  C   UNL     1     -43.269 -19.899  26.180  1.00  0.00     0.000 C 
BRANCH   3   4
ATOM      4  C   UNL     1     -43.404 -18.843  25.071  1.00  0.00     0.000 C 
BRANCH   4   5
ATOM      5  C   UNL     1     -44.652 -17.958  25.244  1.00  0.00     0.000 C 
BRANCH   5   6
ATOM      6  C   UNL     1     -45.460 -18.318  26.501  1.00  0.00     0.000 C 
BRANCH   6   7
ATOM      7  C   UNL     1     -46.850 -18.889  26.168  1.00  0.00     0.006 C 
BRANCH   7   8
ATOM      8  C   UNL     1     -46.872 -20.424  26.217  1.00  0.00     0.053 C 
BRANCH   8   9
ATOM      9  C   UNL     1     -47.099 -20.932  27.608  1.00  0.00     0.041 C 
ATOM     10  O   UNL     1     -46.429 -21.903  28.046  1.00  0.00    -0.550 OA
ATOM     11  O   UNL     1     -48.032 -20.313  28.432  1.00  0.00    -0.550 OA
ENDBRANCH   8   9
ENDBRANCH   7   8
ENDBRANCH   6   7
ENDBRANCH   5   6
ENDBRANCH   4   5
ENDBRANCH   3   4
ENDBRANCH   2   3
ENDBRANCH   1   2
BRANCH   1  12
ATOM     12  C   UNL     1     -42.923 -22.497  27.891  1.00  0.00     0.000 C 
BRANCH  12  13
ATOM     13  C   UNL     1     -41.985 -22.163  29.062  1.00  0.00    -0.000 C 
BRANCH  13  14
ATOM     14  C   UNL     1     -40.538 -21.902  28.608  1.00  0.00    -0.000 C 
BRANCH  14  15
ATOM     15  C   UNL     1     -40.071 -20.464  28.898  1.00  0.00    -0.000 C 
BRANCH  15  16
ATOM     16  C   UNL     1     -39.147 -19.841  27.831  1.00  0.00    -0.000 C 
BRANCH  16  17
ATOM     17  C   UNL     1     -39.744 -18.654  27.055  1.00  0.00    -0.000 C 
BRANCH  17  18
ATOM     18  C   UNL     1     -39.625 -18.819  25.530  1.00  0.00    -0.000 C 
BRANCH  18  19
ATOM     19  C   UNL     1     -39.350 -20.274  25.116  1.00  0.00    -0.003 C 
ATOM     20  C   UNL     1     -38.145 -20.410  24.186  1.00  0.00     0.004 C 
ENDBRANCH  18  19
ENDBRANCH  17  18
ENDBRANCH  16  17
ENDBRANCH  15  16
ENDBRANCH  14  15
ENDBRANCH  13  14
ENDBRANCH  12  13
ENDBRANCH   1  12
TORSDOF 16
ENDMDL
