MODEL 1
REMARK VINA RESULT:    -5.666      0.000      0.000
REMARK INTER + INTRA:          -5.666
REMARK INTER:                  -5.666
REMARK INTRA:                   0.000
REMARK UNBOUND:                 0.000
REMARK SMILES C=C1CCC[C@@]2(C)CC(=O)C(=C(C)C)C[C@@H]12
REMARK SMILES IDX 13 1 12 2 11 3 15 4 16 5 2 6 1 7 3 8 4 9 5 10 6 11 8 12 9 13
REMARK SMILES IDX 10 14 7 15 14 16
REMARK H PARENT
REMARK Flexibility Score: inf
ROOT
ATOM      1  C   UNL     1     102.861 109.535 124.109  1.00  0.00     0.039 C 
ATOM      2  C   UNL     1     103.574 110.856 123.931  1.00  0.00    -0.070 C 
ATOM      3  C   UNL     1     102.880 112.029 123.842  1.00  0.00    -0.006 C 
ATOM      4  C   UNL     1     101.360 112.057 123.943  1.00  0.00     0.047 C 
ATOM      5  C   UNL     1     100.806 113.370 124.557  1.00  0.00     0.025 C 
ATOM      6  C   UNL     1     100.926 113.471 126.080  1.00  0.00    -0.073 C 
ATOM      7  C   UNL     1     101.601 112.598 126.852  1.00  0.00     0.008 C 
ATOM      8  C   UNL     1     100.308 114.695 126.706  1.00  0.00     0.031 C 
ATOM      9  C   UNL     1     100.929 115.949 126.091  1.00  0.00     0.005 C 
ATOM     10  C   UNL     1     100.832 115.931 124.555  1.00  0.00     0.008 C 
ATOM     11  C   UNL     1     101.416 114.644 123.888  1.00  0.00    -0.018 C 
ATOM     12  C   UNL     1     102.960 114.616 124.030  1.00  0.00     0.088 C 
ATOM     13  C   UNL     1     103.546 113.326 123.528  1.00  0.00     0.159 C 
ATOM     14  O   UNL     1     104.596 113.370 122.834  1.00  0.00    -0.295 OA
ATOM     15  C   UNL     1     101.043 114.703 122.384  1.00  0.00     0.012 C 
ATOM     16  C   UNL     1     105.085 110.822 123.899  1.00  0.00     0.039 C 
ENDROOT
TORSDOF 0
ENDMDL
MODEL 2
REMARK VINA RESULT:    -5.606      1.691      3.006
REMARK INTER + INTRA:          -5.606
REMARK INTER:                  -5.606
REMARK INTRA:                   0.000
REMARK UNBOUND:                 0.000
REMARK SMILES C=C1CCC[C@@]2(C)CC(=O)C(=C(C)C)C[C@@H]12
REMARK SMILES IDX 13 1 12 2 11 3 15 4 16 5 2 6 1 7 3 8 4 9 5 10 6 11 8 12 9 13
REMARK SMILES IDX 10 14 7 15 14 16
REMARK H PARENT
REMARK Flexibility Score: inf
ROOT
ATOM      1  C   UNL     1     104.513 111.511 123.087  1.00  0.00     0.039 C 
ATOM      2  C   UNL     1     103.628 111.379 124.305  1.00  0.00    -0.070 C 
ATOM      3  C   UNL     1     103.136 112.480 124.947  1.00  0.00    -0.006 C 
ATOM      4  C   UNL     1     103.437 113.887 124.445  1.00  0.00     0.047 C 
ATOM      5  C   UNL     1     102.306 114.905 124.744  1.00  0.00     0.025 C 
ATOM      6  C   UNL     1     101.094 114.814 123.812  1.00  0.00    -0.073 C 
ATOM      7  C   UNL     1     100.903 113.840 122.901  1.00  0.00     0.008 C 
ATOM      8  C   UNL     1     100.026 115.856 124.023  1.00  0.00     0.031 C 
ATOM      9  C   UNL     1      99.527 115.787 125.466  1.00  0.00     0.005 C 
ATOM     10  C   UNL     1     100.690 115.889 126.471  1.00  0.00     0.008 C 
ATOM     11  C   UNL     1     101.836 114.854 126.234  1.00  0.00    -0.018 C 
ATOM     12  C   UNL     1     101.350 113.421 126.577  1.00  0.00     0.088 C 
ATOM     13  C   UNL     1     102.377 112.382 126.227  1.00  0.00     0.159 C 
ATOM     14  O   UNL     1     102.586 111.443 127.040  1.00  0.00    -0.295 OA
ATOM     15  C   UNL     1     102.998 115.240 127.186  1.00  0.00     0.012 C 
ATOM     16  C   UNL     1     103.281 109.977 124.752  1.00  0.00     0.039 C 
ENDROOT
TORSDOF 0
ENDMDL
MODEL 3
REMARK VINA RESULT:    -5.579      2.076      3.654
REMARK INTER + INTRA:          -5.579
REMARK INTER:                  -5.579
REMARK INTRA:                   0.000
REMARK UNBOUND:                 0.000
REMARK SMILES C=C1CCC[C@@]2(C)CC(=O)C(=C(C)C)C[C@@H]12
REMARK SMILES IDX 13 1 12 2 11 3 15 4 16 5 2 6 1 7 3 8 4 9 5 10 6 11 8 12 9 13
REMARK SMILES IDX 10 14 7 15 14 16
REMARK H PARENT
REMARK Flexibility Score: inf
ROOT
ATOM      1  C   UNL     1     100.090 112.912 126.503  1.00  0.00     0.039 C 
ATOM      2  C   UNL     1     101.015 113.389 125.406  1.00  0.00    -0.070 C 
ATOM      3  C   UNL     1     100.641 114.381 124.545  1.00  0.00    -0.006 C 
ATOM      4  C   UNL     1      99.285 115.065 124.670  1.00  0.00     0.047 C 
ATOM      5  C   UNL     1      99.292 116.543 124.197  1.00  0.00     0.025 C 
ATOM      6  C   UNL     1      99.903 117.535 125.191  1.00  0.00    -0.073 C 
ATOM      7  C   UNL     1     100.547 117.184 126.321  1.00  0.00     0.008 C 
ATOM      8  C   UNL     1      99.834 118.986 124.794  1.00  0.00     0.031 C 
ATOM      9  C   UNL     1     100.521 119.177 123.442  1.00  0.00     0.005 C 
ATOM     10  C   UNL     1      99.950 118.222 122.378  1.00  0.00     0.008 C 
ATOM     11  C   UNL     1      99.959 116.716 122.794  1.00  0.00    -0.018 C 
ATOM     12  C   UNL     1     101.413 116.178 122.840  1.00  0.00     0.088 C 
ATOM     13  C   UNL     1     101.475 114.775 123.373  1.00  0.00     0.159 C 
ATOM     14  O   UNL     1     102.233 113.945 122.803  1.00  0.00    -0.295 OA
ATOM     15  C   UNL     1      99.162 115.942 121.712  1.00  0.00     0.012 C 
ATOM     16  C   UNL     1     102.383 112.750 125.336  1.00  0.00     0.039 C 
ENDROOT
TORSDOF 0
ENDMDL
MODEL 4
REMARK VINA RESULT:    -5.558      1.822      2.476
REMARK INTER + INTRA:          -5.558
REMARK INTER:                  -5.558
REMARK INTRA:                   0.000
REMARK UNBOUND:                 0.000
REMARK SMILES C=C1CCC[C@@]2(C)CC(=O)C(=C(C)C)C[C@@H]12
REMARK SMILES IDX 13 1 12 2 11 3 15 4 16 5 2 6 1 7 3 8 4 9 5 10 6 11 8 12 9 13
REMARK SMILES IDX 10 14 7 15 14 16
REMARK H PARENT
REMARK Flexibility Score: inf
ROOT
ATOM      1  C   UNL     1     100.622 110.409 122.372  1.00  0.00     0.039 C 
ATOM      2  C   UNL     1     101.210 111.791 122.192  1.00  0.00    -0.070 C 
ATOM      3  C   UNL     1     101.055 112.756 123.146  1.00  0.00    -0.006 C 
ATOM      4  C   UNL     1     100.307 112.472 124.443  1.00  0.00     0.047 C 
ATOM      5  C   UNL     1     100.825 113.300 125.649  1.00  0.00     0.025 C 
ATOM      6  C   UNL     1     102.128 112.789 126.269  1.00  0.00    -0.073 C 
ATOM      7  C   UNL     1     102.890 111.810 125.746  1.00  0.00     0.008 C 
ATOM      8  C   UNL     1     102.598 113.520 127.500  1.00  0.00     0.031 C 
ATOM      9  C   UNL     1     102.770 115.004 127.175  1.00  0.00     0.005 C 
ATOM     10  C   UNL     1     101.491 115.599 126.560  1.00  0.00     0.008 C 
ATOM     11  C   UNL     1     100.955 114.821 125.315  1.00  0.00    -0.018 C 
ATOM     12  C   UNL     1     101.909 115.010 124.108  1.00  0.00     0.088 C 
ATOM     13  C   UNL     1     101.504 114.162 122.935  1.00  0.00     0.159 C 
ATOM     14  O   UNL     1     101.541 114.670 121.782  1.00  0.00    -0.295 OA
ATOM     15  C   UNL     1      99.568 115.424 124.968  1.00  0.00     0.012 C 
ATOM     16  C   UNL     1     102.007 112.039 120.932  1.00  0.00     0.039 C 
ENDROOT
TORSDOF 0
ENDMDL
MODEL 5
REMARK VINA RESULT:    -5.502      1.977      3.434
REMARK INTER + INTRA:          -5.502
REMARK INTER:                  -5.502
REMARK INTRA:                   0.000
REMARK UNBOUND:                 0.000
REMARK SMILES C=C1CCC[C@@]2(C)CC(=O)C(=C(C)C)C[C@@H]12
REMARK SMILES IDX 13 1 12 2 11 3 15 4 16 5 2 6 1 7 3 8 4 9 5 10 6 11 8 12 9 13
REMARK SMILES IDX 10 14 7 15 14 16
REMARK H PARENT
REMARK Flexibility Score: inf
ROOT
ATOM      1  C   UNL     1     103.462 113.457 120.727  1.00  0.00     0.039 C 
ATOM      2  C   UNL     1     102.332 112.727 121.419  1.00  0.00    -0.070 C 
ATOM      3  C   UNL     1     102.118 112.864 122.761  1.00  0.00    -0.006 C 
ATOM      4  C   UNL     1     102.992 113.777 123.612  1.00  0.00     0.047 C 
ATOM      5  C   UNL     1     102.245 114.396 124.822  1.00  0.00     0.025 C 
ATOM      6  C   UNL     1     101.323 115.569 124.480  1.00  0.00    -0.073 C 
ATOM      7  C   UNL     1     101.020 115.962 123.227  1.00  0.00     0.008 C 
ATOM      8  C   UNL     1     100.661 116.246 125.652  1.00  0.00     0.031 C 
ATOM      9  C   UNL     1      99.855 115.218 126.444  1.00  0.00     0.005 C 
ATOM     10  C   UNL     1     100.719 114.008 126.843  1.00  0.00     0.008 C 
ATOM     11  C   UNL     1     101.460 113.326 125.648  1.00  0.00    -0.018 C 
ATOM     12  C   UNL     1     100.445 112.600 124.727  1.00  0.00     0.088 C 
ATOM     13  C   UNL     1     101.102 112.053 123.491  1.00  0.00     0.159 C 
ATOM     14  O   UNL     1     100.783 110.899 123.099  1.00  0.00    -0.295 OA
ATOM     15  C   UNL     1     102.434 112.283 126.256  1.00  0.00     0.012 C 
ATOM     16  C   UNL     1     101.432 111.878 120.553  1.00  0.00     0.039 C 
ENDROOT
TORSDOF 0
ENDMDL
MODEL 6
REMARK VINA RESULT:    -5.489      1.643      4.613
REMARK INTER + INTRA:          -5.489
REMARK INTER:                  -5.489
REMARK INTRA:                   0.000
REMARK UNBOUND:                 0.000
REMARK SMILES C=C1CCC[C@@]2(C)CC(=O)C(=C(C)C)C[C@@H]12
REMARK SMILES IDX 13 1 12 2 11 3 15 4 16 5 2 6 1 7 3 8 4 9 5 10 6 11 8 12 9 13
REMARK SMILES IDX 10 14 7 15 14 16
REMARK H PARENT
REMARK Flexibility Score: inf
ROOT
ATOM      1  C   UNL     1     100.248 117.118 126.138  1.00  0.00     0.039 C 
ATOM      2  C   UNL     1     100.249 116.426 124.794  1.00  0.00    -0.070 C 
ATOM      3  C   UNL     1     101.235 115.545 124.451  1.00  0.00    -0.006 C 
ATOM      4  C   UNL     1     102.360 115.203 125.420  1.00  0.00     0.047 C 
ATOM      5  C   UNL     1     102.908 113.762 125.246  1.00  0.00     0.025 C 
ATOM      6  C   UNL     1     102.032 112.661 125.850  1.00  0.00    -0.073 C 
ATOM      7  C   UNL     1     100.797 112.858 126.351  1.00  0.00     0.008 C 
ATOM      8  C   UNL     1     102.592 111.264 125.777  1.00  0.00     0.031 C 
ATOM      9  C   UNL     1     102.876 110.906 124.318  1.00  0.00     0.005 C 
ATOM     10  C   UNL     1     103.769 111.961 123.641  1.00  0.00     0.008 C 
ATOM     11  C   UNL     1     103.235 113.425 123.755  1.00  0.00    -0.018 C 
ATOM     12  C   UNL     1     101.960 113.603 122.890  1.00  0.00     0.088 C 
ATOM     13  C   UNL     1     101.336 114.955 123.085  1.00  0.00     0.159 C 
ATOM     14  O   UNL     1     100.915 115.577 122.073  1.00  0.00    -0.295 OA
ATOM     15  C   UNL     1     104.352 114.357 123.216  1.00  0.00     0.012 C 
ATOM     16  C   UNL     1      99.091 116.722 123.869  1.00  0.00     0.039 C 
ENDROOT
TORSDOF 0
ENDMDL
MODEL 7
REMARK VINA RESULT:    -5.367     10.832     12.606
REMARK INTER + INTRA:          -5.367
REMARK INTER:                  -5.367
REMARK INTRA:                   0.000
REMARK UNBOUND:                 0.000
REMARK SMILES C=C1CCC[C@@]2(C)CC(=O)C(=C(C)C)C[C@@H]12
REMARK SMILES IDX 13 1 12 2 11 3 15 4 16 5 2 6 1 7 3 8 4 9 5 10 6 11 8 12 9 13
REMARK SMILES IDX 10 14 7 15 14 16
REMARK H PARENT
REMARK Flexibility Score: inf
ROOT
ATOM      1  C   UNL     1      96.372 107.546 111.353  1.00  0.00     0.039 C 
ATOM      2  C   UNL     1      96.337 108.390 112.607  1.00  0.00    -0.070 C 
ATOM      3  C   UNL     1      97.328 108.309 113.544  1.00  0.00    -0.006 C 
ATOM      4  C   UNL     1      98.523 107.383 113.351  1.00  0.00     0.047 C 
ATOM      5  C   UNL     1      99.823 107.905 114.017  1.00  0.00     0.025 C 
ATOM      6  C   UNL     1     100.540 109.018 113.247  1.00  0.00    -0.073 C 
ATOM      7  C   UNL     1     100.037 109.643 112.165  1.00  0.00     0.008 C 
ATOM      8  C   UNL     1     101.855 109.473 113.826  1.00  0.00     0.031 C 
ATOM      9  C   UNL     1     101.640 109.946 115.264  1.00  0.00     0.005 C 
ATOM     10  C   UNL     1     100.935 108.872 116.112  1.00  0.00     0.008 C 
ATOM     11  C   UNL     1      99.598 108.344 115.500  1.00  0.00    -0.018 C 
ATOM     12  C   UNL     1      98.507 109.445 115.557  1.00  0.00     0.088 C 
ATOM     13  C   UNL     1      97.250 109.025 114.849  1.00  0.00     0.159 C 
ATOM     14  O   UNL     1      96.140 109.281 115.388  1.00  0.00    -0.295 OA
ATOM     15  C   UNL     1      99.150 107.137 116.365  1.00  0.00     0.012 C 
ATOM     16  C   UNL     1      95.182 109.353 112.754  1.00  0.00     0.039 C 
ENDROOT
TORSDOF 0
ENDMDL
MODEL 8
REMARK VINA RESULT:    -5.354      1.919      4.645
REMARK INTER + INTRA:          -5.354
REMARK INTER:                  -5.354
REMARK INTRA:                   0.000
REMARK UNBOUND:                 0.000
REMARK SMILES C=C1CCC[C@@]2(C)CC(=O)C(=C(C)C)C[C@@H]12
REMARK SMILES IDX 13 1 12 2 11 3 15 4 16 5 2 6 1 7 3 8 4 9 5 10 6 11 8 12 9 13
REMARK SMILES IDX 10 14 7 15 14 16
REMARK H PARENT
REMARK Flexibility Score: inf
ROOT
ATOM      1  C   UNL     1      98.962 117.865 123.229  1.00  0.00     0.039 C 
ATOM      2  C   UNL     1      99.436 116.629 122.498  1.00  0.00    -0.070 C 
ATOM      3  C   UNL     1     100.434 115.846 123.004  1.00  0.00    -0.006 C 
ATOM      4  C   UNL     1     101.095 116.172 124.338  1.00  0.00     0.047 C 
ATOM      5  C   UNL     1     101.598 114.919 125.101  1.00  0.00     0.025 C 
ATOM      6  C   UNL     1     100.506 114.119 125.819  1.00  0.00    -0.073 C 
ATOM      7  C   UNL     1      99.185 114.346 125.690  1.00  0.00     0.008 C 
ATOM      8  C   UNL     1     100.985 112.954 126.645  1.00  0.00     0.031 C 
ATOM      9  C   UNL     1     101.778 111.994 125.759  1.00  0.00     0.005 C 
ATOM     10  C   UNL     1     102.911 112.721 125.012  1.00  0.00     0.008 C 
ATOM     11  C   UNL     1     102.445 113.968 124.194  1.00  0.00    -0.018 C 
ATOM     12  C   UNL     1     101.599 113.527 122.971  1.00  0.00     0.088 C 
ATOM     13  C   UNL     1     101.013 114.703 122.242  1.00  0.00     0.159 C 
ATOM     14  O   UNL     1     101.034 114.702 120.982  1.00  0.00    -0.295 OA
ATOM     15  C   UNL     1     103.725 114.688 123.696  1.00  0.00     0.012 C 
ATOM     16  C   UNL     1      98.726 116.279 121.211  1.00  0.00     0.039 C 
ENDROOT
TORSDOF 0
ENDMDL
MODEL 9
REMARK VINA RESULT:    -5.335      1.789      4.966
REMARK INTER + INTRA:          -5.335
REMARK INTER:                  -5.335
REMARK INTRA:                   0.000
REMARK UNBOUND:                 0.000
REMARK SMILES C=C1CCC[C@@]2(C)CC(=O)C(=C(C)C)C[C@@H]12
REMARK SMILES IDX 13 1 12 2 11 3 15 4 16 5 2 6 1 7 3 8 4 9 5 10 6 11 8 12 9 13
REMARK SMILES IDX 10 14 7 15 14 16
REMARK H PARENT
REMARK Flexibility Score: inf
ROOT
ATOM      1  C   UNL     1     100.118 116.726 124.219  1.00  0.00     0.039 C 
ATOM      2  C   UNL     1     100.244 115.470 125.053  1.00  0.00    -0.070 C 
ATOM      3  C   UNL     1     100.695 114.302 124.509  1.00  0.00    -0.006 C 
ATOM      4  C   UNL     1     101.115 114.221 123.047  1.00  0.00     0.047 C 
ATOM      5  C   UNL     1     102.231 113.176 122.781  1.00  0.00     0.025 C 
ATOM      6  C   UNL     1     103.640 113.623 123.178  1.00  0.00    -0.073 C 
ATOM      7  C   UNL     1     103.920 114.750 123.860  1.00  0.00     0.008 C 
ATOM      8  C   UNL     1     104.751 112.662 122.840  1.00  0.00     0.031 C 
ATOM      9  C   UNL     1     104.472 111.311 123.499  1.00  0.00     0.005 C 
ATOM     10  C   UNL     1     103.073 110.783 123.134  1.00  0.00     0.008 C 
ATOM     11  C   UNL     1     101.911 111.787 123.423  1.00  0.00    -0.018 C 
ATOM     12  C   UNL     1     101.710 111.955 124.951  1.00  0.00     0.088 C 
ATOM     13  C   UNL     1     100.699 113.019 125.270  1.00  0.00     0.159 C 
ATOM     14  O   UNL     1      99.856 112.797 126.180  1.00  0.00    -0.295 OA
ATOM     15  C   UNL     1     100.625 111.182 122.802  1.00  0.00     0.012 C 
ATOM     16  C   UNL     1      99.888 115.581 126.517  1.00  0.00     0.039 C 
ENDROOT
TORSDOF 0
ENDMDL
