MODEL 1
REMARK VINA RESULT:    -5.926      0.000      0.000
REMARK INTER + INTRA:          -9.554
REMARK INTER:                  -8.352
REMARK INTRA:                  -1.203
REMARK UNBOUND:                -1.203
REMARK SMILES OCC1=C[C@@H](O)[C@@H]2C=CO[C@@H](O[C@H]3O[C@H](CO)[C@H](O)[C@H](O)[C@H]3O)[C@H]12
REMARK SMILES IDX 12 1 11 2 8 3 9 4 7 5 10 6 24 7 5 8 3 9 4 10 6 11 2 13 1 14
REMARK SMILES IDX 13 16 22 17 14 18 20 19 15 20 18 21 23 22 21 24 16 26 17 27
REMARK SMILES IDX 19 29
REMARK H PARENT 6 12 1 15 23 23 21 25 17 28 19 30
REMARK Flexibility Score: inf
ROOT
ATOM      1  O   UNL     1      22.732   2.596  22.652  1.00  0.00    -0.310 OA
ENDROOT
BRANCH   1   2
ATOM      2  C   UNL     1      23.823   2.223  23.476  1.00  0.00     0.316 C 
ATOM      3  C   UNL     1      26.044   0.608  24.243  1.00  0.00     0.018 C 
ATOM      4  C   UNL     1      26.127   1.406  23.179  1.00  0.00     0.186 C 
ATOM      5  C   UNL     1      24.718   0.275  24.883  1.00  0.00     0.061 C 
ATOM      6  O   UNL     1      24.993   2.047  22.678  1.00  0.00    -0.472 OA
ATOM      7  C   UNL     1      23.481   0.901  24.194  1.00  0.00     0.096 C 
ATOM      8  C   UNL     1      24.635   0.737  26.349  1.00  0.00     0.145 C 
ATOM      9  C   UNL     1      22.562   1.156  25.350  1.00  0.00    -0.036 C 
ATOM     10  C   UNL     1      23.197   1.086  26.516  1.00  0.00     0.007 C 
BRANCH   8  11
ATOM     11  O   UNL     1      24.983  -0.295  27.230  1.00  0.00    -0.388 OA
ATOM     12  H   UNL     1      25.880  -0.612  26.947  1.00  0.00     0.211 HD
ENDBRANCH   8  11
BRANCH   9  13
ATOM     13  C   UNL     1      21.109   1.522  25.217  1.00  0.00     0.187 C 
BRANCH  13  14
ATOM     14  O   UNL     1      20.969   2.907  25.051  1.00  0.00    -0.392 OA
ATOM     15  H   UNL     1      20.517   3.248  25.866  1.00  0.00     0.211 HD
ENDBRANCH  13  14
ENDBRANCH   9  13
ENDBRANCH   1   2
BRANCH   1  16
ATOM     16  C   UNL     1      23.085   3.653  21.773  1.00  0.00     0.286 C 
ATOM     17  C   UNL     1      22.015   4.766  21.830  1.00  0.00     0.202 C 
ATOM     18  O   UNL     1      23.270   3.188  20.441  1.00  0.00    -0.341 OA
ATOM     19  C   UNL     1      20.702   4.278  21.188  1.00  0.00     0.179 C 
ATOM     20  C   UNL     1      22.080   2.618  19.914  1.00  0.00     0.178 C 
ATOM     21  C   UNL     1      20.971   3.688  19.793  1.00  0.00     0.177 C 
BRANCH  17  22
ATOM     22  O   UNL     1      21.772   5.141  23.161  1.00  0.00    -0.385 OA
ATOM     23  H   UNL     1      20.834   5.467  23.200  1.00  0.00     0.211 HD
ENDBRANCH  17  22
BRANCH  19  24
ATOM     24  O   UNL     1      19.743   5.305  21.131  1.00  0.00    -0.387 OA
ATOM     25  H   UNL     1      19.941   5.952  21.857  1.00  0.00     0.211 HD
ENDBRANCH  19  24
BRANCH  20  26
ATOM     26  C   UNL     1      22.390   1.981  18.551  1.00  0.00     0.191 C 
BRANCH  26  27
ATOM     27  O   UNL     1      23.385   2.712  17.887  1.00  0.00    -0.394 OA
ATOM     28  H   UNL     1      23.496   2.298  16.992  1.00  0.00     0.210 HD
ENDBRANCH  26  27
ENDBRANCH  20  26
BRANCH  21  29
ATOM     29  O   UNL     1      21.372   4.709  18.911  1.00  0.00    -0.387 OA
ATOM     30  H   UNL     1      21.861   4.275  18.165  1.00  0.00     0.211 HD
ENDBRANCH  21  29
ENDBRANCH   1  16
TORSDOF 10
ENDMDL
MODEL 2
REMARK VINA RESULT:    -5.034     13.449     15.395
REMARK INTER + INTRA:          -8.297
REMARK INTER:                  -7.268
REMARK INTRA:                  -1.029
REMARK UNBOUND:                -1.203
REMARK SMILES OCC1=C[C@@H](O)[C@@H]2C=CO[C@@H](O[C@H]3O[C@H](CO)[C@H](O)[C@H](O)[C@H]3O)[C@H]12
REMARK SMILES IDX 12 1 11 2 8 3 9 4 7 5 10 6 24 7 5 8 3 9 4 10 6 11 2 13 1 14
REMARK SMILES IDX 13 16 22 17 14 18 20 19 15 20 18 21 23 22 21 24 16 26 17 27
REMARK SMILES IDX 19 29
REMARK H PARENT 6 12 1 15 23 23 21 25 17 28 19 30
REMARK Flexibility Score: inf
ROOT
ATOM      1  O   UNL     1      27.544  16.281  19.921  1.00  0.00    -0.310 OA
ENDROOT
BRANCH   1   2
ATOM      2  C   UNL     1      28.847  16.503  19.411  1.00  0.00     0.316 C 
ATOM      3  C   UNL     1      31.492  15.744  18.667  1.00  0.00     0.018 C 
ATOM      4  C   UNL     1      30.447  15.341  17.945  1.00  0.00     0.186 C 
ATOM      5  C   UNL     1      31.323  16.324  20.050  1.00  0.00     0.061 C 
ATOM      6  O   UNL     1      29.144  15.537  18.405  1.00  0.00    -0.472 OA
ATOM      7  C   UNL     1      29.865  16.383  20.564  1.00  0.00     0.096 C 
ATOM      8  C   UNL     1      31.841  17.769  20.153  1.00  0.00     0.145 C 
ATOM      9  C   UNL     1      29.865  17.629  21.395  1.00  0.00    -0.036 C 
ATOM     10  C   UNL     1      30.929  18.388  21.154  1.00  0.00     0.007 C 
BRANCH   8  11
ATOM     11  O   UNL     1      33.162  17.807  20.620  1.00  0.00    -0.388 OA
ATOM     12  H   UNL     1      33.669  17.153  20.073  1.00  0.00     0.211 HD
ENDBRANCH   8  11
BRANCH   9  13
ATOM     13  C   UNL     1      28.761  18.022  22.340  1.00  0.00     0.187 C 
BRANCH  13  14
ATOM     14  O   UNL     1      27.795  18.785  21.668  1.00  0.00    -0.392 OA
ATOM     15  H   UNL     1      26.934  18.301  21.760  1.00  0.00     0.211 HD
ENDBRANCH  13  14
ENDBRANCH   9  13
ENDBRANCH   1   2
BRANCH   1  16
ATOM     16  C   UNL     1      26.577  16.262  18.882  1.00  0.00     0.286 C 
ATOM     17  C   UNL     1      25.393  17.185  19.245  1.00  0.00     0.202 C 
ATOM     18  O   UNL     1      26.129  14.939  18.606  1.00  0.00    -0.341 OA
ATOM     19  C   UNL     1      24.583  16.582  20.408  1.00  0.00     0.179 C 
ATOM     20  C   UNL     1      25.503  14.351  19.737  1.00  0.00     0.178 C 
ATOM     21  C   UNL     1      24.214  15.119  20.106  1.00  0.00     0.177 C 
BRANCH  17  22
ATOM     22  O   UNL     1      25.861  18.457  19.613  1.00  0.00    -0.385 OA
ATOM     23  H   UNL     1      25.067  18.986  19.887  1.00  0.00     0.211 HD
ENDBRANCH  17  22
BRANCH  19  24
ATOM     24  O   UNL     1      23.438  17.348  20.692  1.00  0.00    -0.387 OA
ATOM     25  H   UNL     1      22.917  17.445  19.853  1.00  0.00     0.211 HD
ENDBRANCH  19  24
BRANCH  20  26
ATOM     26  C   UNL     1      25.203  12.875  19.432  1.00  0.00     0.191 C 
BRANCH  26  27
ATOM     27  O   UNL     1      25.712  12.055  20.449  1.00  0.00    -0.394 OA
ATOM     28  H   UNL     1      25.364  11.140  20.281  1.00  0.00     0.210 HD
ENDBRANCH  26  27
ENDBRANCH  20  26
BRANCH  21  29
ATOM     29  O   UNL     1      23.293  15.068  19.044  1.00  0.00    -0.387 OA
ATOM     30  H   UNL     1      23.556  15.770  18.395  1.00  0.00     0.211 HD
ENDBRANCH  21  29
ENDBRANCH   1  16
TORSDOF 10
ENDMDL
MODEL 3
REMARK VINA RESULT:    -4.972      1.311      3.567
REMARK INTER + INTRA:          -8.209
REMARK INTER:                  -7.052
REMARK INTRA:                  -1.156
REMARK UNBOUND:                -1.203
REMARK SMILES OCC1=C[C@@H](O)[C@@H]2C=CO[C@@H](O[C@H]3O[C@H](CO)[C@H](O)[C@H](O)[C@H]3O)[C@H]12
REMARK SMILES IDX 12 1 11 2 8 3 9 4 7 5 10 6 24 7 5 8 3 9 4 10 6 11 2 13 1 14
REMARK SMILES IDX 13 16 22 17 14 18 20 19 15 20 18 21 23 22 21 24 16 26 17 27
REMARK SMILES IDX 19 29
REMARK H PARENT 6 12 1 15 23 23 21 25 17 28 19 30
REMARK Flexibility Score: inf
ROOT
ATOM      1  O   UNL     1      22.719   2.365  22.106  1.00  0.00    -0.310 OA
ENDROOT
BRANCH   1   2
ATOM      2  C   UNL     1      22.620   1.578  23.280  1.00  0.00     0.316 C 
ATOM      3  C   UNL     1      22.457   1.150  26.094  1.00  0.00     0.018 C 
ATOM      4  C   UNL     1      21.423   1.665  25.430  1.00  0.00     0.186 C 
ATOM      5  C   UNL     1      23.834   1.074  25.481  1.00  0.00     0.061 C 
ATOM      6  O   UNL     1      21.557   2.062  24.099  1.00  0.00    -0.472 OA
ATOM      7  C   UNL     1      23.951   1.663  24.055  1.00  0.00     0.096 C 
ATOM      8  C   UNL     1      24.350  -0.371  25.361  1.00  0.00     0.145 C 
ATOM      9  C   UNL     1      24.982   0.777  23.423  1.00  0.00    -0.036 C 
ATOM     10  C   UNL     1      25.180  -0.334  24.125  1.00  0.00     0.007 C 
BRANCH   8  11
ATOM     11  O   UNL     1      25.144  -0.723  26.460  1.00  0.00    -0.388 OA
ATOM     12  H   UNL     1      25.521   0.124  26.814  1.00  0.00     0.211 HD
ENDBRANCH   8  11
BRANCH   9  13
ATOM     13  C   UNL     1      25.664   1.065  22.113  1.00  0.00     0.187 C 
BRANCH  13  14
ATOM     14  O   UNL     1      25.434   2.393  21.727  1.00  0.00    -0.392 OA
ATOM     15  H   UNL     1      26.070   2.955  22.241  1.00  0.00     0.211 HD
ENDBRANCH  13  14
ENDBRANCH   9  13
ENDBRANCH   1   2
BRANCH   1  16
ATOM     16  C   UNL     1      21.729   2.002  21.155  1.00  0.00     0.286 C 
ATOM     17  C   UNL     1      22.395   1.675  19.799  1.00  0.00     0.202 C 
ATOM     18  O   UNL     1      20.743   3.017  21.010  1.00  0.00    -0.341 OA
ATOM     19  C   UNL     1      22.959   2.958  19.159  1.00  0.00     0.179 C 
ATOM     20  C   UNL     1      21.308   4.235  20.545  1.00  0.00     0.178 C 
ATOM     21  C   UNL     1      21.885   4.059  19.122  1.00  0.00     0.177 C 
BRANCH  17  22
ATOM     22  O   UNL     1      23.434   0.748  19.976  1.00  0.00    -0.385 OA
ATOM     23  H   UNL     1      24.145   1.209  20.494  1.00  0.00     0.211 HD
ENDBRANCH  17  22
BRANCH  19  24
ATOM     24  O   UNL     1      23.478   2.709  17.876  1.00  0.00    -0.387 OA
ATOM     25  H   UNL     1      24.093   3.452  17.643  1.00  0.00     0.211 HD
ENDBRANCH  19  24
BRANCH  20  26
ATOM     26  C   UNL     1      20.232   5.331  20.578  1.00  0.00     0.191 C 
BRANCH  26  27
ATOM     27  O   UNL     1      18.967   4.780  20.330  1.00  0.00    -0.394 OA
ATOM     28  H   UNL     1      18.626   4.443  21.200  1.00  0.00     0.210 HD
ENDBRANCH  26  27
ENDBRANCH  20  26
BRANCH  21  29
ATOM     29  O   UNL     1      20.864   3.701  18.222  1.00  0.00    -0.387 OA
ATOM     30  H   UNL     1      20.615   4.520  17.721  1.00  0.00     0.211 HD
ENDBRANCH  21  29
ENDBRANCH   1  16
TORSDOF 10
ENDMDL
MODEL 4
REMARK VINA RESULT:    -4.849      1.577      6.113
REMARK INTER + INTRA:          -8.036
REMARK INTER:                  -6.975
REMARK INTRA:                  -1.061
REMARK UNBOUND:                -1.203
REMARK SMILES OCC1=C[C@@H](O)[C@@H]2C=CO[C@@H](O[C@H]3O[C@H](CO)[C@H](O)[C@H](O)[C@H]3O)[C@H]12
REMARK SMILES IDX 12 1 11 2 8 3 9 4 7 5 10 6 24 7 5 8 3 9 4 10 6 11 2 13 1 14
REMARK SMILES IDX 13 16 22 17 14 18 20 19 15 20 18 21 23 22 21 24 16 26 17 27
REMARK SMILES IDX 19 29
REMARK H PARENT 6 12 1 15 23 23 21 25 17 28 19 30
REMARK Flexibility Score: inf
ROOT
ATOM      1  O   UNL     1      23.555   2.147  22.267  1.00  0.00    -0.310 OA
ENDROOT
BRANCH   1   2
ATOM      2  C   UNL     1      22.772   2.345  21.103  1.00  0.00     0.316 C 
ATOM      3  C   UNL     1      22.236   3.365  18.495  1.00  0.00     0.018 C 
ATOM      4  C   UNL     1      23.117   2.380  18.665  1.00  0.00     0.186 C 
ATOM      5  C   UNL     1      21.736   4.191  19.656  1.00  0.00     0.061 C 
ATOM      6  O   UNL     1      23.533   2.008  19.945  1.00  0.00    -0.472 OA
ATOM      7  C   UNL     1      22.345   3.826  21.031  1.00  0.00     0.096 C 
ATOM      8  C   UNL     1      20.214   4.079  19.850  1.00  0.00     0.145 C 
ATOM      9  C   UNL     1      21.205   4.087  21.969  1.00  0.00    -0.036 C 
ATOM     10  C   UNL     1      20.048   4.204  21.325  1.00  0.00     0.007 C 
BRANCH   8  11
ATOM     11  O   UNL     1      19.538   5.121  19.202  1.00  0.00    -0.388 OA
ATOM     12  H   UNL     1      19.487   4.867  18.244  1.00  0.00     0.211 HD
ENDBRANCH   8  11
BRANCH   9  13
ATOM     13  C   UNL     1      21.331   4.141  23.467  1.00  0.00     0.187 C 
BRANCH  13  14
ATOM     14  O   UNL     1      20.485   3.193  24.060  1.00  0.00    -0.392 OA
ATOM     15  H   UNL     1      21.041   2.395  24.255  1.00  0.00     0.211 HD
ENDBRANCH  13  14
ENDBRANCH   9  13
ENDBRANCH   1   2
BRANCH   1  16
ATOM     16  C   UNL     1      23.855   0.773  22.462  1.00  0.00     0.286 C 
ATOM     17  C   UNL     1      23.512   0.358  23.910  1.00  0.00     0.202 C 
ATOM     18  O   UNL     1      25.214   0.483  22.154  1.00  0.00    -0.341 OA
ATOM     19  C   UNL     1      24.494   1.014  24.900  1.00  0.00     0.179 C 
ATOM     20  C   UNL     1      26.107   1.203  22.992  1.00  0.00     0.178 C 
ATOM     21  C   UNL     1      25.948   0.761  24.464  1.00  0.00     0.177 C 
BRANCH  17  22
ATOM     22  O   UNL     1      22.200   0.743  24.231  1.00  0.00    -0.385 OA
ATOM     23  H   UNL     1      21.765  -0.044  24.650  1.00  0.00     0.211 HD
ENDBRANCH  17  22
BRANCH  19  24
ATOM     24  O   UNL     1      24.272   0.572  26.216  1.00  0.00    -0.387 OA
ATOM     25  H   UNL     1      25.144   0.562  26.689  1.00  0.00     0.211 HD
ENDBRANCH  19  24
BRANCH  20  26
ATOM     26  C   UNL     1      27.544   0.985  22.498  1.00  0.00     0.191 C 
BRANCH  26  27
ATOM     27  O   UNL     1      28.463   1.437  23.456  1.00  0.00    -0.394 OA
ATOM     28  H   UNL     1      29.129   1.993  22.974  1.00  0.00     0.210 HD
ENDBRANCH  26  27
ENDBRANCH  20  26
BRANCH  21  29
ATOM     29  O   UNL     1      26.257  -0.605  24.600  1.00  0.00    -0.387 OA
ATOM     30  H   UNL     1      26.532  -0.933  23.705  1.00  0.00     0.211 HD
ENDBRANCH  21  29
ENDBRANCH   1  16
TORSDOF 10
ENDMDL
MODEL 5
REMARK VINA RESULT:    -4.835      1.917      6.447
REMARK INTER + INTRA:          -8.016
REMARK INTER:                  -7.055
REMARK INTRA:                  -0.961
REMARK UNBOUND:                -1.203
REMARK SMILES OCC1=C[C@@H](O)[C@@H]2C=CO[C@@H](O[C@H]3O[C@H](CO)[C@H](O)[C@H](O)[C@H]3O)[C@H]12
REMARK SMILES IDX 12 1 11 2 8 3 9 4 7 5 10 6 24 7 5 8 3 9 4 10 6 11 2 13 1 14
REMARK SMILES IDX 13 16 22 17 14 18 20 19 15 20 18 21 23 22 21 24 16 26 17 27
REMARK SMILES IDX 19 29
REMARK H PARENT 6 12 1 15 23 23 21 25 17 28 19 30
REMARK Flexibility Score: inf
ROOT
ATOM      1  O   UNL     1      23.619   2.155  20.915  1.00  0.00    -0.310 OA
ENDROOT
BRANCH   1   2
ATOM      2  C   UNL     1      22.642   3.087  20.485  1.00  0.00     0.316 C 
ATOM      3  C   UNL     1      20.505   4.939  20.848  1.00  0.00     0.018 C 
ATOM      4  C   UNL     1      21.741   5.252  21.235  1.00  0.00     0.186 C 
ATOM      5  C   UNL     1      20.115   3.520  20.512  1.00  0.00     0.061 C 
ATOM      6  O   UNL     1      22.750   4.288  21.246  1.00  0.00    -0.472 OA
ATOM      7  C   UNL     1      21.241   2.472  20.682  1.00  0.00     0.096 C 
ATOM      8  C   UNL     1      19.642   3.365  19.056  1.00  0.00     0.145 C 
ATOM      9  C   UNL     1      20.940   1.493  19.588  1.00  0.00    -0.036 C 
ATOM     10  C   UNL     1      20.087   1.990  18.697  1.00  0.00     0.007 C 
BRANCH   8  11
ATOM     11  O   UNL     1      18.247   3.457  18.959  1.00  0.00    -0.388 OA
ATOM     12  H   UNL     1      17.921   3.703  19.864  1.00  0.00     0.211 HD
ENDBRANCH   8  11
BRANCH   9  13
ATOM     13  C   UNL     1      21.576   0.135  19.462  1.00  0.00     0.187 C 
BRANCH  13  14
ATOM     14  O   UNL     1      22.027  -0.308  20.713  1.00  0.00    -0.392 OA
ATOM     15  H   UNL     1      21.917  -1.294  20.724  1.00  0.00     0.211 HD
ENDBRANCH  13  14
ENDBRANCH   9  13
ENDBRANCH   1   2
BRANCH   1  16
ATOM     16  C   UNL     1      24.393   2.674  21.987  1.00  0.00     0.286 C 
ATOM     17  C   UNL     1      25.883   2.324  21.779  1.00  0.00     0.202 C 
ATOM     18  O   UNL     1      23.926   2.205  23.246  1.00  0.00    -0.341 OA
ATOM     19  C   UNL     1      26.106   0.810  21.965  1.00  0.00     0.179 C 
ATOM     20  C   UNL     1      24.016   0.791  23.346  1.00  0.00     0.178 C 
ATOM     21  C   UNL     1      25.491   0.334  23.292  1.00  0.00     0.177 C 
BRANCH  17  22
ATOM     22  O   UNL     1      26.299   2.702  20.493  1.00  0.00    -0.385 OA
ATOM     23  H   UNL     1      27.265   2.923  20.558  1.00  0.00     0.211 HD
ENDBRANCH  17  22
BRANCH  19  24
ATOM     24  O   UNL     1      27.470   0.476  21.886  1.00  0.00    -0.387 OA
ATOM     25  H   UNL     1      27.876   0.628  22.778  1.00  0.00     0.211 HD
ENDBRANCH  19  24
BRANCH  20  26
ATOM     26  C   UNL     1      23.339   0.336  24.647  1.00  0.00     0.191 C 
BRANCH  26  27
ATOM     27  O   UNL     1      21.985   0.700  24.644  1.00  0.00    -0.394 OA
ATOM     28  H   UNL     1      21.531   0.121  25.312  1.00  0.00     0.210 HD
ENDBRANCH  26  27
ENDBRANCH  20  26
BRANCH  21  29
ATOM     29  O   UNL     1      26.210   0.875  24.374  1.00  0.00    -0.387 OA
ATOM     30  H   UNL     1      27.171   0.709  24.199  1.00  0.00     0.211 HD
ENDBRANCH  21  29
ENDBRANCH   1  16
TORSDOF 10
ENDMDL
MODEL 6
REMARK VINA RESULT:    -4.621     19.060     21.199
REMARK INTER + INTRA:          -7.715
REMARK INTER:                  -6.236
REMARK INTRA:                  -1.479
REMARK UNBOUND:                -1.203
REMARK SMILES OCC1=C[C@@H](O)[C@@H]2C=CO[C@@H](O[C@H]3O[C@H](CO)[C@H](O)[C@H](O)[C@H]3O)[C@H]12
REMARK SMILES IDX 12 1 11 2 8 3 9 4 7 5 10 6 24 7 5 8 3 9 4 10 6 11 2 13 1 14
REMARK SMILES IDX 13 16 22 17 14 18 20 19 15 20 18 21 23 22 21 24 16 26 17 27
REMARK SMILES IDX 19 29
REMARK H PARENT 6 12 1 15 23 23 21 25 17 28 19 30
REMARK Flexibility Score: inf
ROOT
ATOM      1  O   UNL     1      30.682  14.546  38.125  1.00  0.00    -0.310 OA
ENDROOT
BRANCH   1   2
ATOM      2  C   UNL     1      29.560  13.724  37.856  1.00  0.00     0.316 C 
ATOM      3  C   UNL     1      27.905  12.066  36.231  1.00  0.00     0.018 C 
ATOM      4  C   UNL     1      29.091  11.628  36.652  1.00  0.00     0.186 C 
ATOM      5  C   UNL     1      27.526  13.525  36.308  1.00  0.00     0.061 C 
ATOM      6  O   UNL     1      29.990  12.493  37.276  1.00  0.00    -0.472 OA
ATOM      7  C   UNL     1      28.621  14.459  36.878  1.00  0.00     0.096 C 
ATOM      8  C   UNL     1      26.292  13.770  37.194  1.00  0.00     0.145 C 
ATOM      9  C   UNL     1      27.818  15.496  37.602  1.00  0.00    -0.036 C 
ATOM     10  C   UNL     1      26.560  15.109  37.789  1.00  0.00     0.007 C 
BRANCH   8  11
ATOM     11  O   UNL     1      25.116  13.811  36.433  1.00  0.00    -0.388 OA
ATOM     12  H   UNL     1      24.934  14.770  36.254  1.00  0.00     0.211 HD
ENDBRANCH   8  11
BRANCH   9  13
ATOM     13  C   UNL     1      28.375  16.792  38.125  1.00  0.00     0.187 C 
BRANCH  13  14
ATOM     14  O   UNL     1      28.861  17.574  37.067  1.00  0.00    -0.392 OA
ATOM     15  H   UNL     1      29.483  17.000  36.549  1.00  0.00     0.211 HD
ENDBRANCH  13  14
ENDBRANCH   9  13
ENDBRANCH   1   2
BRANCH   1  16
ATOM     16  C   UNL     1      31.408  14.834  36.939  1.00  0.00     0.286 C 
ATOM     17  C   UNL     1      32.808  14.185  37.008  1.00  0.00     0.202 C 
ATOM     18  O   UNL     1      31.504  16.236  36.710  1.00  0.00    -0.341 OA
ATOM     19  C   UNL     1      33.677  14.898  38.062  1.00  0.00     0.179 C 
ATOM     20  C   UNL     1      32.193  16.894  37.764  1.00  0.00     0.178 C 
ATOM     21  C   UNL     1      33.661  16.419  37.834  1.00  0.00     0.177 C 
BRANCH  17  22
ATOM     22  O   UNL     1      32.700  12.824  37.336  1.00  0.00    -0.385 OA
ATOM     23  H   UNL     1      31.903  12.476  36.857  1.00  0.00     0.211 HD
ENDBRANCH  17  22
BRANCH  19  24
ATOM     24  O   UNL     1      34.991  14.397  38.073  1.00  0.00    -0.387 OA
ATOM     25  H   UNL     1      35.420  14.640  37.212  1.00  0.00     0.211 HD
ENDBRANCH  19  24
BRANCH  20  26
ATOM     26  C   UNL     1      32.108  18.412  37.546  1.00  0.00     0.191 C 
BRANCH  26  27
ATOM     27  O   UNL     1      31.690  18.694  36.237  1.00  0.00    -0.394 OA
ATOM     28  H   UNL     1      32.394  19.261  35.827  1.00  0.00     0.210 HD
ENDBRANCH  26  27
ENDBRANCH  20  26
BRANCH  21  29
ATOM     29  O   UNL     1      34.333  16.730  36.637  1.00  0.00    -0.387 OA
ATOM     30  H   UNL     1      33.856  16.261  35.904  1.00  0.00     0.211 HD
ENDBRANCH  21  29
ENDBRANCH   1  16
TORSDOF 10
ENDMDL
MODEL 7
REMARK VINA RESULT:    -4.590      2.316      6.374
REMARK INTER + INTRA:          -7.670
REMARK INTER:                  -6.186
REMARK INTRA:                  -1.484
REMARK UNBOUND:                -1.203
REMARK SMILES OCC1=C[C@@H](O)[C@@H]2C=CO[C@@H](O[C@H]3O[C@H](CO)[C@H](O)[C@H](O)[C@H]3O)[C@H]12
REMARK SMILES IDX 12 1 11 2 8 3 9 4 7 5 10 6 24 7 5 8 3 9 4 10 6 11 2 13 1 14
REMARK SMILES IDX 13 16 22 17 14 18 20 19 15 20 18 21 23 22 21 24 16 26 17 27
REMARK SMILES IDX 19 29
REMARK H PARENT 6 12 1 15 23 23 21 25 17 28 19 30
REMARK Flexibility Score: inf
ROOT
ATOM      1  O   UNL     1      24.978  -0.023  23.172  1.00  0.00    -0.310 OA
ENDROOT
BRANCH   1   2
ATOM      2  C   UNL     1      23.800   0.699  22.860  1.00  0.00     0.316 C 
ATOM      3  C   UNL     1      22.321   2.989  22.023  1.00  0.00     0.018 C 
ATOM      4  C   UNL     1      23.048   2.298  21.145  1.00  0.00     0.186 C 
ATOM      5  C   UNL     1      22.491   2.806  23.511  1.00  0.00     0.061 C 
ATOM      6  O   UNL     1      23.927   1.303  21.574  1.00  0.00    -0.472 OA
ATOM      7  C   UNL     1      23.584   1.792  23.928  1.00  0.00     0.096 C 
ATOM      8  C   UNL     1      21.206   2.313  24.199  1.00  0.00     0.145 C 
ATOM      9  C   UNL     1      23.013   1.197  25.179  1.00  0.00    -0.036 C 
ATOM     10  C   UNL     1      21.718   1.465  25.311  1.00  0.00     0.007 C 
BRANCH   8  11
ATOM     11  O   UNL     1      20.460   3.381  24.714  1.00  0.00    -0.388 OA
ATOM     12  H   UNL     1      21.095   3.937  25.237  1.00  0.00     0.211 HD
ENDBRANCH   8  11
BRANCH   9  13
ATOM     13  C   UNL     1      23.786   0.335  26.141  1.00  0.00     0.187 C 
BRANCH  13  14
ATOM     14  O   UNL     1      24.740   1.103  26.822  1.00  0.00    -0.392 OA
ATOM     15  H   UNL     1      24.249   1.633  27.502  1.00  0.00     0.211 HD
ENDBRANCH  13  14
ENDBRANCH   9  13
ENDBRANCH   1   2
BRANCH   1  16
ATOM     16  C   UNL     1      26.102   0.839  23.274  1.00  0.00     0.286 C 
ATOM     17  C   UNL     1      27.117   0.517  22.155  1.00  0.00     0.202 C 
ATOM     18  O   UNL     1      26.710   0.757  24.558  1.00  0.00    -0.341 OA
ATOM     19  C   UNL     1      27.776  -0.852  22.410  1.00  0.00     0.179 C 
ATOM     20  C   UNL     1      27.192  -0.552  24.827  1.00  0.00     0.178 C 
ATOM     21  C   UNL     1      28.324  -0.928  23.845  1.00  0.00     0.177 C 
BRANCH  17  22
ATOM     22  O   UNL     1      26.478   0.502  20.905  1.00  0.00    -0.385 OA
ATOM     23  H   UNL     1      26.313   1.449  20.656  1.00  0.00     0.211 HD
ENDBRANCH  17  22
BRANCH  19  24
ATOM     24  O   UNL     1      28.781  -1.125  21.465  1.00  0.00    -0.387 OA
ATOM     25  H   UNL     1      28.566  -0.627  20.634  1.00  0.00     0.211 HD
ENDBRANCH  19  24
BRANCH  20  26
ATOM     26  C   UNL     1      27.674  -0.618  26.284  1.00  0.00     0.191 C 
BRANCH  26  27
ATOM     27  O   UNL     1      27.872   0.675  26.791  1.00  0.00    -0.394 OA
ATOM     28  H   UNL     1      27.829   0.605  27.780  1.00  0.00     0.210 HD
ENDBRANCH  26  27
ENDBRANCH  20  26
BRANCH  21  29
ATOM     29  O   UNL     1      29.410  -0.044  23.990  1.00  0.00    -0.387 OA
ATOM     30  H   UNL     1      29.053   0.797  24.374  1.00  0.00     0.211 HD
ENDBRANCH  21  29
ENDBRANCH   1  16
TORSDOF 10
ENDMDL
MODEL 8
REMARK VINA RESULT:    -4.445      1.815      4.113
REMARK INTER + INTRA:          -7.467
REMARK INTER:                  -6.306
REMARK INTRA:                  -1.162
REMARK UNBOUND:                -1.203
REMARK SMILES OCC1=C[C@@H](O)[C@@H]2C=CO[C@@H](O[C@H]3O[C@H](CO)[C@H](O)[C@H](O)[C@H]3O)[C@H]12
REMARK SMILES IDX 12 1 11 2 8 3 9 4 7 5 10 6 24 7 5 8 3 9 4 10 6 11 2 13 1 14
REMARK SMILES IDX 13 16 22 17 14 18 20 19 15 20 18 21 23 22 21 24 16 26 17 27
REMARK SMILES IDX 19 29
REMARK H PARENT 6 12 1 15 23 23 21 25 17 28 19 30
REMARK Flexibility Score: inf
ROOT
ATOM      1  O   UNL     1      24.416   1.583  22.985  1.00  0.00    -0.310 OA
ENDROOT
BRANCH   1   2
ATOM      2  C   UNL     1      24.829   0.813  24.100  1.00  0.00     0.316 C 
ATOM      3  C   UNL     1      25.618   0.412  26.810  1.00  0.00     0.018 C 
ATOM      4  C   UNL     1      24.354   0.711  26.514  1.00  0.00     0.186 C 
ATOM      5  C   UNL     1      26.731   0.587  25.805  1.00  0.00     0.061 C 
ATOM      6  O   UNL     1      23.997   1.102  25.222  1.00  0.00    -0.472 OA
ATOM      7  C   UNL     1      26.294   1.162  24.436  1.00  0.00     0.096 C 
ATOM      8  C   UNL     1      27.443  -0.736  25.474  1.00  0.00     0.145 C 
ATOM      9  C   UNL     1      27.226   0.476  23.485  1.00  0.00    -0.036 C 
ATOM     10  C   UNL     1      27.833  -0.565  24.046  1.00  0.00     0.007 C 
BRANCH   8  11
ATOM     11  O   UNL     1      28.586  -0.912  26.265  1.00  0.00    -0.388 OA
ATOM     12  H   UNL     1      29.278  -1.303  25.670  1.00  0.00     0.211 HD
ENDBRANCH   8  11
BRANCH   9  13
ATOM     13  C   UNL     1      27.409   0.864  22.043  1.00  0.00     0.187 C 
BRANCH  13  14
ATOM     14  O   UNL     1      26.851   2.129  21.806  1.00  0.00    -0.392 OA
ATOM     15  H   UNL     1      25.878   1.992  21.673  1.00  0.00     0.211 HD
ENDBRANCH  13  14
ENDBRANCH   9  13
ENDBRANCH   1   2
BRANCH   1  16
ATOM     16  C   UNL     1      23.228   1.061  22.407  1.00  0.00     0.286 C 
ATOM     17  C   UNL     1      23.371   1.006  20.869  1.00  0.00     0.202 C 
ATOM     18  O   UNL     1      22.083   1.815  22.789  1.00  0.00    -0.341 OA
ATOM     19  C   UNL     1      23.379   2.431  20.283  1.00  0.00     0.179 C 
ATOM     20  C   UNL     1      22.174   3.164  22.353  1.00  0.00     0.178 C 
ATOM     21  C   UNL     1      22.180   3.238  20.809  1.00  0.00     0.177 C 
BRANCH  17  22
ATOM     22  O   UNL     1      24.558   0.348  20.512  1.00  0.00    -0.385 OA
ATOM     23  H   UNL     1      24.296  -0.443  19.973  1.00  0.00     0.211 HD
ENDBRANCH  17  22
BRANCH  19  24
ATOM     24  O   UNL     1      23.402   2.410  18.876  1.00  0.00    -0.387 OA
ATOM     25  H   UNL     1      22.528   2.061  18.560  1.00  0.00     0.211 HD
ENDBRANCH  19  24
BRANCH  20  26
ATOM     26  C   UNL     1      21.001   3.961  22.943  1.00  0.00     0.191 C 
BRANCH  26  27
ATOM     27  O   UNL     1      20.435   4.792  21.966  1.00  0.00    -0.394 OA
ATOM     28  H   UNL     1      19.481   4.914  22.210  1.00  0.00     0.210 HD
ENDBRANCH  26  27
ENDBRANCH  20  26
BRANCH  21  29
ATOM     29  O   UNL     1      20.983   2.709  20.290  1.00  0.00    -0.387 OA
ATOM     30  H   UNL     1      20.288   2.817  20.990  1.00  0.00     0.211 HD
ENDBRANCH  21  29
ENDBRANCH   1  16
TORSDOF 10
ENDMDL
MODEL 9
REMARK VINA RESULT:    -4.421      2.386      6.760
REMARK INTER + INTRA:          -7.433
REMARK INTER:                  -6.788
REMARK INTRA:                  -0.646
REMARK UNBOUND:                -1.203
REMARK SMILES OCC1=C[C@@H](O)[C@@H]2C=CO[C@@H](O[C@H]3O[C@H](CO)[C@H](O)[C@H](O)[C@H]3O)[C@H]12
REMARK SMILES IDX 12 1 11 2 8 3 9 4 7 5 10 6 24 7 5 8 3 9 4 10 6 11 2 13 1 14
REMARK SMILES IDX 13 16 22 17 14 18 20 19 15 20 18 21 23 22 21 24 16 26 17 27
REMARK SMILES IDX 19 29
REMARK H PARENT 6 12 1 15 23 23 21 25 17 28 19 30
REMARK Flexibility Score: inf
ROOT
ATOM      1  O   UNL     1      25.171   0.808  23.289  1.00  0.00    -0.310 OA
ENDROOT
BRANCH   1   2
ATOM      2  C   UNL     1      24.162   1.609  23.880  1.00  0.00     0.316 C 
ATOM      3  C   UNL     1      21.630   2.086  25.100  1.00  0.00     0.018 C 
ATOM      4  C   UNL     1      22.591   1.450  25.769  1.00  0.00     0.186 C 
ATOM      5  C   UNL     1      21.706   2.291  23.607  1.00  0.00     0.061 C 
ATOM      6  O   UNL     1      23.756   1.037  25.122  1.00  0.00    -0.472 OA
ATOM      7  C   UNL     1      22.954   1.683  22.923  1.00  0.00     0.096 C 
ATOM      8  C   UNL     1      21.719   3.778  23.212  1.00  0.00     0.145 C 
ATOM      9  C   UNL     1      23.223   2.655  21.816  1.00  0.00    -0.036 C 
ATOM     10  C   UNL     1      22.566   3.798  21.987  1.00  0.00     0.007 C 
BRANCH   8  11
ATOM     11  O   UNL     1      20.430   4.238  22.911  1.00  0.00    -0.388 OA
ATOM     12  H   UNL     1      19.805   3.524  23.203  1.00  0.00     0.211 HD
ENDBRANCH   8  11
BRANCH   9  13
ATOM     13  C   UNL     1      24.177   2.409  20.678  1.00  0.00     0.187 C 
BRANCH  13  14
ATOM     14  O   UNL     1      23.473   2.292  19.471  1.00  0.00    -0.392 OA
ATOM     15  H   UNL     1      22.522   2.487  19.675  1.00  0.00     0.211 HD
ENDBRANCH  13  14
ENDBRANCH   9  13
ENDBRANCH   1   2
BRANCH   1  16
ATOM     16  C   UNL     1      26.468   1.291  23.608  1.00  0.00     0.286 C 
ATOM     17  C   UNL     1      27.459   0.923  22.481  1.00  0.00     0.202 C 
ATOM     18  O   UNL     1      26.916   0.798  24.865  1.00  0.00    -0.341 OA
ATOM     19  C   UNL     1      27.708  -0.597  22.464  1.00  0.00     0.179 C 
ATOM     20  C   UNL     1      27.011  -0.619  24.870  1.00  0.00     0.178 C 
ATOM     21  C   UNL     1      28.087  -1.096  23.869  1.00  0.00     0.177 C 
BRANCH  17  22
ATOM     22  O   UNL     1      26.952   1.326  21.235  1.00  0.00    -0.385 OA
ATOM     23  H   UNL     1      27.032   0.544  20.627  1.00  0.00     0.211 HD
ENDBRANCH  17  22
BRANCH  19  24
ATOM     24  O   UNL     1      28.687  -0.949  21.517  1.00  0.00    -0.387 OA
ATOM     25  H   UNL     1      29.478  -0.367  21.661  1.00  0.00     0.211 HD
ENDBRANCH  19  24
BRANCH  20  26
ATOM     26  C   UNL     1      27.327  -1.095  26.296  1.00  0.00     0.191 C 
BRANCH  26  27
ATOM     27  O   UNL     1      28.216  -0.207  26.920  1.00  0.00    -0.394 OA
ATOM     28  H   UNL     1      27.786   0.080  27.768  1.00  0.00     0.210 HD
ENDBRANCH  26  27
ENDBRANCH  20  26
BRANCH  21  29
ATOM     29  O   UNL     1      29.350  -0.591  24.232  1.00  0.00    -0.387 OA
ATOM     30  H   UNL     1      29.938  -1.370  24.407  1.00  0.00     0.211 HD
ENDBRANCH  21  29
ENDBRANCH   1  16
TORSDOF 10
ENDMDL
