MODEL 1
REMARK VINA RESULT:    -5.749      0.000      0.000
REMARK INTER + INTRA:          -9.129
REMARK INTER:                  -8.437
REMARK INTRA:                  -0.691
REMARK UNBOUND:                -0.691
REMARK SMILES CC(C)COC(=O)c1ccccc1C(=O)OCC(C)C
REMARK SMILES IDX 8 1 9 2 10 3 11 4 12 5 13 6 6 7 7 8 5 9 4 10 2 11 1 12 3 13
REMARK SMILES IDX 14 14 15 15 16 16 17 17 18 18 19 19 20 20
REMARK H PARENT
REMARK Flexibility Score: inf
ROOT
ATOM      1  C   UNL     1     136.271 123.812 140.283  1.00  0.00     0.074 A 
ATOM      2  C   UNL     1     137.571 123.579 140.768  1.00  0.00     0.016 A 
ATOM      3  C   UNL     1     138.682 123.738 139.939  1.00  0.00     0.001 A 
ATOM      4  C   UNL     1     138.514 124.132 138.614  1.00  0.00     0.001 A 
ATOM      5  C   UNL     1     137.233 124.347 138.105  1.00  0.00     0.016 A 
ATOM      6  C   UNL     1     136.099 124.169 138.916  1.00  0.00     0.074 A 
ENDROOT
BRANCH   1   7
ATOM      7  C   UNL     1     135.148 123.739 141.243  1.00  0.00     0.339 C 
ATOM      8  O   UNL     1     134.269 122.841 141.126  1.00  0.00    -0.246 OA
BRANCH   7   9
ATOM      9  O   UNL     1     135.036 124.710 142.248  1.00  0.00    -0.462 OA
BRANCH   9  10
ATOM     10  C   UNL     1     135.120 124.424 143.645  1.00  0.00     0.236 C 
BRANCH  10  11
ATOM     11  C   UNL     1     136.366 125.078 144.271  1.00  0.00     0.021 C 
ATOM     12  C   UNL     1     135.965 126.325 145.068  1.00  0.00     0.011 C 
ATOM     13  C   UNL     1     137.132 124.100 145.171  1.00  0.00     0.011 C 
ENDBRANCH  10  11
ENDBRANCH   9  10
ENDBRANCH   7   9
ENDBRANCH   1   7
BRANCH   6  14
ATOM     14  C   UNL     1     134.768 124.307 138.285  1.00  0.00     0.339 C 
ATOM     15  O   UNL     1     134.165 123.289 137.846  1.00  0.00    -0.246 OA
BRANCH  14  16
ATOM     16  O   UNL     1     134.208 125.580 138.130  1.00  0.00    -0.462 OA
BRANCH  16  17
ATOM     17  C   UNL     1     132.892 125.919 138.566  1.00  0.00     0.236 C 
BRANCH  17  18
ATOM     18  C   UNL     1     132.056 126.500 137.410  1.00  0.00     0.021 C 
ATOM     19  C   UNL     1     132.453 127.957 137.146  1.00  0.00     0.011 C 
ATOM     20  C   UNL     1     130.555 126.404 137.713  1.00  0.00     0.011 C 
ENDBRANCH  17  18
ENDBRANCH  16  17
ENDBRANCH  14  16
ENDBRANCH   6  14
TORSDOF 8
ENDMDL
MODEL 2
REMARK VINA RESULT:    -5.748      0.068      5.815
REMARK INTER + INTRA:          -9.128
REMARK INTER:                  -8.472
REMARK INTRA:                  -0.656
REMARK UNBOUND:                -0.691
REMARK SMILES CC(C)COC(=O)c1ccccc1C(=O)OCC(C)C
REMARK SMILES IDX 8 1 9 2 10 3 11 4 12 5 13 6 6 7 7 8 5 9 4 10 2 11 1 12 3 13
REMARK SMILES IDX 14 14 15 15 16 16 17 17 18 18 19 19 20 20
REMARK H PARENT
REMARK Flexibility Score: inf
ROOT
ATOM      1  C   UNL     1     136.090 124.170 138.932  1.00  0.00     0.074 A 
ATOM      2  C   UNL     1     137.215 124.309 138.099  1.00  0.00     0.016 A 
ATOM      3  C   UNL     1     138.502 124.098 138.596  1.00  0.00     0.001 A 
ATOM      4  C   UNL     1     138.687 123.745 139.930  1.00  0.00     0.001 A 
ATOM      5  C   UNL     1     137.587 123.624 140.781  1.00  0.00     0.016 A 
ATOM      6  C   UNL     1     136.284 123.855 140.307  1.00  0.00     0.074 A 
ENDROOT
BRANCH   1   7
ATOM      7  C   UNL     1     134.750 124.294 138.317  1.00  0.00     0.339 C 
ATOM      8  O   UNL     1     134.142 123.269 137.904  1.00  0.00    -0.246 OA
BRANCH   7   9
ATOM      9  O   UNL     1     134.188 125.566 138.142  1.00  0.00    -0.462 OA
BRANCH   9  10
ATOM     10  C   UNL     1     132.876 125.924 138.578  1.00  0.00     0.236 C 
BRANCH  10  11
ATOM     11  C   UNL     1     132.038 126.485 137.414  1.00  0.00     0.021 C 
ATOM     12  C   UNL     1     130.543 126.392 137.746  1.00  0.00     0.011 C 
ATOM     13  C   UNL     1     132.416 127.935 137.085  1.00  0.00     0.011 C 
ENDBRANCH  10  11
ENDBRANCH   9  10
ENDBRANCH   7   9
ENDBRANCH   1   7
BRANCH   6  14
ATOM     14  C   UNL     1     135.175 123.817 141.285  1.00  0.00     0.339 C 
ATOM     15  O   UNL     1     134.270 122.943 141.186  1.00  0.00    -0.246 OA
BRANCH  14  16
ATOM     16  O   UNL     1     135.108 124.792 142.288  1.00  0.00    -0.462 OA
BRANCH  16  17
ATOM     17  C   UNL     1     135.155 124.489 143.682  1.00  0.00     0.236 C 
BRANCH  17  18
ATOM     18  C   UNL     1     136.391 125.124 144.346  1.00  0.00     0.021 C 
ATOM     19  C   UNL     1     137.101 124.100 145.239  1.00  0.00     0.011 C 
ATOM     20  C   UNL     1     136.003 126.363 145.164  1.00  0.00     0.011 C 
ENDBRANCH  17  18
ENDBRANCH  16  17
ENDBRANCH  14  16
ENDBRANCH   6  14
TORSDOF 8
ENDMDL
MODEL 3
REMARK VINA RESULT:    -5.045      1.182      5.131
REMARK INTER + INTRA:          -8.095
REMARK INTER:                  -7.529
REMARK INTRA:                  -0.567
REMARK UNBOUND:                -0.691
REMARK SMILES CC(C)COC(=O)c1ccccc1C(=O)OCC(C)C
REMARK SMILES IDX 8 1 9 2 10 3 11 4 12 5 13 6 6 7 7 8 5 9 4 10 2 11 1 12 3 13
REMARK SMILES IDX 14 14 15 15 16 16 17 17 18 18 19 19 20 20
REMARK H PARENT
REMARK Flexibility Score: inf
ROOT
ATOM      1  C   UNL     1     136.208 124.032 138.706  1.00  0.00     0.074 A 
ATOM      2  C   UNL     1     137.323 124.278 137.884  1.00  0.00     0.016 A 
ATOM      3  C   UNL     1     138.620 124.120 138.374  1.00  0.00     0.001 A 
ATOM      4  C   UNL     1     138.825 123.714 139.690  1.00  0.00     0.001 A 
ATOM      5  C   UNL     1     137.734 123.486 140.530  1.00  0.00     0.016 A 
ATOM      6  C   UNL     1     136.420 123.663 140.064  1.00  0.00     0.074 A 
ENDROOT
BRANCH   1   7
ATOM      7  C   UNL     1     134.863 124.107 138.093  1.00  0.00     0.339 C 
ATOM      8  O   UNL     1     134.249 123.051 137.776  1.00  0.00    -0.246 OA
BRANCH   7   9
ATOM      9  O   UNL     1     134.302 125.360 137.813  1.00  0.00    -0.462 OA
BRANCH   9  10
ATOM     10  C   UNL     1     133.118 125.860 138.436  1.00  0.00     0.236 C 
BRANCH  10  11
ATOM     11  C   UNL     1     132.167 126.486 137.398  1.00  0.00     0.021 C 
ATOM     12  C   UNL     1     130.712 126.341 137.860  1.00  0.00     0.011 C 
ATOM     13  C   UNL     1     132.494 127.961 137.141  1.00  0.00     0.011 C 
ENDBRANCH  10  11
ENDBRANCH   9  10
ENDBRANCH   7   9
ENDBRANCH   1   7
BRANCH   6  14
ATOM     14  C   UNL     1     135.315 123.511 141.036  1.00  0.00     0.339 C 
ATOM     15  O   UNL     1     134.586 122.481 141.013  1.00  0.00    -0.246 OA
BRANCH  14  16
ATOM     16  O   UNL     1     135.051 124.544 141.944  1.00  0.00    -0.462 OA
BRANCH  16  17
ATOM     17  C   UNL     1     134.459 124.331 143.225  1.00  0.00     0.236 C 
BRANCH  17  18
ATOM     18  C   UNL     1     132.937 124.564 143.180  1.00  0.00     0.021 C 
ATOM     19  C   UNL     1     132.202 123.238 142.957  1.00  0.00     0.011 C 
ATOM     20  C   UNL     1     132.565 125.570 142.083  1.00  0.00     0.011 C 
ENDBRANCH  17  18
ENDBRANCH  16  17
ENDBRANCH  14  16
ENDBRANCH   6  14
TORSDOF 8
ENDMDL
MODEL 4
REMARK VINA RESULT:    -4.918      1.182      1.799
REMARK INTER + INTRA:          -7.910
REMARK INTER:                  -7.361
REMARK INTRA:                  -0.549
REMARK UNBOUND:                -0.691
REMARK SMILES CC(C)COC(=O)c1ccccc1C(=O)OCC(C)C
REMARK SMILES IDX 8 1 9 2 10 3 11 4 12 5 13 6 6 7 7 8 5 9 4 10 2 11 1 12 3 13
REMARK SMILES IDX 14 14 15 15 16 16 17 17 18 18 19 19 20 20
REMARK H PARENT
REMARK Flexibility Score: inf
ROOT
ATOM      1  C   UNL     1     136.480 123.644 139.987  1.00  0.00     0.074 A 
ATOM      2  C   UNL     1     137.804 123.485 140.437  1.00  0.00     0.016 A 
ATOM      3  C   UNL     1     138.879 123.640 139.560  1.00  0.00     0.001 A 
ATOM      4  C   UNL     1     138.651 123.955 138.224  1.00  0.00     0.001 A 
ATOM      5  C   UNL     1     137.346 124.094 137.750  1.00  0.00     0.016 A 
ATOM      6  C   UNL     1     136.248 123.919 138.610  1.00  0.00     0.074 A 
ENDROOT
BRANCH   1   7
ATOM      7  C   UNL     1     135.394 123.581 140.990  1.00  0.00     0.339 C 
ATOM      8  O   UNL     1     134.674 122.549 141.085  1.00  0.00    -0.246 OA
BRANCH   7   9
ATOM      9  O   UNL     1     135.132 124.699 141.793  1.00  0.00    -0.462 OA
BRANCH   9  10
ATOM     10  C   UNL     1     134.629 124.622 143.127  1.00  0.00     0.236 C 
BRANCH  10  11
ATOM     11  C   UNL     1     133.092 124.717 143.147  1.00  0.00     0.021 C 
ATOM     12  C   UNL     1     132.604 125.624 142.010  1.00  0.00     0.011 C 
ATOM     13  C   UNL     1     132.434 123.336 143.039  1.00  0.00     0.011 C 
ENDBRANCH  10  11
ENDBRANCH   9  10
ENDBRANCH   7   9
ENDBRANCH   1   7
BRANCH   6  14
ATOM     14  C   UNL     1     134.892 123.973 138.021  1.00  0.00     0.339 C 
ATOM     15  O   UNL     1     134.273 122.907 137.753  1.00  0.00    -0.246 OA
BRANCH  14  16
ATOM     16  O   UNL     1     134.324 125.215 137.713  1.00  0.00    -0.462 OA
BRANCH  16  17
ATOM     17  C   UNL     1     133.330 125.846 138.520  1.00  0.00     0.236 C 
BRANCH  17  18
ATOM     18  C   UNL     1     132.164 126.368 137.658  1.00  0.00     0.021 C 
ATOM     19  C   UNL     1     132.586 127.632 136.901  1.00  0.00     0.011 C 
ATOM     20  C   UNL     1     130.926 126.650 138.518  1.00  0.00     0.011 C 
ENDBRANCH  17  18
ENDBRANCH  16  17
ENDBRANCH  14  16
ENDBRANCH   6  14
TORSDOF 8
ENDMDL
MODEL 5
REMARK VINA RESULT:    -4.635      3.067      6.179
REMARK INTER + INTRA:          -7.494
REMARK INTER:                  -7.163
REMARK INTRA:                  -0.331
REMARK UNBOUND:                -0.691
REMARK SMILES CC(C)COC(=O)c1ccccc1C(=O)OCC(C)C
REMARK SMILES IDX 8 1 9 2 10 3 11 4 12 5 13 6 6 7 7 8 5 9 4 10 2 11 1 12 3 13
REMARK SMILES IDX 14 14 15 15 16 16 17 17 18 18 19 19 20 20
REMARK H PARENT
REMARK Flexibility Score: inf
ROOT
ATOM      1  C   UNL     1     136.972 124.295 140.697  1.00  0.00     0.074 A 
ATOM      2  C   UNL     1     135.891 124.582 139.843  1.00  0.00     0.016 A 
ATOM      3  C   UNL     1     136.031 124.484 138.458  1.00  0.00     0.001 A 
ATOM      4  C   UNL     1     137.248 124.097 137.904  1.00  0.00     0.001 A 
ATOM      5  C   UNL     1     138.340 123.830 138.731  1.00  0.00     0.016 A 
ATOM      6  C   UNL     1     138.228 123.946 140.127  1.00  0.00     0.074 A 
ENDROOT
BRANCH   1   7
ATOM      7  C   UNL     1     136.726 124.307 142.157  1.00  0.00     0.339 C 
ATOM      8  O   UNL     1     137.541 123.752 142.943  1.00  0.00    -0.246 OA
BRANCH   7   9
ATOM      9  O   UNL     1     135.551 124.888 142.652  1.00  0.00    -0.462 OA
BRANCH   9  10
ATOM     10  C   UNL     1     134.676 124.248 143.582  1.00  0.00     0.236 C 
BRANCH  10  11
ATOM     11  C   UNL     1     133.318 123.922 142.933  1.00  0.00     0.021 C 
ATOM     12  C   UNL     1     132.769 125.157 142.209  1.00  0.00     0.011 C 
ATOM     13  C   UNL     1     133.420 122.742 141.959  1.00  0.00     0.011 C 
ENDBRANCH  10  11
ENDBRANCH   9  10
ENDBRANCH   7   9
ENDBRANCH   1   7
BRANCH   6  14
ATOM     14  C   UNL     1     139.451 123.755 140.937  1.00  0.00     0.339 C 
ATOM     15  O   UNL     1     139.854 122.592 141.215  1.00  0.00    -0.246 OA
BRANCH  14  16
ATOM     16  O   UNL     1     140.127 124.875 141.438  1.00  0.00    -0.462 OA
BRANCH  16  17
ATOM     17  C   UNL     1     140.891 124.857 142.643  1.00  0.00     0.236 C 
BRANCH  17  18
ATOM     18  C   UNL     1     142.146 125.742 142.518  1.00  0.00     0.021 C 
ATOM     19  C   UNL     1     143.389 124.874 142.289  1.00  0.00     0.011 C 
ATOM     20  C   UNL     1     142.330 126.617 143.765  1.00  0.00     0.011 C 
ENDBRANCH  17  18
ENDBRANCH  16  17
ENDBRANCH  14  16
ENDBRANCH   6  14
TORSDOF 8
ENDMDL
MODEL 6
REMARK VINA RESULT:    -4.605      1.128      5.991
REMARK INTER + INTRA:          -7.450
REMARK INTER:                  -7.567
REMARK INTRA:                   0.117
REMARK UNBOUND:                -0.691
REMARK SMILES CC(C)COC(=O)c1ccccc1C(=O)OCC(C)C
REMARK SMILES IDX 8 1 9 2 10 3 11 4 12 5 13 6 6 7 7 8 5 9 4 10 2 11 1 12 3 13
REMARK SMILES IDX 14 14 15 15 16 16 17 17 18 18 19 19 20 20
REMARK H PARENT
REMARK Flexibility Score: inf
ROOT
ATOM      1  C   UNL     1     135.223 124.559 139.013  1.00  0.00     0.074 A 
ATOM      2  C   UNL     1     136.019 124.636 137.855  1.00  0.00     0.016 A 
ATOM      3  C   UNL     1     137.147 123.826 137.710  1.00  0.00     0.001 A 
ATOM      4  C   UNL     1     137.497 122.929 138.715  1.00  0.00     0.001 A 
ATOM      5  C   UNL     1     136.735 122.852 139.881  1.00  0.00     0.016 A 
ATOM      6  C   UNL     1     135.609 123.675 140.059  1.00  0.00     0.074 A 
ENDROOT
BRANCH   1   7
ATOM      7  C   UNL     1     133.979 125.360 139.054  1.00  0.00     0.339 C 
ATOM      8  O   UNL     1     133.308 125.437 140.119  1.00  0.00    -0.246 OA
BRANCH   7   9
ATOM      9  O   UNL     1     133.522 125.983 137.885  1.00  0.00    -0.462 OA
BRANCH   9  10
ATOM     10  C   UNL     1     132.166 125.944 137.439  1.00  0.00     0.236 C 
BRANCH  10  11
ATOM     11  C   UNL     1     131.369 127.145 137.984  1.00  0.00     0.021 C 
ATOM     12  C   UNL     1     131.846 128.441 137.319  1.00  0.00     0.011 C 
ATOM     13  C   UNL     1     129.860 126.969 137.774  1.00  0.00     0.011 C 
ENDBRANCH  10  11
ENDBRANCH   9  10
ENDBRANCH   7   9
ENDBRANCH   1   7
BRANCH   6  14
ATOM     14  C   UNL     1     134.911 123.621 141.362  1.00  0.00     0.339 C 
ATOM     15  O   UNL     1     133.971 122.800 141.546  1.00  0.00    -0.246 OA
BRANCH  14  16
ATOM     16  O   UNL     1     135.266 124.526 142.371  1.00  0.00    -0.462 OA
BRANCH  16  17
ATOM     17  C   UNL     1     134.990 124.308 143.754  1.00  0.00     0.236 C 
BRANCH  17  18
ATOM     18  C   UNL     1     136.279 124.369 144.594  1.00  0.00     0.021 C 
ATOM     19  C   UNL     1     136.356 125.696 145.356  1.00  0.00     0.011 C 
ATOM     20  C   UNL     1     137.522 124.189 143.712  1.00  0.00     0.011 C 
ENDBRANCH  17  18
ENDBRANCH  16  17
ENDBRANCH  14  16
ENDBRANCH   6  14
TORSDOF 8
ENDMDL
MODEL 7
REMARK VINA RESULT:    -4.239      1.521      5.149
REMARK INTER + INTRA:          -6.913
REMARK INTER:                  -6.513
REMARK INTRA:                  -0.400
REMARK UNBOUND:                -0.691
REMARK SMILES CC(C)COC(=O)c1ccccc1C(=O)OCC(C)C
REMARK SMILES IDX 8 1 9 2 10 3 11 4 12 5 13 6 6 7 7 8 5 9 4 10 2 11 1 12 3 13
REMARK SMILES IDX 14 14 15 15 16 16 17 17 18 18 19 19 20 20
REMARK H PARENT
REMARK Flexibility Score: inf
ROOT
ATOM      1  C   UNL     1     134.607 124.583 142.456  1.00  0.00     0.074 A 
ATOM      2  C   UNL     1     134.938 124.930 143.779  1.00  0.00     0.016 A 
ATOM      3  C   UNL     1     136.230 124.732 144.267  1.00  0.00     0.001 A 
ATOM      4  C   UNL     1     137.212 124.187 143.444  1.00  0.00     0.001 A 
ATOM      5  C   UNL     1     136.901 123.814 142.136  1.00  0.00     0.016 A 
ATOM      6  C   UNL     1     135.599 123.982 141.632  1.00  0.00     0.074 A 
ENDROOT
BRANCH   1   7
ATOM      7  C   UNL     1     133.253 124.925 141.966  1.00  0.00     0.339 C 
ATOM      8  O   UNL     1     132.232 124.546 142.603  1.00  0.00    -0.246 OA
BRANCH   7   9
ATOM      9  O   UNL     1     133.113 125.622 140.759  1.00  0.00    -0.462 OA
BRANCH   9  10
ATOM     10  C   UNL     1     131.949 126.366 140.398  1.00  0.00     0.236 C 
BRANCH  10  11
ATOM     11  C   UNL     1     131.702 126.309 138.879  1.00  0.00     0.021 C 
ATOM     12  C   UNL     1     130.846 127.503 138.437  1.00  0.00     0.011 C 
ATOM     13  C   UNL     1     133.016 126.281 138.088  1.00  0.00     0.011 C 
ENDBRANCH  10  11
ENDBRANCH   9  10
ENDBRANCH   7   9
ENDBRANCH   1   7
BRANCH   6  14
ATOM     14  C   UNL     1     135.310 123.466 140.276  1.00  0.00     0.339 C 
ATOM     15  O   UNL     1     134.948 122.268 140.116  1.00  0.00    -0.246 OA
BRANCH  14  16
ATOM     16  O   UNL     1     135.495 124.302 139.167  1.00  0.00    -0.462 OA
BRANCH  16  17
ATOM     17  C   UNL     1     136.578 125.224 139.050  1.00  0.00     0.236 C 
BRANCH  17  18
ATOM     18  C   UNL     1     137.806 124.559 138.402  1.00  0.00     0.021 C 
ATOM     19  C   UNL     1     137.364 123.531 137.354  1.00  0.00     0.011 C 
ATOM     20  C   UNL     1     138.695 123.891 139.460  1.00  0.00     0.011 C 
ENDBRANCH  17  18
ENDBRANCH  16  17
ENDBRANCH  14  16
ENDBRANCH   6  14
TORSDOF 8
ENDMDL
MODEL 8
REMARK VINA RESULT:    -4.230      1.726      4.115
REMARK INTER + INTRA:          -6.899
REMARK INTER:                  -7.037
REMARK INTRA:                   0.138
REMARK UNBOUND:                -0.691
REMARK SMILES CC(C)COC(=O)c1ccccc1C(=O)OCC(C)C
REMARK SMILES IDX 8 1 9 2 10 3 11 4 12 5 13 6 6 7 7 8 5 9 4 10 2 11 1 12 3 13
REMARK SMILES IDX 14 14 15 15 16 16 17 17 18 18 19 19 20 20
REMARK H PARENT
REMARK Flexibility Score: inf
ROOT
ATOM      1  C   UNL     1     134.938 124.045 141.093  1.00  0.00     0.074 A 
ATOM      2  C   UNL     1     134.750 124.042 142.487  1.00  0.00     0.016 A 
ATOM      3  C   UNL     1     133.662 124.701 143.061  1.00  0.00     0.001 A 
ATOM      4  C   UNL     1     132.746 125.371 142.255  1.00  0.00     0.001 A 
ATOM      5  C   UNL     1     132.925 125.406 140.872  1.00  0.00     0.016 A 
ATOM      6  C   UNL     1     134.027 124.770 140.275  1.00  0.00     0.074 A 
ENDROOT
BRANCH   1   7
ATOM      7  C   UNL     1     136.045 123.233 140.539  1.00  0.00     0.339 C 
ATOM      8  O   UNL     1     135.801 122.152 139.936  1.00  0.00    -0.246 OA
BRANCH   7   9
ATOM      9  O   UNL     1     137.369 123.644 140.743  1.00  0.00    -0.462 OA
BRANCH   9  10
ATOM     10  C   UNL     1     138.447 123.324 139.862  1.00  0.00     0.236 C 
BRANCH  10  11
ATOM     11  C   UNL     1     138.488 124.289 138.662  1.00  0.00     0.021 C 
ATOM     12  C   UNL     1     137.898 123.612 137.419  1.00  0.00     0.011 C 
ATOM     13  C   UNL     1     137.742 125.596 138.955  1.00  0.00     0.011 C 
ENDBRANCH  10  11
ENDBRANCH   9  10
ENDBRANCH   7   9
ENDBRANCH   1   7
BRANCH   6  14
ATOM     14  C   UNL     1     134.217 124.939 138.817  1.00  0.00     0.339 C 
ATOM     15  O   UNL     1     134.825 124.057 138.149  1.00  0.00    -0.246 OA
BRANCH  14  16
ATOM     16  O   UNL     1     133.765 126.108 138.195  1.00  0.00    -0.462 OA
BRANCH  16  17
ATOM     17  C   UNL     1     132.589 126.165 137.388  1.00  0.00     0.236 C 
BRANCH  17  18
ATOM     18  C   UNL     1     131.597 127.214 137.925  1.00  0.00     0.021 C 
ATOM     19  C   UNL     1     130.159 126.815 137.574  1.00  0.00     0.011 C 
ATOM     20  C   UNL     1     131.912 128.608 137.369  1.00  0.00     0.011 C 
ENDBRANCH  17  18
ENDBRANCH  16  17
ENDBRANCH  14  16
ENDBRANCH   6  14
TORSDOF 8
ENDMDL
MODEL 9
REMARK VINA RESULT:    -4.214      1.717      6.006
REMARK INTER + INTRA:          -6.877
REMARK INTER:                  -7.037
REMARK INTRA:                   0.160
REMARK UNBOUND:                -0.691
REMARK SMILES CC(C)COC(=O)c1ccccc1C(=O)OCC(C)C
REMARK SMILES IDX 8 1 9 2 10 3 11 4 12 5 13 6 6 7 7 8 5 9 4 10 2 11 1 12 3 13
REMARK SMILES IDX 14 14 15 15 16 16 17 17 18 18 19 19 20 20
REMARK H PARENT
REMARK Flexibility Score: inf
ROOT
ATOM      1  C   UNL     1     134.035 124.737 140.286  1.00  0.00     0.074 A 
ATOM      2  C   UNL     1     132.930 125.378 140.875  1.00  0.00     0.016 A 
ATOM      3  C   UNL     1     132.749 125.359 142.259  1.00  0.00     0.001 A 
ATOM      4  C   UNL     1     133.666 124.702 143.075  1.00  0.00     0.001 A 
ATOM      5  C   UNL     1     134.757 124.040 142.511  1.00  0.00     0.016 A 
ATOM      6  C   UNL     1     134.946 124.027 141.118  1.00  0.00     0.074 A 
ENDROOT
BRANCH   1   7
ATOM      7  C   UNL     1     134.232 124.893 138.827  1.00  0.00     0.339 C 
ATOM      8  O   UNL     1     134.846 124.009 138.170  1.00  0.00    -0.246 OA
BRANCH   7   9
ATOM      9  O   UNL     1     133.781 126.059 138.193  1.00  0.00    -0.462 OA
BRANCH   9  10
ATOM     10  C   UNL     1     132.607 126.122 137.382  1.00  0.00     0.236 C 
BRANCH  10  11
ATOM     11  C   UNL     1     131.618 127.173 137.920  1.00  0.00     0.021 C 
ATOM     12  C   UNL     1     131.930 128.549 137.318  1.00  0.00     0.011 C 
ATOM     13  C   UNL     1     130.162 126.789 137.629  1.00  0.00     0.011 C 
ENDBRANCH  10  11
ENDBRANCH   9  10
ENDBRANCH   7   9
ENDBRANCH   1   7
BRANCH   6  14
ATOM     14  C   UNL     1     136.060 123.216 140.578  1.00  0.00     0.339 C 
ATOM     15  O   UNL     1     135.825 122.124 139.991  1.00  0.00    -0.246 OA
BRANCH  14  16
ATOM     16  O   UNL     1     137.379 123.644 140.773  1.00  0.00    -0.462 OA
BRANCH  16  17
ATOM     17  C   UNL     1     138.451 123.309 139.893  1.00  0.00     0.236 C 
BRANCH  17  18
ATOM     18  C   UNL     1     138.489 124.255 138.678  1.00  0.00     0.021 C 
ATOM     19  C   UNL     1     137.749 125.559 138.996  1.00  0.00     0.011 C 
ATOM     20  C   UNL     1     137.881 123.586 137.439  1.00  0.00     0.011 C 
ENDBRANCH  17  18
ENDBRANCH  16  17
ENDBRANCH  14  16
ENDBRANCH   6  14
TORSDOF 8
ENDMDL
