MODEL 1
REMARK VINA RESULT:    -4.161      0.000      0.000
REMARK INTER + INTRA:          -8.466
REMARK INTER:                  -7.323
REMARK INTRA:                  -1.143
REMARK UNBOUND:                -1.143
REMARK SMILES CCCCCCCCCCCCCCC(=O)[O-]
REMARK SMILES IDX 9 1 10 2 11 3 12 4 13 5 14 6 15 7 16 8 17 9 8 10 7 11 6 12
REMARK SMILES IDX 5 13 4 14 3 15 2 16 1 17
REMARK H PARENT
REMARK Flexibility Score: inf
ROOT
ATOM      1  C   UNL     1      44.128  26.770   3.007  1.00  0.00     0.000 C 
ENDROOT
BRANCH   1   2
ATOM      2  C   UNL     1      45.048  27.640   2.125  1.00  0.00     0.000 C 
BRANCH   2   3
ATOM      3  C   UNL     1      44.829  29.143   2.358  1.00  0.00     0.000 C 
BRANCH   3   4
ATOM      4  C   UNL     1      45.292  30.008   1.174  1.00  0.00     0.000 C 
BRANCH   4   5
ATOM      5  C   UNL     1      46.172  29.249   0.159  1.00  0.00     0.006 C 
BRANCH   5   6
ATOM      6  C   UNL     1      45.557  29.234  -1.246  1.00  0.00     0.053 C 
BRANCH   6   7
ATOM      7  C   UNL     1      45.647  27.865  -1.842  1.00  0.00     0.041 C 
ATOM      8  O   UNL     1      46.374  27.660  -2.850  1.00  0.00    -0.550 OA
ATOM      9  O   UNL     1      44.891  26.826  -1.316  1.00  0.00    -0.550 OA
ENDBRANCH   6   7
ENDBRANCH   5   6
ENDBRANCH   4   5
ENDBRANCH   3   4
ENDBRANCH   2   3
ENDBRANCH   1   2
BRANCH   1  10
ATOM     10  C   UNL     1      44.875  26.003   4.114  1.00  0.00     0.000 C 
BRANCH  10  11
ATOM     11  C   UNL     1      46.404  26.179   4.102  1.00  0.00    -0.000 C 
BRANCH  11  12
ATOM     12  C   UNL     1      46.929  26.897   5.354  1.00  0.00    -0.000 C 
BRANCH  12  13
ATOM     13  C   UNL     1      46.002  28.056   5.749  1.00  0.00    -0.000 C 
BRANCH  13  14
ATOM     14  C   UNL     1      45.799  28.161   7.269  1.00  0.00    -0.000 C 
BRANCH  14  15
ATOM     15  C   UNL     1      45.806  26.791   7.963  1.00  0.00    -0.000 C 
BRANCH  15  16
ATOM     16  C   UNL     1      45.185  26.882   9.361  1.00  0.00    -0.003 C 
ATOM     17  C   UNL     1      44.842  28.325   9.721  1.00  0.00     0.004 C 
ENDBRANCH  15  16
ENDBRANCH  14  15
ENDBRANCH  13  14
ENDBRANCH  12  13
ENDBRANCH  11  12
ENDBRANCH  10  11
ENDBRANCH   1  10
TORSDOF 13
ENDMDL
MODEL 2
REMARK VINA RESULT:    -4.111      1.495      2.134
REMARK INTER + INTRA:          -8.379
REMARK INTER:                  -7.628
REMARK INTRA:                  -0.751
REMARK UNBOUND:                -1.143
REMARK SMILES CCCCCCCCCCCCCCC(=O)[O-]
REMARK SMILES IDX 9 1 10 2 11 3 12 4 13 5 14 6 15 7 16 8 17 9 8 10 7 11 6 12
REMARK SMILES IDX 5 13 4 14 3 15 2 16 1 17
REMARK H PARENT
REMARK Flexibility Score: inf
ROOT
ATOM      1  C   UNL     1      44.472  28.383   2.987  1.00  0.00     0.000 C 
ENDROOT
BRANCH   1   2
ATOM      2  C   UNL     1      45.379  28.888   1.845  1.00  0.00     0.000 C 
BRANCH   2   3
ATOM      3  C   UNL     1      45.486  27.874   0.695  1.00  0.00     0.000 C 
BRANCH   3   4
ATOM      4  C   UNL     1      45.607  28.543  -0.685  1.00  0.00     0.000 C 
BRANCH   4   5
ATOM      5  C   UNL     1      45.220  27.617  -1.858  1.00  0.00     0.006 C 
BRANCH   5   6
ATOM      6  C   UNL     1      44.495  28.373  -2.979  1.00  0.00     0.053 C 
BRANCH   6   7
ATOM      7  C   UNL     1      43.915  27.412  -3.968  1.00  0.00     0.041 C 
ATOM      8  O   UNL     1      43.327  26.372  -3.570  1.00  0.00    -0.550 OA
ATOM      9  O   UNL     1      44.068  27.639  -5.330  1.00  0.00    -0.550 OA
ENDBRANCH   6   7
ENDBRANCH   5   6
ENDBRANCH   4   5
ENDBRANCH   3   4
ENDBRANCH   2   3
ENDBRANCH   1   2
BRANCH   1  10
ATOM     10  C   UNL     1      44.264  26.857   2.986  1.00  0.00     0.000 C 
BRANCH  10  11
ATOM     11  C   UNL     1      44.981  26.108   4.123  1.00  0.00    -0.000 C 
BRANCH  11  12
ATOM     12  C   UNL     1      46.501  26.330   4.115  1.00  0.00    -0.000 C 
BRANCH  12  13
ATOM     13  C   UNL     1      47.050  26.405   5.547  1.00  0.00    -0.000 C 
BRANCH  13  14
ATOM     14  C   UNL     1      45.995  26.874   6.562  1.00  0.00    -0.000 C 
BRANCH  14  15
ATOM     15  C   UNL     1      46.433  26.649   8.017  1.00  0.00    -0.000 C 
BRANCH  15  16
ATOM     16  C   UNL     1      45.245  26.794   8.975  1.00  0.00    -0.003 C 
ATOM     17  C   UNL     1      45.022  28.252   9.363  1.00  0.00     0.004 C 
ENDBRANCH  15  16
ENDBRANCH  14  15
ENDBRANCH  13  14
ENDBRANCH  12  13
ENDBRANCH  11  12
ENDBRANCH  10  11
ENDBRANCH   1  10
TORSDOF 13
ENDMDL
MODEL 3
REMARK VINA RESULT:    -4.093      3.830      8.428
REMARK INTER + INTRA:          -8.347
REMARK INTER:                  -7.448
REMARK INTRA:                  -0.899
REMARK UNBOUND:                -1.143
REMARK SMILES CCCCCCCCCCCCCCC(=O)[O-]
REMARK SMILES IDX 9 1 10 2 11 3 12 4 13 5 14 6 15 7 16 8 17 9 8 10 7 11 6 12
REMARK SMILES IDX 5 13 4 14 3 15 2 16 1 17
REMARK H PARENT
REMARK Flexibility Score: inf
ROOT
ATOM      1  C   UNL     1      44.129  27.102   2.694  1.00  0.00     0.000 C 
ENDROOT
BRANCH   1   2
ATOM      2  C   UNL     1      44.749  26.260   3.829  1.00  0.00     0.000 C 
BRANCH   2   3
ATOM      3  C   UNL     1      46.283  26.207   3.746  1.00  0.00     0.000 C 
BRANCH   3   4
ATOM      4  C   UNL     1      46.973  26.921   4.920  1.00  0.00     0.000 C 
BRANCH   4   5
ATOM      5  C   UNL     1      46.007  27.322   6.055  1.00  0.00     0.006 C 
BRANCH   5   6
ATOM      6  C   UNL     1      46.368  26.655   7.388  1.00  0.00     0.053 C 
BRANCH   6   7
ATOM      7  C   UNL     1      45.465  27.139   8.478  1.00  0.00     0.041 C 
ATOM      8  O   UNL     1      45.041  28.325   8.468  1.00  0.00    -0.550 OA
ATOM      9  O   UNL     1      45.131  26.297   9.530  1.00  0.00    -0.550 OA
ENDBRANCH   6   7
ENDBRANCH   5   6
ENDBRANCH   4   5
ENDBRANCH   3   4
ENDBRANCH   2   3
ENDBRANCH   1   2
BRANCH   1  10
ATOM     10  C   UNL     1      44.475  28.601   2.775  1.00  0.00     0.000 C 
BRANCH  10  11
ATOM     11  C   UNL     1      45.340  29.127   1.617  1.00  0.00    -0.000 C 
BRANCH  11  12
ATOM     12  C   UNL     1      45.586  28.069   0.531  1.00  0.00    -0.000 C 
BRANCH  12  13
ATOM     13  C   UNL     1      45.606  28.711  -0.864  1.00  0.00    -0.000 C 
BRANCH  13  14
ATOM     14  C   UNL     1      45.466  27.679  -1.994  1.00  0.00    -0.000 C 
BRANCH  14  15
ATOM     15  C   UNL     1      44.736  28.242  -3.223  1.00  0.00    -0.000 C 
BRANCH  15  16
ATOM     16  C   UNL     1      43.646  27.276  -3.703  1.00  0.00    -0.003 C 
ATOM     17  C   UNL     1      42.502  28.026  -4.378  1.00  0.00     0.004 C 
ENDBRANCH  15  16
ENDBRANCH  14  15
ENDBRANCH  13  14
ENDBRANCH  12  13
ENDBRANCH  11  12
ENDBRANCH  10  11
ENDBRANCH   1  10
TORSDOF 13
ENDMDL
MODEL 4
REMARK VINA RESULT:    -4.020      4.128      8.369
REMARK INTER + INTRA:          -8.218
REMARK INTER:                  -7.336
REMARK INTRA:                  -0.882
REMARK UNBOUND:                -1.143
REMARK SMILES CCCCCCCCCCCCCCC(=O)[O-]
REMARK SMILES IDX 9 1 10 2 11 3 12 4 13 5 14 6 15 7 16 8 17 9 8 10 7 11 6 12
REMARK SMILES IDX 5 13 4 14 3 15 2 16 1 17
REMARK H PARENT
REMARK Flexibility Score: inf
ROOT
ATOM      1  C   UNL     1      44.889  25.999   3.972  1.00  0.00     0.000 C 
ENDROOT
BRANCH   1   2
ATOM      2  C   UNL     1      46.432  26.002   3.945  1.00  0.00     0.000 C 
BRANCH   2   3
ATOM      3  C   UNL     1      47.038  26.496   5.268  1.00  0.00     0.000 C 
BRANCH   3   4
ATOM      4  C   UNL     1      45.974  26.830   6.327  1.00  0.00     0.000 C 
BRANCH   4   5
ATOM      5  C   UNL     1      46.467  27.812   7.410  1.00  0.00     0.006 C 
BRANCH   5   6
ATOM      6  C   UNL     1      45.307  28.512   8.130  1.00  0.00     0.053 C 
BRANCH   6   7
ATOM      7  C   UNL     1      45.067  27.885   9.468  1.00  0.00     0.041 C 
ATOM      8  O   UNL     1      44.928  28.608  10.489  1.00  0.00    -0.550 OA
ATOM      9  O   UNL     1      45.045  26.503   9.595  1.00  0.00    -0.550 OA
ENDBRANCH   6   7
ENDBRANCH   5   6
ENDBRANCH   4   5
ENDBRANCH   3   4
ENDBRANCH   2   3
ENDBRANCH   1   2
BRANCH   1  10
ATOM     10  C   UNL     1      44.248  26.930   2.926  1.00  0.00     0.000 C 
BRANCH  10  11
ATOM     11  C   UNL     1      44.649  28.411   3.049  1.00  0.00    -0.000 C 
BRANCH  11  12
ATOM     12  C   UNL     1      45.549  28.881   1.895  1.00  0.00    -0.000 C 
BRANCH  12  13
ATOM     13  C   UNL     1      45.469  27.908   0.709  1.00  0.00    -0.000 C 
BRANCH  13  14
ATOM     14  C   UNL     1      45.413  28.629  -0.646  1.00  0.00    -0.000 C 
BRANCH  14  15
ATOM     15  C   UNL     1      45.466  27.659  -1.836  1.00  0.00    -0.000 C 
BRANCH  15  16
ATOM     16  C   UNL     1      44.585  28.154  -2.988  1.00  0.00    -0.003 C 
ATOM     17  C   UNL     1      43.863  26.995  -3.669  1.00  0.00     0.004 C 
ENDBRANCH  15  16
ENDBRANCH  14  15
ENDBRANCH  13  14
ENDBRANCH  12  13
ENDBRANCH  11  12
ENDBRANCH  10  11
ENDBRANCH   1  10
TORSDOF 13
ENDMDL
MODEL 5
REMARK VINA RESULT:    -3.621      3.495      9.207
REMARK INTER + INTRA:          -7.516
REMARK INTER:                  -6.474
REMARK INTRA:                  -1.042
REMARK UNBOUND:                -1.143
REMARK SMILES CCCCCCCCCCCCCCC(=O)[O-]
REMARK SMILES IDX 9 1 10 2 11 3 12 4 13 5 14 6 15 7 16 8 17 9 8 10 7 11 6 12
REMARK SMILES IDX 5 13 4 14 3 15 2 16 1 17
REMARK H PARENT
REMARK Flexibility Score: inf
ROOT
ATOM      1  C   UNL     1      45.243  27.978  -1.868  1.00  0.00     0.000 C 
ENDROOT
BRANCH   1   2
ATOM      2  C   UNL     1      45.440  29.269  -1.045  1.00  0.00     0.000 C 
BRANCH   2   3
ATOM      3  C   UNL     1      46.201  29.014   0.265  1.00  0.00     0.000 C 
BRANCH   3   4
ATOM      4  C   UNL     1      45.624  27.842   1.077  1.00  0.00     0.000 C 
BRANCH   4   5
ATOM      5  C   UNL     1      44.750  28.284   2.269  1.00  0.00     0.006 C 
BRANCH   5   6
ATOM      6  C   UNL     1      44.106  27.094   2.991  1.00  0.00     0.053 C 
BRANCH   6   7
ATOM      7  C   UNL     1      45.094  26.439   3.904  1.00  0.00     0.041 C 
ATOM      8  O   UNL     1      45.362  25.215   3.774  1.00  0.00    -0.550 OA
ATOM      9  O   UNL     1      45.682  27.167   4.930  1.00  0.00    -0.550 OA
ENDBRANCH   6   7
ENDBRANCH   5   6
ENDBRANCH   4   5
ENDBRANCH   3   4
ENDBRANCH   2   3
ENDBRANCH   1   2
BRANCH   1  10
ATOM     10  C   UNL     1      46.443  27.628  -2.769  1.00  0.00     0.000 C 
BRANCH  10  11
ATOM     11  C   UNL     1      46.489  28.390  -4.106  1.00  0.00    -0.000 C 
BRANCH  11  12
ATOM     12  C   UNL     1      46.146  27.498  -5.309  1.00  0.00    -0.000 C 
BRANCH  12  13
ATOM     13  C   UNL     1      45.649  28.343  -6.491  1.00  0.00    -0.000 C 
BRANCH  13  14
ATOM     14  C   UNL     1      44.146  28.162  -6.758  1.00  0.00    -0.000 C 
BRANCH  14  15
ATOM     15  C   UNL     1      43.297  29.286  -6.147  1.00  0.00    -0.000 C 
BRANCH  15  16
ATOM     16  C   UNL     1      42.073  28.715  -5.421  1.00  0.00    -0.003 C 
ATOM     17  C   UNL     1      42.488  27.847  -4.237  1.00  0.00     0.004 C 
ENDBRANCH  15  16
ENDBRANCH  14  15
ENDBRANCH  13  14
ENDBRANCH  12  13
ENDBRANCH  11  12
ENDBRANCH  10  11
ENDBRANCH   1  10
TORSDOF 13
ENDMDL
MODEL 6
REMARK VINA RESULT:    -3.483      1.374      2.838
REMARK INTER + INTRA:          -7.273
REMARK INTER:                  -6.058
REMARK INTRA:                  -1.215
REMARK UNBOUND:                -1.143
REMARK SMILES CCCCCCCCCCCCCCC(=O)[O-]
REMARK SMILES IDX 9 1 10 2 11 3 12 4 13 5 14 6 15 7 16 8 17 9 8 10 7 11 6 12
REMARK SMILES IDX 5 13 4 14 3 15 2 16 1 17
REMARK H PARENT
REMARK Flexibility Score: inf
ROOT
ATOM      1  C   UNL     1      46.276  27.885   5.379  1.00  0.00     0.000 C 
ENDROOT
BRANCH   1   2
ATOM      2  C   UNL     1      45.669  26.822   4.440  1.00  0.00     0.000 C 
BRANCH   2   3
ATOM      3  C   UNL     1      46.641  26.406   3.325  1.00  0.00     0.000 C 
BRANCH   3   4
ATOM      4  C   UNL     1      46.933  27.540   2.328  1.00  0.00     0.000 C 
BRANCH   4   5
ATOM      5  C   UNL     1      45.750  27.859   1.389  1.00  0.00     0.006 C 
BRANCH   5   6
ATOM      6  C   UNL     1      46.183  28.684   0.170  1.00  0.00     0.053 C 
BRANCH   6   7
ATOM      7  C   UNL     1      45.459  28.227  -1.056  1.00  0.00     0.041 C 
ATOM      8  O   UNL     1      45.283  26.997  -1.265  1.00  0.00    -0.550 OA
ATOM      9  O   UNL     1      45.023  29.154  -1.994  1.00  0.00    -0.550 OA
ENDBRANCH   6   7
ENDBRANCH   5   6
ENDBRANCH   4   5
ENDBRANCH   3   4
ENDBRANCH   2   3
ENDBRANCH   1   2
BRANCH   1  10
ATOM     10  C   UNL     1      45.621  29.273   5.249  1.00  0.00     0.000 C 
BRANCH  10  11
ATOM     11  C   UNL     1      45.542  30.074   6.561  1.00  0.00    -0.000 C 
BRANCH  11  12
ATOM     12  C   UNL     1      46.801  29.921   7.428  1.00  0.00    -0.000 C 
BRANCH  12  13
ATOM     13  C   UNL     1      46.427  29.727   8.905  1.00  0.00    -0.000 C 
BRANCH  13  14
ATOM     14  C   UNL     1      45.022  29.132   9.087  1.00  0.00    -0.000 C 
BRANCH  14  15
ATOM     15  C   UNL     1      45.038  27.799   9.848  1.00  0.00    -0.000 C 
BRANCH  15  16
ATOM     16  C   UNL     1      45.317  26.628   8.899  1.00  0.00    -0.003 C 
ATOM     17  C   UNL     1      46.788  26.225   8.936  1.00  0.00     0.004 C 
ENDBRANCH  15  16
ENDBRANCH  14  15
ENDBRANCH  13  14
ENDBRANCH  12  13
ENDBRANCH  11  12
ENDBRANCH  10  11
ENDBRANCH   1  10
TORSDOF 13
ENDMDL
MODEL 7
REMARK VINA RESULT:    -3.363      2.516      4.781
REMARK INTER + INTRA:          -7.061
REMARK INTER:                  -5.883
REMARK INTRA:                  -1.178
REMARK UNBOUND:                -1.143
REMARK SMILES CCCCCCCCCCCCCCC(=O)[O-]
REMARK SMILES IDX 9 1 10 2 11 3 12 4 13 5 14 6 15 7 16 8 17 9 8 10 7 11 6 12
REMARK SMILES IDX 5 13 4 14 3 15 2 16 1 17
REMARK H PARENT
REMARK Flexibility Score: inf
ROOT
ATOM      1  C   UNL     1      45.445  27.972  -1.032  1.00  0.00     0.000 C 
ENDROOT
BRANCH   1   2
ATOM      2  C   UNL     1      46.336  27.586  -2.231  1.00  0.00     0.000 C 
BRANCH   2   3
ATOM      3  C   UNL     1      46.359  28.675  -3.315  1.00  0.00     0.000 C 
BRANCH   3   4
ATOM      4  C   UNL     1      46.357  28.103  -4.742  1.00  0.00     0.000 C 
BRANCH   4   5
ATOM      5  C   UNL     1      44.986  28.193  -5.444  1.00  0.00     0.006 C 
BRANCH   5   6
ATOM      6  C   UNL     1      43.912  28.816  -4.543  1.00  0.00     0.053 C 
BRANCH   6   7
ATOM      7  C   UNL     1      42.875  27.800  -4.185  1.00  0.00     0.041 C 
ATOM      8  O   UNL     1      43.220  26.666  -3.760  1.00  0.00    -0.550 OA
ATOM      9  O   UNL     1      41.528  28.086  -4.368  1.00  0.00    -0.550 OA
ENDBRANCH   6   7
ENDBRANCH   5   6
ENDBRANCH   4   5
ENDBRANCH   3   4
ENDBRANCH   2   3
ENDBRANCH   1   2
BRANCH   1  10
ATOM     10  C   UNL     1      46.238  28.417   0.212  1.00  0.00     0.000 C 
BRANCH  10  11
ATOM     11  C   UNL     1      45.588  29.555   1.018  1.00  0.00    -0.000 C 
BRANCH  11  12
ATOM     12  C   UNL     1      46.520  30.125   2.099  1.00  0.00    -0.000 C 
BRANCH  12  13
ATOM     13  C   UNL     1      46.836  29.063   3.163  1.00  0.00    -0.000 C 
BRANCH  13  14
ATOM     14  C   UNL     1      45.607  28.685   4.005  1.00  0.00    -0.000 C 
BRANCH  14  15
ATOM     15  C   UNL     1      45.688  27.256   4.561  1.00  0.00    -0.000 C 
BRANCH  15  16
ATOM     16  C   UNL     1      44.900  26.279   3.681  1.00  0.00    -0.003 C 
ATOM     17  C   UNL     1      43.815  27.003   2.887  1.00  0.00     0.004 C 
ENDBRANCH  15  16
ENDBRANCH  14  15
ENDBRANCH  13  14
ENDBRANCH  12  13
ENDBRANCH  11  12
ENDBRANCH  10  11
ENDBRANCH   1  10
TORSDOF 13
ENDMDL
MODEL 8
REMARK VINA RESULT:    -3.298      3.504      9.191
REMARK INTER + INTRA:          -6.947
REMARK INTER:                  -5.679
REMARK INTRA:                  -1.268
REMARK UNBOUND:                -1.143
REMARK SMILES CCCCCCCCCCCCCCC(=O)[O-]
REMARK SMILES IDX 9 1 10 2 11 3 12 4 13 5 14 6 15 7 16 8 17 9 8 10 7 11 6 12
REMARK SMILES IDX 5 13 4 14 3 15 2 16 1 17
REMARK H PARENT
REMARK Flexibility Score: inf
ROOT
ATOM      1  C   UNL     1      44.863  29.091  -2.198  1.00  0.00     0.000 C 
ENDROOT
BRANCH   1   2
ATOM      2  C   UNL     1      44.912  29.955  -0.920  1.00  0.00     0.000 C 
BRANCH   2   3
ATOM      3  C   UNL     1      46.123  29.618  -0.035  1.00  0.00     0.000 C 
BRANCH   3   4
ATOM      4  C   UNL     1      45.723  29.117   1.364  1.00  0.00     0.000 C 
BRANCH   4   5
ATOM      5  C   UNL     1      45.201  27.665   1.376  1.00  0.00     0.006 C 
BRANCH   5   6
ATOM      6  C   UNL     1      44.366  27.358   2.626  1.00  0.00     0.053 C 
BRANCH   6   7
ATOM      7  C   UNL     1      45.198  26.655   3.651  1.00  0.00     0.041 C 
ATOM      8  O   UNL     1      45.121  25.405   3.779  1.00  0.00    -0.550 OA
ATOM      9  O   UNL     1      46.021  27.385   4.499  1.00  0.00    -0.550 OA
ENDBRANCH   6   7
ENDBRANCH   5   6
ENDBRANCH   4   5
ENDBRANCH   3   4
ENDBRANCH   2   3
ENDBRANCH   1   2
BRANCH   1  10
ATOM     10  C   UNL     1      43.966  29.675  -3.306  1.00  0.00     0.000 C 
BRANCH  10  11
ATOM     11  C   UNL     1      42.800  28.768  -3.737  1.00  0.00    -0.000 C 
BRANCH  11  12
ATOM     12  C   UNL     1      43.236  27.666  -4.716  1.00  0.00    -0.000 C 
BRANCH  12  13
ATOM     13  C   UNL     1      43.497  28.248  -6.113  1.00  0.00    -0.000 C 
BRANCH  13  14
ATOM     14  C   UNL     1      44.984  28.210  -6.502  1.00  0.00    -0.000 C 
BRANCH  14  15
ATOM     15  C   UNL     1      45.818  27.325  -5.565  1.00  0.00    -0.000 C 
BRANCH  15  16
ATOM     16  C   UNL     1      47.035  28.088  -5.029  1.00  0.00    -0.003 C 
ATOM     17  C   UNL     1      47.035  29.536  -5.510  1.00  0.00     0.004 C 
ENDBRANCH  15  16
ENDBRANCH  14  15
ENDBRANCH  13  14
ENDBRANCH  12  13
ENDBRANCH  11  12
ENDBRANCH  10  11
ENDBRANCH   1  10
TORSDOF 13
ENDMDL
MODEL 9
REMARK VINA RESULT:    -3.268      3.289      8.228
REMARK INTER + INTRA:          -6.895
REMARK INTER:                  -5.893
REMARK INTRA:                  -1.002
REMARK UNBOUND:                -1.143
REMARK SMILES CCCCCCCCCCCCCCC(=O)[O-]
REMARK SMILES IDX 9 1 10 2 11 3 12 4 13 5 14 6 15 7 16 8 17 9 8 10 7 11 6 12
REMARK SMILES IDX 5 13 4 14 3 15 2 16 1 17
REMARK H PARENT
REMARK Flexibility Score: inf
ROOT
ATOM      1  C   UNL     1      45.462  27.991   0.812  1.00  0.00     0.000 C 
ENDROOT
BRANCH   1   2
ATOM      2  C   UNL     1      45.067  29.023   1.889  1.00  0.00     0.000 C 
BRANCH   2   3
ATOM      3  C   UNL     1      44.331  28.377   3.073  1.00  0.00     0.000 C 
BRANCH   3   4
ATOM      4  C   UNL     1      44.254  26.844   2.968  1.00  0.00     0.000 C 
BRANCH   4   5
ATOM      5  C   UNL     1      44.819  26.110   4.202  1.00  0.00     0.006 C 
BRANCH   5   6
ATOM      6  C   UNL     1      46.281  26.483   4.481  1.00  0.00     0.053 C 
BRANCH   6   7
ATOM      7  C   UNL     1      46.391  27.252   5.759  1.00  0.00     0.041 C 
ATOM      8  O   UNL     1      46.982  28.363   5.781  1.00  0.00    -0.550 OA
ATOM      9  O   UNL     1      45.883  26.719   6.937  1.00  0.00    -0.550 OA
ENDBRANCH   6   7
ENDBRANCH   5   6
ENDBRANCH   4   5
ENDBRANCH   3   4
ENDBRANCH   2   3
ENDBRANCH   1   2
BRANCH   1  10
ATOM     10  C   UNL     1      46.904  28.156   0.294  1.00  0.00     0.000 C 
BRANCH  10  11
ATOM     11  C   UNL     1      47.028  28.305  -1.232  1.00  0.00    -0.000 C 
BRANCH  11  12
ATOM     12  C   UNL     1      45.742  28.837  -1.884  1.00  0.00    -0.000 C 
BRANCH  12  13
ATOM     13  C   UNL     1      45.993  29.227  -3.348  1.00  0.00    -0.000 C 
BRANCH  13  14
ATOM     14  C   UNL     1      45.258  28.311  -4.339  1.00  0.00    -0.000 C 
BRANCH  14  15
ATOM     15  C   UNL     1      44.517  27.159  -3.644  1.00  0.00    -0.000 C 
BRANCH  15  16
ATOM     16  C   UNL     1      43.048  27.109  -4.080  1.00  0.00    -0.003 C 
ATOM     17  C   UNL     1      42.439  28.507  -4.134  1.00  0.00     0.004 C 
ENDBRANCH  15  16
ENDBRANCH  14  15
ENDBRANCH  13  14
ENDBRANCH  12  13
ENDBRANCH  11  12
ENDBRANCH  10  11
ENDBRANCH   1  10
TORSDOF 13
ENDMDL
