MODEL 1
REMARK VINA RESULT:    -3.558      0.000      0.000
REMARK INTER + INTRA:          -8.329
REMARK INTER:                  -5.430
REMARK INTRA:                  -2.898
REMARK UNBOUND:                -2.898
REMARK SMILES CC(=O)CCC=C(C)CCC=C(C)CCC=C(C)C
REMARK SMILES IDX 10 1 11 2 12 3 13 4 14 5 15 6 16 7 18 8 17 9 19 10 9 11 7 12
REMARK SMILES IDX 6 13 8 14 5 15 4 16 2 17 3 18 1 19
REMARK H PARENT
REMARK Flexibility Score: inf
ROOT
ATOM      1  C   UNL     1      23.568  36.925  89.281  1.00  0.00     0.032 C 
ENDROOT
BRANCH   1   2
ATOM      2  C   UNL     1      23.772  35.951  88.149  1.00  0.00    -0.028 C 
ATOM      3  C   UNL     1      23.458  36.204  86.857  1.00  0.00    -0.077 C 
ATOM      4  C   UNL     1      22.931  37.549  86.414  1.00  0.00     0.039 C 
BRANCH   3   5
ATOM      5  C   UNL     1      23.662  35.115  85.826  1.00  0.00     0.034 C 
BRANCH   5   6
ATOM      6  C   UNL     1      22.394  34.917  84.986  1.00  0.00     0.032 C 
BRANCH   6   7
ATOM      7  C   UNL     1      21.266  34.359  85.819  1.00  0.00    -0.028 C 
ATOM      8  C   UNL     1      19.716  36.179  85.091  1.00  0.00     0.039 C 
ATOM      9  C   UNL     1      20.041  34.929  85.871  1.00  0.00    -0.080 C 
ATOM     10  C   UNL     1      18.960  34.318  86.723  1.00  0.00     0.039 C 
ENDBRANCH   6   7
ENDBRANCH   5   6
ENDBRANCH   3   5
ENDBRANCH   1   2
BRANCH   1  11
ATOM     11  C   UNL     1      22.646  36.325  90.350  1.00  0.00     0.034 C 
BRANCH  11  12
ATOM     12  C   UNL     1      21.368  35.809  89.721  1.00  0.00    -0.077 C 
ATOM     13  C   UNL     1      21.007  34.506  89.748  1.00  0.00    -0.028 C 
ATOM     14  C   UNL     1      20.418  36.802  89.102  1.00  0.00     0.039 C 
BRANCH  13  15
ATOM     15  C   UNL     1      21.846  33.388  90.318  1.00  0.00     0.035 C 
BRANCH  15  16
ATOM     16  C   UNL     1      22.619  32.639  89.225  1.00  0.00     0.079 C 
BRANCH  16  17
ATOM     17  C   UNL     1      24.011  32.281  89.678  1.00  0.00     0.130 C 
ATOM     18  O   UNL     1      24.468  31.181  89.411  1.00  0.00    -0.300 OA
ATOM     19  C   UNL     1      24.832  33.243  90.483  1.00  0.00     0.087 C 
ENDBRANCH  16  17
ENDBRANCH  15  16
ENDBRANCH  13  15
ENDBRANCH  11  12
ENDBRANCH   1  11
TORSDOF 9
ENDMDL
MODEL 2
REMARK VINA RESULT:    -3.438     10.335     12.734
REMARK INTER + INTRA:          -8.145
REMARK INTER:                  -6.581
REMARK INTRA:                  -1.564
REMARK UNBOUND:                -2.898
REMARK SMILES CC(=O)CCC=C(C)CCC=C(C)CCC=C(C)C
REMARK SMILES IDX 10 1 11 2 12 3 13 4 14 5 15 6 16 7 18 8 17 9 19 10 9 11 7 12
REMARK SMILES IDX 6 13 8 14 5 15 4 16 2 17 3 18 1 19
REMARK H PARENT
REMARK Flexibility Score: inf
ROOT
ATOM      1  C   UNL     1      28.630  45.670  87.044  1.00  0.00     0.032 C 
ENDROOT
BRANCH   1   2
ATOM      2  C   UNL     1      28.960  44.856  85.819  1.00  0.00    -0.028 C 
ATOM      3  C   UNL     1      29.272  45.383  84.613  1.00  0.00    -0.077 C 
ATOM      4  C   UNL     1      29.392  46.875  84.402  1.00  0.00     0.039 C 
BRANCH   3   5
ATOM      5  C   UNL     1      29.527  44.452  83.448  1.00  0.00     0.034 C 
BRANCH   5   6
ATOM      6  C   UNL     1      28.594  44.776  82.275  1.00  0.00     0.032 C 
BRANCH   6   7
ATOM      7  C   UNL     1      29.300  44.611  80.951  1.00  0.00    -0.028 C 
ATOM      8  C   UNL     1      29.446  47.083  80.622  1.00  0.00     0.039 C 
ATOM      9  C   UNL     1      29.692  45.658  80.192  1.00  0.00    -0.080 C 
ATOM     10  C   UNL     1      30.393  45.420  78.880  1.00  0.00     0.039 C 
ENDBRANCH   6   7
ENDBRANCH   5   6
ENDBRANCH   3   5
ENDBRANCH   1   2
BRANCH   1  11
ATOM     11  C   UNL     1      28.249  44.756  88.214  1.00  0.00     0.034 C 
BRANCH  11  12
ATOM     12  C   UNL     1      27.433  45.515  89.240  1.00  0.00    -0.077 C 
ATOM     13  C   UNL     1      26.155  45.200  89.547  1.00  0.00    -0.028 C 
ATOM     14  C   UNL     1      28.099  46.628  90.007  1.00  0.00     0.039 C 
BRANCH  13  15
ATOM     15  C   UNL     1      25.343  44.123  88.867  1.00  0.00     0.035 C 
BRANCH  15  16
ATOM     16  C   UNL     1      24.377  44.708  87.829  1.00  0.00     0.079 C 
BRANCH  16  17
ATOM     17  C   UNL     1      25.051  44.903  86.495  1.00  0.00     0.130 C 
ATOM     18  O   UNL     1      25.444  43.931  85.869  1.00  0.00    -0.300 OA
ATOM     19  C   UNL     1      25.278  46.277  85.938  1.00  0.00     0.087 C 
ENDBRANCH  16  17
ENDBRANCH  15  16
ENDBRANCH  13  15
ENDBRANCH  11  12
ENDBRANCH   1  11
TORSDOF 9
ENDMDL
MODEL 3
REMARK VINA RESULT:    -3.369     11.670     14.092
REMARK INTER + INTRA:          -8.041
REMARK INTER:                  -6.865
REMARK INTRA:                  -1.176
REMARK UNBOUND:                -2.898
REMARK SMILES CC(=O)CCC=C(C)CCC=C(C)CCC=C(C)C
REMARK SMILES IDX 10 1 11 2 12 3 13 4 14 5 15 6 16 7 18 8 17 9 19 10 9 11 7 12
REMARK SMILES IDX 6 13 8 14 5 15 4 16 2 17 3 18 1 19
REMARK H PARENT
REMARK Flexibility Score: inf
ROOT
ATOM      1  C   UNL     1      29.882  44.876  84.279  1.00  0.00     0.032 C 
ENDROOT
BRANCH   1   2
ATOM      2  C   UNL     1      29.575  44.333  82.906  1.00  0.00    -0.028 C 
ATOM      3  C   UNL     1      29.217  45.094  81.846  1.00  0.00    -0.077 C 
ATOM      4  C   UNL     1      29.164  46.602  81.929  1.00  0.00     0.039 C 
BRANCH   3   5
ATOM      5  C   UNL     1      28.880  44.415  80.536  1.00  0.00     0.034 C 
BRANCH   5   6
ATOM      6  C   UNL     1      29.043  45.387  79.361  1.00  0.00     0.032 C 
BRANCH   6   7
ATOM      7  C   UNL     1      30.458  45.381  78.835  1.00  0.00    -0.028 C 
ATOM      8  C   UNL     1      30.548  47.877  78.803  1.00  0.00     0.039 C 
ATOM      9  C   UNL     1      31.151  46.512  78.579  1.00  0.00    -0.080 C 
ATOM     10  C   UNL     1      32.561  46.433  78.056  1.00  0.00     0.039 C 
ENDBRANCH   6   7
ENDBRANCH   5   6
ENDBRANCH   3   5
ENDBRANCH   1   2
BRANCH   1  11
ATOM     11  C   UNL     1      28.650  44.777  85.186  1.00  0.00     0.034 C 
BRANCH  11  12
ATOM     12  C   UNL     1      28.525  46.015  86.051  1.00  0.00    -0.077 C 
ATOM     13  C   UNL     1      28.311  45.964  87.385  1.00  0.00    -0.028 C 
ATOM     14  C   UNL     1      28.720  47.364  85.409  1.00  0.00     0.039 C 
BRANCH  13  15
ATOM     15  C   UNL     1      28.085  44.698  88.177  1.00  0.00     0.035 C 
BRANCH  15  16
ATOM     16  C   UNL     1      26.789  44.760  88.995  1.00  0.00     0.079 C 
BRANCH  16  17
ATOM     17  C   UNL     1      26.771  45.958  89.910  1.00  0.00     0.130 C 
ATOM     18  O   UNL     1      27.600  46.050  90.802  1.00  0.00    -0.300 OA
ATOM     19  C   UNL     1      25.728  47.026  89.763  1.00  0.00     0.087 C 
ENDBRANCH  16  17
ENDBRANCH  15  16
ENDBRANCH  13  15
ENDBRANCH  11  12
ENDBRANCH   1  11
TORSDOF 9
ENDMDL
MODEL 4
REMARK VINA RESULT:    -3.347      1.741      5.309
REMARK INTER + INTRA:          -8.006
REMARK INTER:                  -6.015
REMARK INTRA:                  -1.990
REMARK UNBOUND:                -2.898
REMARK SMILES CC(=O)CCC=C(C)CCC=C(C)CCC=C(C)C
REMARK SMILES IDX 10 1 11 2 12 3 13 4 14 5 15 6 16 7 18 8 17 9 19 10 9 11 7 12
REMARK SMILES IDX 6 13 8 14 5 15 4 16 2 17 3 18 1 19
REMARK H PARENT
REMARK Flexibility Score: inf
ROOT
ATOM      1  C   UNL     1      23.402  37.275  89.255  1.00  0.00     0.032 C 
ENDROOT
BRANCH   1   2
ATOM      2  C   UNL     1      23.231  35.781  89.363  1.00  0.00    -0.028 C 
ATOM      3  C   UNL     1      22.038  35.144  89.335  1.00  0.00    -0.077 C 
ATOM      4  C   UNL     1      20.742  35.889  89.112  1.00  0.00     0.039 C 
BRANCH   3   5
ATOM      5  C   UNL     1      22.003  33.641  89.512  1.00  0.00     0.034 C 
BRANCH   5   6
ATOM      6  C   UNL     1      23.136  32.974  88.723  1.00  0.00     0.032 C 
BRANCH   6   7
ATOM      7  C   UNL     1      23.654  31.749  89.437  1.00  0.00    -0.028 C 
ATOM      8  C   UNL     1      25.401  33.079  90.630  1.00  0.00     0.039 C 
ATOM      9  C   UNL     1      24.686  31.789  90.309  1.00  0.00    -0.080 C 
ATOM     10  C   UNL     1      25.151  30.528  90.988  1.00  0.00     0.039 C 
ENDBRANCH   6   7
ENDBRANCH   5   6
ENDBRANCH   3   5
ENDBRANCH   1   2
BRANCH   1  11
ATOM     11  C   UNL     1      24.056  37.649  87.921  1.00  0.00     0.034 C 
BRANCH  11  12
ATOM     12  C   UNL     1      23.001  37.907  86.864  1.00  0.00    -0.077 C 
ATOM     13  C   UNL     1      22.637  36.984  85.945  1.00  0.00    -0.028 C 
ATOM     14  C   UNL     1      22.271  39.225  86.882  1.00  0.00     0.039 C 
BRANCH  13  15
ATOM     15  C   UNL     1      23.274  35.624  85.786  1.00  0.00     0.035 C 
BRANCH  15  16
ATOM     16  C   UNL     1      22.517  34.753  84.776  1.00  0.00     0.079 C 
BRANCH  16  17
ATOM     17  C   UNL     1      21.040  34.716  85.076  1.00  0.00     0.130 C 
ATOM     18  O   UNL     1      20.648  34.208  86.115  1.00  0.00    -0.300 OA
ATOM     19  C   UNL     1      20.041  35.265  84.103  1.00  0.00     0.087 C 
ENDBRANCH  16  17
ENDBRANCH  15  16
ENDBRANCH  13  15
ENDBRANCH  11  12
ENDBRANCH   1  11
TORSDOF 9
ENDMDL
MODEL 5
REMARK VINA RESULT:    -3.331      2.262      4.234
REMARK INTER + INTRA:          -7.982
REMARK INTER:                  -5.185
REMARK INTRA:                  -2.797
REMARK UNBOUND:                -2.898
REMARK SMILES CC(=O)CCC=C(C)CCC=C(C)CCC=C(C)C
REMARK SMILES IDX 10 1 11 2 12 3 13 4 14 5 15 6 16 7 18 8 17 9 19 10 9 11 7 12
REMARK SMILES IDX 6 13 8 14 5 15 4 16 2 17 3 18 1 19
REMARK H PARENT
REMARK Flexibility Score: inf
ROOT
ATOM      1  C   UNL     1      23.425  34.013  89.483  1.00  0.00     0.032 C 
ENDROOT
BRANCH   1   2
ATOM      2  C   UNL     1      23.939  35.298  88.885  1.00  0.00    -0.028 C 
ATOM      3  C   UNL     1      23.377  36.513  89.085  1.00  0.00    -0.077 C 
ATOM      4  C   UNL     1      22.198  36.702  90.010  1.00  0.00     0.039 C 
BRANCH   3   5
ATOM      5  C   UNL     1      23.961  37.717  88.378  1.00  0.00     0.034 C 
BRANCH   5   6
ATOM      6  C   UNL     1      22.851  38.674  87.927  1.00  0.00     0.032 C 
BRANCH   6   7
ATOM      7  C   UNL     1      22.479  38.440  86.483  1.00  0.00    -0.028 C 
ATOM      8  C   UNL     1      20.063  38.880  86.945  1.00  0.00     0.039 C 
ATOM      9  C   UNL     1      21.210  38.533  86.027  1.00  0.00    -0.080 C 
ATOM     10  C   UNL     1      20.909  38.288  84.572  1.00  0.00     0.039 C 
ENDBRANCH   6   7
ENDBRANCH   5   6
ENDBRANCH   3   5
ENDBRANCH   1   2
BRANCH   1  11
ATOM     11  C   UNL     1      22.716  33.168  88.418  1.00  0.00     0.034 C 
BRANCH  11  12
ATOM     12  C   UNL     1      21.219  33.165  88.652  1.00  0.00    -0.077 C 
ATOM     13  C   UNL     1      20.367  33.977  87.987  1.00  0.00    -0.028 C 
ATOM     14  C   UNL     1      20.643  32.160  89.616  1.00  0.00     0.039 C 
BRANCH  13  15
ATOM     15  C   UNL     1      20.781  35.043  86.999  1.00  0.00     0.035 C 
BRANCH  15  16
ATOM     16  C   UNL     1      20.456  34.640  85.555  1.00  0.00     0.079 C 
BRANCH  16  17
ATOM     17  C   UNL     1      21.688  34.657  84.687  1.00  0.00     0.130 C 
ATOM     18  O   UNL     1      21.592  34.388  83.499  1.00  0.00    -0.300 OA
ATOM     19  C   UNL     1      23.035  34.969  85.264  1.00  0.00     0.087 C 
ENDBRANCH  16  17
ENDBRANCH  15  16
ENDBRANCH  13  15
ENDBRANCH  11  12
ENDBRANCH   1  11
TORSDOF 9
ENDMDL
MODEL 6
REMARK VINA RESULT:    -3.301      2.043      5.036
REMARK INTER + INTRA:          -7.936
REMARK INTER:                  -5.633
REMARK INTRA:                  -2.303
REMARK UNBOUND:                -2.898
REMARK SMILES CC(=O)CCC=C(C)CCC=C(C)CCC=C(C)C
REMARK SMILES IDX 10 1 11 2 12 3 13 4 14 5 15 6 16 7 18 8 17 9 19 10 9 11 7 12
REMARK SMILES IDX 6 13 8 14 5 15 4 16 2 17 3 18 1 19
REMARK H PARENT
REMARK Flexibility Score: inf
ROOT
ATOM      1  C   UNL     1      23.341  35.356  85.538  1.00  0.00     0.032 C 
ENDROOT
BRANCH   1   2
ATOM      2  C   UNL     1      23.300  34.743  86.915  1.00  0.00    -0.028 C 
ATOM      3  C   UNL     1      23.624  35.400  88.053  1.00  0.00    -0.077 C 
ATOM      4  C   UNL     1      23.992  36.865  88.050  1.00  0.00     0.039 C 
BRANCH   3   5
ATOM      5  C   UNL     1      23.595  34.649  89.366  1.00  0.00     0.034 C 
BRANCH   5   6
ATOM      6  C   UNL     1      22.928  33.279  89.197  1.00  0.00     0.032 C 
BRANCH   6   7
ATOM      7  C   UNL     1      23.883  32.158  89.531  1.00  0.00    -0.028 C 
ATOM      8  C   UNL     1      22.154  30.423  89.036  1.00  0.00     0.039 C 
ATOM      9  C   UNL     1      23.538  30.853  89.459  1.00  0.00    -0.080 C 
ATOM     10  C   UNL     1      24.541  29.786  89.806  1.00  0.00     0.039 C 
ENDBRANCH   6   7
ENDBRANCH   5   6
ENDBRANCH   3   5
ENDBRANCH   1   2
BRANCH   1  11
ATOM     11  C   UNL     1      21.928  35.716  85.064  1.00  0.00     0.034 C 
BRANCH  11  12
ATOM     12  C   UNL     1      21.577  37.134  85.467  1.00  0.00    -0.077 C 
ATOM     13  C   UNL     1      20.530  37.435  86.268  1.00  0.00    -0.028 C 
ATOM     14  C   UNL     1      22.477  38.254  85.015  1.00  0.00     0.039 C 
BRANCH  13  15
ATOM     15  C   UNL     1      19.529  36.435  86.796  1.00  0.00     0.035 C 
BRANCH  15  16
ATOM     16  C   UNL     1      19.944  35.880  88.165  1.00  0.00     0.079 C 
BRANCH  16  17
ATOM     17  C   UNL     1      19.529  34.440  88.326  1.00  0.00     0.130 C 
ATOM     18  O   UNL     1      18.959  34.087  89.347  1.00  0.00    -0.300 OA
ATOM     19  C   UNL     1      19.835  33.425  87.266  1.00  0.00     0.087 C 
ENDBRANCH  16  17
ENDBRANCH  15  16
ENDBRANCH  13  15
ENDBRANCH  11  12
ENDBRANCH   1  11
TORSDOF 9
ENDMDL
MODEL 7
REMARK VINA RESULT:    -3.288     10.887     12.921
REMARK INTER + INTRA:          -7.917
REMARK INTER:                  -5.327
REMARK INTRA:                  -2.590
REMARK UNBOUND:                -2.898
REMARK SMILES CC(=O)CCC=C(C)CCC=C(C)CCC=C(C)C
REMARK SMILES IDX 10 1 11 2 12 3 13 4 14 5 15 6 16 7 18 8 17 9 19 10 9 11 7 12
REMARK SMILES IDX 6 13 8 14 5 15 4 16 2 17 3 18 1 19
REMARK H PARENT
REMARK Flexibility Score: inf
ROOT
ATOM      1  C   UNL     1      29.360  46.706  84.097  1.00  0.00     0.032 C 
ENDROOT
BRANCH   1   2
ATOM      2  C   UNL     1      28.942  46.156  85.437  1.00  0.00    -0.028 C 
ATOM      3  C   UNL     1      29.245  44.915  85.882  1.00  0.00    -0.077 C 
ATOM      4  C   UNL     1      30.118  43.974  85.084  1.00  0.00     0.039 C 
BRANCH   3   5
ATOM      5  C   UNL     1      28.713  44.466  87.226  1.00  0.00     0.034 C 
BRANCH   5   6
ATOM      6  C   UNL     1      28.001  45.620  87.943  1.00  0.00     0.032 C 
BRANCH   6   7
ATOM      7  C   UNL     1      27.021  45.105  88.969  1.00  0.00    -0.028 C 
ATOM      8  C   UNL     1      26.010  47.371  89.264  1.00  0.00     0.039 C 
ATOM      9  C   UNL     1      26.109  45.897  89.576  1.00  0.00    -0.080 C 
ATOM     10  C   UNL     1      25.160  45.317  90.591  1.00  0.00     0.039 C 
ENDBRANCH   6   7
ENDBRANCH   5   6
ENDBRANCH   3   5
ENDBRANCH   1   2
BRANCH   1  11
ATOM     11  C   UNL     1      28.190  46.665  83.107  1.00  0.00     0.034 C 
BRANCH  11  12
ATOM     12  C   UNL     1      28.082  45.296  82.468  1.00  0.00    -0.077 C 
ATOM     13  C   UNL     1      26.970  44.530  82.548  1.00  0.00    -0.028 C 
ATOM     14  C   UNL     1      29.238  44.793  81.643  1.00  0.00     0.039 C 
BRANCH  13  15
ATOM     15  C   UNL     1      25.733  44.882  83.341  1.00  0.00     0.035 C 
BRANCH  15  16
ATOM     16  C   UNL     1      25.823  44.385  84.789  1.00  0.00     0.079 C 
BRANCH  16  17
ATOM     17  C   UNL     1      25.128  45.326  85.740  1.00  0.00     0.130 C 
ATOM     18  O   UNL     1      24.389  44.875  86.602  1.00  0.00    -0.300 OA
ATOM     19  C   UNL     1      25.303  46.810  85.623  1.00  0.00     0.087 C 
ENDBRANCH  16  17
ENDBRANCH  15  16
ENDBRANCH  13  15
ENDBRANCH  11  12
ENDBRANCH   1  11
TORSDOF 9
ENDMDL
MODEL 8
REMARK VINA RESULT:    -3.180      2.864      5.586
REMARK INTER + INTRA:          -7.751
REMARK INTER:                  -4.839
REMARK INTRA:                  -2.912
REMARK UNBOUND:                -2.898
REMARK SMILES CC(=O)CCC=C(C)CCC=C(C)CCC=C(C)C
REMARK SMILES IDX 10 1 11 2 12 3 13 4 14 5 15 6 16 7 18 8 17 9 19 10 9 11 7 12
REMARK SMILES IDX 6 13 8 14 5 15 4 16 2 17 3 18 1 19
REMARK H PARENT
REMARK Flexibility Score: inf
ROOT
ATOM      1  C   UNL     1      23.344  34.641  85.674  1.00  0.00     0.032 C 
ENDROOT
BRANCH   1   2
ATOM      2  C   UNL     1      23.646  35.461  86.903  1.00  0.00    -0.028 C 
ATOM      3  C   UNL     1      23.421  35.048  88.171  1.00  0.00    -0.077 C 
ATOM      4  C   UNL     1      22.904  33.661  88.478  1.00  0.00     0.039 C 
BRANCH   3   5
ATOM      5  C   UNL     1      23.716  35.994  89.315  1.00  0.00     0.034 C 
BRANCH   5   6
ATOM      6  C   UNL     1      22.493  36.144  90.228  1.00  0.00     0.032 C 
BRANCH   6   7
ATOM      7  C   UNL     1      21.461  37.061  89.617  1.00  0.00    -0.028 C 
ATOM      8  C   UNL     1      19.725  35.265  89.642  1.00  0.00     0.039 C 
ATOM      9  C   UNL     1      20.197  36.668  89.347  1.00  0.00    -0.080 C 
ATOM     10  C   UNL     1      19.218  37.636  88.738  1.00  0.00     0.039 C 
ENDBRANCH   6   7
ENDBRANCH   5   6
ENDBRANCH   3   5
ENDBRANCH   1   2
BRANCH   1  11
ATOM     11  C   UNL     1      22.398  35.400  84.737  1.00  0.00     0.034 C 
BRANCH  11  12
ATOM     12  C   UNL     1      21.156  35.845  85.481  1.00  0.00    -0.077 C 
ATOM     13  C   UNL     1      20.831  37.145  85.663  1.00  0.00    -0.028 C 
ATOM     14  C   UNL     1      20.199  34.793  85.979  1.00  0.00     0.039 C 
BRANCH  13  15
ATOM     15  C   UNL     1      21.683  38.317  85.235  1.00  0.00     0.035 C 
BRANCH  15  16
ATOM     16  C   UNL     1      22.589  38.808  86.371  1.00  0.00     0.079 C 
BRANCH  16  17
ATOM     17  C   UNL     1      22.123  40.134  86.916  1.00  0.00     0.130 C 
ATOM     18  O   UNL     1      21.781  41.016  86.144  1.00  0.00    -0.300 OA
ATOM     19  C   UNL     1      22.105  40.400  88.391  1.00  0.00     0.087 C 
ENDBRANCH  16  17
ENDBRANCH  15  16
ENDBRANCH  13  15
ENDBRANCH  11  12
ENDBRANCH   1  11
TORSDOF 9
ENDMDL
MODEL 9
REMARK VINA RESULT:    -3.166      2.201      3.995
REMARK INTER + INTRA:          -7.731
REMARK INTER:                  -4.817
REMARK INTRA:                  -2.914
REMARK UNBOUND:                -2.898
REMARK SMILES CC(=O)CCC=C(C)CCC=C(C)CCC=C(C)C
REMARK SMILES IDX 10 1 11 2 12 3 13 4 14 5 15 6 16 7 18 8 17 9 19 10 9 11 7 12
REMARK SMILES IDX 6 13 8 14 5 15 4 16 2 17 3 18 1 19
REMARK H PARENT
REMARK Flexibility Score: inf
ROOT
ATOM      1  C   UNL     1      24.128  37.852  88.488  1.00  0.00     0.032 C 
ENDROOT
BRANCH   1   2
ATOM      2  C   UNL     1      23.733  36.404  88.344  1.00  0.00    -0.028 C 
ATOM      3  C   UNL     1      23.319  35.620  89.366  1.00  0.00    -0.077 C 
ATOM      4  C   UNL     1      23.142  36.162  90.765  1.00  0.00     0.039 C 
BRANCH   3   5
ATOM      5  C   UNL     1      23.007  34.164  89.094  1.00  0.00     0.034 C 
BRANCH   5   6
ATOM      6  C   UNL     1      22.942  33.893  87.586  1.00  0.00     0.032 C 
BRANCH   6   7
ATOM      7  C   UNL     1      21.549  34.112  87.049  1.00  0.00    -0.028 C 
ATOM      8  C   UNL     1      22.430  35.012  84.891  1.00  0.00     0.039 C 
ATOM      9  C   UNL     1      21.307  34.622  85.821  1.00  0.00    -0.080 C 
ATOM     10  C   UNL     1      19.890  34.813  85.347  1.00  0.00     0.039 C 
ENDBRANCH   6   7
ENDBRANCH   5   6
ENDBRANCH   3   5
ENDBRANCH   1   2
BRANCH   1  11
ATOM     11  C   UNL     1      22.898  38.761  88.389  1.00  0.00     0.034 C 
BRANCH  11  12
ATOM     12  C   UNL     1      22.055  38.387  87.187  1.00  0.00    -0.077 C 
ATOM     13  C   UNL     1      20.817  37.853  87.291  1.00  0.00    -0.028 C 
ATOM     14  C   UNL     1      22.590  38.690  85.811  1.00  0.00     0.039 C 
BRANCH  13  15
ATOM     15  C   UNL     1      20.143  37.481  88.590  1.00  0.00     0.035 C 
BRANCH  15  16
ATOM     16  C   UNL     1      18.788  36.801  88.356  1.00  0.00     0.079 C 
BRANCH  16  17
ATOM     17  C   UNL     1      18.747  35.424  88.967  1.00  0.00     0.130 C 
ATOM     18  O   UNL     1      18.007  34.575  88.494  1.00  0.00    -0.300 OA
ATOM     19  C   UNL     1      19.578  35.089  90.169  1.00  0.00     0.087 C 
ENDBRANCH  16  17
ENDBRANCH  15  16
ENDBRANCH  13  15
ENDBRANCH  11  12
ENDBRANCH   1  11
TORSDOF 9
ENDMDL
