MODEL 1
REMARK VINA RESULT:    -4.783      0.000      0.000
REMARK INTER + INTRA:          -5.202
REMARK INTER:                  -5.202
REMARK INTRA:                   0.000
REMARK UNBOUND:                 0.000
REMARK SMILES Cc1cc(O)c2c(c1)C(=O)c1cc(O)cc(O)c1C2=O
REMARK SMILES IDX 1 1 2 2 8 3 7 4 6 5 4 6 3 7 19 8 20 9 18 10 11 11 9 12 10 13
REMARK SMILES IDX 12 14 13 15 15 16 16 17 5 18 17 20 14 22
REMARK H PARENT 5 19 17 21 14 23
REMARK Flexibility Score: inf
ROOT
ATOM      1  C   UNL     1      25.875  48.483  86.009  1.00  0.00     0.044 C 
ATOM      2  C   UNL     1      24.497  48.423  86.600  1.00  0.00    -0.047 A 
ATOM      3  C   UNL     1      23.954  49.545  87.234  1.00  0.00     0.016 A 
ATOM      4  C   UNL     1      22.653  49.507  87.766  1.00  0.00     0.038 A 
ATOM      5  C   UNL     1      21.885  48.327  87.661  1.00  0.00     0.076 A 
ATOM      6  C   UNL     1      22.410  47.221  86.943  1.00  0.00     0.127 A 
ATOM      7  C   UNL     1      23.713  47.275  86.441  1.00  0.00     0.050 A 
ATOM      8  C   UNL     1      20.576  48.276  88.362  1.00  0.00     0.201 C 
ATOM      9  O   UNL     1      20.136  47.175  88.789  1.00  0.00    -0.288 OA
ATOM     10  C   UNL     1      19.882  49.539  88.722  1.00  0.00     0.076 A 
ATOM     11  C   UNL     1      20.654  50.719  88.824  1.00  0.00     0.041 A 
ATOM     12  C   UNL     1      22.083  50.703  88.430  1.00  0.00     0.194 C 
ATOM     13  O   UNL     1      22.806  51.717  88.636  1.00  0.00    -0.289 OA
ATOM     14  C   UNL     1      20.062  51.904  89.295  1.00  0.00     0.059 A 
ATOM     15  C   UNL     1      18.713  51.930  89.649  1.00  0.00     0.120 A 
ATOM     16  C   UNL     1      17.937  50.777  89.511  1.00  0.00     0.093 A 
ATOM     17  C   UNL     1      18.496  49.591  89.026  1.00  0.00     0.131 A 
ENDROOT
BRANCH   6  18
ATOM     18  O   UNL     1      21.663  46.072  86.675  1.00  0.00    -0.507 OA
ATOM     19  H   UNL     1      21.916  45.392  85.970  1.00  0.00     0.293 HD
ENDBRANCH   6  18
BRANCH  17  20
ATOM     20  O   UNL     1      17.639  48.506  88.831  1.00  0.00    -0.507 OA
ATOM     21  H   UNL     1      17.448  47.811  89.539  1.00  0.00     0.293 HD
ENDBRANCH  17  20
BRANCH  15  22
ATOM     22  O   UNL     1      18.151  53.112  90.125  1.00  0.00    -0.508 OA
ATOM     23  H   UNL     1      18.472  54.018  89.806  1.00  0.00     0.293 HD
ENDBRANCH  15  22
TORSDOF 3
ENDMDL
MODEL 2
REMARK VINA RESULT:    -4.526      1.833      2.696
REMARK INTER + INTRA:          -4.923
REMARK INTER:                  -4.923
REMARK INTRA:                   0.000
REMARK UNBOUND:                 0.000
REMARK SMILES Cc1cc(O)c2c(c1)C(=O)c1cc(O)cc(O)c1C2=O
REMARK SMILES IDX 1 1 2 2 8 3 7 4 6 5 4 6 3 7 19 8 20 9 18 10 11 11 9 12 10 13
REMARK SMILES IDX 12 14 13 15 15 16 16 17 5 18 17 20 14 22
REMARK H PARENT 5 19 17 21 14 23
REMARK Flexibility Score: inf
ROOT
ATOM      1  C   UNL     1      26.866  45.348  85.109  1.00  0.00     0.044 C 
ATOM      2  C   UNL     1      25.602  45.642  85.860  1.00  0.00    -0.047 A 
ATOM      3  C   UNL     1      25.328  46.943  86.295  1.00  0.00     0.016 A 
ATOM      4  C   UNL     1      24.133  47.234  86.975  1.00  0.00     0.038 A 
ATOM      5  C   UNL     1      23.197  46.206  87.224  1.00  0.00     0.076 A 
ATOM      6  C   UNL     1      23.443  44.908  86.706  1.00  0.00     0.127 A 
ATOM      7  C   UNL     1      24.647  44.637  86.051  1.00  0.00     0.050 A 
ATOM      8  C   UNL     1      22.018  46.519  88.071  1.00  0.00     0.201 C 
ATOM      9  O   UNL     1      21.497  45.616  88.779  1.00  0.00    -0.288 OA
ATOM     10  C   UNL     1      21.575  47.928  88.229  1.00  0.00     0.076 A 
ATOM     11  C   UNL     1      22.514  48.955  87.976  1.00  0.00     0.041 A 
ATOM     12  C   UNL     1      23.848  48.617  87.426  1.00  0.00     0.194 C 
ATOM     13  O   UNL     1      24.731  49.512  87.317  1.00  0.00    -0.289 OA
ATOM     14  C   UNL     1      22.176  50.293  88.245  1.00  0.00     0.059 A 
ATOM     15  C   UNL     1      20.916  50.619  88.745  1.00  0.00     0.120 A 
ATOM     16  C   UNL     1      19.971  49.612  88.957  1.00  0.00     0.093 A 
ATOM     17  C   UNL     1      20.274  48.276  88.679  1.00  0.00     0.131 A 
ENDROOT
BRANCH   6  18
ATOM     18  O   UNL     1      22.507  43.873  86.788  1.00  0.00    -0.507 OA
ATOM     19  H   UNL     1      22.342  43.208  86.044  1.00  0.00     0.293 HD
ENDBRANCH   6  18
BRANCH  17  20
ATOM     20  O   UNL     1      19.251  47.337  88.830  1.00  0.00    -0.507 OA
ATOM     21  H   UNL     1      18.832  47.107  89.720  1.00  0.00     0.293 HD
ENDBRANCH  17  20
BRANCH  15  22
ATOM     22  O   UNL     1      20.608  51.950  89.016  1.00  0.00    -0.508 OA
ATOM     23  H   UNL     1      20.724  52.343  89.943  1.00  0.00     0.293 HD
ENDBRANCH  15  22
TORSDOF 3
ENDMDL
MODEL 3
REMARK VINA RESULT:    -4.501      2.052      2.690
REMARK INTER + INTRA:          -4.896
REMARK INTER:                  -4.896
REMARK INTRA:                   0.000
REMARK UNBOUND:                 0.000
REMARK SMILES Cc1cc(O)c2c(c1)C(=O)c1cc(O)cc(O)c1C2=O
REMARK SMILES IDX 1 1 2 2 8 3 7 4 6 5 4 6 3 7 19 8 20 9 18 10 11 11 9 12 10 13
REMARK SMILES IDX 12 14 13 15 15 16 16 17 5 18 17 20 14 22
REMARK H PARENT 5 19 17 21 14 23
REMARK Flexibility Score: inf
ROOT
ATOM      1  C   UNL     1      25.769  44.999  85.245  1.00  0.00     0.044 C 
ATOM      2  C   UNL     1      24.615  45.290  86.159  1.00  0.00    -0.047 A 
ATOM      3  C   UNL     1      24.127  46.595  86.283  1.00  0.00     0.016 A 
ATOM      4  C   UNL     1      23.028  46.872  87.114  1.00  0.00     0.038 A 
ATOM      5  C   UNL     1      22.410  45.827  87.835  1.00  0.00     0.076 A 
ATOM      6  C   UNL     1      22.857  44.494  87.640  1.00  0.00     0.127 A 
ATOM      7  C   UNL     1      23.964  44.245  86.823  1.00  0.00     0.050 A 
ATOM      8  C   UNL     1      21.350  46.178  88.815  1.00  0.00     0.201 C 
ATOM      9  O   UNL     1      21.177  45.462  89.837  1.00  0.00    -0.288 OA
ATOM     10  C   UNL     1      20.628  47.470  88.688  1.00  0.00     0.076 A 
ATOM     11  C   UNL     1      21.249  48.514  87.963  1.00  0.00     0.041 A 
ATOM     12  C   UNL     1      22.512  48.257  87.233  1.00  0.00     0.194 C 
ATOM     13  O   UNL     1      23.134  49.212  86.692  1.00  0.00    -0.289 OA
ATOM     14  C   UNL     1      20.662  49.791  87.936  1.00  0.00     0.059 A 
ATOM     15  C   UNL     1      19.463  50.035  88.605  1.00  0.00     0.120 A 
ATOM     16  C   UNL     1      18.825  48.997  89.288  1.00  0.00     0.093 A 
ATOM     17  C   UNL     1      19.376  47.712  89.314  1.00  0.00     0.131 A 
ENDROOT
BRANCH   6  18
ATOM     18  O   UNL     1      22.212  43.391  88.206  1.00  0.00    -0.507 OA
ATOM     19  H   UNL     1      21.595  42.779  87.689  1.00  0.00     0.293 HD
ENDBRANCH   6  18
BRANCH  17  20
ATOM     20  O   UNL     1      18.637  46.705  89.938  1.00  0.00    -0.507 OA
ATOM     21  H   UNL     1      19.053  45.879  90.345  1.00  0.00     0.293 HD
ENDBRANCH  17  20
BRANCH  15  22
ATOM     22  O   UNL     1      18.906  51.312  88.575  1.00  0.00    -0.508 OA
ATOM     23  H   UNL     1      19.452  52.122  88.304  1.00  0.00     0.293 HD
ENDBRANCH  15  22
TORSDOF 3
ENDMDL
MODEL 4
REMARK VINA RESULT:    -4.477      1.974      5.997
REMARK INTER + INTRA:          -4.870
REMARK INTER:                  -4.870
REMARK INTRA:                   0.000
REMARK UNBOUND:                 0.000
REMARK SMILES Cc1cc(O)c2c(c1)C(=O)c1cc(O)cc(O)c1C2=O
REMARK SMILES IDX 1 1 2 2 8 3 7 4 6 5 4 6 3 7 19 8 20 9 18 10 11 11 9 12 10 13
REMARK SMILES IDX 12 14 13 15 15 16 16 17 5 18 17 20 14 22
REMARK H PARENT 5 19 17 21 14 23
REMARK Flexibility Score: inf
ROOT
ATOM      1  C   UNL     1      21.787  52.743  89.391  1.00  0.00     0.044 C 
ATOM      2  C   UNL     1      21.863  51.361  88.814  1.00  0.00    -0.047 A 
ATOM      3  C   UNL     1      23.054  50.902  88.242  1.00  0.00     0.016 A 
ATOM      4  C   UNL     1      23.144  49.598  87.724  1.00  0.00     0.038 A 
ATOM      5  C   UNL     1      22.024  48.740  87.781  1.00  0.00     0.076 A 
ATOM      6  C   UNL     1      20.846  49.183  88.438  1.00  0.00     0.127 A 
ATOM      7  C   UNL     1      20.774  50.491  88.927  1.00  0.00     0.050 A 
ATOM      8  C   UNL     1      22.108  47.426  87.094  1.00  0.00     0.201 C 
ATOM      9  O   UNL     1      21.068  46.898  86.619  1.00  0.00    -0.288 OA
ATOM     10  C   UNL     1      23.438  46.831  86.803  1.00  0.00     0.076 A 
ATOM     11  C   UNL     1      24.558  47.692  86.750  1.00  0.00     0.041 A 
ATOM     12  C   UNL     1      24.412  49.118  87.126  1.00  0.00     0.194 C 
ATOM     13  O   UNL     1      25.375  49.917  86.961  1.00  0.00    -0.289 OA
ATOM     14  C   UNL     1      25.807  47.190  86.344  1.00  0.00     0.059 A 
ATOM     15  C   UNL     1      25.956  45.845  86.008  1.00  0.00     0.120 A 
ATOM     16  C   UNL     1      24.861  44.982  86.098  1.00  0.00     0.093 A 
ATOM     17  C   UNL     1      23.613  45.450  86.518  1.00  0.00     0.131 A 
ENDROOT
BRANCH   6  18
ATOM     18  O   UNL     1      19.746  48.350  88.659  1.00  0.00    -0.507 OA
ATOM     19  H   UNL     1      19.668  47.725  89.450  1.00  0.00     0.293 HD
ENDBRANCH   6  18
BRANCH  17  20
ATOM     20  O   UNL     1      22.590  44.512  86.671  1.00  0.00    -0.507 OA
ATOM     21  H   UNL     1      22.097  44.092  85.895  1.00  0.00     0.293 HD
ENDBRANCH  17  20
BRANCH  15  22
ATOM     22  O   UNL     1      27.200  45.374  85.596  1.00  0.00    -0.508 OA
ATOM     23  H   UNL     1      27.816  45.935  85.019  1.00  0.00     0.293 HD
ENDBRANCH  15  22
TORSDOF 3
ENDMDL
MODEL 5
REMARK VINA RESULT:    -4.358      2.466      4.852
REMARK INTER + INTRA:          -4.740
REMARK INTER:                  -4.740
REMARK INTRA:                   0.000
REMARK UNBOUND:                 0.000
REMARK SMILES Cc1cc(O)c2c(c1)C(=O)c1cc(O)cc(O)c1C2=O
REMARK SMILES IDX 1 1 2 2 8 3 7 4 6 5 4 6 3 7 19 8 20 9 18 10 11 11 9 12 10 13
REMARK SMILES IDX 12 14 13 15 15 16 16 17 5 18 17 20 14 22
REMARK H PARENT 5 19 17 21 14 23
REMARK Flexibility Score: inf
ROOT
ATOM      1  C   UNL     1      16.028  46.120  90.122  1.00  0.00     0.044 C 
ATOM      2  C   UNL     1      17.240  46.913  89.733  1.00  0.00    -0.047 A 
ATOM      3  C   UNL     1      17.258  48.301  89.908  1.00  0.00     0.016 A 
ATOM      4  C   UNL     1      18.400  49.050  89.573  1.00  0.00     0.038 A 
ATOM      5  C   UNL     1      19.541  48.399  89.055  1.00  0.00     0.076 A 
ATOM      6  C   UNL     1      19.545  46.983  88.960  1.00  0.00     0.127 A 
ATOM      7  C   UNL     1      18.392  46.261  89.280  1.00  0.00     0.050 A 
ATOM      8  C   UNL     1      20.670  49.235  88.575  1.00  0.00     0.201 C 
ATOM      9  O   UNL     1      21.404  48.821  87.638  1.00  0.00    -0.288 OA
ATOM     10  C   UNL     1      20.817  50.629  89.067  1.00  0.00     0.076 A 
ATOM     11  C   UNL     1      19.673  51.277  89.587  1.00  0.00     0.041 A 
ATOM     12  C   UNL     1      18.413  50.519  89.768  1.00  0.00     0.194 C 
ATOM     13  O   UNL     1      17.358  51.121  90.112  1.00  0.00    -0.289 OA
ATOM     14  C   UNL     1      19.738  52.638  89.935  1.00  0.00     0.059 A 
ATOM     15  C   UNL     1      20.926  53.352  89.786  1.00  0.00     0.120 A 
ATOM     16  C   UNL     1      22.070  52.706  89.310  1.00  0.00     0.093 A 
ATOM     17  C   UNL     1      22.039  51.348  88.977  1.00  0.00     0.131 A 
ENDROOT
BRANCH   6  18
ATOM     18  O   UNL     1      20.679  46.255  88.590  1.00  0.00    -0.507 OA
ATOM     19  H   UNL     1      21.421  46.011  89.233  1.00  0.00     0.293 HD
ENDBRANCH   6  18
BRANCH  17  20
ATOM     20  O   UNL     1      23.241  50.749  88.595  1.00  0.00    -0.507 OA
ATOM     21  H   UNL     1      23.443  49.768  88.729  1.00  0.00     0.293 HD
ENDBRANCH  17  20
BRANCH  15  22
ATOM     22  O   UNL     1      20.964  54.702  90.125  1.00  0.00    -0.508 OA
ATOM     23  H   UNL     1      21.838  55.212  90.177  1.00  0.00     0.293 HD
ENDBRANCH  15  22
TORSDOF 3
ENDMDL
MODEL 6
REMARK VINA RESULT:    -4.165      3.287      7.762
REMARK INTER + INTRA:          -4.530
REMARK INTER:                  -4.530
REMARK INTRA:                   0.000
REMARK UNBOUND:                 0.000
REMARK SMILES Cc1cc(O)c2c(c1)C(=O)c1cc(O)cc(O)c1C2=O
REMARK SMILES IDX 1 1 2 2 8 3 7 4 6 5 4 6 3 7 19 8 20 9 18 10 11 11 9 12 10 13
REMARK SMILES IDX 12 14 13 15 15 16 16 17 5 18 17 20 14 22
REMARK H PARENT 5 19 17 21 14 23
REMARK Flexibility Score: inf
ROOT
ATOM      1  C   UNL     1      20.031  46.684  88.998  1.00  0.00     0.044 C 
ATOM      2  C   UNL     1      21.419  47.037  88.550  1.00  0.00    -0.047 A 
ATOM      3  C   UNL     1      22.192  46.103  87.854  1.00  0.00     0.016 A 
ATOM      4  C   UNL     1      23.483  46.435  87.405  1.00  0.00     0.038 A 
ATOM      5  C   UNL     1      24.006  47.721  87.658  1.00  0.00     0.076 A 
ATOM      6  C   UNL     1      23.185  48.690  88.291  1.00  0.00     0.127 A 
ATOM      7  C   UNL     1      21.913  48.331  88.746  1.00  0.00     0.050 A 
ATOM      8  C   UNL     1      25.424  47.987  87.301  1.00  0.00     0.201 C 
ATOM      9  O   UNL     1      26.093  48.820  87.968  1.00  0.00    -0.288 OA
ATOM     10  C   UNL     1      26.100  47.138  86.287  1.00  0.00     0.076 A 
ATOM     11  C   UNL     1      25.571  45.851  86.034  1.00  0.00     0.041 A 
ATOM     12  C   UNL     1      24.293  45.441  86.661  1.00  0.00     0.194 C 
ATOM     13  O   UNL     1      23.882  44.254  86.539  1.00  0.00    -0.289 OA
ATOM     14  C   UNL     1      26.260  44.967  85.185  1.00  0.00     0.059 A 
ATOM     15  C   UNL     1      27.454  45.353  84.576  1.00  0.00     0.120 A 
ATOM     16  C   UNL     1      27.958  46.638  84.791  1.00  0.00     0.093 A 
ATOM     17  C   UNL     1      27.283  47.544  85.615  1.00  0.00     0.131 A 
ENDROOT
BRANCH   6  18
ATOM     18  O   UNL     1      23.576  50.022  88.453  1.00  0.00    -0.507 OA
ATOM     19  H   UNL     1      23.463  50.536  89.316  1.00  0.00     0.293 HD
ENDBRANCH   6  18
BRANCH  17  20
ATOM     20  O   UNL     1      27.799  48.838  85.710  1.00  0.00    -0.507 OA
ATOM     21  H   UNL     1      27.786  49.502  84.948  1.00  0.00     0.293 HD
ENDBRANCH  17  20
BRANCH  15  22
ATOM     22  O   UNL     1      28.125  44.456  83.749  1.00  0.00    -0.508 OA
ATOM     23  H   UNL     1      28.174  43.468  83.968  1.00  0.00     0.293 HD
ENDBRANCH  15  22
TORSDOF 3
ENDMDL
MODEL 7
REMARK VINA RESULT:    -4.117      2.605      3.989
REMARK INTER + INTRA:          -4.478
REMARK INTER:                  -4.478
REMARK INTRA:                   0.000
REMARK UNBOUND:                 0.000
REMARK SMILES Cc1cc(O)c2c(c1)C(=O)c1cc(O)cc(O)c1C2=O
REMARK SMILES IDX 1 1 2 2 8 3 7 4 6 5 4 6 3 7 19 8 20 9 18 10 11 11 9 12 10 13
REMARK SMILES IDX 12 14 13 15 15 16 16 17 5 18 17 20 14 22
REMARK H PARENT 5 19 17 21 14 23
REMARK Flexibility Score: inf
ROOT
ATOM      1  C   UNL     1      26.625  44.437  84.887  1.00  0.00     0.044 C 
ATOM      2  C   UNL     1      25.696  45.338  85.645  1.00  0.00    -0.047 A 
ATOM      3  C   UNL     1      26.105  46.627  86.006  1.00  0.00     0.016 A 
ATOM      4  C   UNL     1      25.231  47.489  86.690  1.00  0.00     0.038 A 
ATOM      5  C   UNL     1      23.928  47.055  87.019  1.00  0.00     0.076 A 
ATOM      6  C   UNL     1      23.492  45.779  86.576  1.00  0.00     0.127 A 
ATOM      7  C   UNL     1      24.385  44.931  85.914  1.00  0.00     0.050 A 
ATOM      8  C   UNL     1      23.087  47.935  87.870  1.00  0.00     0.201 C 
ATOM      9  O   UNL     1      22.228  47.429  88.640  1.00  0.00    -0.288 OA
ATOM     10  C   UNL     1      23.387  49.388  87.951  1.00  0.00     0.076 A 
ATOM     11  C   UNL     1      24.692  49.820  87.618  1.00  0.00     0.041 A 
ATOM     12  C   UNL     1      25.670  48.855  87.063  1.00  0.00     0.194 C 
ATOM     13  O   UNL     1      26.869  49.205  86.883  1.00  0.00    -0.289 OA
ATOM     14  C   UNL     1      25.054  51.164  87.813  1.00  0.00     0.059 A 
ATOM     15  C   UNL     1      24.133  52.081  88.317  1.00  0.00     0.120 A 
ATOM     16  C   UNL     1      22.830  51.668  88.608  1.00  0.00     0.093 A 
ATOM     17  C   UNL     1      22.438  50.342  88.405  1.00  0.00     0.131 A 
ENDROOT
BRANCH   6  18
ATOM     18  O   UNL     1      22.178  45.332  86.738  1.00  0.00    -0.507 OA
ATOM     19  H   UNL     1      21.893  44.372  86.597  1.00  0.00     0.293 HD
ENDBRANCH   6  18
BRANCH  17  20
ATOM     20  O   UNL     1      21.097  50.024  88.632  1.00  0.00    -0.507 OA
ATOM     21  H   UNL     1      20.673  50.017  89.549  1.00  0.00     0.293 HD
ENDBRANCH  17  20
BRANCH  15  22
ATOM     22  O   UNL     1      24.518  53.405  88.513  1.00  0.00    -0.508 OA
ATOM     23  H   UNL     1      25.490  53.662  88.638  1.00  0.00     0.293 HD
ENDBRANCH  15  22
TORSDOF 3
ENDMDL
MODEL 8
REMARK VINA RESULT:    -4.099      2.520      7.118
REMARK INTER + INTRA:          -4.459
REMARK INTER:                  -4.459
REMARK INTRA:                   0.000
REMARK UNBOUND:                 0.000
REMARK SMILES Cc1cc(O)c2c(c1)C(=O)c1cc(O)cc(O)c1C2=O
REMARK SMILES IDX 1 1 2 2 8 3 7 4 6 5 4 6 3 7 19 8 20 9 18 10 11 11 9 12 10 13
REMARK SMILES IDX 12 14 13 15 15 16 16 17 5 18 17 20 14 22
REMARK H PARENT 5 19 17 21 14 23
REMARK Flexibility Score: inf
ROOT
ATOM      1  C   UNL     1      20.092  50.963  88.573  1.00  0.00     0.044 C 
ATOM      2  C   UNL     1      21.452  50.387  88.308  1.00  0.00    -0.047 A 
ATOM      3  C   UNL     1      21.578  49.110  87.751  1.00  0.00     0.016 A 
ATOM      4  C   UNL     1      22.847  48.574  87.473  1.00  0.00     0.038 A 
ATOM      5  C   UNL     1      24.007  49.327  87.756  1.00  0.00     0.076 A 
ATOM      6  C   UNL     1      23.869  50.653  88.243  1.00  0.00     0.127 A 
ATOM      7  C   UNL     1      22.598  51.158  88.531  1.00  0.00     0.050 A 
ATOM      8  C   UNL     1      25.330  48.672  87.588  1.00  0.00     0.201 C 
ATOM      9  O   UNL     1      26.299  49.019  88.314  1.00  0.00    -0.288 OA
ATOM     10  C   UNL     1      25.459  47.487  86.701  1.00  0.00     0.076 A 
ATOM     11  C   UNL     1      24.294  46.737  86.416  1.00  0.00     0.041 A 
ATOM     12  C   UNL     1      22.972  47.223  86.875  1.00  0.00     0.194 C 
ATOM     13  O   UNL     1      21.949  46.497  86.734  1.00  0.00    -0.289 OA
ATOM     14  C   UNL     1      24.397  45.534  85.695  1.00  0.00     0.059 A 
ATOM     15  C   UNL     1      25.636  45.082  85.243  1.00  0.00     0.120 A 
ATOM     16  C   UNL     1      26.784  45.841  85.487  1.00  0.00     0.093 A 
ATOM     17  C   UNL     1      26.707  47.050  86.184  1.00  0.00     0.131 A 
ENDROOT
BRANCH   6  18
ATOM     18  O   UNL     1      24.958  51.511  88.417  1.00  0.00    -0.507 OA
ATOM     19  H   UNL     1      25.209  51.922  89.306  1.00  0.00     0.293 HD
ENDBRANCH   6  18
BRANCH  17  20
ATOM     20  O   UNL     1      27.880  47.798  86.310  1.00  0.00    -0.507 OA
ATOM     21  H   UNL     1      28.700  47.470  86.801  1.00  0.00     0.293 HD
ENDBRANCH  17  20
BRANCH  15  22
ATOM     22  O   UNL     1      25.715  43.881  84.542  1.00  0.00    -0.508 OA
ATOM     23  H   UNL     1      26.007  43.851  83.572  1.00  0.00     0.293 HD
ENDBRANCH  15  22
TORSDOF 3
ENDMDL
MODEL 9
REMARK VINA RESULT:    -4.096      3.599      5.458
REMARK INTER + INTRA:          -4.455
REMARK INTER:                  -4.455
REMARK INTRA:                   0.000
REMARK UNBOUND:                 0.000
REMARK SMILES Cc1cc(O)c2c(c1)C(=O)c1cc(O)cc(O)c1C2=O
REMARK SMILES IDX 1 1 2 2 8 3 7 4 6 5 4 6 3 7 19 8 20 9 18 10 11 11 9 12 10 13
REMARK SMILES IDX 12 14 13 15 15 16 16 17 5 18 17 20 14 22
REMARK H PARENT 5 19 17 21 14 23
REMARK Flexibility Score: inf
ROOT
ATOM      1  C   UNL     1      22.827  40.786  90.125  1.00  0.00     0.044 C 
ATOM      2  C   UNL     1      22.335  42.187  89.914  1.00  0.00    -0.047 A 
ATOM      3  C   UNL     1      23.239  43.214  89.624  1.00  0.00     0.016 A 
ATOM      4  C   UNL     1      22.784  44.525  89.397  1.00  0.00     0.038 A 
ATOM      5  C   UNL     1      21.403  44.811  89.462  1.00  0.00     0.076 A 
ATOM      6  C   UNL     1      20.485  43.749  89.674  1.00  0.00     0.127 A 
ATOM      7  C   UNL     1      20.962  42.458  89.917  1.00  0.00     0.050 A 
ATOM      8  C   UNL     1      20.973  46.229  89.364  1.00  0.00     0.201 C 
ATOM      9  O   UNL     1      19.927  46.611  89.954  1.00  0.00    -0.288 OA
ATOM     10  C   UNL     1      21.871  47.230  88.732  1.00  0.00     0.076 A 
ATOM     11  C   UNL     1      23.253  46.939  88.665  1.00  0.00     0.041 A 
ATOM     12  C   UNL     1      23.748  45.606  89.082  1.00  0.00     0.194 C 
ATOM     13  O   UNL     1      24.989  45.384  89.144  1.00  0.00    -0.289 OA
ATOM     14  C   UNL     1      24.152  47.915  88.201  1.00  0.00     0.059 A 
ATOM     15  C   UNL     1      23.690  49.165  87.789  1.00  0.00     0.120 A 
ATOM     16  C   UNL     1      22.321  49.443  87.814  1.00  0.00     0.093 A 
ATOM     17  C   UNL     1      21.404  48.483  88.252  1.00  0.00     0.131 A 
ENDROOT
BRANCH   6  18
ATOM     18  O   UNL     1      19.100  43.924  89.614  1.00  0.00    -0.507 OA
ATOM     19  H   UNL     1      18.447  43.411  90.190  1.00  0.00     0.293 HD
ENDBRANCH   6  18
BRANCH  17  20
ATOM     20  O   UNL     1      20.047  48.799  88.163  1.00  0.00    -0.507 OA
ATOM     21  H   UNL     1      19.655  49.671  88.490  1.00  0.00     0.293 HD
ENDBRANCH  17  20
BRANCH  15  22
ATOM     22  O   UNL     1      24.600  50.121  87.344  1.00  0.00    -0.508 OA
ATOM     23  H   UNL     1      24.624  50.421  86.376  1.00  0.00     0.293 HD
ENDBRANCH  15  22
TORSDOF 3
ENDMDL
