MODEL 1
REMARK VINA RESULT:    -4.416      0.000      0.000
REMARK INTER + INTRA:          -6.675
REMARK INTER:                  -6.223
REMARK INTRA:                  -0.452
REMARK UNBOUND:                -0.452
REMARK SMILES CCCCCCCCC(=O)[O-]
REMARK SMILES IDX 6 1 7 2 8 3 9 4 10 5 11 6 5 7 4 8 3 9 2 10 1 11
REMARK H PARENT
REMARK Flexibility Score: inf
ROOT
ATOM      1  C   UNL     1       1.009  22.095 -18.898  1.00  0.00     0.000 C 
ENDROOT
BRANCH   1   2
ATOM      2  C   UNL     1       2.098  21.355 -19.684  1.00  0.00     0.006 C 
BRANCH   2   3
ATOM      3  C   UNL     1       1.803  19.854 -19.750  1.00  0.00     0.053 C 
BRANCH   3   4
ATOM      4  C   UNL     1       2.683  19.191 -20.762  1.00  0.00     0.041 C 
ATOM      5  O   UNL     1       2.263  18.197 -21.411  1.00  0.00    -0.550 OA
ATOM      6  O   UNL     1       3.983  19.640 -20.954  1.00  0.00    -0.550 OA
ENDBRANCH   3   4
ENDBRANCH   2   3
ENDBRANCH   1   2
BRANCH   1   7
ATOM      7  C   UNL     1       1.552  22.615 -17.561  1.00  0.00     0.000 C 
BRANCH   7   8
ATOM      8  C   UNL     1       3.064  22.859 -17.637  1.00  0.00    -0.000 C 
BRANCH   8   9
ATOM      9  C   UNL     1       3.787  22.206 -16.450  1.00  0.00    -0.000 C 
BRANCH   9  10
ATOM     10  C   UNL     1       2.814  21.643 -15.403  1.00  0.00    -0.003 C 
ATOM     11  C   UNL     1       2.939  22.334 -14.046  1.00  0.00     0.004 C 
ENDBRANCH   9  10
ENDBRANCH   8   9
ENDBRANCH   7   8
ENDBRANCH   1   7
TORSDOF 7
ENDMDL
MODEL 2
REMARK VINA RESULT:    -4.349      3.652      5.623
REMARK INTER + INTRA:          -6.580
REMARK INTER:                  -6.110
REMARK INTRA:                  -0.470
REMARK UNBOUND:                -0.452
REMARK SMILES CCCCCCCCC(=O)[O-]
REMARK SMILES IDX 6 1 7 2 8 3 9 4 10 5 11 6 5 7 4 8 3 9 2 10 1 11
REMARK H PARENT
REMARK Flexibility Score: inf
ROOT
ATOM      1  C   UNL     1       3.166  22.822 -17.328  1.00  0.00     0.000 C 
ENDROOT
BRANCH   1   2
ATOM      2  C   UNL     1       3.729  22.140 -16.076  1.00  0.00     0.006 C 
BRANCH   2   3
ATOM      3  C   UNL     1       2.637  21.361 -15.337  1.00  0.00     0.053 C 
BRANCH   3   4
ATOM      4  C   UNL     1       2.646  21.700 -13.880  1.00  0.00     0.041 C 
ATOM      5  O   UNL     1       2.856  22.884 -13.507  1.00  0.00    -0.550 OA
ATOM      6  O   UNL     1       2.470  20.700 -12.932  1.00  0.00    -0.550 OA
ENDBRANCH   3   4
ENDBRANCH   2   3
ENDBRANCH   1   2
BRANCH   1   7
ATOM      7  C   UNL     1       1.645  22.643 -17.416  1.00  0.00     0.000 C 
BRANCH   7   8
ATOM      8  C   UNL     1       1.199  22.416 -18.865  1.00  0.00    -0.000 C 
BRANCH   8   9
ATOM      9  C   UNL     1       2.195  21.518 -19.614  1.00  0.00    -0.000 C 
BRANCH   9  10
ATOM     10  C   UNL     1       1.642  20.107 -19.867  1.00  0.00    -0.003 C 
ATOM     11  C   UNL     1       2.617  19.219 -20.639  1.00  0.00     0.004 C 
ENDBRANCH   9  10
ENDBRANCH   8   9
ENDBRANCH   7   8
ENDBRANCH   1   7
TORSDOF 7
ENDMDL
MODEL 3
REMARK VINA RESULT:    -4.189      9.859     10.993
REMARK INTER + INTRA:          -6.354
REMARK INTER:                  -5.984
REMARK INTRA:                  -0.371
REMARK UNBOUND:                -0.452
REMARK SMILES CCCCCCCCC(=O)[O-]
REMARK SMILES IDX 6 1 7 2 8 3 9 4 10 5 11 6 5 7 4 8 3 9 2 10 1 11
REMARK H PARENT
REMARK Flexibility Score: inf
ROOT
ATOM      1  C   UNL     1       7.232  27.210 -13.061  1.00  0.00     0.000 C 
ENDROOT
BRANCH   1   2
ATOM      2  C   UNL     1       8.331  28.247 -12.800  1.00  0.00     0.006 C 
BRANCH   2   3
ATOM      3  C   UNL     1       7.750  29.663 -12.753  1.00  0.00     0.053 C 
BRANCH   3   4
ATOM      4  C   UNL     1       7.940  30.351 -14.068  1.00  0.00     0.041 C 
ATOM      5  O   UNL     1       7.080  30.223 -14.978  1.00  0.00    -0.550 OA
ATOM      6  O   UNL     1       9.089  31.094 -14.305  1.00  0.00    -0.550 OA
ENDBRANCH   3   4
ENDBRANCH   2   3
ENDBRANCH   1   2
BRANCH   1   7
ATOM      7  C   UNL     1       7.721  25.795 -12.730  1.00  0.00     0.000 C 
BRANCH   7   8
ATOM      8  C   UNL     1       9.155  25.818 -12.188  1.00  0.00    -0.000 C 
BRANCH   8   9
ATOM      9  C   UNL     1       9.347  24.758 -11.094  1.00  0.00    -0.000 C 
BRANCH   9  10
ATOM     10  C   UNL     1       8.273  23.661 -11.141  1.00  0.00    -0.003 C 
ATOM     11  C   UNL     1       7.844  23.192  -9.751  1.00  0.00     0.004 C 
ENDBRANCH   9  10
ENDBRANCH   8   9
ENDBRANCH   7   8
ENDBRANCH   1   7
TORSDOF 7
ENDMDL
MODEL 4
REMARK VINA RESULT:    -4.188      9.819     10.977
REMARK INTER + INTRA:          -6.354
REMARK INTER:                  -5.969
REMARK INTRA:                  -0.384
REMARK UNBOUND:                -0.452
REMARK SMILES CCCCCCCCC(=O)[O-]
REMARK SMILES IDX 6 1 7 2 8 3 9 4 10 5 11 6 5 7 4 8 3 9 2 10 1 11
REMARK H PARENT
REMARK Flexibility Score: inf
ROOT
ATOM      1  C   UNL     1       9.001  26.258 -12.427  1.00  0.00     0.000 C 
ENDROOT
BRANCH   1   2
ATOM      2  C   UNL     1       8.943  24.740 -12.226  1.00  0.00     0.006 C 
BRANCH   2   3
ATOM      3  C   UNL     1       9.028  24.378 -10.741  1.00  0.00     0.053 C 
BRANCH   3   4
ATOM      4  C   UNL     1       7.760  23.728 -10.285  1.00  0.00     0.041 C 
ATOM      5  O   UNL     1       6.676  23.975 -10.874  1.00  0.00    -0.550 OA
ATOM      6  O   UNL     1       7.768  22.888  -9.179  1.00  0.00    -0.550 OA
ENDBRANCH   3   4
ENDBRANCH   2   3
ENDBRANCH   1   2
BRANCH   1   7
ATOM      7  C   UNL     1       7.611  26.827 -12.738  1.00  0.00     0.000 C 
BRANCH   7   8
ATOM      8  C   UNL     1       7.706  28.271 -13.243  1.00  0.00    -0.000 C 
BRANCH   8   9
ATOM      9  C   UNL     1       8.986  28.949 -12.734  1.00  0.00    -0.000 C 
BRANCH   9  10
ATOM     10  C   UNL     1       8.805  30.457 -12.504  1.00  0.00    -0.003 C 
ATOM     11  C   UNL     1       7.363  30.919 -12.714  1.00  0.00     0.004 C 
ENDBRANCH   9  10
ENDBRANCH   8   9
ENDBRANCH   7   8
ENDBRANCH   1   7
TORSDOF 7
ENDMDL
MODEL 5
REMARK VINA RESULT:    -4.183      9.159     10.469
REMARK INTER + INTRA:          -6.346
REMARK INTER:                  -5.940
REMARK INTRA:                  -0.406
REMARK UNBOUND:                -0.452
REMARK SMILES CCCCCCCCC(=O)[O-]
REMARK SMILES IDX 6 1 7 2 8 3 9 4 10 5 11 6 5 7 4 8 3 9 2 10 1 11
REMARK H PARENT
REMARK Flexibility Score: inf
ROOT
ATOM      1  C   UNL     1       8.253  27.160 -12.792  1.00  0.00     0.000 C 
ENDROOT
BRANCH   1   2
ATOM      2  C   UNL     1       7.772  28.614 -12.735  1.00  0.00     0.006 C 
BRANCH   2   3
ATOM      3  C   UNL     1       8.221  29.390 -13.977  1.00  0.00     0.053 C 
BRANCH   3   4
ATOM      4  C   UNL     1       7.039  29.785 -14.805  1.00  0.00     0.041 C 
ATOM      5  O   UNL     1       6.841  30.995 -15.088  1.00  0.00    -0.550 OA
ATOM      6  O   UNL     1       6.128  28.822 -15.221  1.00  0.00    -0.550 OA
ENDBRANCH   3   4
ENDBRANCH   2   3
ENDBRANCH   1   2
BRANCH   1   7
ATOM      7  C   UNL     1       7.068  26.187 -12.798  1.00  0.00     0.000 C 
BRANCH   7   8
ATOM      8  C   UNL     1       7.530  24.752 -12.519  1.00  0.00    -0.000 C 
BRANCH   8   9
ATOM      9  C   UNL     1       8.899  24.740 -11.824  1.00  0.00    -0.000 C 
BRANCH   9  10
ATOM     10  C   UNL     1       8.801  24.376 -10.334  1.00  0.00    -0.003 C 
ATOM     11  C   UNL     1       7.719  23.334 -10.049  1.00  0.00     0.004 C 
ENDBRANCH   9  10
ENDBRANCH   8   9
ENDBRANCH   7   8
ENDBRANCH   1   7
TORSDOF 7
ENDMDL
MODEL 6
REMARK VINA RESULT:    -4.155     13.021     14.367
REMARK INTER + INTRA:          -6.307
REMARK INTER:                  -5.538
REMARK INTRA:                  -0.768
REMARK UNBOUND:                -0.452
REMARK SMILES CCCCCCCCC(=O)[O-]
REMARK SMILES IDX 6 1 7 2 8 3 9 4 10 5 11 6 5 7 4 8 3 9 2 10 1 11
REMARK H PARENT
REMARK Flexibility Score: inf
ROOT
ATOM      1  C   UNL     1      -4.786  31.494 -18.402  1.00  0.00     0.000 C 
ENDROOT
BRANCH   1   2
ATOM      2  C   UNL     1      -4.231  32.730 -19.118  1.00  0.00     0.006 C 
BRANCH   2   3
ATOM      3  C   UNL     1      -3.421  33.605 -18.156  1.00  0.00     0.053 C 
BRANCH   3   4
ATOM      4  C   UNL     1      -1.955  33.363 -18.335  1.00  0.00     0.041 C 
ATOM      5  O   UNL     1      -1.464  32.233 -18.076  1.00  0.00    -0.550 OA
ATOM      6  O   UNL     1      -1.124  34.398 -18.741  1.00  0.00    -0.550 OA
ENDBRANCH   3   4
ENDBRANCH   2   3
ENDBRANCH   1   2
BRANCH   1   7
ATOM      7  C   UNL     1      -4.975  31.764 -16.904  1.00  0.00     0.000 C 
BRANCH   7   8
ATOM      8  C   UNL     1      -6.462  31.875 -16.546  1.00  0.00    -0.000 C 
BRANCH   8   9
ATOM      9  C   UNL     1      -6.799  33.280 -16.026  1.00  0.00    -0.000 C 
BRANCH   9  10
ATOM     10  C   UNL     1      -7.216  34.241 -17.149  1.00  0.00    -0.003 C 
ATOM     11  C   UNL     1      -8.014  33.550 -18.254  1.00  0.00     0.004 C 
ENDBRANCH   9  10
ENDBRANCH   8   9
ENDBRANCH   7   8
ENDBRANCH   1   7
TORSDOF 7
ENDMDL
MODEL 7
REMARK VINA RESULT:    -4.046     13.920     15.141
REMARK INTER + INTRA:          -6.153
REMARK INTER:                  -5.466
REMARK INTRA:                  -0.687
REMARK UNBOUND:                -0.452
REMARK SMILES CCCCCCCCC(=O)[O-]
REMARK SMILES IDX 6 1 7 2 8 3 9 4 10 5 11 6 5 7 4 8 3 9 2 10 1 11
REMARK H PARENT
REMARK Flexibility Score: inf
ROOT
ATOM      1  C   UNL     1      -4.947  31.525 -17.099  1.00  0.00     0.000 C 
ENDROOT
BRANCH   1   2
ATOM      2  C   UNL     1      -6.328  31.604 -16.439  1.00  0.00     0.006 C 
BRANCH   2   3
ATOM      3  C   UNL     1      -6.723  33.058 -16.164  1.00  0.00     0.053 C 
BRANCH   3   4
ATOM      4  C   UNL     1      -8.053  33.365 -16.777  1.00  0.00     0.041 C 
ATOM      5  O   UNL     1      -9.083  33.429 -16.056  1.00  0.00    -0.550 OA
ATOM      6  O   UNL     1      -8.164  33.531 -18.152  1.00  0.00    -0.550 OA
ENDBRANCH   3   4
ENDBRANCH   2   3
ENDBRANCH   1   2
BRANCH   1   7
ATOM      7  C   UNL     1      -5.068  31.491 -18.627  1.00  0.00     0.000 C 
BRANCH   7   8
ATOM      8  C   UNL     1      -4.338  32.678 -19.266  1.00  0.00    -0.000 C 
BRANCH   8   9
ATOM      9  C   UNL     1      -3.063  33.025 -18.483  1.00  0.00    -0.000 C 
BRANCH   9  10
ATOM     10  C   UNL     1      -2.874  34.539 -18.305  1.00  0.00    -0.003 C 
ATOM     11  C   UNL     1      -3.995  35.184 -17.490  1.00  0.00     0.004 C 
ENDBRANCH   9  10
ENDBRANCH   8   9
ENDBRANCH   7   8
ENDBRANCH   1   7
TORSDOF 7
ENDMDL
MODEL 8
REMARK VINA RESULT:    -3.994      9.257     10.315
REMARK INTER + INTRA:          -6.080
REMARK INTER:                  -5.376
REMARK INTRA:                  -0.704
REMARK UNBOUND:                -0.452
REMARK SMILES CCCCCCCCC(=O)[O-]
REMARK SMILES IDX 6 1 7 2 8 3 9 4 10 5 11 6 5 7 4 8 3 9 2 10 1 11
REMARK H PARENT
REMARK Flexibility Score: inf
ROOT
ATOM      1  C   UNL     1      10.327  25.083 -14.644  1.00  0.00     0.000 C 
ENDROOT
BRANCH   1   2
ATOM      2  C   UNL     1       9.228  24.341 -13.875  1.00  0.00     0.006 C 
BRANCH   2   3
ATOM      3  C   UNL     1       9.340  24.598 -12.370  1.00  0.00     0.053 C 
BRANCH   3   4
ATOM      4  C   UNL     1       8.190  23.976 -11.644  1.00  0.00     0.041 C 
ATOM      5  O   UNL     1       7.025  24.424 -11.802  1.00  0.00    -0.550 OA
ATOM      6  O   UNL     1       8.411  22.933 -10.754  1.00  0.00    -0.550 OA
ENDBRANCH   3   4
ENDBRANCH   2   3
ENDBRANCH   1   2
BRANCH   1   7
ATOM      7  C   UNL     1      10.621  26.446 -14.005  1.00  0.00     0.000 C 
BRANCH   7   8
ATOM      8  C   UNL     1      10.316  27.589 -14.980  1.00  0.00    -0.000 C 
BRANCH   8   9
ATOM      9  C   UNL     1       9.361  28.611 -14.347  1.00  0.00    -0.000 C 
BRANCH   9  10
ATOM     10  C   UNL     1       8.883  28.186 -12.950  1.00  0.00    -0.003 C 
ATOM     11  C   UNL     1       7.412  27.775 -12.927  1.00  0.00     0.004 C 
ENDBRANCH   9  10
ENDBRANCH   8   9
ENDBRANCH   7   8
ENDBRANCH   1   7
TORSDOF 7
ENDMDL
MODEL 9
REMARK VINA RESULT:    -3.988      8.760     11.240
REMARK INTER + INTRA:          -6.071
REMARK INTER:                  -5.329
REMARK INTRA:                  -0.742
REMARK UNBOUND:                -0.452
REMARK SMILES CCCCCCCCC(=O)[O-]
REMARK SMILES IDX 6 1 7 2 8 3 9 4 10 5 11 6 5 7 4 8 3 9 2 10 1 11
REMARK H PARENT
REMARK Flexibility Score: inf
ROOT
ATOM      1  C   UNL     1       2.213  20.872  -6.343  1.00  0.00     0.000 C 
ENDROOT
BRANCH   1   2
ATOM      2  C   UNL     1       2.765  21.386  -7.677  1.00  0.00     0.006 C 
BRANCH   2   3
ATOM      3  C   UNL     1       1.629  21.757  -8.635  1.00  0.00     0.053 C 
BRANCH   3   4
ATOM      4  C   UNL     1       1.842  21.122  -9.973  1.00  0.00     0.041 C 
ATOM      5  O   UNL     1       2.807  20.334 -10.152  1.00  0.00    -0.550 OA
ATOM      6  O   UNL     1       1.004  21.437 -11.034  1.00  0.00    -0.550 OA
ENDBRANCH   3   4
ENDBRANCH   2   3
ENDBRANCH   1   2
BRANCH   1   7
ATOM      7  C   UNL     1       0.757  21.311  -6.144  1.00  0.00     0.000 C 
BRANCH   7   8
ATOM      8  C   UNL     1      -0.073  20.194  -5.501  1.00  0.00    -0.000 C 
BRANCH   8   9
ATOM      9  C   UNL     1       0.627  18.835  -5.646  1.00  0.00    -0.000 C 
BRANCH   9  10
ATOM     10  C   UNL     1      -0.094  17.902  -6.632  1.00  0.00    -0.003 C 
ATOM     11  C   UNL     1       0.328  18.133  -8.082  1.00  0.00     0.004 C 
ENDBRANCH   9  10
ENDBRANCH   8   9
ENDBRANCH   7   8
ENDBRANCH   1   7
TORSDOF 7
ENDMDL
