MODEL 1
REMARK VINA RESULT:     0.000      0.000      0.000
REMARK INTER + INTRA:          -0.703
REMARK INTER:                   0.000
REMARK INTRA:                  -0.703
REMARK UNBOUND:                -0.703
REMARK SMILES CCCCCCCC(=O)[O-]
REMARK SMILES IDX 5 1 6 2 7 3 8 4 9 5 10 6 4 7 3 8 2 9 1 10
REMARK H PARENT
REMARK Flexibility Score: inf
ROOT
ATOM      1  C   UNL     1     170.594 194.626 191.149  1.00  0.00     0.000 C 
ENDROOT
BRANCH   1   2
ATOM      2  C   UNL     1     169.714 195.459 192.093  1.00  0.00     0.006 C 
BRANCH   2   3
ATOM      3  C   UNL     1     170.381 196.798 192.423  1.00  0.00     0.053 C 
BRANCH   3   4
ATOM      4  C   UNL     1     171.397 196.625 193.508  1.00  0.00     0.041 C 
ATOM      5  O   UNL     1     171.030 196.382 194.687  1.00  0.00    -0.550 OA
ATOM      6  O   UNL     1     172.752 196.682 193.206  1.00  0.00    -0.550 OA
ENDBRANCH   3   4
ENDBRANCH   2   3
ENDBRANCH   1   2
BRANCH   1   7
ATOM      7  C   UNL     1     171.102 193.330 191.800  1.00  0.00     0.000 C 
BRANCH   7   8
ATOM      8  C   UNL     1     170.382 193.009 193.119  1.00  0.00    -0.000 C 
BRANCH   8   9
ATOM      9  C   UNL     1     171.385 192.859 194.268  1.00  0.00    -0.003 C 
ATOM     10  C   UNL     1     172.808 193.146 193.799  1.00  0.00     0.004 C 
ENDBRANCH   8   9
ENDBRANCH   7   8
ENDBRANCH   1   7
TORSDOF 6
ENDMDL
MODEL 2
REMARK VINA RESULT:     0.000      2.853      4.354
REMARK INTER + INTRA:          -0.703
REMARK INTER:                   0.000
REMARK INTRA:                  -0.703
REMARK UNBOUND:                -0.703
REMARK SMILES CCCCCCCC(=O)[O-]
REMARK SMILES IDX 5 1 6 2 7 3 8 4 9 5 10 6 4 7 3 8 2 9 1 10
REMARK H PARENT
REMARK Flexibility Score: inf
ROOT
ATOM      1  C   UNL     1     173.580 191.078 194.051  1.00  0.00     0.000 C 
ENDROOT
BRANCH   1   2
ATOM      2  C   UNL     1     172.244 190.529 193.530  1.00  0.00     0.006 C 
BRANCH   2   3
ATOM      3  C   UNL     1     171.714 191.384 192.374  1.00  0.00     0.053 C 
BRANCH   3   4
ATOM      4  C   UNL     1     171.023 192.603 192.897  1.00  0.00     0.041 C 
ATOM      5  O   UNL     1     169.913 192.500 193.484  1.00  0.00    -0.550 OA
ATOM      6  O   UNL     1     171.627 193.849 192.783  1.00  0.00    -0.550 OA
ENDBRANCH   3   4
ENDBRANCH   2   3
ENDBRANCH   1   2
BRANCH   1   7
ATOM      7  C   UNL     1     173.488 191.591 195.498  1.00  0.00     0.000 C 
BRANCH   7   8
ATOM      8  C   UNL     1     172.184 191.168 196.192  1.00  0.00    -0.000 C 
BRANCH   8   9
ATOM      9  C   UNL     1     171.421 192.391 196.714  1.00  0.00    -0.003 C 
ATOM     10  C   UNL     1     172.128 193.688 196.330  1.00  0.00     0.004 C 
ENDBRANCH   8   9
ENDBRANCH   7   8
ENDBRANCH   1   7
TORSDOF 6
ENDMDL
MODEL 3
REMARK VINA RESULT:     0.000     13.213     14.532
REMARK INTER + INTRA:          -0.703
REMARK INTER:                   0.000
REMARK INTRA:                  -0.703
REMARK UNBOUND:                -0.703
REMARK SMILES CCCCCCCC(=O)[O-]
REMARK SMILES IDX 5 1 6 2 7 3 8 4 9 5 10 6 4 7 3 8 2 9 1 10
REMARK H PARENT
REMARK Flexibility Score: inf
ROOT
ATOM      1  C   UNL     1     179.560 188.844 199.585  1.00  0.00     0.000 C 
ENDROOT
BRANCH   1   2
ATOM      2  C   UNL     1     180.104 187.570 198.922  1.00  0.00     0.006 C 
BRANCH   2   3
ATOM      3  C   UNL     1     180.106 186.397 199.908  1.00  0.00     0.053 C 
BRANCH   3   4
ATOM      4  C   UNL     1     181.306 186.463 200.798  1.00  0.00     0.041 C 
ATOM      5  O   UNL     1     182.453 186.225 200.334  1.00  0.00    -0.550 OA
ATOM      6  O   UNL     1     181.166 186.835 202.129  1.00  0.00    -0.550 OA
ENDBRANCH   3   4
ENDBRANCH   2   3
ENDBRANCH   1   2
BRANCH   1   7
ATOM      7  C   UNL     1     180.619 189.952 199.699  1.00  0.00     0.000 C 
BRANCH   7   8
ATOM      8  C   UNL     1     181.876 189.657 198.866  1.00  0.00    -0.000 C 
BRANCH   8   9
ATOM      9  C   UNL     1     183.131 189.677 199.745  1.00  0.00    -0.003 C 
ATOM     10  C   UNL     1     182.775 189.905 201.211  1.00  0.00     0.004 C 
ENDBRANCH   8   9
ENDBRANCH   7   8
ENDBRANCH   1   7
TORSDOF 6
ENDMDL
MODEL 4
REMARK VINA RESULT:     0.000      3.018      4.502
REMARK INTER + INTRA:          -0.702
REMARK INTER:                   0.000
REMARK INTRA:                  -0.702
REMARK UNBOUND:                -0.703
REMARK SMILES CCCCCCCC(=O)[O-]
REMARK SMILES IDX 5 1 6 2 7 3 8 4 9 5 10 6 4 7 3 8 2 9 1 10
REMARK H PARENT
REMARK Flexibility Score: inf
ROOT
ATOM      1  C   UNL     1     173.785 194.725 190.287  1.00  0.00     0.000 C 
ENDROOT
BRANCH   1   2
ATOM      2  C   UNL     1     174.289 195.616 191.433  1.00  0.00     0.006 C 
BRANCH   2   3
ATOM      3  C   UNL     1     173.492 195.359 192.716  1.00  0.00     0.053 C 
BRANCH   3   4
ATOM      4  C   UNL     1     172.197 196.107 192.689  1.00  0.00     0.041 C 
ATOM      5  O   UNL     1     172.188 197.362 192.795  1.00  0.00    -0.550 OA
ATOM      6  O   UNL     1     171.003 195.424 192.496  1.00  0.00    -0.550 OA
ENDBRANCH   3   4
ENDBRANCH   2   3
ENDBRANCH   1   2
BRANCH   1   7
ATOM      7  C   UNL     1     173.160 195.533 189.139  1.00  0.00     0.000 C 
BRANCH   7   8
ATOM      8  C   UNL     1     173.447 197.038 189.250  1.00  0.00    -0.000 C 
BRANCH   8   9
ATOM      9  C   UNL     1     172.143 197.844 189.262  1.00  0.00    -0.003 C 
ATOM     10  C   UNL     1     170.926 196.925 189.240  1.00  0.00     0.004 C 
ENDBRANCH   8   9
ENDBRANCH   7   8
ENDBRANCH   1   7
TORSDOF 6
ENDMDL
MODEL 5
REMARK VINA RESULT:     0.000      7.995      9.945
REMARK INTER + INTRA:          -0.702
REMARK INTER:                   0.000
REMARK INTRA:                  -0.702
REMARK UNBOUND:                -0.703
REMARK SMILES CCCCCCCC(=O)[O-]
REMARK SMILES IDX 5 1 6 2 7 3 8 4 9 5 10 6 4 7 3 8 2 9 1 10
REMARK H PARENT
REMARK Flexibility Score: inf
ROOT
ATOM      1  C   UNL     1     175.494 185.999 196.755  1.00  0.00     0.000 C 
ENDROOT
BRANCH   1   2
ATOM      2  C   UNL     1     174.107 185.378 196.978  1.00  0.00     0.006 C 
BRANCH   2   3
ATOM      3  C   UNL     1     173.704 184.499 195.790  1.00  0.00     0.053 C 
BRANCH   3   4
ATOM      4  C   UNL     1     173.159 185.339 194.678  1.00  0.00     0.041 C 
ATOM      5  O   UNL     1     172.037 185.898 194.797  1.00  0.00    -0.550 OA
ATOM      6  O   UNL     1     173.913 185.545 193.529  1.00  0.00    -0.550 OA
ENDBRANCH   3   4
ENDBRANCH   2   3
ENDBRANCH   1   2
BRANCH   1   7
ATOM      7  C   UNL     1     175.446 187.531 196.634  1.00  0.00     0.000 C 
BRANCH   7   8
ATOM      8  C   UNL     1     174.090 188.115 197.062  1.00  0.00    -0.000 C 
BRANCH   8   9
ATOM      9  C   UNL     1     173.477 188.955 195.936  1.00  0.00    -0.003 C 
ATOM     10  C   UNL     1     174.344 188.913 194.681  1.00  0.00     0.004 C 
ENDBRANCH   8   9
ENDBRANCH   7   8
ENDBRANCH   1   7
TORSDOF 6
ENDMDL
MODEL 6
REMARK VINA RESULT:     0.000      7.518      8.885
REMARK INTER + INTRA:          -0.702
REMARK INTER:                   0.000
REMARK INTRA:                  -0.702
REMARK UNBOUND:                -0.703
REMARK SMILES CCCCCCCC(=O)[O-]
REMARK SMILES IDX 5 1 6 2 7 3 8 4 9 5 10 6 4 7 3 8 2 9 1 10
REMARK H PARENT
REMARK Flexibility Score: inf
ROOT
ATOM      1  C   UNL     1     169.941 188.772 191.241  1.00  0.00     0.000 C 
ENDROOT
BRANCH   1   2
ATOM      2  C   UNL     1     169.322 187.367 191.273  1.00  0.00     0.006 C 
BRANCH   2   3
ATOM      3  C   UNL     1     170.380 186.309 191.603  1.00  0.00     0.053 C 
BRANCH   3   4
ATOM      4  C   UNL     1     171.160 185.949 190.378  1.00  0.00     0.041 C 
ATOM      5  O   UNL     1     170.618 185.288 189.453  1.00  0.00    -0.550 OA
ATOM      6  O   UNL     1     172.471 186.386 190.234  1.00  0.00    -0.550 OA
ENDBRANCH   3   4
ENDBRANCH   2   3
ENDBRANCH   1   2
BRANCH   1   7
ATOM      7  C   UNL     1     169.894 189.409 189.844  1.00  0.00     0.000 C 
BRANCH   7   8
ATOM      8  C   UNL     1     168.981 188.642 188.875  1.00  0.00    -0.000 C 
BRANCH   8   9
ATOM      9  C   UNL     1     169.750 188.220 187.617  1.00  0.00    -0.003 C 
ATOM     10  C   UNL     1     171.222 188.610 187.714  1.00  0.00     0.004 C 
ENDBRANCH   8   9
ENDBRANCH   7   8
ENDBRANCH   1   7
TORSDOF 6
ENDMDL
MODEL 7
REMARK VINA RESULT:     0.000      7.640      8.932
REMARK INTER + INTRA:          -0.702
REMARK INTER:                   0.000
REMARK INTRA:                  -0.702
REMARK UNBOUND:                -0.703
REMARK SMILES CCCCCCCC(=O)[O-]
REMARK SMILES IDX 5 1 6 2 7 3 8 4 9 5 10 6 4 7 3 8 2 9 1 10
REMARK H PARENT
REMARK Flexibility Score: inf
ROOT
ATOM      1  C   UNL     1     167.013 187.979 194.939  1.00  0.00     0.000 C 
ENDROOT
BRANCH   1   2
ATOM      2  C   UNL     1     168.463 188.315 195.320  1.00  0.00     0.006 C 
BRANCH   2   3
ATOM      3  C   UNL     1     169.240 188.839 194.107  1.00  0.00     0.053 C 
BRANCH   3   4
ATOM      4  C   UNL     1     169.714 187.703 193.257  1.00  0.00     0.041 C 
ATOM      5  O   UNL     1     170.633 186.946 193.666  1.00  0.00    -0.550 OA
ATOM      6  O   UNL     1     169.106 187.449 192.034  1.00  0.00    -0.550 OA
ENDBRANCH   3   4
ENDBRANCH   2   3
ENDBRANCH   1   2
BRANCH   1   7
ATOM      7  C   UNL     1     166.698 186.480 195.066  1.00  0.00     0.000 C 
BRANCH   7   8
ATOM      8  C   UNL     1     167.791 185.709 195.823  1.00  0.00    -0.000 C 
BRANCH   8   9
ATOM      9  C   UNL     1     168.333 184.554 194.973  1.00  0.00    -0.003 C 
ATOM     10  C   UNL     1     167.694 184.541 193.587  1.00  0.00     0.004 C 
ENDBRANCH   8   9
ENDBRANCH   7   8
ENDBRANCH   1   7
TORSDOF 6
ENDMDL
MODEL 8
REMARK VINA RESULT:     0.000      6.081      7.018
REMARK INTER + INTRA:          -0.702
REMARK INTER:                   0.000
REMARK INTRA:                  -0.702
REMARK UNBOUND:                -0.703
REMARK SMILES CCCCCCCC(=O)[O-]
REMARK SMILES IDX 5 1 6 2 7 3 8 4 9 5 10 6 4 7 3 8 2 9 1 10
REMARK H PARENT
REMARK Flexibility Score: inf
ROOT
ATOM      1  C   UNL     1     174.100 192.202 196.734  1.00  0.00     0.000 C 
ENDROOT
BRANCH   1   2
ATOM      2  C   UNL     1     172.701 191.903 197.293  1.00  0.00     0.006 C 
BRANCH   2   3
ATOM      3  C   UNL     1     172.793 191.245 198.674  1.00  0.00     0.053 C 
BRANCH   3   4
ATOM      4  C   UNL     1     173.070 189.781 198.540  1.00  0.00     0.041 C 
ATOM      5  O   UNL     1     172.180 189.005 198.103  1.00  0.00    -0.550 OA
ATOM      6  O   UNL     1     174.328 189.280 198.850  1.00  0.00    -0.550 OA
ENDBRANCH   3   4
ENDBRANCH   2   3
ENDBRANCH   1   2
BRANCH   1   7
ATOM      7  C   UNL     1     174.418 191.392 195.466  1.00  0.00     0.000 C 
BRANCH   7   8
ATOM      8  C   UNL     1     173.177 190.701 194.880  1.00  0.00    -0.000 C 
BRANCH   8   9
ATOM      9  C   UNL     1     173.399 189.189 194.757  1.00  0.00    -0.003 C 
ATOM     10  C   UNL     1     174.757 188.784 195.324  1.00  0.00     0.004 C 
ENDBRANCH   8   9
ENDBRANCH   7   8
ENDBRANCH   1   7
TORSDOF 6
ENDMDL
MODEL 9
REMARK VINA RESULT:     0.001      8.967     10.668
REMARK INTER + INTRA:          -0.702
REMARK INTER:                   0.000
REMARK INTRA:                  -0.702
REMARK UNBOUND:                -0.703
REMARK SMILES CCCCCCCC(=O)[O-]
REMARK SMILES IDX 5 1 6 2 7 3 8 4 9 5 10 6 4 7 3 8 2 9 1 10
REMARK H PARENT
REMARK Flexibility Score: inf
ROOT
ATOM      1  C   UNL     1     181.788 195.083 194.268  1.00  0.00     0.000 C 
ENDROOT
BRANCH   1   2
ATOM      2  C   UNL     1     181.446 194.637 195.698  1.00  0.00     0.006 C 
BRANCH   2   3
ATOM      3  C   UNL     1     179.939 194.403 195.852  1.00  0.00     0.053 C 
BRANCH   3   4
ATOM      4  C   UNL     1     179.227 195.700 196.075  1.00  0.00     0.041 C 
ATOM      5  O   UNL     1     179.362 196.318 197.164  1.00  0.00    -0.550 OA
ATOM      6  O   UNL     1     178.455 196.252 195.061  1.00  0.00    -0.550 OA
ENDBRANCH   3   4
ENDBRANCH   2   3
ENDBRANCH   1   2
BRANCH   1   7
ATOM      7  C   UNL     1     182.348 196.513 194.211  1.00  0.00     0.000 C 
BRANCH   7   8
ATOM      8  C   UNL     1     182.718 197.059 195.599  1.00  0.00    -0.000 C 
BRANCH   8   9
ATOM      9  C   UNL     1     181.981 198.372 195.885  1.00  0.00    -0.003 C 
ATOM     10  C   UNL     1     181.029 198.729 194.747  1.00  0.00     0.004 C 
ENDBRANCH   8   9
ENDBRANCH   7   8
ENDBRANCH   1   7
TORSDOF 6
ENDMDL
