MODEL 1
REMARK VINA RESULT:    -8.187      0.000      0.000
REMARK INTER + INTRA:          -9.632
REMARK INTER:                  -9.384
REMARK INTRA:                  -0.248
REMARK UNBOUND:                -0.248
REMARK SMILES CC1(C)CC[C@@]23CO[C@]4(C=C[C@H]5[C@@]6(C)CC[C@H](O)[C@](C)(CO)[C@@H]6CC[C@]5(C)[C@]4(C)C[C@@H]2O)[C@@H]3C1
REMARK SMILES IDX 1 1 2 2 4 3 5 4 6 5 7 6 8 7 9 8 33 9 34 10 10 11 11 12 12 13
REMARK SMILES IDX 13 14 15 15 16 16 17 17 19 18 23 19 24 20 25 21 26 22 28 23
REMARK SMILES IDX 30 24 31 25 29 26 27 27 20 28 14 29 3 30 32 31 21 33 22 34
REMARK SMILES IDX 18 36
REMARK H PARENT 32 32 22 35 18 37
REMARK Flexibility Score: inf
ROOT
ATOM      1  C   UNL     1      23.735   5.663  17.544  1.00  0.00     0.011 C 
ATOM      2  C   UNL     1      23.673   5.902  19.091  1.00  0.00    -0.035 C 
ATOM      3  C   UNL     1      22.226   6.222  19.584  1.00  0.00     0.007 C 
ATOM      4  C   UNL     1      21.799   7.704  19.655  1.00  0.00     0.013 C 
ATOM      5  C   UNL     1      22.772   8.756  19.048  1.00  0.00     0.026 C 
ATOM      6  C   UNL     1      22.706   8.750  17.523  1.00  0.00     0.171 C 
ATOM      7  O   UNL     1      23.992   9.002  17.017  1.00  0.00    -0.369 OA
ATOM      8  C   UNL     1      24.849   9.255  18.118  1.00  0.00     0.096 C 
ATOM      9  C   UNL     1      24.241   8.486  19.322  1.00  0.00     0.037 C 
ATOM     10  C   UNL     1      24.663   6.995  19.539  1.00  0.00     0.014 C 
ATOM     11  C   UNL     1      26.208   8.740  17.698  1.00  0.00     0.005 C 
ATOM     12  C   UNL     1      27.324   9.102  18.329  1.00  0.00    -0.024 C 
ATOM     13  C   UNL     1      27.227  10.082  19.472  1.00  0.00     0.024 C 
ATOM     14  C   UNL     1      28.559  10.310  20.362  1.00  0.00    -0.022 C 
ATOM     15  C   UNL     1      29.841   9.730  19.690  1.00  0.00     0.010 C 
ATOM     16  C   UNL     1      31.154  10.035  20.445  1.00  0.00     0.033 C 
ATOM     17  C   UNL     1      31.365  11.533  20.713  1.00  0.00     0.123 C 
ATOM     18  C   UNL     1      30.151  12.215  21.427  1.00  0.00     0.020 C 
ATOM     19  C   UNL     1      28.848  11.846  20.607  1.00  0.00     0.006 C 
ATOM     20  C   UNL     1      27.612  12.718  20.910  1.00  0.00     0.005 C 
ATOM     21  C   UNL     1      26.295  12.218  20.292  1.00  0.00     0.008 C 
ATOM     22  C   UNL     1      26.388  11.316  19.015  1.00  0.00    -0.017 C 
ATOM     23  C   UNL     1      24.886  10.836  18.442  1.00  0.00     0.009 C 
ATOM     24  C   UNL     1      23.671  11.221  19.411  1.00  0.00     0.043 C 
ATOM     25  C   UNL     1      22.450  10.230  19.530  1.00  0.00     0.124 C 
ATOM     26  C   UNL     1      24.524  11.580  17.115  1.00  0.00     0.015 C 
ATOM     27  C   UNL     1      27.181  12.065  17.886  1.00  0.00     0.013 C 
ATOM     28  C   UNL     1      30.363  13.758  21.344  1.00  0.00     0.017 C 
ATOM     29  C   UNL     1      28.323   9.526  21.697  1.00  0.00     0.012 C 
ATOM     30  C   UNL     1      24.104   4.577  19.763  1.00  0.00     0.011 C 
ENDROOT
BRANCH  25  31
ATOM     31  O   UNL     1      21.968  10.249  20.853  1.00  0.00    -0.392 OA
ATOM     32  H   UNL     1      22.690   9.860  21.422  1.00  0.00     0.210 HD
ENDBRANCH  25  31
BRANCH  18  33
ATOM     33  C   UNL     1      30.093  11.829  22.945  1.00  0.00     0.165 C 
BRANCH  33  34
ATOM     34  O   UNL     1      31.116  12.460  23.666  1.00  0.00    -0.396 OA
ATOM     35  H   UNL     1      30.666  13.079  24.299  1.00  0.00     0.210 HD
ENDBRANCH  33  34
ENDBRANCH  18  33
BRANCH  17  36
ATOM     36  O   UNL     1      32.544  11.687  21.457  1.00  0.00    -0.392 OA
ATOM     37  H   UNL     1      33.132  12.302  20.961  1.00  0.00     0.210 HD
ENDBRANCH  17  36
TORSDOF 4
ENDMDL
MODEL 2
REMARK VINA RESULT:    -8.171      9.594     13.220
REMARK INTER + INTRA:          -9.613
REMARK INTER:                  -9.357
REMARK INTRA:                  -0.256
REMARK UNBOUND:                -0.248
REMARK SMILES CC1(C)CC[C@@]23CO[C@]4(C=C[C@H]5[C@@]6(C)CC[C@H](O)[C@](C)(CO)[C@@H]6CC[C@]5(C)[C@]4(C)C[C@@H]2O)[C@@H]3C1
REMARK SMILES IDX 1 1 2 2 4 3 5 4 6 5 7 6 8 7 9 8 33 9 34 10 10 11 11 12 12 13
REMARK SMILES IDX 13 14 15 15 16 16 17 17 19 18 23 19 24 20 25 21 26 22 28 23
REMARK SMILES IDX 30 24 31 25 29 26 27 27 20 28 14 29 3 30 32 31 21 33 22 34
REMARK SMILES IDX 18 36
REMARK H PARENT 32 32 22 35 18 37
REMARK Flexibility Score: inf
ROOT
ATOM      1  C   UNL     1      24.363   4.171  14.228  1.00  0.00     0.011 C 
ATOM      2  C   UNL     1      24.633   3.922  12.706  1.00  0.00    -0.035 C 
ATOM      3  C   UNL     1      23.328   3.572  11.922  1.00  0.00     0.007 C 
ATOM      4  C   UNL     1      22.952   2.082  11.777  1.00  0.00     0.013 C 
ATOM      5  C   UNL     1      23.792   1.052  12.586  1.00  0.00     0.026 C 
ATOM      6  C   UNL     1      23.406   1.065  14.062  1.00  0.00     0.171 C 
ATOM      7  O   UNL     1      24.560   0.841  14.831  1.00  0.00    -0.369 OA
ATOM      8  C   UNL     1      25.635   0.597  13.938  1.00  0.00     0.096 C 
ATOM      9  C   UNL     1      25.282   1.348  12.624  1.00  0.00     0.037 C 
ATOM     10  C   UNL     1      25.714   2.846  12.487  1.00  0.00     0.014 C 
ATOM     11  C   UNL     1      26.866   1.141  14.630  1.00  0.00     0.005 C 
ATOM     12  C   UNL     1      28.096   0.796  14.251  1.00  0.00    -0.024 C 
ATOM     13  C   UNL     1      28.260  -0.192  13.124  1.00  0.00     0.024 C 
ATOM     14  C   UNL     1      29.752  -0.400  12.536  1.00  0.00    -0.022 C 
ATOM     15  C   UNL     1      30.853   0.208  13.458  1.00  0.00     0.010 C 
ATOM     16  C   UNL     1      32.302  -0.077  13.000  1.00  0.00     0.033 C 
ATOM     17  C   UNL     1      32.590  -1.572  12.797  1.00  0.00     0.123 C 
ATOM     18  C   UNL     1      31.566  -2.281  11.850  1.00  0.00     0.020 C 
ATOM     19  C   UNL     1      30.113  -1.932  12.373  1.00  0.00     0.006 C 
ATOM     20  C   UNL     1      28.984  -2.829  11.825  1.00  0.00     0.005 C 
ATOM     21  C   UNL     1      27.558  -2.350  12.146  1.00  0.00     0.008 C 
ATOM     22  C   UNL     1      27.363  -1.439  13.406  1.00  0.00    -0.017 C 
ATOM     23  C   UNL     1      25.767  -0.984  13.644  1.00  0.00     0.009 C 
ATOM     24  C   UNL     1      24.790  -1.397  12.445  1.00  0.00     0.043 C 
ATOM     25  C   UNL     1      23.605  -0.431  12.061  1.00  0.00     0.124 C 
ATOM     26  C   UNL     1      25.146  -1.727  14.872  1.00  0.00     0.015 C 
ATOM     27  C   UNL     1      27.913  -2.166  14.683  1.00  0.00     0.013 C 
ATOM     28  C   UNL     1      31.782  -3.819  11.991  1.00  0.00     0.017 C 
ATOM     29  C   UNL     1      29.790   0.371  11.174  1.00  0.00     0.012 C 
ATOM     30  C   UNL     1      25.174   5.251  12.126  1.00  0.00     0.011 C 
ENDROOT
BRANCH  25  31
ATOM     31  O   UNL     1      23.413  -0.467  10.667  1.00  0.00    -0.392 OA
ATOM     32  H   UNL     1      24.074  -1.125  10.308  1.00  0.00     0.210 HD
ENDBRANCH  25  31
BRANCH  18  33
ATOM     33  C   UNL     1      31.823  -1.905  10.350  1.00  0.00     0.165 C 
BRANCH  33  34
ATOM     34  O   UNL     1      32.959  -2.559   9.853  1.00  0.00    -0.396 OA
ATOM     35  H   UNL     1      32.803  -3.529   9.996  1.00  0.00     0.210 HD
ENDBRANCH  33  34
ENDBRANCH  18  33
BRANCH  17  36
ATOM     36  O   UNL     1      33.902  -1.708  12.320  1.00  0.00    -0.392 OA
ATOM     37  H   UNL     1      33.879  -1.580  11.343  1.00  0.00     0.210 HD
ENDBRANCH  17  36
TORSDOF 4
ENDMDL
MODEL 3
REMARK VINA RESULT:    -8.116      4.596      9.002
REMARK INTER + INTRA:          -9.551
REMARK INTER:                  -9.315
REMARK INTRA:                  -0.236
REMARK UNBOUND:                -0.248
REMARK SMILES CC1(C)CC[C@@]23CO[C@]4(C=C[C@H]5[C@@]6(C)CC[C@H](O)[C@](C)(CO)[C@@H]6CC[C@]5(C)[C@]4(C)C[C@@H]2O)[C@@H]3C1
REMARK SMILES IDX 1 1 2 2 4 3 5 4 6 5 7 6 8 7 9 8 33 9 34 10 10 11 11 12 12 13
REMARK SMILES IDX 13 14 15 15 16 16 17 17 19 18 23 19 24 20 25 21 26 22 28 23
REMARK SMILES IDX 30 24 31 25 29 26 27 27 20 28 14 29 3 30 32 31 21 33 22 34
REMARK SMILES IDX 18 36
REMARK H PARENT 32 32 22 35 18 37
REMARK Flexibility Score: inf
ROOT
ATOM      1  C   UNL     1      27.257   6.183  14.717  1.00  0.00     0.011 C 
ATOM      2  C   UNL     1      27.276   6.993  13.377  1.00  0.00    -0.035 C 
ATOM      3  C   UNL     1      28.696   7.549  13.041  1.00  0.00     0.007 C 
ATOM      4  C   UNL     1      29.052   8.967  13.538  1.00  0.00     0.013 C 
ATOM      5  C   UNL     1      28.045   9.660  14.500  1.00  0.00     0.026 C 
ATOM      6  C   UNL     1      28.141   9.079  15.908  1.00  0.00     0.171 C 
ATOM      7  O   UNL     1      26.856   9.054  16.474  1.00  0.00    -0.369 OA
ATOM      8  C   UNL     1      25.966   9.663  15.553  1.00  0.00     0.096 C 
ATOM      9  C   UNL     1      26.584   9.440  14.145  1.00  0.00     0.037 C 
ATOM     10  C   UNL     1      26.228   8.123  13.378  1.00  0.00     0.014 C 
ATOM     11  C   UNL     1      24.640   8.958  15.747  1.00  0.00     0.005 C 
ATOM     12  C   UNL     1      23.497   9.476  15.302  1.00  0.00    -0.024 C 
ATOM     13  C   UNL     1      23.524  10.819  14.617  1.00  0.00     0.024 C 
ATOM     14  C   UNL     1      22.166  11.300  13.881  1.00  0.00    -0.022 C 
ATOM     15  C   UNL     1      20.926  10.444  14.285  1.00  0.00     0.010 C 
ATOM     16  C   UNL     1      19.585  10.947  13.703  1.00  0.00     0.033 C 
ATOM     17  C   UNL     1      19.300  12.422  14.025  1.00  0.00     0.123 C 
ATOM     18  C   UNL     1      20.466  13.384  13.622  1.00  0.00     0.020 C 
ATOM     19  C   UNL     1      21.801  12.798  14.239  1.00  0.00     0.006 C 
ATOM     20  C   UNL     1      22.989  13.781  14.288  1.00  0.00     0.005 C 
ATOM     21  C   UNL     1      24.340  13.151  14.668  1.00  0.00     0.008 C 
ATOM     22  C   UNL     1      24.315  11.828  15.507  1.00  0.00    -0.017 C 
ATOM     23  C   UNL     1      25.848  11.244  15.853  1.00  0.00     0.009 C 
ATOM     24  C   UNL     1      27.025  12.029  15.102  1.00  0.00     0.043 C 
ATOM     25  C   UNL     1      28.287  11.220  14.614  1.00  0.00     0.124 C 
ATOM     26  C   UNL     1      26.203  11.446  17.363  1.00  0.00     0.015 C 
ATOM     27  C   UNL     1      23.511  12.053  16.837  1.00  0.00     0.013 C 
ATOM     28  C   UNL     1      20.185  14.767  14.285  1.00  0.00     0.017 C 
ATOM     29  C   UNL     1      22.411  11.095  12.348  1.00  0.00     0.012 C 
ATOM     30  C   UNL     1      26.893   6.003  12.252  1.00  0.00     0.011 C 
ENDROOT
BRANCH  25  31
ATOM     31  O   UNL     1      28.742  11.764  13.397  1.00  0.00    -0.392 OA
ATOM     32  H   UNL     1      28.919  12.732  13.569  1.00  0.00     0.210 HD
ENDBRANCH  25  31
BRANCH  18  33
ATOM     33  C   UNL     1      20.511  13.606  12.071  1.00  0.00     0.165 C 
BRANCH  33  34
ATOM     34  O   UNL     1      19.414  14.364  11.637  1.00  0.00    -0.396 OA
ATOM     35  H   UNL     1      19.733  15.302  11.580  1.00  0.00     0.210 HD
ENDBRANCH  33  34
ENDBRANCH  18  33
BRANCH  17  36
ATOM     36  O   UNL     1      18.100  12.786  13.396  1.00  0.00    -0.392 OA
ATOM     37  H   UNL     1      18.287  12.892  12.435  1.00  0.00     0.210 HD
ENDBRANCH  17  36
TORSDOF 4
ENDMDL
MODEL 4
REMARK VINA RESULT:    -7.867      7.676     13.554
REMARK INTER + INTRA:          -9.265
REMARK INTER:                  -9.025
REMARK INTRA:                  -0.240
REMARK UNBOUND:                -0.248
REMARK SMILES CC1(C)CC[C@@]23CO[C@]4(C=C[C@H]5[C@@]6(C)CC[C@H](O)[C@](C)(CO)[C@@H]6CC[C@]5(C)[C@]4(C)C[C@@H]2O)[C@@H]3C1
REMARK SMILES IDX 1 1 2 2 4 3 5 4 6 5 7 6 8 7 9 8 33 9 34 10 10 11 11 12 12 13
REMARK SMILES IDX 13 14 15 15 16 16 17 17 19 18 23 19 24 20 25 21 26 22 28 23
REMARK SMILES IDX 30 24 31 25 29 26 27 27 20 28 14 29 3 30 32 31 21 33 22 34
REMARK SMILES IDX 18 36
REMARK H PARENT 32 32 22 35 18 37
REMARK Flexibility Score: inf
ROOT
ATOM      1  C   UNL     1      26.782   4.070  17.772  1.00  0.00     0.011 C 
ATOM      2  C   UNL     1      26.544   3.243  19.080  1.00  0.00    -0.035 C 
ATOM      3  C   UNL     1      27.881   2.782  19.742  1.00  0.00     0.007 C 
ATOM      4  C   UNL     1      28.444   1.400  19.345  1.00  0.00     0.013 C 
ATOM      5  C   UNL     1      27.742   0.653  18.174  1.00  0.00     0.026 C 
ATOM      6  C   UNL     1      28.125   1.260  16.828  1.00  0.00     0.171 C 
ATOM      7  O   UNL     1      27.010   1.204  15.975  1.00  0.00    -0.369 OA
ATOM      8  C   UNL     1      25.974   0.522  16.662  1.00  0.00     0.096 C 
ATOM      9  C   UNL     1      26.227   0.766  18.175  1.00  0.00     0.037 C 
ATOM     10  C   UNL     1      25.608   2.043  18.835  1.00  0.00     0.014 C 
ATOM     11  C   UNL     1      24.684   1.135  16.161  1.00  0.00     0.005 C 
ATOM     12  C   UNL     1      23.508   0.532  16.326  1.00  0.00    -0.024 C 
ATOM     13  C   UNL     1      23.469  -0.815  17.000  1.00  0.00     0.024 C 
ATOM     14  C   UNL     1      22.014  -1.401  17.396  1.00  0.00    -0.022 C 
ATOM     15  C   UNL     1      20.846  -0.627  16.711  1.00  0.00     0.010 C 
ATOM     16  C   UNL     1      19.445  -1.230  16.962  1.00  0.00     0.033 C 
ATOM     17  C   UNL     1      19.348  -2.716  16.585  1.00  0.00     0.123 C 
ATOM     18  C   UNL     1      20.453  -3.601  17.252  1.00  0.00     0.020 C 
ATOM     19  C   UNL     1      21.850  -2.914  16.966  1.00  0.00     0.006 C 
ATOM     20  C   UNL     1      23.084  -3.812  17.198  1.00  0.00     0.005 C 
ATOM     21  C   UNL     1      24.438  -3.084  17.146  1.00  0.00     0.008 C 
ATOM     22  C   UNL     1      24.517  -1.754  16.322  1.00  0.00    -0.017 C 
ATOM     23  C   UNL     1      26.043  -1.059  16.346  1.00  0.00     0.009 C 
ATOM     24  C   UNL     1      27.063  -1.771  17.354  1.00  0.00     0.043 C 
ATOM     25  C   UNL     1      28.115  -0.885  18.123  1.00  0.00     0.124 C 
ATOM     26  C   UNL     1      26.755  -1.214  14.962  1.00  0.00     0.015 C 
ATOM     27  C   UNL     1      24.065  -2.013  14.841  1.00  0.00     0.013 C 
ATOM     28  C   UNL     1      20.434  -4.990  16.544  1.00  0.00     0.017 C 
ATOM     29  C   UNL     1      21.877  -1.202  18.944  1.00  0.00     0.012 C 
ATOM     30  C   UNL     1      25.838   4.188  20.082  1.00  0.00     0.011 C 
ENDROOT
BRANCH  25  31
ATOM     31  O   UNL     1      28.308  -1.414  19.414  1.00  0.00    -0.392 OA
ATOM     32  H   UNL     1      27.524  -2.005  19.597  1.00  0.00     0.210 HD
ENDBRANCH  25  31
BRANCH  18  33
ATOM     33  C   UNL     1      20.148  -3.842  18.770  1.00  0.00     0.165 C 
BRANCH  33  34
ATOM     34  O   UNL     1      19.046  -4.694  18.936  1.00  0.00    -0.396 OA
ATOM     35  H   UNL     1      19.361  -5.602  18.688  1.00  0.00     0.210 HD
ENDBRANCH  33  34
ENDBRANCH  18  33
BRANCH  17  36
ATOM     36  O   UNL     1      18.064  -3.172  16.914  1.00  0.00    -0.392 OA
ATOM     37  H   UNL     1      17.507  -3.106  16.104  1.00  0.00     0.210 HD
ENDBRANCH  17  36
TORSDOF 4
ENDMDL
MODEL 5
REMARK VINA RESULT:    -7.603      5.065      8.864
REMARK INTER + INTRA:          -8.962
REMARK INTER:                  -8.692
REMARK INTRA:                  -0.271
REMARK UNBOUND:                -0.248
REMARK SMILES CC1(C)CC[C@@]23CO[C@]4(C=C[C@H]5[C@@]6(C)CC[C@H](O)[C@](C)(CO)[C@@H]6CC[C@]5(C)[C@]4(C)C[C@@H]2O)[C@@H]3C1
REMARK SMILES IDX 1 1 2 2 4 3 5 4 6 5 7 6 8 7 9 8 33 9 34 10 10 11 11 12 12 13
REMARK SMILES IDX 13 14 15 15 16 16 17 17 19 18 23 19 24 20 25 21 26 22 28 23
REMARK SMILES IDX 30 24 31 25 29 26 27 27 20 28 14 29 3 30 32 31 21 33 22 34
REMARK SMILES IDX 18 36
REMARK H PARENT 32 32 22 35 18 37
REMARK Flexibility Score: inf
ROOT
ATOM      1  C   UNL     1      27.286  12.347  18.778  1.00  0.00     0.011 C 
ATOM      2  C   UNL     1      28.324  11.268  19.235  1.00  0.00    -0.035 C 
ATOM      3  C   UNL     1      29.684  11.901  19.670  1.00  0.00     0.007 C 
ATOM      4  C   UNL     1      30.785  12.053  18.599  1.00  0.00     0.013 C 
ATOM      5  C   UNL     1      30.393  11.745  17.125  1.00  0.00     0.026 C 
ATOM      6  C   UNL     1      29.572  12.883  16.525  1.00  0.00     0.171 C 
ATOM      7  O   UNL     1      28.611  12.336  15.659  1.00  0.00    -0.369 OA
ATOM      8  C   UNL     1      28.828  10.936  15.600  1.00  0.00     0.096 C 
ATOM      9  C   UNL     1      29.479  10.544  16.955  1.00  0.00     0.037 C 
ATOM     10  C   UNL     1      28.539  10.190  18.155  1.00  0.00     0.014 C 
ATOM     11  C   UNL     1      27.460  10.324  15.390  1.00  0.00     0.005 C 
ATOM     12  C   UNL     1      27.308   9.073  14.957  1.00  0.00    -0.024 C 
ATOM     13  C   UNL     1      28.537   8.260  14.635  1.00  0.00     0.024 C 
ATOM     14  C   UNL     1      28.323   6.683  14.347  1.00  0.00    -0.022 C 
ATOM     15  C   UNL     1      26.827   6.310  14.114  1.00  0.00     0.010 C 
ATOM     16  C   UNL     1      26.590   4.836  13.711  1.00  0.00     0.033 C 
ATOM     17  C   UNL     1      27.409   4.403  12.486  1.00  0.00     0.123 C 
ATOM     18  C   UNL     1      28.941   4.693  12.626  1.00  0.00     0.020 C 
ATOM     19  C   UNL     1      29.100   6.209  13.053  1.00  0.00     0.006 C 
ATOM     20  C   UNL     1      30.516   6.797  12.871  1.00  0.00     0.005 C 
ATOM     21  C   UNL     1      30.728   8.186  13.496  1.00  0.00     0.008 C 
ATOM     22  C   UNL     1      29.467   9.094  13.699  1.00  0.00    -0.017 C 
ATOM     23  C   UNL     1      29.833  10.577  14.388  1.00  0.00     0.009 C 
ATOM     24  C   UNL     1      31.350  10.705  14.885  1.00  0.00     0.043 C 
ATOM     25  C   UNL     1      31.655  11.531  16.192  1.00  0.00     0.124 C 
ATOM     26  C   UNL     1      29.710  11.733  13.341  1.00  0.00     0.015 C 
ATOM     27  C   UNL     1      28.732   9.303  12.327  1.00  0.00     0.013 C 
ATOM     28  C   UNL     1      29.585   4.508  11.219  1.00  0.00     0.017 C 
ATOM     29  C   UNL     1      28.806   5.940  15.638  1.00  0.00     0.012 C 
ATOM     30  C   UNL     1      27.724  10.570  20.478  1.00  0.00     0.011 C 
ENDROOT
BRANCH  25  31
ATOM     31  O   UNL     1      32.716  10.918  16.888  1.00  0.00    -0.392 OA
ATOM     32  H   UNL     1      32.847  11.447  17.725  1.00  0.00     0.210 HD
ENDBRANCH  25  31
BRANCH  18  33
ATOM     33  C   UNL     1      29.626   3.671  13.596  1.00  0.00     0.165 C 
BRANCH  33  34
ATOM     34  O   UNL     1      29.989   2.497  12.920  1.00  0.00    -0.396 OA
ATOM     35  H   UNL     1      30.576   2.781  12.172  1.00  0.00     0.210 HD
ENDBRANCH  33  34
ENDBRANCH  18  33
BRANCH  17  36
ATOM     36  O   UNL     1      27.169   3.041  12.253  1.00  0.00    -0.392 OA
ATOM     37  H   UNL     1      27.576   2.810  11.386  1.00  0.00     0.210 HD
ENDBRANCH  17  36
TORSDOF 4
ENDMDL
MODEL 6
REMARK VINA RESULT:    -7.569     10.449     12.804
REMARK INTER + INTRA:          -8.923
REMARK INTER:                  -8.687
REMARK INTRA:                  -0.236
REMARK UNBOUND:                -0.248
REMARK SMILES CC1(C)CC[C@@]23CO[C@]4(C=C[C@H]5[C@@]6(C)CC[C@H](O)[C@](C)(CO)[C@@H]6CC[C@]5(C)[C@]4(C)C[C@@H]2O)[C@@H]3C1
REMARK SMILES IDX 1 1 2 2 4 3 5 4 6 5 7 6 8 7 9 8 33 9 34 10 10 11 11 12 12 13
REMARK SMILES IDX 13 14 15 15 16 16 17 17 19 18 23 19 24 20 25 21 26 22 28 23
REMARK SMILES IDX 30 24 31 25 29 26 27 27 20 28 14 29 3 30 32 31 21 33 22 34
REMARK SMILES IDX 18 36
REMARK H PARENT 32 32 22 35 18 37
REMARK Flexibility Score: inf
ROOT
ATOM      1  C   UNL     1      19.340  -1.953  15.620  1.00  0.00     0.011 C 
ATOM      2  C   UNL     1      20.226  -3.049  14.936  1.00  0.00    -0.035 C 
ATOM      3  C   UNL     1      20.311  -4.357  15.786  1.00  0.00     0.007 C 
ATOM      4  C   UNL     1      21.475  -4.490  16.791  1.00  0.00     0.013 C 
ATOM      5  C   UNL     1      22.364  -3.234  17.024  1.00  0.00     0.026 C 
ATOM      6  C   UNL     1      21.648  -2.209  17.899  1.00  0.00     0.171 C 
ATOM      7  O   UNL     1      21.994  -0.921  17.458  1.00  0.00    -0.369 OA
ATOM      8  C   UNL     1      22.951  -1.061  16.420  1.00  0.00     0.096 C 
ATOM      9  C   UNL     1      22.676  -2.443  15.765  1.00  0.00     0.037 C 
ATOM     10  C   UNL     1      21.633  -2.517  14.601  1.00  0.00     0.014 C 
ATOM     11  C   UNL     1      22.709   0.106  15.488  1.00  0.00     0.005 C 
ATOM     12  C   UNL     1      23.617   0.492  14.593  1.00  0.00    -0.024 C 
ATOM     13  C   UNL     1      24.936  -0.237  14.535  1.00  0.00     0.024 C 
ATOM     14  C   UNL     1      25.909   0.097  13.287  1.00  0.00    -0.022 C 
ATOM     15  C   UNL     1      25.476   1.379  12.511  1.00  0.00     0.010 C 
ATOM     16  C   UNL     1      26.448   1.807  11.388  1.00  0.00     0.033 C 
ATOM     17  C   UNL     1      27.895   1.982  11.873  1.00  0.00     0.123 C 
ATOM     18  C   UNL     1      28.452   0.733  12.634  1.00  0.00     0.020 C 
ATOM     19  C   UNL     1      27.400   0.349  13.753  1.00  0.00     0.006 C 
ATOM     20  C   UNL     1      27.925  -0.599  14.851  1.00  0.00     0.005 C 
ATOM     21  C   UNL     1      26.850  -1.154  15.800  1.00  0.00     0.008 C 
ATOM     22  C   UNL     1      25.534  -0.322  15.975  1.00  0.00    -0.017 C 
ATOM     23  C   UNL     1      24.444  -1.035  17.031  1.00  0.00     0.009 C 
ATOM     24  C   UNL     1      24.865  -2.507  17.501  1.00  0.00     0.043 C 
ATOM     25  C   UNL     1      23.737  -3.583  17.731  1.00  0.00     0.124 C 
ATOM     26  C   UNL     1      24.368  -0.246  18.380  1.00  0.00     0.015 C 
ATOM     27  C   UNL     1      25.879   1.132  16.455  1.00  0.00     0.013 C 
ATOM     28  C   UNL     1      29.778   1.162  13.334  1.00  0.00     0.017 C 
ATOM     29  C   UNL     1      25.786  -1.119  12.308  1.00  0.00     0.012 C 
ATOM     30  C   UNL     1      19.534  -3.413  13.602  1.00  0.00     0.011 C 
ENDROOT
BRANCH  25  31
ATOM     31  O   UNL     1      24.217  -4.847  17.335  1.00  0.00    -0.392 OA
ATOM     32  H   UNL     1      23.548  -5.516  17.653  1.00  0.00     0.210 HD
ENDBRANCH  25  31
BRANCH  18  33
ATOM     33  C   UNL     1      28.799  -0.430  11.642  1.00  0.00     0.165 C 
BRANCH  33  34
ATOM     34  O   UNL     1      29.914  -0.108  10.856  1.00  0.00    -0.396 OA
ATOM     35  H   UNL     1      29.570   0.430  10.097  1.00  0.00     0.210 HD
ENDBRANCH  33  34
ENDBRANCH  18  33
BRANCH  17  36
ATOM     36  O   UNL     1      28.696   2.302  10.767  1.00  0.00    -0.392 OA
ATOM     37  H   UNL     1      28.949   3.251  10.847  1.00  0.00     0.210 HD
ENDBRANCH  17  36
TORSDOF 4
ENDMDL
MODEL 7
REMARK VINA RESULT:    -7.565      8.925     11.777
REMARK INTER + INTRA:          -8.919
REMARK INTER:                  -8.680
REMARK INTRA:                  -0.239
REMARK UNBOUND:                -0.248
REMARK SMILES CC1(C)CC[C@@]23CO[C@]4(C=C[C@H]5[C@@]6(C)CC[C@H](O)[C@](C)(CO)[C@@H]6CC[C@]5(C)[C@]4(C)C[C@@H]2O)[C@@H]3C1
REMARK SMILES IDX 1 1 2 2 4 3 5 4 6 5 7 6 8 7 9 8 33 9 34 10 10 11 11 12 12 13
REMARK SMILES IDX 13 14 15 15 16 16 17 17 19 18 23 19 24 20 25 21 26 22 28 23
REMARK SMILES IDX 30 24 31 25 29 26 27 27 20 28 14 29 3 30 32 31 21 33 22 34
REMARK SMILES IDX 18 36
REMARK H PARENT 32 32 22 35 18 37
REMARK Flexibility Score: inf
ROOT
ATOM      1  C   UNL     1      32.748  -1.983  11.683  1.00  0.00     0.011 C 
ATOM      2  C   UNL     1      32.880  -1.449  13.149  1.00  0.00    -0.035 C 
ATOM      3  C   UNL     1      32.586  -2.555  14.212  1.00  0.00     0.007 C 
ATOM      4  C   UNL     1      31.138  -2.693  14.728  1.00  0.00     0.013 C 
ATOM      5  C   UNL     1      30.042  -1.853  14.010  1.00  0.00     0.026 C 
ATOM      6  C   UNL     1      29.681  -2.461  12.658  1.00  0.00     0.171 C 
ATOM      7  O   UNL     1      29.406  -1.420  11.756  1.00  0.00    -0.369 OA
ATOM      8  C   UNL     1      29.483  -0.197  12.469  1.00  0.00     0.096 C 
ATOM      9  C   UNL     1      30.472  -0.443  13.641  1.00  0.00     0.037 C 
ATOM     10  C   UNL     1      31.998  -0.208  13.386  1.00  0.00     0.014 C 
ATOM     11  C   UNL     1      29.977   0.825  11.468  1.00  0.00     0.005 C 
ATOM     12  C   UNL     1      29.854   2.134  11.680  1.00  0.00    -0.024 C 
ATOM     13  C   UNL     1      29.171   2.606  12.939  1.00  0.00     0.024 C 
ATOM     14  C   UNL     1      29.254   4.186  13.275  1.00  0.00    -0.022 C 
ATOM     15  C   UNL     1      29.746   5.036  12.063  1.00  0.00     0.010 C 
ATOM     16  C   UNL     1      29.722   6.563  12.300  1.00  0.00     0.033 C 
ATOM     17  C   UNL     1      28.349   7.085  12.752  1.00  0.00     0.123 C 
ATOM     18  C   UNL     1      27.773   6.328  13.995  1.00  0.00     0.020 C 
ATOM     19  C   UNL     1      27.845   4.778  13.683  1.00  0.00     0.006 C 
ATOM     20  C   UNL     1      26.985   3.883  14.600  1.00  0.00     0.005 C 
ATOM     21  C   UNL     1      27.231   2.372  14.451  1.00  0.00     0.008 C 
ATOM     22  C   UNL     1      27.808   1.860  13.088  1.00  0.00    -0.017 C 
ATOM     23  C   UNL     1      28.031   0.198  13.054  1.00  0.00     0.009 C 
ATOM     24  C   UNL     1      27.804  -0.514  14.470  1.00  0.00     0.043 C 
ATOM     25  C   UNL     1      28.706  -1.748  14.854  1.00  0.00     0.124 C 
ATOM     26  C   UNL     1      26.969  -0.496  12.139  1.00  0.00     0.015 C 
ATOM     27  C   UNL     1      26.869   2.301  11.910  1.00  0.00     0.013 C 
ATOM     28  C   UNL     1      26.274   6.732  14.137  1.00  0.00     0.017 C 
ATOM     29  C   UNL     1      30.314   4.326  14.419  1.00  0.00     0.012 C 
ATOM     30  C   UNL     1      34.354  -1.015  13.334  1.00  0.00     0.011 C 
ENDROOT
BRANCH  25  31
ATOM     31  O   UNL     1      28.968  -1.715  16.238  1.00  0.00    -0.392 OA
ATOM     32  H   UNL     1      29.828  -2.206  16.374  1.00  0.00     0.210 HD
ENDBRANCH  25  31
BRANCH  18  33
ATOM     33  C   UNL     1      28.504   6.760  15.312  1.00  0.00     0.165 C 
BRANCH  33  34
ATOM     34  O   UNL     1      28.177   8.077  15.664  1.00  0.00    -0.396 OA
ATOM     35  H   UNL     1      28.715   8.662  15.070  1.00  0.00     0.210 HD
ENDBRANCH  33  34
ENDBRANCH  18  33
BRANCH  17  36
ATOM     36  O   UNL     1      28.460   8.461  13.000  1.00  0.00    -0.392 OA
ATOM     37  H   UNL     1      27.747   8.914  12.493  1.00  0.00     0.210 HD
ENDBRANCH  17  36
TORSDOF 4
ENDMDL
MODEL 8
REMARK VINA RESULT:    -7.547      2.968      7.892
REMARK INTER + INTRA:          -8.898
REMARK INTER:                  -8.660
REMARK INTRA:                  -0.239
REMARK UNBOUND:                -0.248
REMARK SMILES CC1(C)CC[C@@]23CO[C@]4(C=C[C@H]5[C@@]6(C)CC[C@H](O)[C@](C)(CO)[C@@H]6CC[C@]5(C)[C@]4(C)C[C@@H]2O)[C@@H]3C1
REMARK SMILES IDX 1 1 2 2 4 3 5 4 6 5 7 6 8 7 9 8 33 9 34 10 10 11 11 12 12 13
REMARK SMILES IDX 13 14 15 15 16 16 17 17 19 18 23 19 24 20 25 21 26 22 28 23
REMARK SMILES IDX 30 24 31 25 29 26 27 27 20 28 14 29 3 30 32 31 21 33 22 34
REMARK SMILES IDX 18 36
REMARK H PARENT 32 32 22 35 18 37
REMARK Flexibility Score: inf
ROOT
ATOM      1  C   UNL     1      31.435  11.114  19.375  1.00  0.00     0.011 C 
ATOM      2  C   UNL     1      30.673  12.429  18.999  1.00  0.00    -0.035 C 
ATOM      3  C   UNL     1      30.355  13.308  20.250  1.00  0.00     0.007 C 
ATOM      4  C   UNL     1      28.998  13.096  20.955  1.00  0.00     0.013 C 
ATOM      5  C   UNL     1      28.131  11.891  20.486  1.00  0.00     0.026 C 
ATOM      6  C   UNL     1      28.682  10.575  21.025  1.00  0.00     0.171 C 
ATOM      7  O   UNL     1      28.491   9.577  20.055  1.00  0.00    -0.369 OA
ATOM      8  C   UNL     1      27.776  10.153  18.975  1.00  0.00     0.096 C 
ATOM      9  C   UNL     1      28.129  11.666  18.984  1.00  0.00     0.037 C 
ATOM     10  C   UNL     1      29.394  12.136  18.191  1.00  0.00     0.014 C 
ATOM     11  C   UNL     1      28.259   9.428  17.738  1.00  0.00     0.005 C 
ATOM     12  C   UNL     1      27.581   9.463  16.592  1.00  0.00    -0.024 C 
ATOM     13  C   UNL     1      26.277  10.219  16.541  1.00  0.00     0.024 C 
ATOM     14  C   UNL     1      25.609  10.441  15.085  1.00  0.00    -0.022 C 
ATOM     15  C   UNL     1      26.250   9.541  13.984  1.00  0.00     0.010 C 
ATOM     16  C   UNL     1      25.560   9.629  12.604  1.00  0.00     0.033 C 
ATOM     17  C   UNL     1      24.051   9.348  12.662  1.00  0.00     0.123 C 
ATOM     18  C   UNL     1      23.293  10.229  13.710  1.00  0.00     0.020 C 
ATOM     19  C   UNL     1      24.064  10.100  15.086  1.00  0.00     0.006 C 
ATOM     20  C   UNL     1      23.278  10.572  16.327  1.00  0.00     0.005 C 
ATOM     21  C   UNL     1      24.101  10.664  17.623  1.00  0.00     0.008 C 
ATOM     22  C   UNL     1      25.381   9.768  17.737  1.00  0.00    -0.017 C 
ATOM     23  C   UNL     1      26.188   9.963  19.194  1.00  0.00     0.009 C 
ATOM     24  C   UNL     1      25.617  11.156  20.096  1.00  0.00     0.043 C 
ATOM     25  C   UNL     1      26.625  12.004  20.962  1.00  0.00     0.124 C 
ATOM     26  C   UNL     1      26.004   8.710  20.113  1.00  0.00     0.015 C 
ATOM     27  C   UNL     1      24.999   8.259  17.530  1.00  0.00     0.013 C 
ATOM     28  C   UNL     1      21.867   9.626  13.887  1.00  0.00     0.017 C 
ATOM     29  C   UNL     1      25.891  11.935  14.706  1.00  0.00     0.012 C 
ATOM     30  C   UNL     1      31.621  13.249  18.092  1.00  0.00     0.011 C 
ENDROOT
BRANCH  25  31
ATOM     31  O   UNL     1      26.191  13.344  20.995  1.00  0.00    -0.392 OA
ATOM     32  H   UNL     1      25.947  13.584  20.056  1.00  0.00     0.210 HD
ENDBRANCH  25  31
BRANCH  18  33
ATOM     33  C   UNL     1      23.122  11.701  13.198  1.00  0.00     0.165 C 
BRANCH  33  34
ATOM     34  O   UNL     1      22.208  11.764  12.136  1.00  0.00    -0.396 OA
ATOM     35  H   UNL     1      22.140  12.722  11.889  1.00  0.00     0.210 HD
ENDBRANCH  33  34
ENDBRANCH  18  33
BRANCH  17  36
ATOM     36  O   UNL     1      23.520   9.520  11.375  1.00  0.00    -0.392 OA
ATOM     37  H   UNL     1      23.665  10.459  11.115  1.00  0.00     0.210 HD
ENDBRANCH  17  36
TORSDOF 4
ENDMDL
MODEL 9
REMARK VINA RESULT:    -7.512      3.428      7.723
REMARK INTER + INTRA:          -8.858
REMARK INTER:                  -8.622
REMARK INTRA:                  -0.236
REMARK UNBOUND:                -0.248
REMARK SMILES CC1(C)CC[C@@]23CO[C@]4(C=C[C@H]5[C@@]6(C)CC[C@H](O)[C@](C)(CO)[C@@H]6CC[C@]5(C)[C@]4(C)C[C@@H]2O)[C@@H]3C1
REMARK SMILES IDX 1 1 2 2 4 3 5 4 6 5 7 6 8 7 9 8 33 9 34 10 10 11 11 12 12 13
REMARK SMILES IDX 13 14 15 15 16 16 17 17 19 18 23 19 24 20 25 21 26 22 28 23
REMARK SMILES IDX 30 24 31 25 29 26 27 27 20 28 14 29 3 30 32 31 21 33 22 34
REMARK SMILES IDX 18 36
REMARK H PARENT 32 32 22 35 18 37
REMARK Flexibility Score: inf
ROOT
ATOM      1  C   UNL     1      31.076  11.822  21.867  1.00  0.00     0.011 C 
ATOM      2  C   UNL     1      31.552  11.350  20.452  1.00  0.00    -0.035 C 
ATOM      3  C   UNL     1      31.427  12.478  19.378  1.00  0.00     0.007 C 
ATOM      4  C   UNL     1      30.117  12.560  18.565  1.00  0.00     0.013 C 
ATOM      5  C   UNL     1      28.945  11.636  19.007  1.00  0.00     0.026 C 
ATOM      6  C   UNL     1      28.267  12.173  20.264  1.00  0.00     0.171 C 
ATOM      7  O   UNL     1      27.867  11.086  21.059  1.00  0.00    -0.369 OA
ATOM      8  C   UNL     1      28.168   9.897  20.348  1.00  0.00     0.096 C 
ATOM      9  C   UNL     1      29.369  10.239  19.425  1.00  0.00     0.037 C 
ATOM     10  C   UNL     1      30.816  10.075  19.998  1.00  0.00     0.014 C 
ATOM     11  C   UNL     1      28.496   8.866  21.407  1.00  0.00     0.005 C 
ATOM     12  C   UNL     1      28.500   7.560  21.140  1.00  0.00    -0.024 C 
ATOM     13  C   UNL     1      28.132   7.100  19.752  1.00  0.00     0.024 C 
ATOM     14  C   UNL     1      28.380   5.541  19.402  1.00  0.00    -0.022 C 
ATOM     15  C   UNL     1      28.649   4.674  20.670  1.00  0.00     0.010 C 
ATOM     16  C   UNL     1      28.767   3.157  20.395  1.00  0.00     0.033 C 
ATOM     17  C   UNL     1      27.557   2.581  19.644  1.00  0.00     0.123 C 
ATOM     18  C   UNL     1      27.218   3.352  18.326  1.00  0.00     0.020 C 
ATOM     19  C   UNL     1      27.128   4.891  18.684  1.00  0.00     0.006 C 
ATOM     20  C   UNL     1      26.434   5.773  17.625  1.00  0.00     0.005 C 
ATOM     21  C   UNL     1      26.551   7.288  17.862  1.00  0.00     0.008 C 
ATOM     22  C   UNL     1      26.790   7.779  19.331  1.00  0.00    -0.017 C 
ATOM     23  C   UNL     1      26.902   9.447  19.453  1.00  0.00     0.009 C 
ATOM     24  C   UNL     1      26.942  10.200  18.040  1.00  0.00     0.043 C 
ATOM     25  C   UNL     1      27.830  11.493  17.892  1.00  0.00     0.124 C 
ATOM     26  C   UNL     1      25.629  10.051  20.134  1.00  0.00     0.015 C 
ATOM     27  C   UNL     1      25.648   7.245  20.266  1.00  0.00     0.013 C 
ATOM     28  C   UNL     1      25.811   2.876  17.852  1.00  0.00     0.017 C 
ATOM     29  C   UNL     1      29.667   5.500  18.511  1.00  0.00     0.012 C 
ATOM     30  C   UNL     1      33.054  11.003  20.579  1.00  0.00     0.011 C 
ENDROOT
BRANCH  25  31
ATOM     31  O   UNL     1      28.385  11.526  16.597  1.00  0.00    -0.392 OA
ATOM     32  H   UNL     1      28.489  10.575  16.311  1.00  0.00     0.210 HD
ENDBRANCH  25  31
BRANCH  18  33
ATOM     33  C   UNL     1      28.239   3.009  17.188  1.00  0.00     0.165 C 
BRANCH  33  34
ATOM     34  O   UNL     1      28.077   1.690  16.743  1.00  0.00    -0.396 OA
ATOM     35  H   UNL     1      27.151   1.630  16.390  1.00  0.00     0.210 HD
ENDBRANCH  33  34
ENDBRANCH  18  33
BRANCH  17  36
ATOM     36  O   UNL     1      27.801   1.223  19.391  1.00  0.00    -0.392 OA
ATOM     37  H   UNL     1      27.533   0.717  20.193  1.00  0.00     0.210 HD
ENDBRANCH  17  36
TORSDOF 4
ENDMDL
