MODEL 1
REMARK VINA RESULT:    -4.197      0.000      0.000
REMARK INTER + INTRA:          -8.717
REMARK INTER:                  -7.142
REMARK INTRA:                  -1.575
REMARK UNBOUND:                -1.575
REMARK SMILES CCCCCCCCCCCCCC(=O)[O-]
REMARK SMILES IDX 8 1 9 2 10 3 11 4 12 5 13 6 14 7 15 8 16 9 7 10 6 11 5 12
REMARK SMILES IDX 4 13 3 14 2 15 1 16
REMARK H PARENT
REMARK Flexibility Score: inf
ROOT
ATOM      1  C   UNL     1      16.159  25.749  52.941  1.00  0.00     0.000 C 
ENDROOT
BRANCH   1   2
ATOM      2  C   UNL     1      14.656  25.938  52.673  1.00  0.00     0.000 C 
BRANCH   2   3
ATOM      3  C   UNL     1      14.382  26.969  51.565  1.00  0.00     0.000 C 
BRANCH   3   4
ATOM      4  C   UNL     1      15.663  27.410  50.835  1.00  0.00     0.000 C 
BRANCH   4   5
ATOM      5  C   UNL     1      15.990  28.898  51.057  1.00  0.00     0.006 C 
BRANCH   5   6
ATOM      6  C   UNL     1      14.836  29.714  51.659  1.00  0.00     0.053 C 
BRANCH   6   7
ATOM      7  C   UNL     1      14.368  30.793  50.732  1.00  0.00     0.041 C 
ATOM      8  O   UNL     1      14.844  30.880  49.569  1.00  0.00    -0.550 OA
ATOM      9  O   UNL     1      13.383  31.683  51.140  1.00  0.00    -0.550 OA
ENDBRANCH   6   7
ENDBRANCH   5   6
ENDBRANCH   4   5
ENDBRANCH   3   4
ENDBRANCH   2   3
ENDBRANCH   1   2
BRANCH   1  10
ATOM     10  C   UNL     1      16.622  26.445  54.231  1.00  0.00     0.000 C 
BRANCH  10  11
ATOM     11  C   UNL     1      15.449  26.998  55.059  1.00  0.00    -0.000 C 
BRANCH  11  12
ATOM     12  C   UNL     1      15.592  28.497  55.368  1.00  0.00    -0.000 C 
BRANCH  12  13
ATOM     13  C   UNL     1      16.860  29.163  54.799  1.00  0.00    -0.000 C 
BRANCH  13  14
ATOM     14  C   UNL     1      17.239  30.485  55.499  1.00  0.00    -0.000 C 
BRANCH  14  15
ATOM     15  C   UNL     1      16.658  30.580  56.918  1.00  0.00    -0.003 C 
ATOM     16  C   UNL     1      16.103  31.974  57.192  1.00  0.00     0.004 C 
ENDBRANCH  14  15
ENDBRANCH  13  14
ENDBRANCH  12  13
ENDBRANCH  11  12
ENDBRANCH  10  11
ENDBRANCH   1  10
TORSDOF 12
ENDMDL
MODEL 2
REMARK VINA RESULT:    -4.096      1.739      3.107
REMARK INTER + INTRA:          -8.545
REMARK INTER:                  -6.933
REMARK INTRA:                  -1.612
REMARK UNBOUND:                -1.575
REMARK SMILES CCCCCCCCCCCCCC(=O)[O-]
REMARK SMILES IDX 8 1 9 2 10 3 11 4 12 5 13 6 14 7 15 8 16 9 7 10 6 11 5 12
REMARK SMILES IDX 4 13 3 14 2 15 1 16
REMARK H PARENT
REMARK Flexibility Score: inf
ROOT
ATOM      1  C   UNL     1      14.508  26.773  50.714  1.00  0.00     0.000 C 
ENDROOT
BRANCH   1   2
ATOM      2  C   UNL     1      15.790  27.492  50.259  1.00  0.00     0.000 C 
BRANCH   2   3
ATOM      3  C   UNL     1      15.988  28.844  50.967  1.00  0.00     0.000 C 
BRANCH   3   4
ATOM      4  C   UNL     1      14.707  29.346  51.656  1.00  0.00     0.000 C 
BRANCH   4   5
ATOM      5  C   UNL     1      14.197  30.673  51.065  1.00  0.00     0.006 C 
BRANCH   5   6
ATOM      6  C   UNL     1      15.310  31.658  50.675  1.00  0.00     0.053 C 
BRANCH   6   7
ATOM      7  C   UNL     1      15.172  32.969  51.385  1.00  0.00     0.041 C 
ATOM      8  O   UNL     1      15.497  34.041  50.807  1.00  0.00    -0.550 OA
ATOM      9  O   UNL     1      14.654  33.012  52.673  1.00  0.00    -0.550 OA
ENDBRANCH   6   7
ENDBRANCH   5   6
ENDBRANCH   4   5
ENDBRANCH   3   4
ENDBRANCH   2   3
ENDBRANCH   1   2
BRANCH   1  10
ATOM     10  C   UNL     1      14.766  25.319  51.140  1.00  0.00     0.000 C 
BRANCH  10  11
ATOM     11  C   UNL     1      14.807  25.148  52.668  1.00  0.00    -0.000 C 
BRANCH  11  12
ATOM     12  C   UNL     1      16.240  25.125  53.227  1.00  0.00    -0.000 C 
BRANCH  12  13
ATOM     13  C   UNL     1      16.638  26.363  54.054  1.00  0.00    -0.000 C 
BRANCH  13  14
ATOM     14  C   UNL     1      15.484  26.952  54.891  1.00  0.00    -0.000 C 
BRANCH  14  15
ATOM     15  C   UNL     1      15.704  28.435  55.226  1.00  0.00    -0.003 C 
ATOM     16  C   UNL     1      16.991  28.956  54.594  1.00  0.00     0.004 C 
ENDBRANCH  14  15
ENDBRANCH  13  14
ENDBRANCH  12  13
ENDBRANCH  11  12
ENDBRANCH  10  11
ENDBRANCH   1  10
TORSDOF 12
ENDMDL
MODEL 3
REMARK VINA RESULT:    -4.007      2.602      5.495
REMARK INTER + INTRA:          -8.393
REMARK INTER:                  -6.820
REMARK INTRA:                  -1.573
REMARK UNBOUND:                -1.575
REMARK SMILES CCCCCCCCCCCCCC(=O)[O-]
REMARK SMILES IDX 8 1 9 2 10 3 11 4 12 5 13 6 14 7 15 8 16 9 7 10 6 11 5 12
REMARK SMILES IDX 4 13 3 14 2 15 1 16
REMARK H PARENT
REMARK Flexibility Score: inf
ROOT
ATOM      1  C   UNL     1      17.350  26.360  53.673  1.00  0.00     0.000 C 
ENDROOT
BRANCH   1   2
ATOM      2  C   UNL     1      16.206  26.703  54.644  1.00  0.00     0.000 C 
BRANCH   2   3
ATOM      3  C   UNL     1      15.766  28.173  54.538  1.00  0.00     0.000 C 
BRANCH   3   4
ATOM      4  C   UNL     1      15.955  28.945  55.856  1.00  0.00     0.000 C 
BRANCH   4   5
ATOM      5  C   UNL     1      16.635  30.311  55.651  1.00  0.00     0.006 C 
BRANCH   5   6
ATOM      6  C   UNL     1      16.832  31.118  56.945  1.00  0.00     0.053 C 
BRANCH   6   7
ATOM      7  C   UNL     1      15.841  32.235  57.064  1.00  0.00     0.041 C 
ATOM      8  O   UNL     1      14.664  32.087  56.640  1.00  0.00    -0.550 OA
ATOM      9  O   UNL     1      16.207  33.427  57.676  1.00  0.00    -0.550 OA
ENDBRANCH   6   7
ENDBRANCH   5   6
ENDBRANCH   4   5
ENDBRANCH   3   4
ENDBRANCH   2   3
ENDBRANCH   1   2
BRANCH   1  10
ATOM     10  C   UNL     1      18.096  27.608  53.174  1.00  0.00     0.000 C 
BRANCH  10  11
ATOM     11  C   UNL     1      18.416  27.544  51.671  1.00  0.00    -0.000 C 
BRANCH  11  12
ATOM     12  C   UNL     1      17.176  27.250  50.809  1.00  0.00    -0.000 C 
BRANCH  12  13
ATOM     13  C   UNL     1      16.123  28.375  50.775  1.00  0.00    -0.000 C 
BRANCH  13  14
ATOM     14  C   UNL     1      14.697  27.906  51.132  1.00  0.00    -0.000 C 
BRANCH  14  15
ATOM     15  C   UNL     1      14.544  26.381  51.037  1.00  0.00    -0.003 C 
ATOM     16  C   UNL     1      13.500  25.870  52.025  1.00  0.00     0.004 C 
ENDBRANCH  14  15
ENDBRANCH  13  14
ENDBRANCH  12  13
ENDBRANCH  11  12
ENDBRANCH  10  11
ENDBRANCH   1  10
TORSDOF 12
ENDMDL
MODEL 4
REMARK VINA RESULT:    -3.996      1.381      2.152
REMARK INTER + INTRA:          -8.374
REMARK INTER:                  -6.903
REMARK INTRA:                  -1.471
REMARK UNBOUND:                -1.575
REMARK SMILES CCCCCCCCCCCCCC(=O)[O-]
REMARK SMILES IDX 8 1 9 2 10 3 11 4 12 5 13 6 14 7 15 8 16 9 7 10 6 11 5 12
REMARK SMILES IDX 4 13 3 14 2 15 1 16
REMARK H PARENT
REMARK Flexibility Score: inf
ROOT
ATOM      1  C   UNL     1      15.012  24.054  52.504  1.00  0.00     0.000 C 
ENDROOT
BRANCH   1   2
ATOM      2  C   UNL     1      15.432  24.513  51.096  1.00  0.00     0.000 C 
BRANCH   2   3
ATOM      3  C   UNL     1      14.249  25.057  50.278  1.00  0.00     0.000 C 
BRANCH   3   4
ATOM      4  C   UNL     1      14.425  26.537  49.892  1.00  0.00     0.000 C 
BRANCH   4   5
ATOM      5  C   UNL     1      14.694  27.439  51.111  1.00  0.00     0.006 C 
BRANCH   5   6
ATOM      6  C   UNL     1      15.861  28.422  50.921  1.00  0.00     0.053 C 
BRANCH   6   7
ATOM      7  C   UNL     1      15.382  29.812  50.639  1.00  0.00     0.041 C 
ATOM      8  O   UNL     1      15.562  30.729  51.484  1.00  0.00    -0.550 OA
ATOM      9  O   UNL     1      14.769  30.104  49.428  1.00  0.00    -0.550 OA
ENDBRANCH   6   7
ENDBRANCH   5   6
ENDBRANCH   4   5
ENDBRANCH   3   4
ENDBRANCH   2   3
ENDBRANCH   1   2
BRANCH   1  10
ATOM     10  C   UNL     1      15.756  24.808  53.617  1.00  0.00     0.000 C 
BRANCH  10  11
ATOM     11  C   UNL     1      17.142  25.306  53.171  1.00  0.00    -0.000 C 
BRANCH  11  12
ATOM     12  C   UNL     1      17.471  26.710  53.707  1.00  0.00    -0.000 C 
BRANCH  12  13
ATOM     13  C   UNL     1      16.343  27.383  54.512  1.00  0.00    -0.000 C 
BRANCH  13  14
ATOM     14  C   UNL     1      16.511  28.909  54.667  1.00  0.00    -0.000 C 
BRANCH  14  15
ATOM     15  C   UNL     1      15.768  29.456  55.895  1.00  0.00    -0.003 C 
ATOM     16  C   UNL     1      16.559  30.576  56.562  1.00  0.00     0.004 C 
ENDBRANCH  14  15
ENDBRANCH  13  14
ENDBRANCH  12  13
ENDBRANCH  11  12
ENDBRANCH  10  11
ENDBRANCH   1  10
TORSDOF 12
ENDMDL
MODEL 5
REMARK VINA RESULT:    -3.986      2.629      5.030
REMARK INTER + INTRA:          -8.358
REMARK INTER:                  -6.444
REMARK INTRA:                  -1.913
REMARK UNBOUND:                -1.575
REMARK SMILES CCCCCCCCCCCCCC(=O)[O-]
REMARK SMILES IDX 8 1 9 2 10 3 11 4 12 5 13 6 14 7 15 8 16 9 7 10 6 11 5 12
REMARK SMILES IDX 4 13 3 14 2 15 1 16
REMARK H PARENT
REMARK Flexibility Score: inf
ROOT
ATOM      1  C   UNL     1      15.927  24.863  53.572  1.00  0.00     0.000 C 
ENDROOT
BRANCH   1   2
ATOM      2  C   UNL     1      15.375  26.017  54.427  1.00  0.00     0.000 C 
BRANCH   2   3
ATOM      3  C   UNL     1      16.429  27.103  54.701  1.00  0.00     0.000 C 
BRANCH   3   4
ATOM      4  C   UNL     1      15.802  28.459  55.069  1.00  0.00     0.000 C 
BRANCH   4   5
ATOM      5  C   UNL     1      16.560  29.650  54.453  1.00  0.00     0.006 C 
BRANCH   5   6
ATOM      6  C   UNL     1      16.214  31.010  55.081  1.00  0.00     0.053 C 
BRANCH   6   7
ATOM      7  C   UNL     1      15.844  30.882  56.526  1.00  0.00     0.041 C 
ATOM      8  O   UNL     1      16.736  30.686  57.394  1.00  0.00    -0.550 OA
ATOM      9  O   UNL     1      14.519  31.014  56.920  1.00  0.00    -0.550 OA
ENDBRANCH   6   7
ENDBRANCH   5   6
ENDBRANCH   4   5
ENDBRANCH   3   4
ENDBRANCH   2   3
ENDBRANCH   1   2
BRANCH   1  10
ATOM     10  C   UNL     1      15.105  24.628  52.295  1.00  0.00     0.000 C 
BRANCH  10  11
ATOM     11  C   UNL     1      13.972  25.655  52.123  1.00  0.00    -0.000 C 
BRANCH  11  12
ATOM     12  C   UNL     1      14.231  26.641  50.971  1.00  0.00    -0.000 C 
BRANCH  12  13
ATOM     13  C   UNL     1      14.569  28.080  51.408  1.00  0.00    -0.000 C 
BRANCH  13  14
ATOM     14  C   UNL     1      16.006  28.518  51.055  1.00  0.00    -0.000 C 
BRANCH  14  15
ATOM     15  C   UNL     1      16.842  27.365  50.479  1.00  0.00    -0.003 C 
ATOM     16  C   UNL     1      18.060  27.079  51.351  1.00  0.00     0.004 C 
ENDBRANCH  14  15
ENDBRANCH  13  14
ENDBRANCH  12  13
ENDBRANCH  11  12
ENDBRANCH  10  11
ENDBRANCH   1  10
TORSDOF 12
ENDMDL
MODEL 6
REMARK VINA RESULT:    -3.977      2.532      4.902
REMARK INTER + INTRA:          -8.342
REMARK INTER:                  -6.889
REMARK INTRA:                  -1.452
REMARK UNBOUND:                -1.575
REMARK SMILES CCCCCCCCCCCCCC(=O)[O-]
REMARK SMILES IDX 8 1 9 2 10 3 11 4 12 5 13 6 14 7 15 8 16 9 7 10 6 11 5 12
REMARK SMILES IDX 4 13 3 14 2 15 1 16
REMARK H PARENT
REMARK Flexibility Score: inf
ROOT
ATOM      1  C   UNL     1      15.315  24.282  52.582  1.00  0.00     0.000 C 
ENDROOT
BRANCH   1   2
ATOM      2  C   UNL     1      16.340  24.964  53.505  1.00  0.00     0.000 C 
BRANCH   2   3
ATOM      3  C   UNL     1      15.709  26.070  54.369  1.00  0.00     0.000 C 
BRANCH   3   4
ATOM      4  C   UNL     1      16.497  27.390  54.312  1.00  0.00     0.000 C 
BRANCH   4   5
ATOM      5  C   UNL     1      15.714  28.575  54.907  1.00  0.00     0.006 C 
BRANCH   5   6
ATOM      6  C   UNL     1      16.573  29.816  55.198  1.00  0.00     0.053 C 
BRANCH   6   7
ATOM      7  C   UNL     1      16.151  30.506  56.458  1.00  0.00     0.041 C 
ATOM      8  O   UNL     1      14.929  30.598  56.752  1.00  0.00    -0.550 OA
ATOM      9  O   UNL     1      17.108  31.019  57.324  1.00  0.00    -0.550 OA
ENDBRANCH   6   7
ENDBRANCH   5   6
ENDBRANCH   4   5
ENDBRANCH   3   4
ENDBRANCH   2   3
ENDBRANCH   1   2
BRANCH   1  10
ATOM     10  C   UNL     1      14.223  25.248  52.096  1.00  0.00     0.000 C 
BRANCH  10  11
ATOM     11  C   UNL     1      14.260  25.465  50.573  1.00  0.00    -0.000 C 
BRANCH  11  12
ATOM     12  C   UNL     1      14.976  26.767  50.174  1.00  0.00    -0.000 C 
BRANCH  12  13
ATOM     13  C   UNL     1      14.756  27.954  51.132  1.00  0.00    -0.000 C 
BRANCH  13  14
ATOM     14  C   UNL     1      15.822  29.062  51.007  1.00  0.00    -0.000 C 
BRANCH  14  15
ATOM     15  C   UNL     1      15.383  30.371  51.680  1.00  0.00    -0.003 C 
ATOM     16  C   UNL     1      14.349  31.105  50.831  1.00  0.00     0.004 C 
ENDBRANCH  14  15
ENDBRANCH  13  14
ENDBRANCH  12  13
ENDBRANCH  11  12
ENDBRANCH  10  11
ENDBRANCH   1  10
TORSDOF 12
ENDMDL
MODEL 7
REMARK VINA RESULT:    -3.975      1.851      3.512
REMARK INTER + INTRA:          -8.339
REMARK INTER:                  -5.949
REMARK INTRA:                  -2.390
REMARK UNBOUND:                -1.575
REMARK SMILES CCCCCCCCCCCCCC(=O)[O-]
REMARK SMILES IDX 8 1 9 2 10 3 11 4 12 5 13 6 14 7 15 8 16 9 7 10 6 11 5 12
REMARK SMILES IDX 4 13 3 14 2 15 1 16
REMARK H PARENT
REMARK Flexibility Score: inf
ROOT
ATOM      1  C   UNL     1      15.645  26.527  54.727  1.00  0.00     0.000 C 
ENDROOT
BRANCH   1   2
ATOM      2  C   UNL     1      14.928  26.551  53.366  1.00  0.00     0.000 C 
BRANCH   2   3
ATOM      3  C   UNL     1      15.517  25.533  52.374  1.00  0.00     0.000 C 
BRANCH   3   4
ATOM      4  C   UNL     1      15.559  26.068  50.931  1.00  0.00     0.000 C 
BRANCH   4   5
ATOM      5  C   UNL     1      14.847  27.425  50.780  1.00  0.00     0.006 C 
BRANCH   5   6
ATOM      6  C   UNL     1      15.669  28.489  50.036  1.00  0.00     0.053 C 
BRANCH   6   7
ATOM      7  C   UNL     1      14.989  29.823  50.035  1.00  0.00     0.041 C 
ATOM      8  O   UNL     1      14.867  30.473  51.107  1.00  0.00    -0.550 OA
ATOM      9  O   UNL     1      14.521  30.364  48.845  1.00  0.00    -0.550 OA
ENDBRANCH   6   7
ENDBRANCH   5   6
ENDBRANCH   4   5
ENDBRANCH   3   4
ENDBRANCH   2   3
ENDBRANCH   1   2
BRANCH   1  10
ATOM     10  C   UNL     1      16.350  27.855  55.048  1.00  0.00     0.000 C 
BRANCH  10  11
ATOM     11  C   UNL     1      16.166  28.905  53.939  1.00  0.00    -0.000 C 
BRANCH  11  12
ATOM     12  C   UNL     1      17.481  29.247  53.218  1.00  0.00    -0.000 C 
BRANCH  12  13
ATOM     13  C   UNL     1      18.544  28.132  53.235  1.00  0.00    -0.000 C 
BRANCH  13  14
ATOM     14  C   UNL     1      18.864  27.553  51.841  1.00  0.00    -0.000 C 
BRANCH  14  15
ATOM     15  C   UNL     1      19.177  26.050  51.891  1.00  0.00    -0.003 C 
ATOM     16  C   UNL     1      19.030  25.505  53.308  1.00  0.00     0.004 C 
ENDBRANCH  14  15
ENDBRANCH  13  14
ENDBRANCH  12  13
ENDBRANCH  11  12
ENDBRANCH  10  11
ENDBRANCH   1  10
TORSDOF 12
ENDMDL
MODEL 8
REMARK VINA RESULT:    -3.934      1.677      2.793
REMARK INTER + INTRA:          -8.269
REMARK INTER:                  -6.926
REMARK INTRA:                  -1.344
REMARK UNBOUND:                -1.575
REMARK SMILES CCCCCCCCCCCCCC(=O)[O-]
REMARK SMILES IDX 8 1 9 2 10 3 11 4 12 5 13 6 14 7 15 8 16 9 7 10 6 11 5 12
REMARK SMILES IDX 4 13 3 14 2 15 1 16
REMARK H PARENT
REMARK Flexibility Score: inf
ROOT
ATOM      1  C   UNL     1      18.403  27.908  51.920  1.00  0.00     0.000 C 
ENDROOT
BRANCH   1   2
ATOM      2  C   UNL     1      17.077  28.682  51.814  1.00  0.00     0.000 C 
BRANCH   2   3
ATOM      3  C   UNL     1      16.101  28.042  50.813  1.00  0.00     0.000 C 
BRANCH   3   4
ATOM      4  C   UNL     1      15.328  29.087  49.988  1.00  0.00     0.000 C 
BRANCH   4   5
ATOM      5  C   UNL     1      14.715  30.197  50.861  1.00  0.00     0.006 C 
BRANCH   5   6
ATOM      6  C   UNL     1      15.023  31.622  50.377  1.00  0.00     0.053 C 
BRANCH   6   7
ATOM      7  C   UNL     1      15.397  32.530  51.507  1.00  0.00     0.041 C 
ATOM      8  O   UNL     1      15.387  33.779  51.348  1.00  0.00    -0.550 OA
ATOM      9  O   UNL     1      15.723  31.997  52.748  1.00  0.00    -0.550 OA
ENDBRANCH   6   7
ENDBRANCH   5   6
ENDBRANCH   4   5
ENDBRANCH   3   4
ENDBRANCH   2   3
ENDBRANCH   1   2
BRANCH   1  10
ATOM     10  C   UNL     1      18.192  26.406  52.167  1.00  0.00     0.000 C 
BRANCH  10  11
ATOM     11  C   UNL     1      17.720  26.102  53.599  1.00  0.00    -0.000 C 
BRANCH  11  12
ATOM     12  C   UNL     1      16.257  25.629  53.656  1.00  0.00    -0.000 C 
BRANCH  12  13
ATOM     13  C   UNL     1      15.322  26.502  54.515  1.00  0.00    -0.000 C 
BRANCH  13  14
ATOM     14  C   UNL     1      16.063  27.513  55.415  1.00  0.00    -0.000 C 
BRANCH  14  15
ATOM     15  C   UNL     1      15.713  28.968  55.069  1.00  0.00    -0.003 C 
ATOM     16  C   UNL     1      16.037  29.903  56.230  1.00  0.00     0.004 C 
ENDBRANCH  14  15
ENDBRANCH  13  14
ENDBRANCH  12  13
ENDBRANCH  11  12
ENDBRANCH  10  11
ENDBRANCH   1  10
TORSDOF 12
ENDMDL
MODEL 9
REMARK VINA RESULT:    -3.932      2.565      3.821
REMARK INTER + INTRA:          -8.266
REMARK INTER:                  -6.246
REMARK INTRA:                  -2.020
REMARK UNBOUND:                -1.575
REMARK SMILES CCCCCCCCCCCCCC(=O)[O-]
REMARK SMILES IDX 8 1 9 2 10 3 11 4 12 5 13 6 14 7 15 8 16 9 7 10 6 11 5 12
REMARK SMILES IDX 4 13 3 14 2 15 1 16
REMARK H PARENT
REMARK Flexibility Score: inf
ROOT
ATOM      1  C   UNL     1      14.923  23.974  52.093  1.00  0.00     0.000 C 
ENDROOT
BRANCH   1   2
ATOM      2  C   UNL     1      15.449  24.615  50.797  1.00  0.00     0.000 C 
BRANCH   2   3
ATOM      3  C   UNL     1      14.581  25.796  50.331  1.00  0.00     0.000 C 
BRANCH   3   4
ATOM      4  C   UNL     1      15.365  27.119  50.263  1.00  0.00     0.000 C 
BRANCH   4   5
ATOM      5  C   UNL     1      14.808  28.188  51.220  1.00  0.00     0.006 C 
BRANCH   5   6
ATOM      6  C   UNL     1      15.508  29.553  51.117  1.00  0.00     0.053 C 
BRANCH   6   7
ATOM      7  C   UNL     1      14.657  30.567  50.417  1.00  0.00     0.041 C 
ATOM      8  O   UNL     1      14.044  31.446  51.080  1.00  0.00    -0.550 OA
ATOM      9  O   UNL     1      14.568  30.564  49.031  1.00  0.00    -0.550 OA
ENDBRANCH   6   7
ENDBRANCH   5   6
ENDBRANCH   4   5
ENDBRANCH   3   4
ENDBRANCH   2   3
ENDBRANCH   1   2
BRANCH   1  10
ATOM     10  C   UNL     1      15.788  24.319  53.316  1.00  0.00     0.000 C 
BRANCH  10  11
ATOM     11  C   UNL     1      15.451  25.698  53.910  1.00  0.00    -0.000 C 
BRANCH  11  12
ATOM     12  C   UNL     1      16.692  26.588  54.091  1.00  0.00    -0.000 C 
BRANCH  12  13
ATOM     13  C   UNL     1      17.956  26.104  53.355  1.00  0.00    -0.000 C 
BRANCH  13  14
ATOM     14  C   UNL     1      18.421  27.048  52.227  1.00  0.00    -0.000 C 
BRANCH  14  15
ATOM     15  C   UNL     1      19.360  26.349  51.232  1.00  0.00    -0.003 C 
ATOM     16  C   UNL     1      19.061  24.856  51.150  1.00  0.00     0.004 C 
ENDBRANCH  14  15
ENDBRANCH  13  14
ENDBRANCH  12  13
ENDBRANCH  11  12
ENDBRANCH  10  11
ENDBRANCH   1  10
TORSDOF 12
ENDMDL
