MODEL 1
REMARK VINA RESULT:    -3.546      0.000      0.000
REMARK INTER + INTRA:          -9.462
REMARK INTER:                  -6.862
REMARK INTRA:                  -2.600
REMARK UNBOUND:                -2.600
REMARK SMILES CCCCCCCCCCCCCCCCCC(=O)[O-]
REMARK SMILES IDX 10 1 11 2 12 3 13 4 14 5 15 6 16 7 17 8 18 9 19 10 20 11
REMARK SMILES IDX 9 12 8 13 7 14 6 15 5 16 4 17 3 18 2 19 1 20
REMARK H PARENT
REMARK Flexibility Score: inf
ROOT
ATOM      1  C   UNL     1      -2.666  -9.228  35.869  1.00  0.00     0.000 C 
ENDROOT
BRANCH   1   2
ATOM      2  C   UNL     1      -1.285  -8.547  35.851  1.00  0.00     0.000 C 
BRANCH   2   3
ATOM      3  C   UNL     1      -1.011  -7.722  37.121  1.00  0.00     0.000 C 
BRANCH   3   4
ATOM      4  C   UNL     1      -0.996  -8.525  38.437  1.00  0.00     0.000 C 
BRANCH   4   5
ATOM      5  C   UNL     1      -1.786  -7.861  39.586  1.00  0.00     0.000 C 
BRANCH   5   6
ATOM      6  C   UNL     1      -3.175  -8.495  39.784  1.00  0.00     0.000 C 
BRANCH   6   7
ATOM      7  C   UNL     1      -3.120 -10.027  39.880  1.00  0.00     0.006 C 
BRANCH   7   8
ATOM      8  C   UNL     1      -2.955 -10.526  41.323  1.00  0.00     0.053 C 
BRANCH   8   9
ATOM      9  C   UNL     1      -1.705 -11.340  41.458  1.00  0.00     0.041 C 
ATOM     10  O   UNL     1      -0.680 -11.040  40.790  1.00  0.00    -0.550 OA
ATOM     11  O   UNL     1      -1.659 -12.404  42.352  1.00  0.00    -0.550 OA
ENDBRANCH   8   9
ENDBRANCH   7   8
ENDBRANCH   6   7
ENDBRANCH   5   6
ENDBRANCH   4   5
ENDBRANCH   3   4
ENDBRANCH   2   3
ENDBRANCH   1   2
BRANCH   1  12
ATOM     12  C   UNL     1      -3.810  -8.274  35.478  1.00  0.00     0.000 C 
BRANCH  12  13
ATOM     13  C   UNL     1      -4.896  -8.081  36.554  1.00  0.00    -0.000 C 
BRANCH  13  14
ATOM     14  C   UNL     1      -4.869  -6.679  37.187  1.00  0.00    -0.000 C 
BRANCH  14  15
ATOM     15  C   UNL     1      -3.954  -5.708  36.410  1.00  0.00    -0.000 C 
BRANCH  15  16
ATOM     16  C   UNL     1      -4.712  -4.550  35.740  1.00  0.00    -0.000 C 
BRANCH  16  17
ATOM     17  C   UNL     1      -4.155  -4.200  34.349  1.00  0.00    -0.000 C 
BRANCH  17  18
ATOM     18  C   UNL     1      -4.463  -5.278  33.300  1.00  0.00    -0.000 C 
BRANCH  18  19
ATOM     19  C   UNL     1      -3.256  -5.596  32.406  1.00  0.00    -0.003 C 
ATOM     20  C   UNL     1      -2.095  -6.145  33.227  1.00  0.00     0.004 C 
ENDBRANCH  18  19
ENDBRANCH  17  18
ENDBRANCH  16  17
ENDBRANCH  15  16
ENDBRANCH  14  15
ENDBRANCH  13  14
ENDBRANCH  12  13
ENDBRANCH   1  12
TORSDOF 16
ENDMDL
MODEL 2
REMARK VINA RESULT:    -3.452      3.830      7.516
REMARK INTER + INTRA:          -9.280
REMARK INTER:                  -6.710
REMARK INTRA:                  -2.570
REMARK UNBOUND:                -2.600
REMARK SMILES CCCCCCCCCCCCCCCCCC(=O)[O-]
REMARK SMILES IDX 10 1 11 2 12 3 13 4 14 5 15 6 16 7 17 8 18 9 19 10 20 11
REMARK SMILES IDX 9 12 8 13 7 14 6 15 5 16 4 17 3 18 2 19 1 20
REMARK H PARENT
REMARK Flexibility Score: inf
ROOT
ATOM      1  C   UNL     1      -4.799  -8.189  36.376  1.00  0.00     0.000 C 
ENDROOT
BRANCH   1   2
ATOM      2  C   UNL     1      -5.872  -7.675  35.399  1.00  0.00     0.000 C 
BRANCH   2   3
ATOM      3  C   UNL     1      -6.447  -6.308  35.811  1.00  0.00     0.000 C 
BRANCH   3   4
ATOM      4  C   UNL     1      -6.163  -5.153  34.830  1.00  0.00     0.000 C 
BRANCH   4   5
ATOM      5  C   UNL     1      -5.019  -4.217  35.278  1.00  0.00     0.000 C 
BRANCH   5   6
ATOM      6  C   UNL     1      -3.813  -4.266  34.321  1.00  0.00     0.000 C 
BRANCH   6   7
ATOM      7  C   UNL     1      -4.013  -5.256  33.164  1.00  0.00     0.006 C 
BRANCH   7   8
ATOM      8  C   UNL     1      -2.788  -6.151  32.931  1.00  0.00     0.053 C 
BRANCH   8   9
ATOM      9  C   UNL     1      -2.572  -6.376  31.466  1.00  0.00     0.041 C 
ATOM     10  O   UNL     1      -3.397  -5.923  30.629  1.00  0.00    -0.550 OA
ATOM     11  O   UNL     1      -1.438  -7.049  31.023  1.00  0.00    -0.550 OA
ENDBRANCH   8   9
ENDBRANCH   7   8
ENDBRANCH   6   7
ENDBRANCH   5   6
ENDBRANCH   4   5
ENDBRANCH   3   4
ENDBRANCH   2   3
ENDBRANCH   1   2
BRANCH   1  12
ATOM     12  C   UNL     1      -4.497  -7.194  37.512  1.00  0.00     0.000 C 
BRANCH  12  13
ATOM     13  C   UNL     1      -3.090  -6.567  37.474  1.00  0.00    -0.000 C 
BRANCH  13  14
ATOM     14  C   UNL     1      -2.188  -7.187  36.392  1.00  0.00    -0.000 C 
BRANCH  14  15
ATOM     15  C   UNL     1      -0.862  -7.718  36.976  1.00  0.00    -0.000 C 
BRANCH  15  16
ATOM     16  C   UNL     1      -1.031  -8.976  37.844  1.00  0.00    -0.000 C 
BRANCH  16  17
ATOM     17  C   UNL     1      -0.447  -8.809  39.257  1.00  0.00    -0.000 C 
BRANCH  17  18
ATOM     18  C   UNL     1      -1.479  -8.285  40.266  1.00  0.00    -0.000 C 
BRANCH  18  19
ATOM     19  C   UNL     1      -2.330  -9.407  40.878  1.00  0.00    -0.003 C 
ATOM     20  C   UNL     1      -3.798  -9.252  40.496  1.00  0.00     0.004 C 
ENDBRANCH  18  19
ENDBRANCH  17  18
ENDBRANCH  16  17
ENDBRANCH  15  16
ENDBRANCH  14  15
ENDBRANCH  13  14
ENDBRANCH  12  13
ENDBRANCH   1  12
TORSDOF 16
ENDMDL
MODEL 3
REMARK VINA RESULT:    -3.442      3.492      6.756
REMARK INTER + INTRA:          -9.262
REMARK INTER:                  -6.548
REMARK INTRA:                  -2.714
REMARK UNBOUND:                -2.600
REMARK SMILES CCCCCCCCCCCCCCCCCC(=O)[O-]
REMARK SMILES IDX 10 1 11 2 12 3 13 4 14 5 15 6 16 7 17 8 18 9 19 10 20 11
REMARK SMILES IDX 9 12 8 13 7 14 6 15 5 16 4 17 3 18 2 19 1 20
REMARK H PARENT
REMARK Flexibility Score: inf
ROOT
ATOM      1  C   UNL     1      -0.765 -10.747  40.085  1.00  0.00     0.000 C 
ENDROOT
BRANCH   1   2
ATOM      2  C   UNL     1      -0.262  -9.499  39.337  1.00  0.00     0.000 C 
BRANCH   2   3
ATOM      3  C   UNL     1      -1.057  -8.231  39.694  1.00  0.00     0.000 C 
BRANCH   3   4
ATOM      4  C   UNL     1      -1.801  -7.568  38.517  1.00  0.00     0.000 C 
BRANCH   4   5
ATOM      5  C   UNL     1      -1.054  -7.665  37.169  1.00  0.00     0.000 C 
BRANCH   5   6
ATOM      6  C   UNL     1      -2.008  -7.575  35.963  1.00  0.00     0.000 C 
BRANCH   6   7
ATOM      7  C   UNL     1      -3.186  -6.621  36.208  1.00  0.00     0.006 C 
BRANCH   7   8
ATOM      8  C   UNL     1      -3.689  -5.956  34.919  1.00  0.00     0.053 C 
BRANCH   8   9
ATOM      9  C   UNL     1      -4.343  -4.643  35.224  1.00  0.00     0.041 C 
ATOM     10  O   UNL     1      -5.197  -4.562  36.147  1.00  0.00    -0.550 OA
ATOM     11  O   UNL     1      -3.979  -3.502  34.518  1.00  0.00    -0.550 OA
ENDBRANCH   8   9
ENDBRANCH   7   8
ENDBRANCH   6   7
ENDBRANCH   5   6
ENDBRANCH   4   5
ENDBRANCH   3   4
ENDBRANCH   2   3
ENDBRANCH   1   2
BRANCH   1  12
ATOM     12  C   UNL     1      -1.751 -10.410  41.219  1.00  0.00     0.000 C 
BRANCH  12  13
ATOM     13  C   UNL     1      -2.659 -11.574  41.662  1.00  0.00    -0.000 C 
BRANCH  13  14
ATOM     14  C   UNL     1      -4.025 -11.100  42.189  1.00  0.00    -0.000 C 
BRANCH  14  15
ATOM     15  C   UNL     1      -4.308  -9.626  41.828  1.00  0.00    -0.000 C 
BRANCH  15  16
ATOM     16  C   UNL     1      -5.437  -9.450  40.799  1.00  0.00    -0.000 C 
BRANCH  16  17
ATOM     17  C   UNL     1      -4.991  -8.669  39.552  1.00  0.00    -0.000 C 
BRANCH  17  18
ATOM     18  C   UNL     1      -5.070  -9.509  38.269  1.00  0.00    -0.000 C 
BRANCH  18  19
ATOM     19  C   UNL     1      -3.857 -10.433  38.090  1.00  0.00    -0.003 C 
ATOM     20  C   UNL     1      -4.246 -11.894  38.281  1.00  0.00     0.004 C 
ENDBRANCH  18  19
ENDBRANCH  17  18
ENDBRANCH  16  17
ENDBRANCH  15  16
ENDBRANCH  14  15
ENDBRANCH  13  14
ENDBRANCH  12  13
ENDBRANCH   1  12
TORSDOF 16
ENDMDL
MODEL 4
REMARK VINA RESULT:    -3.372      1.732      2.547
REMARK INTER + INTRA:          -9.125
REMARK INTER:                  -7.145
REMARK INTRA:                  -1.980
REMARK UNBOUND:                -2.600
REMARK SMILES CCCCCCCCCCCCCCCCCC(=O)[O-]
REMARK SMILES IDX 10 1 11 2 12 3 13 4 14 5 15 6 16 7 17 8 18 9 19 10 20 11
REMARK SMILES IDX 9 12 8 13 7 14 6 15 5 16 4 17 3 18 2 19 1 20
REMARK H PARENT
REMARK Flexibility Score: inf
ROOT
ATOM      1  C   UNL     1      -3.218  -8.005  37.510  1.00  0.00     0.000 C 
ENDROOT
BRANCH   1   2
ATOM      2  C   UNL     1      -1.818  -7.375  37.628  1.00  0.00     0.000 C 
BRANCH   2   3
ATOM      3  C   UNL     1      -0.708  -8.421  37.826  1.00  0.00     0.000 C 
BRANCH   3   4
ATOM      4  C   UNL     1      -0.445  -8.833  39.288  1.00  0.00     0.000 C 
BRANCH   4   5
ATOM      5  C   UNL     1      -0.457 -10.360  39.521  1.00  0.00     0.000 C 
BRANCH   5   6
ATOM      6  C   UNL     1      -1.341 -10.762  40.716  1.00  0.00     0.000 C 
BRANCH   6   7
ATOM      7  C   UNL     1      -2.151  -9.584  41.279  1.00  0.00     0.006 C 
BRANCH   7   8
ATOM      8  C   UNL     1      -3.648  -9.683  40.952  1.00  0.00     0.053 C 
BRANCH   8   9
ATOM      9  C   UNL     1      -4.433 -10.023  42.181  1.00  0.00     0.041 C 
ATOM     10  O   UNL     1      -4.169 -11.070  42.830  1.00  0.00    -0.550 OA
ATOM     11  O   UNL     1      -5.431  -9.165  42.631  1.00  0.00    -0.550 OA
ENDBRANCH   8   9
ENDBRANCH   7   8
ENDBRANCH   6   7
ENDBRANCH   5   6
ENDBRANCH   4   5
ENDBRANCH   3   4
ENDBRANCH   2   3
ENDBRANCH   1   2
BRANCH   1  12
ATOM     12  C   UNL     1      -4.340  -6.956  37.397  1.00  0.00     0.000 C 
BRANCH  12  13
ATOM     13  C   UNL     1      -3.941  -5.648  36.686  1.00  0.00    -0.000 C 
BRANCH  13  14
ATOM     14  C   UNL     1      -5.156  -4.819  36.234  1.00  0.00    -0.000 C 
BRANCH  14  15
ATOM     15  C   UNL     1      -5.027  -4.352  34.768  1.00  0.00    -0.000 C 
BRANCH  15  16
ATOM     16  C   UNL     1      -3.650  -4.638  34.148  1.00  0.00    -0.000 C 
BRANCH  16  17
ATOM     17  C   UNL     1      -3.743  -5.357  32.792  1.00  0.00    -0.000 C 
BRANCH  17  18
ATOM     18  C   UNL     1      -3.187  -6.787  32.841  1.00  0.00    -0.000 C 
BRANCH  18  19
ATOM     19  C   UNL     1      -1.989  -6.924  33.791  1.00  0.00    -0.003 C 
ATOM     20  C   UNL     1      -1.708  -8.388  34.111  1.00  0.00     0.004 C 
ENDBRANCH  18  19
ENDBRANCH  17  18
ENDBRANCH  16  17
ENDBRANCH  15  16
ENDBRANCH  14  15
ENDBRANCH  13  14
ENDBRANCH  12  13
ENDBRANCH   1  12
TORSDOF 16
ENDMDL
MODEL 5
REMARK VINA RESULT:    -3.365      3.424      6.827
REMARK INTER + INTRA:          -9.113
REMARK INTER:                  -6.575
REMARK INTRA:                  -2.538
REMARK UNBOUND:                -2.600
REMARK SMILES CCCCCCCCCCCCCCCCCC(=O)[O-]
REMARK SMILES IDX 10 1 11 2 12 3 13 4 14 5 15 6 16 7 17 8 18 9 19 10 20 11
REMARK SMILES IDX 9 12 8 13 7 14 6 15 5 16 4 17 3 18 2 19 1 20
REMARK H PARENT
REMARK Flexibility Score: inf
ROOT
ATOM      1  C   UNL     1      -4.054  -8.307  39.255  1.00  0.00     0.000 C 
ENDROOT
BRANCH   1   2
ATOM      2  C   UNL     1      -4.516  -8.789  37.868  1.00  0.00     0.000 C 
BRANCH   2   3
ATOM      3  C   UNL     1      -3.816  -8.046  36.717  1.00  0.00     0.000 C 
BRANCH   3   4
ATOM      4  C   UNL     1      -3.131  -6.722  37.108  1.00  0.00     0.000 C 
BRANCH   4   5
ATOM      5  C   UNL     1      -4.041  -5.481  36.973  1.00  0.00     0.000 C 
BRANCH   5   6
ATOM      6  C   UNL     1      -5.016  -5.596  35.787  1.00  0.00     0.000 C 
BRANCH   6   7
ATOM      7  C   UNL     1      -5.009  -4.350  34.890  1.00  0.00     0.006 C 
BRANCH   7   8
ATOM      8  C   UNL     1      -3.647  -4.104  34.225  1.00  0.00     0.053 C 
BRANCH   8   9
ATOM      9  C   UNL     1      -3.295  -5.239  33.313  1.00  0.00     0.041 C 
ATOM     10  O   UNL     1      -4.081  -5.572  32.387  1.00  0.00    -0.550 OA
ATOM     11  O   UNL     1      -2.081  -5.901  33.460  1.00  0.00    -0.550 OA
ENDBRANCH   8   9
ENDBRANCH   7   8
ENDBRANCH   6   7
ENDBRANCH   5   6
ENDBRANCH   4   5
ENDBRANCH   3   4
ENDBRANCH   2   3
ENDBRANCH   1   2
BRANCH   1  12
ATOM     12  C   UNL     1      -3.617  -9.462  40.176  1.00  0.00     0.000 C 
BRANCH  12  13
ATOM     13  C   UNL     1      -2.213  -9.311  40.791  1.00  0.00    -0.000 C 
BRANCH  13  14
ATOM     14  C   UNL     1      -1.400  -8.170  40.154  1.00  0.00    -0.000 C 
BRANCH  14  15
ATOM     15  C   UNL     1      -0.348  -8.695  39.153  1.00  0.00    -0.000 C 
BRANCH  15  16
ATOM     16  C   UNL     1      -0.091 -10.207  39.266  1.00  0.00    -0.000 C 
BRANCH  16  17
ATOM     17  C   UNL     1      -0.039 -10.906  37.897  1.00  0.00    -0.000 C 
BRANCH  17  18
ATOM     18  C   UNL     1      -1.257 -10.579  37.020  1.00  0.00    -0.000 C 
BRANCH  18  19
ATOM     19  C   UNL     1      -0.881 -10.340  35.551  1.00  0.00    -0.003 C 
ATOM     20  C   UNL     1      -0.492  -8.885  35.314  1.00  0.00     0.004 C 
ENDBRANCH  18  19
ENDBRANCH  17  18
ENDBRANCH  16  17
ENDBRANCH  15  16
ENDBRANCH  14  15
ENDBRANCH  13  14
ENDBRANCH  12  13
ENDBRANCH   1  12
TORSDOF 16
ENDMDL
MODEL 6
REMARK VINA RESULT:    -3.363      3.633      6.344
REMARK INTER + INTRA:          -9.109
REMARK INTER:                  -6.085
REMARK INTRA:                  -3.023
REMARK UNBOUND:                -2.600
REMARK SMILES CCCCCCCCCCCCCCCCCC(=O)[O-]
REMARK SMILES IDX 10 1 11 2 12 3 13 4 14 5 15 6 16 7 17 8 18 9 19 10 20 11
REMARK SMILES IDX 9 12 8 13 7 14 6 15 5 16 4 17 3 18 2 19 1 20
REMARK H PARENT
REMARK Flexibility Score: inf
ROOT
ATOM      1  C   UNL     1      -0.361 -10.695  39.616  1.00  0.00     0.000 C 
ENDROOT
BRANCH   1   2
ATOM      2  C   UNL     1      -0.144  -9.225  39.213  1.00  0.00     0.000 C 
BRANCH   2   3
ATOM      3  C   UNL     1      -0.244  -9.003  37.694  1.00  0.00     0.000 C 
BRANCH   3   4
ATOM      4  C   UNL     1      -1.133  -7.820  37.259  1.00  0.00     0.000 C 
BRANCH   4   5
ATOM      5  C   UNL     1      -2.206  -7.428  38.298  1.00  0.00     0.000 C 
BRANCH   5   6
ATOM      6  C   UNL     1      -3.448  -6.792  37.645  1.00  0.00     0.000 C 
BRANCH   6   7
ATOM      7  C   UNL     1      -3.199  -6.360  36.192  1.00  0.00     0.006 C 
BRANCH   7   8
ATOM      8  C   UNL     1      -4.334  -5.494  35.628  1.00  0.00     0.053 C 
BRANCH   8   9
ATOM      9  C   UNL     1      -3.845  -4.670  34.477  1.00  0.00     0.041 C 
ATOM     10  O   UNL     1      -3.179  -5.209  33.553  1.00  0.00    -0.550 OA
ATOM     11  O   UNL     1      -4.159  -3.317  34.404  1.00  0.00    -0.550 OA
ENDBRANCH   8   9
ENDBRANCH   7   8
ENDBRANCH   6   7
ENDBRANCH   5   6
ENDBRANCH   4   5
ENDBRANCH   3   4
ENDBRANCH   2   3
ENDBRANCH   1   2
BRANCH   1  12
ATOM     12  C   UNL     1      -1.341 -10.855  40.794  1.00  0.00     0.000 C 
BRANCH  12  13
ATOM     13  C   UNL     1      -2.034  -9.556  41.247  1.00  0.00    -0.000 C 
BRANCH  13  14
ATOM     14  C   UNL     1      -3.566  -9.617  41.116  1.00  0.00    -0.000 C 
BRANCH  14  15
ATOM     15  C   UNL     1      -4.024 -10.757  40.180  1.00  0.00    -0.000 C 
BRANCH  15  16
ATOM     16  C   UNL     1      -4.336 -10.291  38.748  1.00  0.00    -0.000 C 
BRANCH  16  17
ATOM     17  C   UNL     1      -3.533 -11.058  37.684  1.00  0.00    -0.000 C 
BRANCH  17  18
ATOM     18  C   UNL     1      -3.549 -10.361  36.316  1.00  0.00    -0.000 C 
BRANCH  18  19
ATOM     19  C   UNL     1      -4.918  -9.756  35.975  1.00  0.00    -0.003 C 
ATOM     20  C   UNL     1      -4.927  -9.179  34.564  1.00  0.00     0.004 C 
ENDBRANCH  18  19
ENDBRANCH  17  18
ENDBRANCH  16  17
ENDBRANCH  15  16
ENDBRANCH  14  15
ENDBRANCH  13  14
ENDBRANCH  12  13
ENDBRANCH   1  12
TORSDOF 16
ENDMDL
MODEL 7
REMARK VINA RESULT:    -3.358      1.293      2.915
REMARK INTER + INTRA:          -9.098
REMARK INTER:                  -6.912
REMARK INTRA:                  -2.187
REMARK UNBOUND:                -2.600
REMARK SMILES CCCCCCCCCCCCCCCCCC(=O)[O-]
REMARK SMILES IDX 10 1 11 2 12 3 13 4 14 5 15 6 16 7 17 8 18 9 19 10 20 11
REMARK SMILES IDX 9 12 8 13 7 14 6 15 5 16 4 17 3 18 2 19 1 20
REMARK H PARENT
REMARK Flexibility Score: inf
ROOT
ATOM      1  C   UNL     1      -1.902  -7.293  36.081  1.00  0.00     0.000 C 
ENDROOT
BRANCH   1   2
ATOM      2  C   UNL     1      -2.654  -6.994  37.391  1.00  0.00     0.000 C 
BRANCH   2   3
ATOM      3  C   UNL     1      -3.029  -8.268  38.166  1.00  0.00     0.000 C 
BRANCH   3   4
ATOM      4  C   UNL     1      -2.869  -8.178  39.697  1.00  0.00     0.000 C 
BRANCH   4   5
ATOM      5  C   UNL     1      -1.407  -8.279  40.182  1.00  0.00     0.000 C 
BRANCH   5   6
ATOM      6  C   UNL     1      -0.561  -9.217  39.300  1.00  0.00     0.000 C 
BRANCH   6   7
ATOM      7  C   UNL     1      -0.666 -10.688  39.726  1.00  0.00     0.006 C 
BRANCH   7   8
ATOM      8  C   UNL     1      -1.041 -10.852  41.206  1.00  0.00     0.053 C 
BRANCH   8   9
ATOM      9  C   UNL     1      -2.192 -11.798  41.356  1.00  0.00     0.041 C 
ATOM     10  O   UNL     1      -2.069 -12.836  42.059  1.00  0.00    -0.550 OA
ATOM     11  O   UNL     1      -3.412 -11.513  40.753  1.00  0.00    -0.550 OA
ENDBRANCH   8   9
ENDBRANCH   7   8
ENDBRANCH   6   7
ENDBRANCH   5   6
ENDBRANCH   4   5
ENDBRANCH   3   4
ENDBRANCH   2   3
ENDBRANCH   1   2
BRANCH   1  12
ATOM     12  C   UNL     1      -2.788  -7.981  35.025  1.00  0.00     0.000 C 
BRANCH  12  13
ATOM     13  C   UNL     1      -2.378  -7.724  33.562  1.00  0.00    -0.000 C 
BRANCH  13  14
ATOM     14  C   UNL     1      -2.134  -6.234  33.262  1.00  0.00    -0.000 C 
BRANCH  14  15
ATOM     15  C   UNL     1      -3.256  -5.625  32.395  1.00  0.00    -0.000 C 
BRANCH  15  16
ATOM     16  C   UNL     1      -4.461  -5.125  33.209  1.00  0.00    -0.000 C 
BRANCH  16  17
ATOM     17  C   UNL     1      -4.052  -4.249  34.404  1.00  0.00    -0.000 C 
BRANCH  17  18
ATOM     18  C   UNL     1      -4.875  -4.546  35.666  1.00  0.00    -0.000 C 
BRANCH  18  19
ATOM     19  C   UNL     1      -5.768  -5.785  35.512  1.00  0.00    -0.003 C 
ATOM     20  C   UNL     1      -6.242  -6.292  36.870  1.00  0.00     0.004 C 
ENDBRANCH  18  19
ENDBRANCH  17  18
ENDBRANCH  16  17
ENDBRANCH  15  16
ENDBRANCH  14  15
ENDBRANCH  13  14
ENDBRANCH  12  13
ENDBRANCH   1  12
TORSDOF 16
ENDMDL
MODEL 8
REMARK VINA RESULT:    -3.355      3.432      7.554
REMARK INTER + INTRA:          -9.093
REMARK INTER:                  -6.960
REMARK INTRA:                  -2.133
REMARK UNBOUND:                -2.600
REMARK SMILES CCCCCCCCCCCCCCCCCC(=O)[O-]
REMARK SMILES IDX 10 1 11 2 12 3 13 4 14 5 15 6 16 7 17 8 18 9 19 10 20 11
REMARK SMILES IDX 9 12 8 13 7 14 6 15 5 16 4 17 3 18 2 19 1 20
REMARK H PARENT
REMARK Flexibility Score: inf
ROOT
ATOM      1  C   UNL     1      -1.632  -8.621  36.941  1.00  0.00     0.000 C 
ENDROOT
BRANCH   1   2
ATOM      2  C   UNL     1      -1.910  -7.138  36.638  1.00  0.00     0.000 C 
BRANCH   2   3
ATOM      3  C   UNL     1      -3.129  -6.592  37.402  1.00  0.00     0.000 C 
BRANCH   3   4
ATOM      4  C   UNL     1      -4.480  -7.236  37.034  1.00  0.00     0.000 C 
BRANCH   4   5
ATOM      5  C   UNL     1      -5.577  -6.218  36.655  1.00  0.00     0.000 C 
BRANCH   5   6
ATOM      6  C   UNL     1      -5.009  -4.806  36.417  1.00  0.00     0.000 C 
BRANCH   6   7
ATOM      7  C   UNL     1      -5.119  -4.361  34.951  1.00  0.00     0.006 C 
BRANCH   7   8
ATOM      8  C   UNL     1      -3.751  -4.228  34.267  1.00  0.00     0.053 C 
BRANCH   8   9
ATOM      9  C   UNL     1      -3.376  -5.510  33.589  1.00  0.00     0.041 C 
ATOM     10  O   UNL     1      -2.167  -5.763  33.342  1.00  0.00    -0.550 OA
ATOM     11  O   UNL     1      -4.357  -6.442  33.266  1.00  0.00    -0.550 OA
ENDBRANCH   8   9
ENDBRANCH   7   8
ENDBRANCH   6   7
ENDBRANCH   5   6
ENDBRANCH   4   5
ENDBRANCH   3   4
ENDBRANCH   2   3
ENDBRANCH   1   2
BRANCH   1  12
ATOM     12  C   UNL     1      -0.253  -8.853  37.586  1.00  0.00     0.000 C 
BRANCH  12  13
ATOM     13  C   UNL     1      -0.287  -9.257  39.072  1.00  0.00    -0.000 C 
BRANCH  13  14
ATOM     14  C   UNL     1      -0.931  -8.185  39.969  1.00  0.00    -0.000 C 
BRANCH  14  15
ATOM     15  C   UNL     1      -1.949  -8.791  40.959  1.00  0.00    -0.000 C 
BRANCH  15  16
ATOM     16  C   UNL     1      -3.209  -9.353  40.279  1.00  0.00    -0.000 C 
BRANCH  16  17
ATOM     17  C   UNL     1      -3.667 -10.690  40.886  1.00  0.00    -0.000 C 
BRANCH  17  18
ATOM     18  C   UNL     1      -2.629 -11.807  40.708  1.00  0.00    -0.000 C 
BRANCH  18  19
ATOM     19  C   UNL     1      -2.222 -12.455  42.038  1.00  0.00    -0.003 C 
ATOM     20  C   UNL     1      -0.905 -11.880  42.549  1.00  0.00     0.004 C 
ENDBRANCH  18  19
ENDBRANCH  17  18
ENDBRANCH  16  17
ENDBRANCH  15  16
ENDBRANCH  14  15
ENDBRANCH  13  14
ENDBRANCH  12  13
ENDBRANCH   1  12
TORSDOF 16
ENDMDL
MODEL 9
REMARK VINA RESULT:    -3.341      1.505      2.360
REMARK INTER + INTRA:          -9.065
REMARK INTER:                  -6.187
REMARK INTRA:                  -2.878
REMARK UNBOUND:                -2.600
REMARK SMILES CCCCCCCCCCCCCCCCCC(=O)[O-]
REMARK SMILES IDX 10 1 11 2 12 3 13 4 14 5 15 6 16 7 17 8 18 9 19 10 20 11
REMARK SMILES IDX 9 12 8 13 7 14 6 15 5 16 4 17 3 18 2 19 1 20
REMARK H PARENT
REMARK Flexibility Score: inf
ROOT
ATOM      1  C   UNL     1      -3.695 -10.589  37.789  1.00  0.00     0.000 C 
ENDROOT
BRANCH   1   2
ATOM      2  C   UNL     1      -3.307 -10.480  36.304  1.00  0.00     0.000 C 
BRANCH   2   3
ATOM      3  C   UNL     1      -1.804 -10.223  36.098  1.00  0.00     0.000 C 
BRANCH   3   4
ATOM      4  C   UNL     1      -0.926 -10.411  37.351  1.00  0.00     0.000 C 
BRANCH   4   5
ATOM      5  C   UNL     1      -0.251  -9.112  37.844  1.00  0.00     0.000 C 
BRANCH   5   6
ATOM      6  C   UNL     1      -0.575  -8.808  39.319  1.00  0.00     0.000 C 
BRANCH   6   7
ATOM      7  C   UNL     1      -0.932 -10.068  40.121  1.00  0.00     0.006 C 
BRANCH   7   8
ATOM      8  C   UNL     1      -1.929  -9.787  41.254  1.00  0.00     0.053 C 
BRANCH   8   9
ATOM      9  C   UNL     1      -2.115 -11.005  42.105  1.00  0.00     0.041 C 
ATOM     10  O   UNL     1      -3.260 -11.307  42.535  1.00  0.00    -0.550 OA
ATOM     11  O   UNL     1      -1.031 -11.829  42.391  1.00  0.00    -0.550 OA
ENDBRANCH   8   9
ENDBRANCH   7   8
ENDBRANCH   6   7
ENDBRANCH   5   6
ENDBRANCH   4   5
ENDBRANCH   3   4
ENDBRANCH   2   3
ENDBRANCH   1   2
BRANCH   1  12
ATOM     12  C   UNL     1      -4.773  -9.570  38.203  1.00  0.00     0.000 C 
BRANCH  12  13
ATOM     13  C   UNL     1      -4.232  -8.242  38.770  1.00  0.00    -0.000 C 
BRANCH  13  14
ATOM     14  C   UNL     1      -4.278  -7.093  37.748  1.00  0.00    -0.000 C 
BRANCH  14  15
ATOM     15  C   UNL     1      -2.867  -6.677  37.278  1.00  0.00    -0.000 C 
BRANCH  15  16
ATOM     16  C   UNL     1      -2.671  -6.772  35.756  1.00  0.00    -0.000 C 
BRANCH  16  17
ATOM     17  C   UNL     1      -3.985  -7.037  35.001  1.00  0.00    -0.000 C 
BRANCH  17  18
ATOM     18  C   UNL     1      -4.115  -6.192  33.726  1.00  0.00    -0.000 C 
BRANCH  18  19
ATOM     19  C   UNL     1      -3.391  -4.842  33.833  1.00  0.00    -0.003 C 
ATOM     20  C   UNL     1      -4.295  -3.783  34.455  1.00  0.00     0.004 C 
ENDBRANCH  18  19
ENDBRANCH  17  18
ENDBRANCH  16  17
ENDBRANCH  15  16
ENDBRANCH  14  15
ENDBRANCH  13  14
ENDBRANCH  12  13
ENDBRANCH   1  12
TORSDOF 16
ENDMDL
