MODEL 1
REMARK VINA RESULT:    -2.410      0.000      0.000
REMARK INTER + INTRA:          -2.410
REMARK INTER:                  -2.410
REMARK INTRA:                   0.000
REMARK UNBOUND:                 0.000
REMARK SMILES CC(=O)[O-]
REMARK SMILES IDX 1 1 2 2 3 3 4 4
REMARK H PARENT
REMARK Flexibility Score: inf
ROOT
ATOM      1  C   UNL     1      98.376 -69.024  -1.406  1.00  0.00     0.063 C 
ATOM      2  C   UNL     1      98.720 -69.482  -0.030  1.00  0.00     0.038 C 
ATOM      3  O   UNL     1      98.111 -70.458   0.482  1.00  0.00    -0.550 OA
ATOM      4  O   UNL     1      99.751 -68.870   0.671  1.00  0.00    -0.550 OA
ENDROOT
TORSDOF 0
ENDMDL
MODEL 2
REMARK VINA RESULT:    -2.404     18.071     18.322
REMARK INTER + INTRA:          -2.404
REMARK INTER:                  -2.404
REMARK INTRA:                   0.000
REMARK UNBOUND:                 0.000
REMARK SMILES CC(=O)[O-]
REMARK SMILES IDX 1 1 2 2 3 3 4 4
REMARK H PARENT
REMARK Flexibility Score: inf
ROOT
ATOM      1  C   UNL     1     100.274 -82.503  13.634  1.00  0.00     0.063 C 
ATOM      2  C   UNL     1     101.084 -81.251  13.624  1.00  0.00     0.038 C 
ATOM      3  O   UNL     1     102.125 -81.178  12.921  1.00  0.00    -0.550 OA
ATOM      4  O   UNL     1     100.662 -80.143  14.348  1.00  0.00    -0.550 OA
ENDROOT
TORSDOF 0
ENDMDL
MODEL 3
REMARK VINA RESULT:    -2.369      0.102      1.620
REMARK INTER + INTRA:          -2.369
REMARK INTER:                  -2.369
REMARK INTRA:                   0.000
REMARK UNBOUND:                 0.000
REMARK SMILES CC(=O)[O-]
REMARK SMILES IDX 1 1 2 2 3 3 4 4
REMARK H PARENT
REMARK Flexibility Score: inf
ROOT
ATOM      1  C   UNL     1      98.382 -68.986  -1.443  1.00  0.00     0.063 C 
ATOM      2  C   UNL     1      98.781 -69.475  -0.092  1.00  0.00     0.038 C 
ATOM      3  O   UNL     1      99.735 -68.929   0.522  1.00  0.00    -0.550 OA
ATOM      4  O   UNL     1      98.065 -70.497   0.517  1.00  0.00    -0.550 OA
ENDROOT
TORSDOF 0
ENDMDL
MODEL 4
REMARK VINA RESULT:    -2.178      1.033      1.843
REMARK INTER + INTRA:          -2.178
REMARK INTER:                  -2.178
REMARK INTRA:                   0.000
REMARK UNBOUND:                 0.000
REMARK SMILES CC(=O)[O-]
REMARK SMILES IDX 1 1 2 2 3 3 4 4
REMARK H PARENT
REMARK Flexibility Score: inf
ROOT
ATOM      1  C   UNL     1      98.994 -67.835  -0.636  1.00  0.00     0.063 C 
ATOM      2  C   UNL     1      99.181 -68.873   0.418  1.00  0.00     0.038 C 
ATOM      3  O   UNL     1      99.827 -68.603   1.464  1.00  0.00    -0.550 OA
ATOM      4  O   UNL     1      98.596 -70.124   0.273  1.00  0.00    -0.550 OA
ENDROOT
TORSDOF 0
ENDMDL
MODEL 5
REMARK VINA RESULT:    -2.159      1.379      1.764
REMARK INTER + INTRA:          -2.159
REMARK INTER:                  -2.159
REMARK INTRA:                   0.000
REMARK UNBOUND:                 0.000
REMARK SMILES CC(=O)[O-]
REMARK SMILES IDX 1 1 2 2 3 3 4 4
REMARK H PARENT
REMARK Flexibility Score: inf
ROOT
ATOM      1  C   UNL     1      99.471 -68.287   0.466  1.00  0.00     0.063 C 
ATOM      2  C   UNL     1      98.706 -69.399  -0.167  1.00  0.00     0.038 C 
ATOM      3  O   UNL     1      98.464 -70.449   0.483  1.00  0.00    -0.550 OA
ATOM      4  O   UNL     1      98.212 -69.258  -1.458  1.00  0.00    -0.550 OA
ENDROOT
TORSDOF 0
ENDMDL
MODEL 6
REMARK VINA RESULT:    -2.054      3.565      3.982
REMARK INTER + INTRA:          -2.054
REMARK INTER:                  -2.054
REMARK INTRA:                   0.000
REMARK UNBOUND:                 0.000
REMARK SMILES CC(=O)[O-]
REMARK SMILES IDX 1 1 2 2 3 3 4 4
REMARK H PARENT
REMARK Flexibility Score: inf
ROOT
ATOM      1  C   UNL     1      97.707 -67.478   3.901  1.00  0.00     0.063 C 
ATOM      2  C   UNL     1      98.590 -68.589   3.443  1.00  0.00     0.038 C 
ATOM      3  O   UNL     1      98.635 -68.897   2.223  1.00  0.00    -0.550 OA
ATOM      4  O   UNL     1      99.406 -69.249   4.351  1.00  0.00    -0.550 OA
ENDROOT
TORSDOF 0
ENDMDL
MODEL 7
REMARK VINA RESULT:    -1.982     21.193     21.467
REMARK INTER + INTRA:          -1.982
REMARK INTER:                  -1.982
REMARK INTRA:                   0.000
REMARK UNBOUND:                 0.000
REMARK SMILES CC(=O)[O-]
REMARK SMILES IDX 1 1 2 2 3 3 4 4
REMARK H PARENT
REMARK Flexibility Score: inf
ROOT
ATOM      1  C   UNL     1      84.303 -84.200  -3.692  1.00  0.00     0.063 C 
ATOM      2  C   UNL     1      83.116 -83.900  -2.841  1.00  0.00     0.038 C 
ATOM      3  O   UNL     1      82.849 -84.628  -1.849  1.00  0.00    -0.550 OA
ATOM      4  O   UNL     1      82.333 -82.784  -3.107  1.00  0.00    -0.550 OA
ENDROOT
TORSDOF 0
ENDMDL
MODEL 8
REMARK VINA RESULT:    -1.974     10.353     10.847
REMARK INTER + INTRA:          -1.974
REMARK INTER:                  -1.974
REMARK INTRA:                   0.000
REMARK UNBOUND:                 0.000
REMARK SMILES CC(=O)[O-]
REMARK SMILES IDX 1 1 2 2 3 3 4 4
REMARK H PARENT
REMARK Flexibility Score: inf
ROOT
ATOM      1  C   UNL     1     100.087 -67.091  10.886  1.00  0.00     0.063 C 
ATOM      2  C   UNL     1     100.512 -68.460  10.475  1.00  0.00     0.038 C 
ATOM      3  O   UNL     1     100.700 -69.351  11.344  1.00  0.00    -0.550 OA
ATOM      4  O   UNL     1     100.649 -68.771   9.128  1.00  0.00    -0.550 OA
ENDROOT
TORSDOF 0
ENDMDL
MODEL 9
REMARK VINA RESULT:    -1.925      3.704      4.254
REMARK INTER + INTRA:          -1.925
REMARK INTER:                  -1.925
REMARK INTRA:                   0.000
REMARK UNBOUND:                 0.000
REMARK SMILES CC(=O)[O-]
REMARK SMILES IDX 1 1 2 2 3 3 4 4
REMARK H PARENT
REMARK Flexibility Score: inf
ROOT
ATOM      1  C   UNL     1      99.287 -68.653   4.590  1.00  0.00     0.063 C 
ATOM      2  C   UNL     1      98.366 -68.413   3.442  1.00  0.00     0.038 C 
ATOM      3  O   UNL     1      97.449 -67.556   3.536  1.00  0.00    -0.550 OA
ATOM      4  O   UNL     1      98.552 -69.096   2.247  1.00  0.00    -0.550 OA
ENDROOT
TORSDOF 0
ENDMDL
