MODEL 1
REMARK VINA RESULT:    -7.838      0.000      0.000
REMARK INTER + INTRA:         -12.698
REMARK INTER:                 -10.816
REMARK INTRA:                  -1.882
REMARK UNBOUND:                -1.882
REMARK SMILES CC[C@H](CC[C@H](C)[C@H]1CC[C@@H]2[C@H]3CC=C4C[C@@H](O)CC[C@@]4(C)[C@H]3CC[C@@]21C)C(C)C
REMARK SMILES IDX 5 1 4 2 3 3 2 4 1 5 28 6 29 7 30 8 6 9 7 10 8 11 9 12 26 13
REMARK SMILES IDX 10 14 11 15 25 16 27 17 12 18 24 19 23 20 13 21 21 22 14 23
REMARK SMILES IDX 15 24 20 25 22 26 16 27 19 28 17 29 18 30
REMARK H PARENT 18 31
REMARK Flexibility Score: inf
ROOT
ATOM      1  C   UNL     1     133.217 131.075 135.512  1.00  0.00     0.004 C 
ENDROOT
BRANCH   1   2
ATOM      2  C   UNL     1     134.678 131.013 136.013  1.00  0.00     0.004 C 
BRANCH   2   3
ATOM      3  C   UNL     1     135.609 130.116 135.150  1.00  0.00    -0.009 C 
BRANCH   3   4
ATOM      4  C   UNL     1     137.105 130.404 135.485  1.00  0.00     0.000 C 
ATOM      5  C   UNL     1     137.634 131.659 134.784  1.00  0.00     0.004 C 
ENDBRANCH   3   4
BRANCH   3   6
ATOM      6  C   UNL     1     135.265 128.586 135.224  1.00  0.00    -0.014 C 
ATOM      7  C   UNL     1     136.164 127.854 136.234  1.00  0.00     0.007 C 
ATOM      8  C   UNL     1     135.395 127.891 133.856  1.00  0.00     0.007 C 
ENDBRANCH   3   6
ENDBRANCH   2   3
ENDBRANCH   1   2
BRANCH   1   9
ATOM      9  C   UNL     1     132.135 130.722 136.570  1.00  0.00    -0.011 C 
ATOM     10  C   UNL     1     130.868 131.588 136.392  1.00  0.00     0.008 C 
BRANCH   9  11
ATOM     11  C   UNL     1     132.697 130.651 138.045  1.00  0.00    -0.002 C 
ATOM     12  C   UNL     1     131.864 131.456 139.054  1.00  0.00     0.005 C 
ATOM     13  C   UNL     1     132.882 129.223 138.707  1.00  0.00    -0.026 C 
ATOM     14  C   UNL     1     131.030 130.456 139.825  1.00  0.00     0.005 C 
ATOM     15  C   UNL     1     131.820 129.139 139.856  1.00  0.00    -0.001 C 
ATOM     16  C   UNL     1     134.334 129.082 139.263  1.00  0.00     0.007 C 
ATOM     17  C   UNL     1     132.678 128.037 137.725  1.00  0.00     0.012 C 
ATOM     18  C   UNL     1     132.403 128.858 141.278  1.00  0.00     0.000 C 
ATOM     19  C   UNL     1     134.623 129.943 140.498  1.00  0.00     0.005 C 
ATOM     20  C   UNL     1     133.563 129.827 141.641  1.00  0.00     0.003 C 
ATOM     21  C   UNL     1     132.758 127.358 141.493  1.00  0.00     0.031 C 
ATOM     22  C   UNL     1     134.198 129.463 143.032  1.00  0.00    -0.008 C 
ATOM     23  C   UNL     1     134.031 127.087 142.261  1.00  0.00    -0.027 C 
ATOM     24  C   UNL     1     134.714 128.021 142.960  1.00  0.00    -0.065 C 
ATOM     25  C   UNL     1     135.301 130.529 143.410  1.00  0.00     0.014 C 
ATOM     26  C   UNL     1     133.119 129.501 144.150  1.00  0.00     0.016 C 
ATOM     27  C   UNL     1     135.973 127.571 143.674  1.00  0.00     0.063 C 
ATOM     28  C   UNL     1     136.711 129.966 143.614  1.00  0.00     0.033 C 
ATOM     29  C   UNL     1     136.658 128.693 144.459  1.00  0.00     0.118 C 
BRANCH  29  30
ATOM     30  O   UNL     1     137.949 128.301 144.858  1.00  0.00    -0.393 OA
ATOM     31  H   UNL     1     138.331 127.731 144.139  1.00  0.00     0.210 HD
ENDBRANCH  29  30
ENDBRANCH   9  11
ENDBRANCH   1   9
TORSDOF 7
ENDMDL
MODEL 2
REMARK VINA RESULT:    -7.355      2.547      7.495
REMARK INTER + INTRA:         -12.033
REMARK INTER:                 -10.121
REMARK INTRA:                  -1.912
REMARK UNBOUND:                -1.882
REMARK SMILES CC[C@H](CC[C@H](C)[C@H]1CC[C@@H]2[C@H]3CC=C4C[C@@H](O)CC[C@@]4(C)[C@H]3CC[C@@]21C)C(C)C
REMARK SMILES IDX 5 1 4 2 3 3 2 4 1 5 28 6 29 7 30 8 6 9 7 10 8 11 9 12 26 13
REMARK SMILES IDX 10 14 11 15 25 16 27 17 12 18 24 19 23 20 13 21 21 22 14 23
REMARK SMILES IDX 15 24 20 25 22 26 16 27 19 28 17 29 18 30
REMARK H PARENT 18 31
REMARK Flexibility Score: inf
ROOT
ATOM      1  C   UNL     1     134.987 125.795 143.023  1.00  0.00     0.004 C 
ENDROOT
BRANCH   1   2
ATOM      2  C   UNL     1     135.764 127.124 142.886  1.00  0.00     0.004 C 
BRANCH   2   3
ATOM      3  C   UNL     1     135.290 128.242 143.857  1.00  0.00    -0.009 C 
BRANCH   3   4
ATOM      4  C   UNL     1     136.499 128.814 144.659  1.00  0.00     0.000 C 
ATOM      5  C   UNL     1     137.623 127.789 144.838  1.00  0.00     0.004 C 
ENDBRANCH   3   4
BRANCH   3   6
ATOM      6  C   UNL     1     134.446 129.370 143.164  1.00  0.00    -0.014 C 
ATOM      7  C   UNL     1     135.344 130.500 142.633  1.00  0.00     0.007 C 
ATOM      8  C   UNL     1     133.397 129.981 144.112  1.00  0.00     0.007 C 
ENDBRANCH   3   6
ENDBRANCH   2   3
ENDBRANCH   1   2
BRANCH   1   9
ATOM      9  C   UNL     1     134.206 125.346 141.757  1.00  0.00    -0.011 C 
ATOM     10  C   UNL     1     134.218 123.809 141.603  1.00  0.00     0.008 C 
BRANCH   9  11
ATOM     11  C   UNL     1     134.596 126.155 140.457  1.00  0.00    -0.002 C 
ATOM     12  C   UNL     1     134.977 125.255 139.272  1.00  0.00     0.005 C 
ATOM     13  C   UNL     1     133.544 127.185 139.873  1.00  0.00    -0.026 C 
ATOM     14  C   UNL     1     133.788 125.241 138.337  1.00  0.00     0.005 C 
ATOM     15  C   UNL     1     133.064 126.586 138.507  1.00  0.00    -0.001 C 
ATOM     16  C   UNL     1     134.220 128.579 139.677  1.00  0.00     0.007 C 
ATOM     17  C   UNL     1     132.315 127.427 140.792  1.00  0.00     0.012 C 
ATOM     18  C   UNL     1     133.281 127.509 137.266  1.00  0.00     0.000 C 
ATOM     19  C   UNL     1     135.243 128.627 138.535  1.00  0.00     0.005 C 
ATOM     20  C   UNL     1     134.736 128.044 137.176  1.00  0.00     0.003 C 
ATOM     21  C   UNL     1     132.201 128.625 137.157  1.00  0.00     0.031 C 
ATOM     22  C   UNL     1     134.904 129.048 135.978  1.00  0.00    -0.008 C 
ATOM     23  C   UNL     1     132.701 129.982 136.713  1.00  0.00    -0.027 C 
ATOM     24  C   UNL     1     133.924 130.209 136.185  1.00  0.00    -0.065 C 
ATOM     25  C   UNL     1     136.417 129.490 135.860  1.00  0.00     0.014 C 
ATOM     26  C   UNL     1     134.518 128.365 134.637  1.00  0.00     0.016 C 
ATOM     27  C   UNL     1     134.256 131.635 135.793  1.00  0.00     0.063 C 
ATOM     28  C   UNL     1     136.671 130.994 135.999  1.00  0.00     0.033 C 
ATOM     29  C   UNL     1     135.652 131.784 135.180  1.00  0.00     0.118 C 
BRANCH  29  30
ATOM     30  O   UNL     1     136.014 133.141 135.100  1.00  0.00    -0.393 OA
ATOM     31  H   UNL     1     136.988 133.209 135.289  1.00  0.00     0.210 HD
ENDBRANCH  29  30
ENDBRANCH   9  11
ENDBRANCH   1   9
TORSDOF 7
ENDMDL
MODEL 3
REMARK VINA RESULT:    -7.300      2.308      4.246
REMARK INTER + INTRA:         -11.957
REMARK INTER:                 -10.785
REMARK INTRA:                  -1.172
REMARK UNBOUND:                -1.882
REMARK SMILES CC[C@H](CC[C@H](C)[C@H]1CC[C@@H]2[C@H]3CC=C4C[C@@H](O)CC[C@@]4(C)[C@H]3CC[C@@]21C)C(C)C
REMARK SMILES IDX 5 1 4 2 3 3 2 4 1 5 28 6 29 7 30 8 6 9 7 10 8 11 9 12 26 13
REMARK SMILES IDX 10 14 11 15 25 16 27 17 12 18 24 19 23 20 13 21 21 22 14 23
REMARK SMILES IDX 15 24 20 25 22 26 16 27 19 28 17 29 18 30
REMARK H PARENT 18 31
REMARK Flexibility Score: inf
ROOT
ATOM      1  C   UNL     1     134.623 126.904 134.794  1.00  0.00     0.004 C 
ENDROOT
BRANCH   1   2
ATOM      2  C   UNL     1     135.868 125.989 134.750  1.00  0.00     0.004 C 
BRANCH   2   3
ATOM      3  C   UNL     1     136.105 125.174 136.053  1.00  0.00    -0.009 C 
BRANCH   3   4
ATOM      4  C   UNL     1     137.629 124.916 136.264  1.00  0.00     0.000 C 
ATOM      5  C   UNL     1     138.505 125.930 135.521  1.00  0.00     0.004 C 
ENDBRANCH   3   4
BRANCH   3   6
ATOM      6  C   UNL     1     135.423 125.794 137.323  1.00  0.00    -0.014 C 
ATOM      7  C   UNL     1     136.461 126.405 138.279  1.00  0.00     0.007 C 
ATOM      8  C   UNL     1     134.588 124.761 138.102  1.00  0.00     0.007 C 
ENDBRANCH   3   6
ENDBRANCH   2   3
ENDBRANCH   1   2
BRANCH   1   9
ATOM      9  C   UNL     1     134.896 128.413 134.541  1.00  0.00    -0.011 C 
ATOM     10  C   UNL     1     136.130 128.620 133.637  1.00  0.00     0.008 C 
BRANCH   9  11
ATOM     11  C   UNL     1     134.876 129.284 135.860  1.00  0.00    -0.002 C 
ATOM     12  C   UNL     1     135.078 130.785 135.601  1.00  0.00     0.005 C 
ATOM     13  C   UNL     1     133.601 129.194 136.797  1.00  0.00    -0.026 C 
ATOM     14  C   UNL     1     133.715 131.432 135.713  1.00  0.00     0.005 C 
ATOM     15  C   UNL     1     132.894 130.589 136.701  1.00  0.00    -0.001 C 
ATOM     16  C   UNL     1     134.042 128.878 138.261  1.00  0.00     0.007 C 
ATOM     17  C   UNL     1     132.598 128.077 136.398  1.00  0.00     0.012 C 
ATOM     18  C   UNL     1     132.706 131.331 138.063  1.00  0.00     0.000 C 
ATOM     19  C   UNL     1     134.760 130.036 138.966  1.00  0.00     0.005 C 
ATOM     20  C   UNL     1     134.027 131.413 138.877  1.00  0.00     0.003 C 
ATOM     21  C   UNL     1     131.505 130.777 138.883  1.00  0.00     0.031 C 
ATOM     22  C   UNL     1     133.792 132.074 140.283  1.00  0.00    -0.008 C 
ATOM     23  C   UNL     1     131.722 130.669 140.375  1.00  0.00    -0.027 C 
ATOM     24  C   UNL     1     132.754 131.236 141.039  1.00  0.00    -0.065 C 
ATOM     25  C   UNL     1     135.172 132.232 141.037  1.00  0.00     0.014 C 
ATOM     26  C   UNL     1     133.190 133.498 140.122  1.00  0.00     0.016 C 
ATOM     27  C   UNL     1     132.813 131.026 142.539  1.00  0.00     0.063 C 
ATOM     28  C   UNL     1     135.270 131.503 142.380  1.00  0.00     0.033 C 
ATOM     29  C   UNL     1     134.001 131.730 143.202  1.00  0.00     0.118 C 
BRANCH  29  30
ATOM     30  O   UNL     1     134.170 131.276 144.523  1.00  0.00    -0.393 OA
ATOM     31  H   UNL     1     135.131 131.368 144.757  1.00  0.00     0.210 HD
ENDBRANCH  29  30
ENDBRANCH   9  11
ENDBRANCH   1   9
TORSDOF 7
ENDMDL
MODEL 4
REMARK VINA RESULT:    -7.027      2.554      4.284
REMARK INTER + INTRA:         -11.579
REMARK INTER:                 -10.875
REMARK INTRA:                  -0.704
REMARK UNBOUND:                -1.882
REMARK SMILES CC[C@H](CC[C@H](C)[C@H]1CC[C@@H]2[C@H]3CC=C4C[C@@H](O)CC[C@@]4(C)[C@H]3CC[C@@]21C)C(C)C
REMARK SMILES IDX 5 1 4 2 3 3 2 4 1 5 28 6 29 7 30 8 6 9 7 10 8 11 9 12 26 13
REMARK SMILES IDX 10 14 11 15 25 16 27 17 12 18 24 19 23 20 13 21 21 22 14 23
REMARK SMILES IDX 15 24 20 25 22 26 16 27 19 28 17 29 18 30
REMARK H PARENT 18 31
REMARK Flexibility Score: inf
ROOT
ATOM      1  C   UNL     1     132.296 127.557 136.966  1.00  0.00     0.004 C 
ENDROOT
BRANCH   1   2
ATOM      2  C   UNL     1     133.611 126.746 136.916  1.00  0.00     0.004 C 
BRANCH   2   3
ATOM      3  C   UNL     1     134.860 127.582 136.515  1.00  0.00    -0.009 C 
BRANCH   3   4
ATOM      4  C   UNL     1     136.141 126.694 136.548  1.00  0.00     0.000 C 
ATOM      5  C   UNL     1     135.845 125.248 136.959  1.00  0.00     0.004 C 
ENDBRANCH   3   4
BRANCH   3   6
ATOM      6  C   UNL     1     134.700 128.350 135.156  1.00  0.00    -0.014 C 
ATOM      7  C   UNL     1     134.984 127.435 133.953  1.00  0.00     0.007 C 
ATOM      8  C   UNL     1     135.627 129.578 135.067  1.00  0.00     0.007 C 
ENDBRANCH   3   6
ENDBRANCH   2   3
ENDBRANCH   1   2
BRANCH   1   9
ATOM      9  C   UNL     1     131.468 127.403 138.272  1.00  0.00    -0.011 C 
ATOM     10  C   UNL     1     129.952 127.502 137.994  1.00  0.00     0.008 C 
BRANCH   9  11
ATOM     11  C   UNL     1     131.993 128.305 139.460  1.00  0.00    -0.002 C 
ATOM     12  C   UNL     1     133.011 127.592 140.362  1.00  0.00     0.005 C 
ATOM     13  C   UNL     1     132.659 129.698 139.104  1.00  0.00    -0.026 C 
ATOM     14  C   UNL     1     134.376 128.121 139.980  1.00  0.00     0.005 C 
ATOM     15  C   UNL     1     134.176 129.557 139.470  1.00  0.00    -0.001 C 
ATOM     16  C   UNL     1     131.978 130.836 139.926  1.00  0.00     0.007 C 
ATOM     17  C   UNL     1     132.523 130.103 137.611  1.00  0.00     0.012 C 
ATOM     18  C   UNL     1     134.710 130.605 140.498  1.00  0.00     0.000 C 
ATOM     19  C   UNL     1     132.300 130.808 141.426  1.00  0.00     0.005 C 
ATOM     20  C   UNL     1     133.820 130.689 141.769  1.00  0.00     0.003 C 
ATOM     21  C   UNL     1     134.994 131.989 139.846  1.00  0.00     0.031 C 
ATOM     22  C   UNL     1     134.318 131.818 142.742  1.00  0.00    -0.008 C 
ATOM     23  C   UNL     1     134.612 133.196 140.673  1.00  0.00    -0.027 C 
ATOM     24  C   UNL     1     134.290 133.151 141.985  1.00  0.00    -0.065 C 
ATOM     25  C   UNL     1     133.452 131.804 144.064  1.00  0.00     0.014 C 
ATOM     26  C   UNL     1     135.795 131.567 143.157  1.00  0.00     0.016 C 
ATOM     27  C   UNL     1     133.934 134.462 142.657  1.00  0.00     0.063 C 
ATOM     28  C   UNL     1     132.700 133.104 144.365  1.00  0.00     0.033 C 
ATOM     29  C   UNL     1     133.612 134.310 144.147  1.00  0.00     0.118 C 
BRANCH  29  30
ATOM     30  O   UNL     1     133.021 135.485 144.647  1.00  0.00    -0.393 OA
ATOM     31  H   UNL     1     133.279 135.573 145.603  1.00  0.00     0.210 HD
ENDBRANCH  29  30
ENDBRANCH   9  11
ENDBRANCH   1   9
TORSDOF 7
ENDMDL
MODEL 5
REMARK VINA RESULT:    -6.695      3.330      7.454
REMARK INTER + INTRA:         -11.121
REMARK INTER:                 -10.118
REMARK INTRA:                  -1.003
REMARK UNBOUND:                -1.882
REMARK SMILES CC[C@H](CC[C@H](C)[C@H]1CC[C@@H]2[C@H]3CC=C4C[C@@H](O)CC[C@@]4(C)[C@H]3CC[C@@]21C)C(C)C
REMARK SMILES IDX 5 1 4 2 3 3 2 4 1 5 28 6 29 7 30 8 6 9 7 10 8 11 9 12 26 13
REMARK SMILES IDX 10 14 11 15 25 16 27 17 12 18 24 19 23 20 13 21 21 22 14 23
REMARK SMILES IDX 15 24 20 25 22 26 16 27 19 28 17 29 18 30
REMARK H PARENT 18 31
REMARK Flexibility Score: inf
ROOT
ATOM      1  C   UNL     1     134.646 131.778 143.607  1.00  0.00     0.004 C 
ENDROOT
BRANCH   1   2
ATOM      2  C   UNL     1     133.988 133.051 144.185  1.00  0.00     0.004 C 
BRANCH   2   3
ATOM      3  C   UNL     1     134.344 134.357 143.419  1.00  0.00    -0.009 C 
BRANCH   3   4
ATOM      4  C   UNL     1     133.882 134.257 141.933  1.00  0.00     0.000 C 
ATOM      5  C   UNL     1     135.031 133.909 140.982  1.00  0.00     0.004 C 
ENDBRANCH   3   4
BRANCH   3   6
ATOM      6  C   UNL     1     133.829 135.664 144.118  1.00  0.00    -0.014 C 
ATOM      7  C   UNL     1     134.788 136.125 145.229  1.00  0.00     0.007 C 
ATOM      8  C   UNL     1     132.425 135.488 144.726  1.00  0.00     0.007 C 
ENDBRANCH   3   6
ENDBRANCH   2   3
ENDBRANCH   1   2
BRANCH   1   9
ATOM      9  C   UNL     1     133.661 130.678 143.124  1.00  0.00    -0.011 C 
ATOM     10  C   UNL     1     133.179 129.797 144.297  1.00  0.00     0.008 C 
BRANCH   9  11
ATOM     11  C   UNL     1     134.175 129.887 141.856  1.00  0.00    -0.002 C 
ATOM     12  C   UNL     1     134.730 128.494 142.191  1.00  0.00     0.005 C 
ATOM     13  C   UNL     1     133.162 129.652 140.660  1.00  0.00    -0.026 C 
ATOM     14  C   UNL     1     133.664 127.495 141.799  1.00  0.00     0.005 C 
ATOM     15  C   UNL     1     132.875 128.111 140.634  1.00  0.00    -0.001 C 
ATOM     16  C   UNL     1     133.804 130.133 139.321  1.00  0.00     0.007 C 
ATOM     17  C   UNL     1     131.823 130.426 140.800  1.00  0.00     0.012 C 
ATOM     18  C   UNL     1     133.204 127.398 139.284  1.00  0.00     0.000 C 
ATOM     19  C   UNL     1     134.954 129.251 138.820  1.00  0.00     0.005 C 
ATOM     20  C   UNL     1     134.638 127.721 138.782  1.00  0.00     0.003 C 
ATOM     21  C   UNL     1     132.104 127.624 138.206  1.00  0.00     0.031 C 
ATOM     22  C   UNL     1     134.911 127.074 137.376  1.00  0.00    -0.008 C 
ATOM     23  C   UNL     1     132.602 127.845 136.796  1.00  0.00    -0.027 C 
ATOM     24  C   UNL     1     133.870 127.615 136.389  1.00  0.00    -0.065 C 
ATOM     25  C   UNL     1     136.409 127.339 136.948  1.00  0.00     0.014 C 
ATOM     26  C   UNL     1     134.716 125.534 137.438  1.00  0.00     0.016 C 
ATOM     27  C   UNL     1     134.193 127.890 134.934  1.00  0.00     0.063 C 
ATOM     28  C   UNL     1     136.588 128.116 135.640  1.00  0.00     0.033 C 
ATOM     29  C   UNL     1     135.645 127.573 134.566  1.00  0.00     0.118 C 
BRANCH  29  30
ATOM     30  O   UNL     1     135.963 128.106 133.303  1.00  0.00    -0.393 OA
ATOM     31  H   UNL     1     135.116 128.207 132.793  1.00  0.00     0.210 HD
ENDBRANCH  29  30
ENDBRANCH   9  11
ENDBRANCH   1   9
TORSDOF 7
ENDMDL
MODEL 6
REMARK VINA RESULT:    -6.646      2.142      3.508
REMARK INTER + INTRA:         -11.053
REMARK INTER:                  -9.179
REMARK INTRA:                  -1.874
REMARK UNBOUND:                -1.882
REMARK SMILES CC[C@H](CC[C@H](C)[C@H]1CC[C@@H]2[C@H]3CC=C4C[C@@H](O)CC[C@@]4(C)[C@H]3CC[C@@]21C)C(C)C
REMARK SMILES IDX 5 1 4 2 3 3 2 4 1 5 28 6 29 7 30 8 6 9 7 10 8 11 9 12 26 13
REMARK SMILES IDX 10 14 11 15 25 16 27 17 12 18 24 19 23 20 13 21 21 22 14 23
REMARK SMILES IDX 15 24 20 25 22 26 16 27 19 28 17 29 18 30
REMARK H PARENT 18 31
REMARK Flexibility Score: inf
ROOT
ATOM      1  C   UNL     1     136.087 130.348 134.717  1.00  0.00     0.004 C 
ENDROOT
BRANCH   1   2
ATOM      2  C   UNL     1     136.915 129.151 135.237  1.00  0.00     0.004 C 
BRANCH   2   3
ATOM      3  C   UNL     1     136.127 127.812 135.305  1.00  0.00    -0.009 C 
BRANCH   3   4
ATOM      4  C   UNL     1     135.728 127.344 133.871  1.00  0.00     0.000 C 
ATOM      5  C   UNL     1     134.211 127.320 133.662  1.00  0.00     0.004 C 
ENDBRANCH   3   4
BRANCH   3   6
ATOM      6  C   UNL     1     136.856 126.686 136.119  1.00  0.00    -0.014 C 
ATOM      7  C   UNL     1     138.070 126.132 135.355  1.00  0.00     0.007 C 
ATOM      8  C   UNL     1     135.918 125.515 136.466  1.00  0.00     0.007 C 
ENDBRANCH   3   6
ENDBRANCH   2   3
ENDBRANCH   1   2
BRANCH   1   9
ATOM      9  C   UNL     1     135.083 130.957 135.735  1.00  0.00    -0.011 C 
ATOM     10  C   UNL     1     135.291 132.479 135.891  1.00  0.00     0.008 C 
BRANCH   9  11
ATOM     11  C   UNL     1     134.995 130.149 137.091  1.00  0.00    -0.002 C 
ATOM     12  C   UNL     1     135.476 130.950 138.310  1.00  0.00     0.005 C 
ATOM     13  C   UNL     1     133.590 129.552 137.516  1.00  0.00    -0.026 C 
ATOM     14  C   UNL     1     134.236 131.406 139.046  1.00  0.00     0.005 C 
ATOM     15  C   UNL     1     133.143 130.359 138.782  1.00  0.00    -0.001 C 
ATOM     16  C   UNL     1     133.735 128.031 137.832  1.00  0.00     0.007 C 
ATOM     17  C   UNL     1     132.496 129.662 136.419  1.00  0.00     0.012 C 
ATOM     18  C   UNL     1     132.863 129.496 140.053  1.00  0.00     0.000 C 
ATOM     19  C   UNL     1     134.509 127.727 139.121  1.00  0.00     0.005 C 
ATOM     20  C   UNL     1     134.033 128.526 140.377  1.00  0.00     0.003 C 
ATOM     21  C   UNL     1     131.473 128.798 140.006  1.00  0.00     0.031 C 
ATOM     22  C   UNL     1     133.687 127.600 141.598  1.00  0.00    -0.008 C 
ATOM     23  C   UNL     1     131.429 127.384 140.539  1.00  0.00    -0.027 C 
ATOM     24  C   UNL     1     132.420 126.807 141.255  1.00  0.00    -0.065 C 
ATOM     25  C   UNL     1     134.936 126.702 141.958  1.00  0.00     0.014 C 
ATOM     26  C   UNL     1     133.358 128.455 142.854  1.00  0.00     0.016 C 
ATOM     27  C   UNL     1     132.205 125.378 141.713  1.00  0.00     0.063 C 
ATOM     28  C   UNL     1     134.700 125.191 141.879  1.00  0.00     0.033 C 
ATOM     29  C   UNL     1     133.370 124.826 142.539  1.00  0.00     0.118 C 
BRANCH  29  30
ATOM     30  O   UNL     1     133.251 123.432 142.691  1.00  0.00    -0.393 OA
ATOM     31  H   UNL     1     133.306 123.225 143.662  1.00  0.00     0.210 HD
ENDBRANCH  29  30
ENDBRANCH   9  11
ENDBRANCH   1   9
TORSDOF 7
ENDMDL
MODEL 7
REMARK VINA RESULT:    -6.466      3.007      7.151
REMARK INTER + INTRA:         -10.806
REMARK INTER:                  -9.208
REMARK INTRA:                  -1.598
REMARK UNBOUND:                -1.882
REMARK SMILES CC[C@H](CC[C@H](C)[C@H]1CC[C@@H]2[C@H]3CC=C4C[C@@H](O)CC[C@@]4(C)[C@H]3CC[C@@]21C)C(C)C
REMARK SMILES IDX 5 1 4 2 3 3 2 4 1 5 28 6 29 7 30 8 6 9 7 10 8 11 9 12 26 13
REMARK SMILES IDX 10 14 11 15 25 16 27 17 12 18 24 19 23 20 13 21 21 22 14 23
REMARK SMILES IDX 15 24 20 25 22 26 16 27 19 28 17 29 18 30
REMARK H PARENT 18 31
REMARK Flexibility Score: inf
ROOT
ATOM      1  C   UNL     1     134.725 130.968 143.768  1.00  0.00     0.004 C 
ENDROOT
BRANCH   1   2
ATOM      2  C   UNL     1     133.468 131.867 143.744  1.00  0.00     0.004 C 
BRANCH   2   3
ATOM      3  C   UNL     1     133.596 133.115 142.825  1.00  0.00    -0.009 C 
BRANCH   3   4
ATOM      4  C   UNL     1     134.321 134.272 143.578  1.00  0.00     0.000 C 
ATOM      5  C   UNL     1     133.349 135.337 144.096  1.00  0.00     0.004 C 
ENDBRANCH   3   4
BRANCH   3   6
ATOM      6  C   UNL     1     134.246 132.812 141.429  1.00  0.00    -0.014 C 
ATOM      7  C   UNL     1     135.328 133.845 141.074  1.00  0.00     0.007 C 
ATOM      8  C   UNL     1     133.205 132.784 140.294  1.00  0.00     0.007 C 
ENDBRANCH   3   6
ENDBRANCH   2   3
ENDBRANCH   1   2
BRANCH   1   9
ATOM      9  C   UNL     1     134.453 129.440 143.691  1.00  0.00    -0.011 C 
ATOM     10  C   UNL     1     135.018 128.703 144.924  1.00  0.00     0.008 C 
BRANCH   9  11
ATOM     11  C   UNL     1     134.835 128.803 142.295  1.00  0.00    -0.002 C 
ATOM     12  C   UNL     1     135.394 127.377 142.408  1.00  0.00     0.005 C 
ATOM     13  C   UNL     1     133.714 128.721 141.179  1.00  0.00    -0.026 C 
ATOM     14  C   UNL     1     134.278 126.440 142.001  1.00  0.00     0.005 C 
ATOM     15  C   UNL     1     133.397 127.198 140.995  1.00  0.00    -0.001 C 
ATOM     16  C   UNL     1     134.240 129.357 139.853  1.00  0.00     0.007 C 
ATOM     17  C   UNL     1     132.407 129.482 141.534  1.00  0.00     0.012 C 
ATOM     18  C   UNL     1     133.590 126.651 139.545  1.00  0.00     0.000 C 
ATOM     19  C   UNL     1     135.324 128.533 139.146  1.00  0.00     0.005 C 
ATOM     20  C   UNL     1     134.978 127.021 138.955  1.00  0.00     0.003 C 
ATOM     21  C   UNL     1     132.400 127.012 138.608  1.00  0.00     0.031 C 
ATOM     22  C   UNL     1     135.110 126.547 137.462  1.00  0.00    -0.008 C 
ATOM     23  C   UNL     1     132.771 127.398 137.194  1.00  0.00    -0.027 C 
ATOM     24  C   UNL     1     133.993 127.211 136.648  1.00  0.00    -0.065 C 
ATOM     25  C   UNL     1     136.567 126.851 136.932  1.00  0.00     0.014 C 
ATOM     26  C   UNL     1     134.894 125.012 137.357  1.00  0.00     0.016 C 
ATOM     27  C   UNL     1     134.187 127.657 135.212  1.00  0.00     0.063 C 
ATOM     28  C   UNL     1     136.640 127.779 135.716  1.00  0.00     0.033 C 
ATOM     29  C   UNL     1     135.594 127.377 134.676  1.00  0.00     0.118 C 
BRANCH  29  30
ATOM     30  O   UNL     1     135.805 128.056 133.462  1.00  0.00    -0.393 OA
ATOM     31  H   UNL     1     136.307 128.890 133.662  1.00  0.00     0.210 HD
ENDBRANCH  29  30
ENDBRANCH   9  11
ENDBRANCH   1   9
TORSDOF 7
ENDMDL
MODEL 8
REMARK VINA RESULT:    -6.370      2.401      4.324
REMARK INTER + INTRA:         -10.672
REMARK INTER:                  -8.992
REMARK INTRA:                  -1.680
REMARK UNBOUND:                -1.882
REMARK SMILES CC[C@H](CC[C@H](C)[C@H]1CC[C@@H]2[C@H]3CC=C4C[C@@H](O)CC[C@@]4(C)[C@H]3CC[C@@]21C)C(C)C
REMARK SMILES IDX 5 1 4 2 3 3 2 4 1 5 28 6 29 7 30 8 6 9 7 10 8 11 9 12 26 13
REMARK SMILES IDX 10 14 11 15 25 16 27 17 12 18 24 19 23 20 13 21 21 22 14 23
REMARK SMILES IDX 15 24 20 25 22 26 16 27 19 28 17 29 18 30
REMARK H PARENT 18 31
REMARK Flexibility Score: inf
ROOT
ATOM      1  C   UNL     1     136.108 125.347 136.516  1.00  0.00     0.004 C 
ENDROOT
BRANCH   1   2
ATOM      2  C   UNL     1     137.013 126.587 136.335  1.00  0.00     0.004 C 
BRANCH   2   3
ATOM      3  C   UNL     1     136.455 127.642 135.338  1.00  0.00    -0.009 C 
BRANCH   3   4
ATOM      4  C   UNL     1     135.339 127.012 134.448  1.00  0.00     0.000 C 
ATOM      5  C   UNL     1     135.615 127.180 132.952  1.00  0.00     0.004 C 
ENDBRANCH   3   4
BRANCH   3   6
ATOM      6  C   UNL     1     135.993 128.978 136.020  1.00  0.00    -0.014 C 
ATOM      7  C   UNL     1     134.599 129.408 135.532  1.00  0.00     0.007 C 
ATOM      8  C   UNL     1     136.979 130.134 135.767  1.00  0.00     0.007 C 
ENDBRANCH   3   6
ENDBRANCH   2   3
ENDBRANCH   1   2
BRANCH   1   9
ATOM      9  C   UNL     1     135.302 125.298 137.844  1.00  0.00    -0.011 C 
ATOM     10  C   UNL     1     134.252 124.166 137.825  1.00  0.00     0.008 C 
BRANCH   9  11
ATOM     11  C   UNL     1     134.760 126.710 138.303  1.00  0.00    -0.002 C 
ATOM     12  C   UNL     1     133.395 127.066 137.694  1.00  0.00     0.005 C 
ATOM     13  C   UNL     1     134.605 126.983 139.856  1.00  0.00    -0.026 C 
ATOM     14  C   UNL     1     132.365 126.841 138.779  1.00  0.00     0.005 C 
ATOM     15  C   UNL     1     133.064 127.086 140.124  1.00  0.00    -0.001 C 
ATOM     16  C   UNL     1     135.339 128.307 140.237  1.00  0.00     0.007 C 
ATOM     17  C   UNL     1     135.214 125.876 140.759  1.00  0.00     0.012 C 
ATOM     18  C   UNL     1     132.594 128.425 140.775  1.00  0.00     0.000 C 
ATOM     19  C   UNL     1     134.657 129.578 139.714  1.00  0.00     0.005 C 
ATOM     20  C   UNL     1     133.126 129.670 140.012  1.00  0.00     0.003 C 
ATOM     21  C   UNL     1     132.866 128.473 142.307  1.00  0.00     0.031 C 
ATOM     22  C   UNL     1     132.723 131.003 140.741  1.00  0.00    -0.008 C 
ATOM     23  C   UNL     1     133.339 129.803 142.849  1.00  0.00    -0.027 C 
ATOM     24  C   UNL     1     133.298 130.965 142.161  1.00  0.00    -0.065 C 
ATOM     25  C   UNL     1     133.194 132.244 139.883  1.00  0.00     0.014 C 
ATOM     26  C   UNL     1     131.179 131.101 140.882  1.00  0.00     0.016 C 
ATOM     27  C   UNL     1     133.814 132.206 142.864  1.00  0.00     0.063 C 
ATOM     28  C   UNL     1     134.169 133.193 140.586  1.00  0.00     0.033 C 
ATOM     29  C   UNL     1     133.700 133.475 142.014  1.00  0.00     0.118 C 
BRANCH  29  30
ATOM     30  O   UNL     1     134.441 134.523 142.588  1.00  0.00    -0.393 OA
ATOM     31  H   UNL     1     133.798 135.201 142.928  1.00  0.00     0.210 HD
ENDBRANCH  29  30
ENDBRANCH   9  11
ENDBRANCH   1   9
TORSDOF 7
ENDMDL
MODEL 9
REMARK VINA RESULT:    -6.184      2.590      7.018
REMARK INTER + INTRA:         -10.416
REMARK INTER:                  -8.673
REMARK INTRA:                  -1.743
REMARK UNBOUND:                -1.882
REMARK SMILES CC[C@H](CC[C@H](C)[C@H]1CC[C@@H]2[C@H]3CC=C4C[C@@H](O)CC[C@@]4(C)[C@H]3CC[C@@]21C)C(C)C
REMARK SMILES IDX 5 1 4 2 3 3 2 4 1 5 28 6 29 7 30 8 6 9 7 10 8 11 9 12 26 13
REMARK SMILES IDX 10 14 11 15 25 16 27 17 12 18 24 19 23 20 13 21 21 22 14 23
REMARK SMILES IDX 15 24 20 25 22 26 16 27 19 28 17 29 18 30
REMARK H PARENT 18 31
REMARK Flexibility Score: inf
ROOT
ATOM      1  C   UNL     1     132.057 132.436 140.052  1.00  0.00     0.004 C 
ENDROOT
BRANCH   1   2
ATOM      2  C   UNL     1     132.827 131.289 140.744  1.00  0.00     0.004 C 
BRANCH   2   3
ATOM      3  C   UNL     1     133.629 131.728 142.002  1.00  0.00    -0.009 C 
BRANCH   3   4
ATOM      4  C   UNL     1     135.016 131.015 142.039  1.00  0.00     0.000 C 
ATOM      5  C   UNL     1     135.353 130.456 143.424  1.00  0.00     0.004 C 
ENDBRANCH   3   4
BRANCH   3   6
ATOM      6  C   UNL     1     133.753 133.284 142.165  1.00  0.00    -0.014 C 
ATOM      7  C   UNL     1     135.042 133.818 141.518  1.00  0.00     0.007 C 
ATOM      8  C   UNL     1     133.729 133.721 143.642  1.00  0.00     0.007 C 
ENDBRANCH   3   6
ENDBRANCH   2   3
ENDBRANCH   1   2
BRANCH   1   9
ATOM      9  C   UNL     1     132.448 132.704 138.572  1.00  0.00    -0.011 C 
ATOM     10  C   UNL     1     131.335 133.469 137.824  1.00  0.00     0.008 C 
BRANCH   9  11
ATOM     11  C   UNL     1     133.002 131.425 137.827  1.00  0.00    -0.002 C 
ATOM     12  C   UNL     1     132.386 131.217 136.435  1.00  0.00     0.005 C 
ATOM     13  C   UNL     1     134.567 131.305 137.609  1.00  0.00    -0.026 C 
ATOM     14  C   UNL     1     133.420 131.672 135.430  1.00  0.00     0.005 C 
ATOM     15  C   UNL     1     134.800 131.442 136.065  1.00  0.00    -0.001 C 
ATOM     16  C   UNL     1     135.071 129.927 138.140  1.00  0.00     0.007 C 
ATOM     17  C   UNL     1     135.396 132.385 138.355  1.00  0.00     0.012 C 
ATOM     18  C   UNL     1     135.540 130.240 135.398  1.00  0.00     0.000 C 
ATOM     19  C   UNL     1     134.631 128.726 137.293  1.00  0.00     0.005 C 
ATOM     20  C   UNL     1     134.893 128.875 135.759  1.00  0.00     0.003 C 
ATOM     21  C   UNL     1     137.078 130.280 135.635  1.00  0.00     0.031 C 
ATOM     22  C   UNL     1     135.713 127.676 135.158  1.00  0.00    -0.008 C 
ATOM     23  C   UNL     1     137.736 128.946 135.905  1.00  0.00    -0.027 C 
ATOM     24  C   UNL     1     137.142 127.749 135.710  1.00  0.00    -0.065 C 
ATOM     25  C   UNL     1     134.969 126.315 135.461  1.00  0.00     0.014 C 
ATOM     26  C   UNL     1     135.819 127.809 133.614  1.00  0.00     0.016 C 
ATOM     27  C   UNL     1     137.954 126.510 136.032  1.00  0.00     0.063 C 
ATOM     28  C   UNL     1     135.772 125.299 136.279  1.00  0.00     0.033 C 
ATOM     29  C   UNL     1     137.204 125.204 135.752  1.00  0.00     0.118 C 
BRANCH  29  30
ATOM     30  O   UNL     1     137.880 124.112 136.326  1.00  0.00    -0.393 OA
ATOM     31  H   UNL     1     137.609 123.293 135.834  1.00  0.00     0.210 HD
ENDBRANCH  29  30
ENDBRANCH   9  11
ENDBRANCH   1   9
TORSDOF 7
ENDMDL
