MODEL 1
REMARK VINA RESULT:    -3.961      0.000      0.000
REMARK INTER + INTRA:          -6.333
REMARK INTER:                  -5.581
REMARK INTRA:                  -0.752
REMARK UNBOUND:                -0.752
REMARK SMILES CCCCCCCCC(=O)[O-]
REMARK SMILES IDX 6 1 7 2 8 3 9 4 10 5 11 6 5 7 4 8 3 9 2 10 1 11
REMARK H PARENT
REMARK Flexibility Score: inf
ROOT
ATOM      1  C   UNL     1      -3.811  57.552  45.483  1.00  0.00     0.000 C 
ENDROOT
BRANCH   1   2
ATOM      2  C   UNL     1      -3.778  56.627  46.711  1.00  0.00     0.006 C 
BRANCH   2   3
ATOM      3  C   UNL     1      -2.409  56.631  47.404  1.00  0.00     0.053 C 
BRANCH   3   4
ATOM      4  C   UNL     1      -2.486  57.201  48.788  1.00  0.00     0.041 C 
ATOM      5  O   UNL     1      -2.698  56.446  49.772  1.00  0.00    -0.550 OA
ATOM      6  O   UNL     1      -2.295  58.561  48.992  1.00  0.00    -0.550 OA
ENDBRANCH   3   4
ENDBRANCH   2   3
ENDBRANCH   1   2
BRANCH   1   7
ATOM      7  C   UNL     1      -3.888  59.042  45.859  1.00  0.00     0.000 C 
BRANCH   7   8
ATOM      8  C   UNL     1      -2.808  59.937  45.217  1.00  0.00    -0.000 C 
BRANCH   8   9
ATOM      9  C   UNL     1      -1.431  59.892  45.902  1.00  0.00    -0.000 C 
BRANCH   9  10
ATOM     10  C   UNL     1      -0.294  59.546  44.931  1.00  0.00    -0.003 C 
ATOM     11  C   UNL     1      -0.223  58.041  44.681  1.00  0.00     0.004 C 
ENDBRANCH   9  10
ENDBRANCH   8   9
ENDBRANCH   7   8
ENDBRANCH   1   7
TORSDOF 7
ENDMDL
MODEL 2
REMARK VINA RESULT:    -3.922      1.804      2.507
REMARK INTER + INTRA:          -6.279
REMARK INTER:                  -5.429
REMARK INTRA:                  -0.850
REMARK UNBOUND:                -0.752
REMARK SMILES CCCCCCCCC(=O)[O-]
REMARK SMILES IDX 6 1 7 2 8 3 9 4 10 5 11 6 5 7 4 8 3 9 2 10 1 11
REMARK H PARENT
REMARK Flexibility Score: inf
ROOT
ATOM      1  C   UNL     1      -3.407  59.611  48.867  1.00  0.00     0.000 C 
ENDROOT
BRANCH   1   2
ATOM      2  C   UNL     1      -2.178  58.687  48.880  1.00  0.00     0.006 C 
BRANCH   2   3
ATOM      3  C   UNL     1      -2.566  57.203  48.861  1.00  0.00     0.053 C 
BRANCH   3   4
ATOM      4  C   UNL     1      -2.389  56.598  47.502  1.00  0.00     0.041 C 
ATOM      5  O   UNL     1      -1.237  56.310  47.083  1.00  0.00    -0.550 OA
ATOM      6  O   UNL     1      -3.496  56.325  46.710  1.00  0.00    -0.550 OA
ENDBRANCH   3   4
ENDBRANCH   2   3
ENDBRANCH   1   2
BRANCH   1   7
ATOM      7  C   UNL     1      -3.471  60.505  47.617  1.00  0.00     0.000 C 
BRANCH   7   8
ATOM      8  C   UNL     1      -4.125  59.858  46.380  1.00  0.00    -0.000 C 
BRANCH   8   9
ATOM      9  C   UNL     1      -3.154  59.501  45.240  1.00  0.00    -0.000 C 
BRANCH   9  10
ATOM     10  C   UNL     1      -1.757  60.108  45.435  1.00  0.00    -0.003 C 
ATOM     11  C   UNL     1      -0.667  59.122  45.026  1.00  0.00     0.004 C 
ENDBRANCH   9  10
ENDBRANCH   8   9
ENDBRANCH   7   8
ENDBRANCH   1   7
TORSDOF 7
ENDMDL
MODEL 3
REMARK VINA RESULT:    -3.844      2.568      4.360
REMARK INTER + INTRA:          -6.169
REMARK INTER:                  -5.455
REMARK INTRA:                  -0.714
REMARK UNBOUND:                -0.752
REMARK SMILES CCCCCCCCC(=O)[O-]
REMARK SMILES IDX 6 1 7 2 8 3 9 4 10 5 11 6 5 7 4 8 3 9 2 10 1 11
REMARK H PARENT
REMARK Flexibility Score: inf
ROOT
ATOM      1  C   UNL     1      -3.258  57.078  45.871  1.00  0.00     0.000 C 
ENDROOT
BRANCH   1   2
ATOM      2  C   UNL     1      -3.170  58.220  44.844  1.00  0.00     0.006 C 
BRANCH   2   3
ATOM      3  C   UNL     1      -3.800  59.518  45.366  1.00  0.00     0.053 C 
BRANCH   3   4
ATOM      4  C   UNL     1      -2.843  60.670  45.295  1.00  0.00     0.041 C 
ATOM      5  O   UNL     1      -1.663  60.538  45.714  1.00  0.00    -0.550 OA
ATOM      6  O   UNL     1      -3.245  61.878  44.742  1.00  0.00    -0.550 OA
ENDBRANCH   3   4
ENDBRANCH   2   3
ENDBRANCH   1   2
BRANCH   1   7
ATOM      7  C   UNL     1      -1.989  56.949  46.731  1.00  0.00     0.000 C 
BRANCH   7   8
ATOM      8  C   UNL     1      -2.202  56.324  48.125  1.00  0.00    -0.000 C 
BRANCH   8   9
ATOM      9  C   UNL     1      -2.332  57.333  49.280  1.00  0.00    -0.000 C 
BRANCH   9  10
ATOM     10  C   UNL     1      -2.097  58.783  48.833  1.00  0.00    -0.003 C 
ATOM     11  C   UNL     1      -3.378  59.606  48.943  1.00  0.00     0.004 C 
ENDBRANCH   9  10
ENDBRANCH   8   9
ENDBRANCH   7   8
ENDBRANCH   1   7
TORSDOF 7
ENDMDL
MODEL 4
REMARK VINA RESULT:    -3.843      1.342      2.628
REMARK INTER + INTRA:          -6.168
REMARK INTER:                  -5.608
REMARK INTRA:                  -0.560
REMARK UNBOUND:                -0.752
REMARK SMILES CCCCCCCCC(=O)[O-]
REMARK SMILES IDX 6 1 7 2 8 3 9 4 10 5 11 6 5 7 4 8 3 9 2 10 1 11
REMARK H PARENT
REMARK Flexibility Score: inf
ROOT
ATOM      1  C   UNL     1      -3.393  57.788  45.143  1.00  0.00     0.000 C 
ENDROOT
BRANCH   1   2
ATOM      2  C   UNL     1      -3.708  56.950  46.393  1.00  0.00     0.006 C 
BRANCH   2   3
ATOM      3  C   UNL     1      -2.457  56.673  47.236  1.00  0.00     0.053 C 
BRANCH   3   4
ATOM      4  C   UNL     1      -2.578  57.242  48.618  1.00  0.00     0.041 C 
ATOM      5  O   UNL     1      -2.678  58.486  48.783  1.00  0.00    -0.550 OA
ATOM      6  O   UNL     1      -2.609  56.397  49.719  1.00  0.00    -0.550 OA
ENDBRANCH   3   4
ENDBRANCH   2   3
ENDBRANCH   1   2
BRANCH   1   7
ATOM      7  C   UNL     1      -1.948  58.315  45.124  1.00  0.00     0.000 C 
BRANCH   7   8
ATOM      8  C   UNL     1      -1.784  59.797  45.518  1.00  0.00    -0.000 C 
BRANCH   8   9
ATOM      9  C   UNL     1      -3.047  60.660  45.350  1.00  0.00    -0.000 C 
BRANCH   9  10
ATOM     10  C   UNL     1      -3.630  61.130  46.691  1.00  0.00    -0.003 C 
ATOM     11  C   UNL     1      -3.917  62.629  46.671  1.00  0.00     0.004 C 
ENDBRANCH   9  10
ENDBRANCH   8   9
ENDBRANCH   7   8
ENDBRANCH   1   7
TORSDOF 7
ENDMDL
MODEL 5
REMARK VINA RESULT:    -3.789      3.069      4.746
REMARK INTER + INTRA:          -6.092
REMARK INTER:                  -5.424
REMARK INTRA:                  -0.668
REMARK UNBOUND:                -0.752
REMARK SMILES CCCCCCCCC(=O)[O-]
REMARK SMILES IDX 6 1 7 2 8 3 9 4 10 5 11 6 5 7 4 8 3 9 2 10 1 11
REMARK H PARENT
REMARK Flexibility Score: inf
ROOT
ATOM      1  C   UNL     1      -2.899  58.896  45.130  1.00  0.00     0.000 C 
ENDROOT
BRANCH   1   2
ATOM      2  C   UNL     1      -1.380  59.017  45.344  1.00  0.00     0.006 C 
BRANCH   2   3
ATOM      3  C   UNL     1      -0.614  57.831  44.746  1.00  0.00     0.053 C 
BRANCH   3   4
ATOM      4  C   UNL     1       0.513  58.282  43.866  1.00  0.00     0.041 C 
ATOM      5  O   UNL     1       0.587  59.484  43.500  1.00  0.00    -0.550 OA
ATOM      6  O   UNL     1       1.495  57.382  43.475  1.00  0.00    -0.550 OA
ENDBRANCH   3   4
ENDBRANCH   2   3
ENDBRANCH   1   2
BRANCH   1   7
ATOM      7  C   UNL     1      -3.416  57.459  45.315  1.00  0.00     0.000 C 
BRANCH   7   8
ATOM      8  C   UNL     1      -3.728  57.056  46.771  1.00  0.00    -0.000 C 
BRANCH   8   9
ATOM      9  C   UNL     1      -2.585  56.336  47.508  1.00  0.00    -0.000 C 
BRANCH   9  10
ATOM     10  C   UNL     1      -2.249  56.981  48.860  1.00  0.00    -0.003 C 
ATOM     11  C   UNL     1      -2.563  58.475  48.850  1.00  0.00     0.004 C 
ENDBRANCH   9  10
ENDBRANCH   8   9
ENDBRANCH   7   8
ENDBRANCH   1   7
TORSDOF 7
ENDMDL
MODEL 6
REMARK VINA RESULT:    -3.779      0.963      2.068
REMARK INTER + INTRA:          -6.078
REMARK INTER:                  -5.349
REMARK INTRA:                  -0.729
REMARK UNBOUND:                -0.752
REMARK SMILES CCCCCCCCC(=O)[O-]
REMARK SMILES IDX 6 1 7 2 8 3 9 4 10 5 11 6 5 7 4 8 3 9 2 10 1 11
REMARK H PARENT
REMARK Flexibility Score: inf
ROOT
ATOM      1  C   UNL     1      -3.021  57.711  45.040  1.00  0.00     0.000 C 
ENDROOT
BRANCH   1   2
ATOM      2  C   UNL     1      -3.611  57.135  46.338  1.00  0.00     0.006 C 
BRANCH   2   3
ATOM      3  C   UNL     1      -2.530  56.555  47.260  1.00  0.00     0.053 C 
BRANCH   3   4
ATOM      4  C   UNL     1      -2.606  57.133  48.640  1.00  0.00     0.041 C 
ATOM      5  O   UNL     1      -2.649  56.373  49.643  1.00  0.00    -0.550 OA
ATOM      6  O   UNL     1      -2.601  58.510  48.821  1.00  0.00    -0.550 OA
ENDBRANCH   3   4
ENDBRANCH   2   3
ENDBRANCH   1   2
BRANCH   1   7
ATOM      7  C   UNL     1      -1.493  57.885  45.103  1.00  0.00     0.000 C 
BRANCH   7   8
ATOM      8  C   UNL     1      -0.991  59.335  44.946  1.00  0.00    -0.000 C 
BRANCH   8   9
ATOM      9  C   UNL     1      -1.402  60.293  46.078  1.00  0.00    -0.000 C 
BRANCH   9  10
ATOM     10  C   UNL     1      -2.559  61.221  45.682  1.00  0.00    -0.003 C 
ATOM     11  C   UNL     1      -3.728  61.088  46.655  1.00  0.00     0.004 C 
ENDBRANCH   9  10
ENDBRANCH   8   9
ENDBRANCH   7   8
ENDBRANCH   1   7
TORSDOF 7
ENDMDL
MODEL 7
REMARK VINA RESULT:    -3.767      2.288      4.241
REMARK INTER + INTRA:          -6.061
REMARK INTER:                  -5.300
REMARK INTRA:                  -0.760
REMARK UNBOUND:                -0.752
REMARK SMILES CCCCCCCCC(=O)[O-]
REMARK SMILES IDX 6 1 7 2 8 3 9 4 10 5 11 6 5 7 4 8 3 9 2 10 1 11
REMARK H PARENT
REMARK Flexibility Score: inf
ROOT
ATOM      1  C   UNL     1      -3.514  60.663  47.710  1.00  0.00     0.000 C 
ENDROOT
BRANCH   1   2
ATOM      2  C   UNL     1      -4.025  60.016  46.412  1.00  0.00     0.006 C 
BRANCH   2   3
ATOM      3  C   UNL     1      -3.214  60.457  45.186  1.00  0.00     0.053 C 
BRANCH   3   4
ATOM      4  C   UNL     1      -1.743  60.247  45.385  1.00  0.00     0.041 C 
ATOM      5  O   UNL     1      -1.274  59.081  45.450  1.00  0.00    -0.550 OA
ATOM      6  O   UNL     1      -0.889  61.338  45.470  1.00  0.00    -0.550 OA
ENDBRANCH   3   4
ENDBRANCH   2   3
ENDBRANCH   1   2
BRANCH   1   7
ATOM      7  C   UNL     1      -3.471  59.680  48.892  1.00  0.00     0.000 C 
BRANCH   7   8
ATOM      8  C   UNL     1      -2.226  58.771  48.945  1.00  0.00    -0.000 C 
BRANCH   8   9
ATOM      9  C   UNL     1      -2.522  57.262  49.000  1.00  0.00    -0.000 C 
BRANCH   9  10
ATOM     10  C   UNL     1      -2.174  56.538  47.691  1.00  0.00    -0.003 C 
ATOM     11  C   UNL     1      -3.388  56.460  46.768  1.00  0.00     0.004 C 
ENDBRANCH   9  10
ENDBRANCH   8   9
ENDBRANCH   7   8
ENDBRANCH   1   7
TORSDOF 7
ENDMDL
MODEL 8
REMARK VINA RESULT:    -3.672      2.435      3.302
REMARK INTER + INTRA:          -5.927
REMARK INTER:                  -5.234
REMARK INTRA:                  -0.693
REMARK UNBOUND:                -0.752
REMARK SMILES CCCCCCCCC(=O)[O-]
REMARK SMILES IDX 6 1 7 2 8 3 9 4 10 5 11 6 5 7 4 8 3 9 2 10 1 11
REMARK H PARENT
REMARK Flexibility Score: inf
ROOT
ATOM      1  C   UNL     1      -2.372  58.202  48.882  1.00  0.00     0.000 C 
ENDROOT
BRANCH   1   2
ATOM      2  C   UNL     1      -2.917  57.218  47.833  1.00  0.00     0.006 C 
BRANCH   2   3
ATOM      3  C   UNL     1      -1.807  56.644  46.943  1.00  0.00     0.053 C 
BRANCH   3   4
ATOM      4  C   UNL     1      -1.681  57.396  45.653  1.00  0.00     0.041 C 
ATOM      5  O   UNL     1      -2.712  57.714  45.004  1.00  0.00    -0.550 OA
ATOM      6  O   UNL     1      -0.429  57.770  45.183  1.00  0.00    -0.550 OA
ENDBRANCH   3   4
ENDBRANCH   2   3
ENDBRANCH   1   2
BRANCH   1   7
ATOM      7  C   UNL     1      -3.087  59.563  48.854  1.00  0.00     0.000 C 
BRANCH   7   8
ATOM      8  C   UNL     1      -3.968  59.817  47.614  1.00  0.00    -0.000 C 
BRANCH   8   9
ATOM      9  C   UNL     1      -3.792  61.198  46.959  1.00  0.00    -0.000 C 
BRANCH   9  10
ATOM     10  C   UNL     1      -3.257  61.113  45.523  1.00  0.00    -0.003 C 
ATOM     11  C   UNL     1      -1.730  61.129  45.502  1.00  0.00     0.004 C 
ENDBRANCH   9  10
ENDBRANCH   8   9
ENDBRANCH   7   8
ENDBRANCH   1   7
TORSDOF 7
ENDMDL
MODEL 9
REMARK VINA RESULT:    -3.627      2.678      4.617
REMARK INTER + INTRA:          -5.863
REMARK INTER:                  -5.227
REMARK INTRA:                  -0.636
REMARK UNBOUND:                -0.752
REMARK SMILES CCCCCCCCC(=O)[O-]
REMARK SMILES IDX 6 1 7 2 8 3 9 4 10 5 11 6 5 7 4 8 3 9 2 10 1 11
REMARK H PARENT
REMARK Flexibility Score: inf
ROOT
ATOM      1  C   UNL     1      -2.095  58.078  45.111  1.00  0.00     0.000 C 
ENDROOT
BRANCH   1   2
ATOM      2  C   UNL     1      -2.073  59.576  45.457  1.00  0.00     0.006 C 
BRANCH   2   3
ATOM      3  C   UNL     1      -3.481  60.186  45.484  1.00  0.00     0.053 C 
BRANCH   3   4
ATOM      4  C   UNL     1      -3.441  61.683  45.441  1.00  0.00     0.041 C 
ATOM      5  O   UNL     1      -3.355  62.282  44.338  1.00  0.00    -0.550 OA
ATOM      6  O   UNL     1      -3.528  62.417  46.617  1.00  0.00    -0.550 OA
ENDBRANCH   3   4
ENDBRANCH   2   3
ENDBRANCH   1   2
BRANCH   1   7
ATOM      7  C   UNL     1      -3.474  57.432  45.332  1.00  0.00     0.000 C 
BRANCH   7   8
ATOM      8  C   UNL     1      -3.665  56.745  46.699  1.00  0.00    -0.000 C 
BRANCH   8   9
ATOM      9  C   UNL     1      -2.368  56.272  47.379  1.00  0.00    -0.000 C 
BRANCH   9  10
ATOM     10  C   UNL     1      -2.221  56.800  48.813  1.00  0.00    -0.003 C 
ATOM     11  C   UNL     1      -2.611  58.274  48.900  1.00  0.00     0.004 C 
ENDBRANCH   9  10
ENDBRANCH   8   9
ENDBRANCH   7   8
ENDBRANCH   1   7
TORSDOF 7
ENDMDL
