MODEL 1
REMARK VINA RESULT:    -6.425      0.000      0.000
REMARK INTER + INTRA:          -7.685
REMARK INTER:                  -7.552
REMARK INTRA:                  -0.133
REMARK UNBOUND:                -0.133
REMARK SMILES O=C([O-])C=Cc1ccc(O)c(O)c1
REMARK SMILES IDX 6 1 13 2 7 3 11 4 8 5 9 6 5 7 4 8 2 9 1 10 3 11 12 12 10 14
REMARK H PARENT 12 13 10 15
REMARK Flexibility Score: inf
ROOT
ATOM      1  C   UNL     1      12.807 -12.752  28.448  1.00  0.00    -0.022 A 
ATOM      2  C   UNL     1      13.210 -12.073  29.610  1.00  0.00     0.058 A 
ATOM      3  C   UNL     1      11.563 -12.431  27.869  1.00  0.00     0.012 A 
ATOM      4  C   UNL     1      12.401 -11.073  30.172  1.00  0.00     0.157 A 
ATOM      5  C   UNL     1      10.758 -11.436  28.429  1.00  0.00     0.051 A 
ATOM      6  C   UNL     1      11.175 -10.753  29.579  1.00  0.00     0.157 A 
ENDROOT
BRANCH   1   7
ATOM      7  C   UNL     1      13.694 -13.808  27.900  1.00  0.00     0.010 C 
ATOM      8  C   UNL     1      14.518 -14.553  28.650  1.00  0.00     0.025 C 
BRANCH   8   9
ATOM      9  C   UNL     1      15.371 -15.598  28.065  1.00  0.00     0.064 C 
ATOM     10  O   UNL     1      15.880 -15.420  26.928  1.00  0.00    -0.545 OA
ATOM     11  O   UNL     1      15.625 -16.783  28.747  1.00  0.00    -0.545 OA
ENDBRANCH   8   9
ENDBRANCH   1   7
BRANCH   4  12
ATOM     12  O   UNL     1      12.811 -10.396  31.318  1.00  0.00    -0.504 OA
ATOM     13  H   UNL     1      13.595 -10.718  31.874  1.00  0.00     0.293 HD
ENDBRANCH   4  12
BRANCH   6  14
ATOM     14  O   UNL     1      10.374  -9.759  30.138  1.00  0.00    -0.504 OA
ATOM     15  H   UNL     1       9.399  -9.925  30.359  1.00  0.00     0.293 HD
ENDBRANCH   6  14
TORSDOF 4
ENDMDL
MODEL 2
REMARK VINA RESULT:    -6.308      1.223      5.850
REMARK INTER + INTRA:          -7.548
REMARK INTER:                  -7.420
REMARK INTRA:                  -0.128
REMARK UNBOUND:                -0.133
REMARK SMILES O=C([O-])C=Cc1ccc(O)c(O)c1
REMARK SMILES IDX 6 1 13 2 7 3 11 4 8 5 9 6 5 7 4 8 2 9 1 10 3 11 12 12 10 14
REMARK H PARENT 12 13 10 15
REMARK Flexibility Score: inf
ROOT
ATOM      1  C   UNL     1      14.236 -12.895  28.880  1.00  0.00    -0.022 A 
ATOM      2  C   UNL     1      14.378 -14.016  29.714  1.00  0.00     0.058 A 
ATOM      3  C   UNL     1      14.750 -12.953  27.568  1.00  0.00     0.012 A 
ATOM      4  C   UNL     1      14.997 -15.184  29.244  1.00  0.00     0.157 A 
ATOM      5  C   UNL     1      15.367 -14.117  27.102  1.00  0.00     0.051 A 
ATOM      6  C   UNL     1      15.490 -15.235  27.936  1.00  0.00     0.157 A 
ENDROOT
BRANCH   1   7
ATOM      7  C   UNL     1      13.583 -11.680  29.427  1.00  0.00     0.010 C 
ATOM      8  C   UNL     1      12.265 -11.446  29.356  1.00  0.00     0.025 C 
BRANCH   8   9
ATOM      9  C   UNL     1      11.658 -10.232  29.923  1.00  0.00     0.064 C 
ATOM     10  O   UNL     1      10.413 -10.069  29.854  1.00  0.00    -0.545 OA
ATOM     11  O   UNL     1      12.440  -9.258  30.535  1.00  0.00    -0.545 OA
ENDBRANCH   8   9
ENDBRANCH   1   7
BRANCH   4  12
ATOM     12  O   UNL     1      15.125 -16.296  30.074  1.00  0.00    -0.504 OA
ATOM     13  H   UNL     1      14.836 -16.271  31.045  1.00  0.00     0.293 HD
ENDBRANCH   4  12
BRANCH   6  14
ATOM     14  O   UNL     1      16.103 -16.397  27.472  1.00  0.00    -0.504 OA
ATOM     15  H   UNL     1      16.476 -17.091  28.110  1.00  0.00     0.293 HD
ENDBRANCH   6  14
TORSDOF 4
ENDMDL
MODEL 3
REMARK VINA RESULT:    -6.244      0.936      1.894
REMARK INTER + INTRA:          -7.472
REMARK INTER:                  -7.334
REMARK INTRA:                  -0.138
REMARK UNBOUND:                -0.133
REMARK SMILES O=C([O-])C=Cc1ccc(O)c(O)c1
REMARK SMILES IDX 6 1 13 2 7 3 11 4 8 5 9 6 5 7 4 8 2 9 1 10 3 11 12 12 10 14
REMARK H PARENT 12 13 10 15
REMARK Flexibility Score: inf
ROOT
ATOM      1  C   UNL     1      13.445 -12.589  28.873  1.00  0.00    -0.022 A 
ATOM      2  C   UNL     1      12.291 -12.042  28.286  1.00  0.00     0.058 A 
ATOM      3  C   UNL     1      13.984 -11.969  30.019  1.00  0.00     0.012 A 
ATOM      4  C   UNL     1      11.669 -10.915  28.843  1.00  0.00     0.157 A 
ATOM      5  C   UNL     1      13.365 -10.846  30.572  1.00  0.00     0.051 A 
ATOM      6  C   UNL     1      12.206 -10.317  29.989  1.00  0.00     0.157 A 
ENDROOT
BRANCH   1   7
ATOM      7  C   UNL     1      14.070 -13.776  28.238  1.00  0.00     0.010 C 
ATOM      8  C   UNL     1      14.833 -14.658  28.898  1.00  0.00     0.025 C 
BRANCH   8   9
ATOM      9  C   UNL     1      15.423 -15.828  28.231  1.00  0.00     0.064 C 
ATOM     10  O   UNL     1      15.815 -15.732  27.039  1.00  0.00    -0.545 OA
ATOM     11  O   UNL     1      15.555 -17.043  28.895  1.00  0.00    -0.545 OA
ENDBRANCH   8   9
ENDBRANCH   1   7
BRANCH   4  12
ATOM     12  O   UNL     1      10.519 -10.385  28.262  1.00  0.00    -0.504 OA
ATOM     13  H   UNL     1      10.449  -9.402  28.023  1.00  0.00     0.293 HD
ENDBRANCH   4  12
BRANCH   6  14
ATOM     14  O   UNL     1      11.585  -9.198  30.541  1.00  0.00    -0.504 OA
ATOM     15  H   UNL     1      12.087  -8.329  30.683  1.00  0.00     0.293 HD
ENDBRANCH   6  14
TORSDOF 4
ENDMDL
MODEL 4
REMARK VINA RESULT:    -6.082     12.074     13.203
REMARK INTER + INTRA:          -7.282
REMARK INTER:                  -7.156
REMARK INTRA:                  -0.126
REMARK UNBOUND:                -0.133
REMARK SMILES O=C([O-])C=Cc1ccc(O)c(O)c1
REMARK SMILES IDX 6 1 13 2 7 3 11 4 8 5 9 6 5 7 4 8 2 9 1 10 3 11 12 12 10 14
REMARK H PARENT 12 13 10 15
REMARK Flexibility Score: inf
ROOT
ATOM      1  C   UNL     1      15.956  -0.501  26.583  1.00  0.00    -0.022 A 
ATOM      2  C   UNL     1      15.945   0.622  27.427  1.00  0.00     0.058 A 
ATOM      3  C   UNL     1      15.359  -0.401  25.310  1.00  0.00     0.012 A 
ATOM      4  C   UNL     1      15.373   1.831  27.003  1.00  0.00     0.157 A 
ATOM      5  C   UNL     1      14.789   0.803  24.889  1.00  0.00     0.051 A 
ATOM      6  C   UNL     1      14.796   1.922  25.732  1.00  0.00     0.157 A 
ENDROOT
BRANCH   1   7
ATOM      7  C   UNL     1      16.565  -1.759  27.083  1.00  0.00     0.010 C 
ATOM      8  C   UNL     1      17.879  -2.019  27.040  1.00  0.00     0.025 C 
BRANCH   8   9
ATOM      9  C   UNL     1      18.440  -3.276  27.558  1.00  0.00     0.064 C 
ATOM     10  O   UNL     1      18.000  -4.375  27.131  1.00  0.00    -0.545 OA
ATOM     11  O   UNL     1      19.448  -3.271  28.515  1.00  0.00    -0.545 OA
ENDBRANCH   8   9
ENDBRANCH   1   7
BRANCH   4  12
ATOM     12  O   UNL     1      15.375   2.944  27.842  1.00  0.00    -0.504 OA
ATOM     13  H   UNL     1      14.597   3.146  28.460  1.00  0.00     0.293 HD
ENDBRANCH   4  12
BRANCH   6  14
ATOM     14  O   UNL     1      14.230   3.125  25.313  1.00  0.00    -0.504 OA
ATOM     15  H   UNL     1      13.376   3.147  24.767  1.00  0.00     0.293 HD
ENDBRANCH   6  14
TORSDOF 4
ENDMDL
MODEL 5
REMARK VINA RESULT:    -6.003     11.419     13.413
REMARK INTER + INTRA:          -7.189
REMARK INTER:                  -7.059
REMARK INTRA:                  -0.130
REMARK UNBOUND:                -0.133
REMARK SMILES O=C([O-])C=Cc1ccc(O)c(O)c1
REMARK SMILES IDX 6 1 13 2 7 3 11 4 8 5 9 6 5 7 4 8 2 9 1 10 3 11 12 12 10 14
REMARK H PARENT 12 13 10 15
REMARK Flexibility Score: inf
ROOT
ATOM      1  C   UNL     1      17.505  -1.761  26.847  1.00  0.00    -0.022 A 
ATOM      2  C   UNL     1      17.226  -2.472  28.026  1.00  0.00     0.058 A 
ATOM      3  C   UNL     1      18.839  -1.688  26.397  1.00  0.00     0.012 A 
ATOM      4  C   UNL     1      18.251  -3.121  28.732  1.00  0.00     0.157 A 
ATOM      5  C   UNL     1      19.859  -2.334  27.100  1.00  0.00     0.051 A 
ATOM      6  C   UNL     1      19.569  -3.054  28.266  1.00  0.00     0.157 A 
ENDROOT
BRANCH   1   7
ATOM      7  C   UNL     1      16.387  -1.084  26.145  1.00  0.00     0.010 C 
ATOM      8  C   UNL     1      16.164   0.236  26.199  1.00  0.00     0.025 C 
BRANCH   8   9
ATOM      9  C   UNL     1      15.049   0.867  25.476  1.00  0.00     0.064 C 
ATOM     10  O   UNL     1      14.343   0.176  24.697  1.00  0.00    -0.545 OA
ATOM     11  O   UNL     1      14.762   2.218  25.638  1.00  0.00    -0.545 OA
ENDBRANCH   8   9
ENDBRANCH   1   7
BRANCH   4  12
ATOM     12  O   UNL     1      17.965  -3.834  29.894  1.00  0.00    -0.504 OA
ATOM     13  H   UNL     1      17.496  -3.400  30.681  1.00  0.00     0.293 HD
ENDBRANCH   4  12
BRANCH   6  14
ATOM     14  O   UNL     1      20.584  -3.700  28.968  1.00  0.00    -0.504 OA
ATOM     15  H   UNL     1      21.519  -3.790  28.586  1.00  0.00     0.293 HD
ENDBRANCH   6  14
TORSDOF 4
ENDMDL
MODEL 6
REMARK VINA RESULT:    -5.897     12.280     14.383
REMARK INTER + INTRA:          -7.064
REMARK INTER:                  -6.937
REMARK INTRA:                  -0.126
REMARK UNBOUND:                -0.133
REMARK SMILES O=C([O-])C=Cc1ccc(O)c(O)c1
REMARK SMILES IDX 6 1 13 2 7 3 11 4 8 5 9 6 5 7 4 8 2 9 1 10 3 11 12 12 10 14
REMARK H PARENT 12 13 10 15
REMARK Flexibility Score: inf
ROOT
ATOM      1  C   UNL     1      16.938  -0.567  26.006  1.00  0.00    -0.022 A 
ATOM      2  C   UNL     1      16.695  -1.403  27.108  1.00  0.00     0.058 A 
ATOM      3  C   UNL     1      18.141  -0.721  25.287  1.00  0.00     0.012 A 
ATOM      4  C   UNL     1      17.620  -2.393  27.474  1.00  0.00     0.157 A 
ATOM      5  C   UNL     1      19.061  -1.706  25.653  1.00  0.00     0.051 A 
ATOM      6  C   UNL     1      18.804  -2.545  26.744  1.00  0.00     0.157 A 
ENDROOT
BRANCH   1   7
ATOM      7  C   UNL     1      15.932   0.470  25.667  1.00  0.00     0.010 C 
ATOM      8  C   UNL     1      15.714   1.566  26.406  1.00  0.00     0.025 C 
BRANCH   8   9
ATOM      9  C   UNL     1      14.714   2.575  26.025  1.00  0.00     0.064 C 
ATOM     10  O   UNL     1      14.015   3.125  26.916  1.00  0.00    -0.545 OA
ATOM     11  O   UNL     1      14.525   2.932  24.694  1.00  0.00    -0.545 OA
ENDBRANCH   8   9
ENDBRANCH   1   7
BRANCH   4  12
ATOM     12  O   UNL     1      17.368  -3.226  28.562  1.00  0.00    -0.504 OA
ATOM     13  H   UNL     1      16.423  -3.457  28.846  1.00  0.00     0.293 HD
ENDBRANCH   4  12
BRANCH   6  14
ATOM     14  O   UNL     1      19.720  -3.530  27.109  1.00  0.00    -0.504 OA
ATOM     15  H   UNL     1      20.305  -3.991  26.422  1.00  0.00     0.293 HD
ENDBRANCH   6  14
TORSDOF 4
ENDMDL
MODEL 7
REMARK VINA RESULT:    -5.856      1.264      6.009
REMARK INTER + INTRA:          -7.016
REMARK INTER:                  -6.882
REMARK INTRA:                  -0.133
REMARK UNBOUND:                -0.133
REMARK SMILES O=C([O-])C=Cc1ccc(O)c(O)c1
REMARK SMILES IDX 6 1 13 2 7 3 11 4 8 5 9 6 5 7 4 8 2 9 1 10 3 11 12 12 10 14
REMARK H PARENT 12 13 10 15
REMARK Flexibility Score: inf
ROOT
ATOM      1  C   UNL     1      14.191 -12.884  29.179  1.00  0.00    -0.022 A 
ATOM      2  C   UNL     1      14.668 -13.188  27.893  1.00  0.00     0.058 A 
ATOM      3  C   UNL     1      14.369 -13.828  30.212  1.00  0.00     0.012 A 
ATOM      4  C   UNL     1      15.332 -14.399  27.643  1.00  0.00     0.157 A 
ATOM      5  C   UNL     1      15.030 -15.032  29.961  1.00  0.00     0.051 A 
ATOM      6  C   UNL     1      15.516 -15.321  28.679  1.00  0.00     0.157 A 
ENDROOT
BRANCH   1   7
ATOM      7  C   UNL     1      13.487 -11.595  29.388  1.00  0.00     0.010 C 
ATOM      8  C   UNL     1      12.242 -11.497  29.877  1.00  0.00     0.025 C 
BRANCH   8   9
ATOM      9  C   UNL     1      11.586 -10.196  30.079  1.00  0.00     0.064 C 
ATOM     10  O   UNL     1      12.258  -9.220  30.502  1.00  0.00    -0.545 OA
ATOM     11  O   UNL     1      10.232 -10.026  29.812  1.00  0.00    -0.545 OA
ENDBRANCH   8   9
ENDBRANCH   1   7
BRANCH   4  12
ATOM     12  O   UNL     1      15.812 -14.689  26.368  1.00  0.00    -0.504 OA
ATOM     13  H   UNL     1      15.892 -13.973  25.654  1.00  0.00     0.293 HD
ENDBRANCH   4  12
BRANCH   6  14
ATOM     14  O   UNL     1      16.177 -16.521  28.429  1.00  0.00    -0.504 OA
ATOM     15  H   UNL     1      15.669 -17.380  28.251  1.00  0.00     0.293 HD
ENDBRANCH   6  14
TORSDOF 4
ENDMDL
MODEL 8
REMARK VINA RESULT:    -5.842     11.289     13.456
REMARK INTER + INTRA:          -6.999
REMARK INTER:                  -6.871
REMARK INTRA:                  -0.128
REMARK UNBOUND:                -0.133
REMARK SMILES O=C([O-])C=Cc1ccc(O)c(O)c1
REMARK SMILES IDX 6 1 13 2 7 3 11 4 8 5 9 6 5 7 4 8 2 9 1 10 3 11 12 12 10 14
REMARK H PARENT 12 13 10 15
REMARK Flexibility Score: inf
ROOT
ATOM      1  C   UNL     1      16.214  -1.324  27.537  1.00  0.00    -0.022 A 
ATOM      2  C   UNL     1      17.319  -2.034  27.040  1.00  0.00     0.058 A 
ATOM      3  C   UNL     1      15.806  -1.546  28.869  1.00  0.00     0.012 A 
ATOM      4  C   UNL     1      18.023  -2.930  27.859  1.00  0.00     0.157 A 
ATOM      5  C   UNL     1      16.508  -2.438  29.683  1.00  0.00     0.051 A 
ATOM      6  C   UNL     1      17.618  -3.130  29.183  1.00  0.00     0.157 A 
ENDROOT
BRANCH   1   7
ATOM      7  C   UNL     1      15.497  -0.397  26.627  1.00  0.00     0.010 C 
ATOM      8  C   UNL     1      15.652   0.934  26.647  1.00  0.00     0.025 C 
BRANCH   8   9
ATOM      9  C   UNL     1      14.929   1.816  25.718  1.00  0.00     0.064 C 
ATOM     10  O   UNL     1      14.588   1.381  24.587  1.00  0.00    -0.545 OA
ATOM     11  O   UNL     1      14.616   3.125  26.067  1.00  0.00    -0.545 OA
ENDBRANCH   8   9
ENDBRANCH   1   7
BRANCH   4  12
ATOM     12  O   UNL     1      19.125  -3.623  27.362  1.00  0.00    -0.504 OA
ATOM     13  H   UNL     1      19.493  -4.442  27.830  1.00  0.00     0.293 HD
ENDBRANCH   4  12
BRANCH   6  14
ATOM     14  O   UNL     1      18.320  -4.019  29.995  1.00  0.00    -0.504 OA
ATOM     15  H   UNL     1      19.331  -3.998  30.053  1.00  0.00     0.293 HD
ENDBRANCH   6  14
TORSDOF 4
ENDMDL
MODEL 9
REMARK VINA RESULT:    -5.316     12.060     13.261
REMARK INTER + INTRA:          -6.382
REMARK INTER:                  -6.253
REMARK INTRA:                  -0.128
REMARK UNBOUND:                -0.133
REMARK SMILES O=C([O-])C=Cc1ccc(O)c(O)c1
REMARK SMILES IDX 6 1 13 2 7 3 11 4 8 5 9 6 5 7 4 8 2 9 1 10 3 11 12 12 10 14
REMARK H PARENT 12 13 10 15
REMARK Flexibility Score: inf
ROOT
ATOM      1  C   UNL     1      16.153  -0.471  26.867  1.00  0.00    -0.022 A 
ATOM      2  C   UNL     1      15.532  -0.305  25.618  1.00  0.00     0.058 A 
ATOM      3  C   UNL     1      16.125   0.596  27.788  1.00  0.00     0.012 A 
ATOM      4  C   UNL     1      14.873   0.892  25.299  1.00  0.00     0.157 A 
ATOM      5  C   UNL     1      15.468   1.787  27.470  1.00  0.00     0.051 A 
ATOM      6  C   UNL     1      14.839   1.938  26.227  1.00  0.00     0.157 A 
ENDROOT
BRANCH   1   7
ATOM      7  C   UNL     1      16.846  -1.752  27.151  1.00  0.00     0.010 C 
ATOM      8  C   UNL     1      18.172  -1.920  27.054  1.00  0.00     0.025 C 
BRANCH   8   9
ATOM      9  C   UNL     1      18.819  -3.206  27.356  1.00  0.00     0.064 C 
ATOM     10  O   UNL     1      18.213  -4.280  27.105  1.00  0.00    -0.545 OA
ATOM     11  O   UNL     1      20.089  -3.255  27.919  1.00  0.00    -0.545 OA
ENDBRANCH   8   9
ENDBRANCH   1   7
BRANCH   4  12
ATOM     12  O   UNL     1      14.250   1.046  24.062  1.00  0.00    -0.504 OA
ATOM     13  H   UNL     1      14.259   1.931  23.570  1.00  0.00     0.293 HD
ENDBRANCH   4  12
BRANCH   6  14
ATOM     14  O   UNL     1      14.182   3.125  25.909  1.00  0.00    -0.504 OA
ATOM     15  H   UNL     1      14.445   4.007  26.332  1.00  0.00     0.293 HD
ENDBRANCH   6  14
TORSDOF 4
ENDMDL
