MODEL 1
REMARK VINA RESULT:    -3.861      0.000      0.000
REMARK INTER + INTRA:          -8.124
REMARK INTER:                  -7.247
REMARK INTRA:                  -0.878
REMARK UNBOUND:                -0.878
REMARK SMILES O=C([O-])CCCCCCCCCCCCCCC(=O)[O-]
REMARK SMILES IDX 10 1 9 2 8 3 7 4 6 5 5 6 4 7 2 8 1 9 3 10 11 11 12 12 13 13
REMARK SMILES IDX 14 14 15 15 16 16 17 17 18 18 19 19 20 20
REMARK H PARENT
REMARK Flexibility Score: inf
ROOT
ATOM      1  C   UNL     1      34.188   0.447  41.987  1.00  0.00     0.000 C 
ENDROOT
BRANCH   1   2
ATOM      2  C   UNL     1      35.245  -0.044  42.993  1.00  0.00     0.000 C 
BRANCH   2   3
ATOM      3  C   UNL     1      36.491  -0.630  42.308  1.00  0.00     0.000 C 
BRANCH   3   4
ATOM      4  C   UNL     1      37.437  -1.326  43.300  1.00  0.00     0.000 C 
BRANCH   4   5
ATOM      5  C   UNL     1      38.331  -2.383  42.626  1.00  0.00     0.000 C 
BRANCH   5   6
ATOM      6  C   UNL     1      37.825  -3.816  42.855  1.00  0.00     0.006 C 
BRANCH   6   7
ATOM      7  C   UNL     1      36.781  -3.900  43.977  1.00  0.00     0.053 C 
BRANCH   7   8
ATOM      8  C   UNL     1      35.411  -4.074  43.401  1.00  0.00     0.041 C 
ATOM      9  O   UNL     1      35.183  -3.765  42.201  1.00  0.00    -0.550 OA
ATOM     10  O   UNL     1      34.371  -4.523  44.204  1.00  0.00    -0.550 OA
ENDBRANCH   7   8
ENDBRANCH   6   7
ENDBRANCH   5   6
ENDBRANCH   4   5
ENDBRANCH   3   4
ENDBRANCH   2   3
ENDBRANCH   1   2
BRANCH   1  11
ATOM     11  C   UNL     1      32.738   0.011  42.287  1.00  0.00     0.000 C 
BRANCH  11  12
ATOM     12  C   UNL     1      32.597  -1.218  43.204  1.00  0.00     0.000 C 
BRANCH  12  13
ATOM     13  C   UNL     1      31.252  -1.253  43.952  1.00  0.00     0.000 C 
BRANCH  13  14
ATOM     14  C   UNL     1      30.045  -1.270  42.999  1.00  0.00     0.000 C 
BRANCH  14  15
ATOM     15  C   UNL     1      28.705  -1.425  43.741  1.00  0.00     0.000 C 
BRANCH  15  16
ATOM     16  C   UNL     1      28.871  -1.378  45.269  1.00  0.00     0.006 C 
BRANCH  16  17
ATOM     17  C   UNL     1      27.554  -1.624  46.015  1.00  0.00     0.053 C 
BRANCH  17  18
ATOM     18  C   UNL     1      27.523  -3.011  46.574  1.00  0.00     0.041 C 
ATOM     19  O   UNL     1      26.728  -3.302  47.506  1.00  0.00    -0.550 OA
ATOM     20  O   UNL     1      28.404  -3.973  46.096  1.00  0.00    -0.550 OA
ENDBRANCH  17  18
ENDBRANCH  16  17
ENDBRANCH  15  16
ENDBRANCH  14  15
ENDBRANCH  13  14
ENDBRANCH  12  13
ENDBRANCH  11  12
ENDBRANCH   1  11
TORSDOF 15
ENDMDL
MODEL 2
REMARK VINA RESULT:    -3.847      1.223      7.709
REMARK INTER + INTRA:          -8.097
REMARK INTER:                  -6.995
REMARK INTRA:                  -1.102
REMARK UNBOUND:                -0.878
REMARK SMILES O=C([O-])CCCCCCCCCCCCCCC(=O)[O-]
REMARK SMILES IDX 10 1 9 2 8 3 7 4 6 5 5 6 4 7 2 8 1 9 3 10 11 11 12 12 13 13
REMARK SMILES IDX 14 14 15 15 16 16 17 17 18 18 19 19 20 20
REMARK H PARENT
REMARK Flexibility Score: inf
ROOT
ATOM      1  C   UNL     1      31.122  -0.997  42.452  1.00  0.00     0.000 C 
ENDROOT
BRANCH   1   2
ATOM      2  C   UNL     1      30.181  -1.551  43.537  1.00  0.00     0.000 C 
BRANCH   2   3
ATOM      3  C   UNL     1      30.940  -2.155  44.731  1.00  0.00     0.000 C 
BRANCH   3   4
ATOM      4  C   UNL     1      30.253  -1.862  46.075  1.00  0.00     0.000 C 
BRANCH   4   5
ATOM      5  C   UNL     1      29.298  -0.657  46.004  1.00  0.00     0.000 C 
BRANCH   5   6
ATOM      6  C   UNL     1      27.835  -1.047  46.265  1.00  0.00     0.006 C 
BRANCH   6   7
ATOM      7  C   UNL     1      27.547  -2.516  45.924  1.00  0.00     0.053 C 
BRANCH   7   8
ATOM      8  C   UNL     1      27.026  -3.237  47.127  1.00  0.00     0.041 C 
ATOM      9  O   UNL     1      27.824  -3.741  47.960  1.00  0.00    -0.550 OA
ATOM     10  O   UNL     1      25.658  -3.403  47.299  1.00  0.00    -0.550 OA
ENDBRANCH   7   8
ENDBRANCH   6   7
ENDBRANCH   5   6
ENDBRANCH   4   5
ENDBRANCH   3   4
ENDBRANCH   2   3
ENDBRANCH   1   2
BRANCH   1  11
ATOM     11  C   UNL     1      32.352  -0.226  42.974  1.00  0.00     0.000 C 
BRANCH  11  12
ATOM     12  C   UNL     1      32.721   1.040  42.180  1.00  0.00     0.000 C 
BRANCH  12  13
ATOM     13  C   UNL     1      34.227   1.135  41.875  1.00  0.00     0.000 C 
BRANCH  13  14
ATOM     14  C   UNL     1      34.933  -0.229  41.951  1.00  0.00     0.000 C 
BRANCH  14  15
ATOM     15  C   UNL     1      36.120  -0.230  42.931  1.00  0.00     0.000 C 
BRANCH  15  16
ATOM     16  C   UNL     1      36.665  -1.644  43.192  1.00  0.00     0.006 C 
BRANCH  16  17
ATOM     17  C   UNL     1      35.714  -2.744  42.703  1.00  0.00     0.053 C 
BRANCH  17  18
ATOM     18  C   UNL     1      35.762  -3.922  43.623  1.00  0.00     0.041 C 
ATOM     19  O   UNL     1      34.695  -4.457  44.025  1.00  0.00    -0.550 OA
ATOM     20  O   UNL     1      36.985  -4.403  44.074  1.00  0.00    -0.550 OA
ENDBRANCH  17  18
ENDBRANCH  16  17
ENDBRANCH  15  16
ENDBRANCH  14  15
ENDBRANCH  13  14
ENDBRANCH  12  13
ENDBRANCH  11  12
ENDBRANCH   1  11
TORSDOF 15
ENDMDL
MODEL 3
REMARK VINA RESULT:    -3.591      1.283      2.420
REMARK INTER + INTRA:          -7.617
REMARK INTER:                  -6.509
REMARK INTRA:                  -1.108
REMARK UNBOUND:                -0.878
REMARK SMILES O=C([O-])CCCCCCCCCCCCCCC(=O)[O-]
REMARK SMILES IDX 10 1 9 2 8 3 7 4 6 5 5 6 4 7 2 8 1 9 3 10 11 11 12 12 13 13
REMARK SMILES IDX 14 14 15 15 16 16 17 17 18 18 19 19 20 20
REMARK H PARENT
REMARK Flexibility Score: inf
ROOT
ATOM      1  C   UNL     1      31.981  -0.637  43.775  1.00  0.00     0.000 C 
ENDROOT
BRANCH   1   2
ATOM      2  C   UNL     1      32.105  -0.380  42.262  1.00  0.00     0.000 C 
BRANCH   2   3
ATOM      3  C   UNL     1      33.454   0.249  41.875  1.00  0.00     0.000 C 
BRANCH   3   4
ATOM      4  C   UNL     1      34.627  -0.733  42.022  1.00  0.00     0.000 C 
BRANCH   4   5
ATOM      5  C   UNL     1      35.733  -0.203  42.953  1.00  0.00     0.000 C 
BRANCH   5   6
ATOM      6  C   UNL     1      36.754  -1.288  43.333  1.00  0.00     0.006 C 
BRANCH   6   7
ATOM      7  C   UNL     1      36.560  -2.584  42.535  1.00  0.00     0.053 C 
BRANCH   7   8
ATOM      8  C   UNL     1      36.241  -3.719  43.456  1.00  0.00     0.041 C 
ATOM      9  O   UNL     1      37.155  -4.270  44.125  1.00  0.00    -0.550 OA
ATOM     10  O   UNL     1      34.943  -4.208  43.533  1.00  0.00    -0.550 OA
ENDBRANCH   7   8
ENDBRANCH   6   7
ENDBRANCH   5   6
ENDBRANCH   4   5
ENDBRANCH   3   4
ENDBRANCH   2   3
ENDBRANCH   1   2
BRANCH   1  11
ATOM     11  C   UNL     1      32.029  -2.120  44.200  1.00  0.00     0.000 C 
BRANCH  11  12
ATOM     12  C   UNL     1      30.810  -2.616  44.998  1.00  0.00     0.000 C 
BRANCH  12  13
ATOM     13  C   UNL     1      30.627  -1.871  46.332  1.00  0.00     0.000 C 
BRANCH  13  14
ATOM     14  C   UNL     1      29.435  -0.900  46.310  1.00  0.00     0.000 C 
BRANCH  14  15
ATOM     15  C   UNL     1      28.514  -1.119  45.096  1.00  0.00     0.000 C 
BRANCH  15  16
ATOM     16  C   UNL     1      27.495  -2.248  45.329  1.00  0.00     0.006 C 
BRANCH  16  17
ATOM     17  C   UNL     1      26.928  -2.248  46.754  1.00  0.00     0.053 C 
BRANCH  17  18
ATOM     18  C   UNL     1      27.157  -3.575  47.406  1.00  0.00     0.041 C 
ATOM     19  O   UNL     1      26.741  -3.787  48.575  1.00  0.00    -0.550 OA
ATOM     20  O   UNL     1      27.870  -4.563  46.739  1.00  0.00    -0.550 OA
ENDBRANCH  17  18
ENDBRANCH  16  17
ENDBRANCH  15  16
ENDBRANCH  14  15
ENDBRANCH  13  14
ENDBRANCH  12  13
ENDBRANCH  11  12
ENDBRANCH   1  11
TORSDOF 15
ENDMDL
MODEL 4
REMARK VINA RESULT:    -3.499     13.016     15.949
REMARK INTER + INTRA:          -7.445
REMARK INTER:                  -6.142
REMARK INTRA:                  -1.303
REMARK UNBOUND:                -0.878
REMARK SMILES O=C([O-])CCCCCCCCCCCCCCC(=O)[O-]
REMARK SMILES IDX 10 1 9 2 8 3 7 4 6 5 5 6 4 7 2 8 1 9 3 10 11 11 12 12 13 13
REMARK SMILES IDX 14 14 15 15 16 16 17 17 18 18 19 19 20 20
REMARK H PARENT
REMARK Flexibility Score: inf
ROOT
ATOM      1  C   UNL     1      21.380 -11.293  45.758  1.00  0.00     0.000 C 
ENDROOT
BRANCH   1   2
ATOM      2  C   UNL     1      20.144 -11.463  46.660  1.00  0.00     0.000 C 
BRANCH   2   3
ATOM      3  C   UNL     1      19.724 -12.933  46.825  1.00  0.00     0.000 C 
BRANCH   3   4
ATOM      4  C   UNL     1      20.804 -13.912  46.337  1.00  0.00     0.000 C 
BRANCH   4   5
ATOM      5  C   UNL     1      20.261 -14.945  45.334  1.00  0.00     0.000 C 
BRANCH   5   6
ATOM      6  C   UNL     1      19.161 -14.366  44.429  1.00  0.00     0.006 C 
BRANCH   6   7
ATOM      7  C   UNL     1      19.499 -14.489  42.937  1.00  0.00     0.053 C 
BRANCH   7   8
ATOM      8  C   UNL     1      20.512 -13.459  42.547  1.00  0.00     0.041 C 
ATOM      9  O   UNL     1      20.152 -12.410  41.951  1.00  0.00    -0.550 OA
ATOM     10  O   UNL     1      21.861 -13.683  42.790  1.00  0.00    -0.550 OA
ENDBRANCH   7   8
ENDBRANCH   6   7
ENDBRANCH   5   6
ENDBRANCH   4   5
ENDBRANCH   3   4
ENDBRANCH   2   3
ENDBRANCH   1   2
BRANCH   1  11
ATOM     11  C   UNL     1      21.206 -10.318  44.575  1.00  0.00     0.000 C 
BRANCH  11  12
ATOM     12  C   UNL     1      19.753  -9.917  44.261  1.00  0.00     0.000 C 
BRANCH  12  13
ATOM     13  C   UNL     1      19.658  -8.662  43.375  1.00  0.00     0.000 C 
BRANCH  13  14
ATOM     14  C   UNL     1      21.036  -8.069  43.039  1.00  0.00     0.000 C 
BRANCH  14  15
ATOM     15  C   UNL     1      20.942  -6.804  42.168  1.00  0.00     0.000 C 
BRANCH  15  16
ATOM     16  C   UNL     1      19.555  -6.144  42.240  1.00  0.00     0.006 C 
BRANCH  16  17
ATOM     17  C   UNL     1      19.623  -4.613  42.164  1.00  0.00     0.053 C 
BRANCH  17  18
ATOM     18  C   UNL     1      20.453  -4.072  43.284  1.00  0.00     0.041 C 
ATOM     19  O   UNL     1      21.662  -3.775  43.093  1.00  0.00    -0.550 OA
ATOM     20  O   UNL     1      19.905  -3.937  44.554  1.00  0.00    -0.550 OA
ENDBRANCH  17  18
ENDBRANCH  16  17
ENDBRANCH  15  16
ENDBRANCH  14  15
ENDBRANCH  13  14
ENDBRANCH  12  13
ENDBRANCH  11  12
ENDBRANCH   1  11
TORSDOF 15
ENDMDL
MODEL 5
REMARK VINA RESULT:    -3.488      1.569      7.390
REMARK INTER + INTRA:          -7.425
REMARK INTER:                  -6.226
REMARK INTRA:                  -1.199
REMARK UNBOUND:                -0.878
REMARK SMILES O=C([O-])CCCCCCCCCCCCCCC(=O)[O-]
REMARK SMILES IDX 10 1 9 2 8 3 7 4 6 5 5 6 4 7 2 8 1 9 3 10 11 11 12 12 13 13
REMARK SMILES IDX 14 14 15 15 16 16 17 17 18 18 19 19 20 20
REMARK H PARENT
REMARK Flexibility Score: inf
ROOT
ATOM      1  C   UNL     1      31.439  -1.073  43.017  1.00  0.00     0.000 C 
ENDROOT
BRANCH   1   2
ATOM      2  C   UNL     1      30.381  -0.954  41.905  1.00  0.00     0.000 C 
BRANCH   2   3
ATOM      3  C   UNL     1      28.984  -0.606  42.446  1.00  0.00     0.000 C 
BRANCH   3   4
ATOM      4  C   UNL     1      27.996  -1.777  42.325  1.00  0.00     0.000 C 
BRANCH   4   5
ATOM      5  C   UNL     1      28.144  -2.800  43.467  1.00  0.00     0.000 C 
BRANCH   5   6
ATOM      6  C   UNL     1      27.962  -2.164  44.854  1.00  0.00     0.006 C 
BRANCH   6   7
ATOM      7  C   UNL     1      28.879  -2.791  45.914  1.00  0.00     0.053 C 
BRANCH   7   8
ATOM      8  C   UNL     1      30.038  -1.888  46.198  1.00  0.00     0.041 C 
ATOM      9  O   UNL     1      31.176  -2.371  46.434  1.00  0.00    -0.550 OA
ATOM     10  O   UNL     1      29.849  -0.513  46.261  1.00  0.00    -0.550 OA
ENDBRANCH   7   8
ENDBRANCH   6   7
ENDBRANCH   5   6
ENDBRANCH   4   5
ENDBRANCH   3   4
ENDBRANCH   2   3
ENDBRANCH   1   2
BRANCH   1  11
ATOM     11  C   UNL     1      32.558  -0.011  42.980  1.00  0.00     0.000 C 
BRANCH  11  12
ATOM     12  C   UNL     1      33.680  -0.273  41.958  1.00  0.00     0.000 C 
BRANCH  12  13
ATOM     13  C   UNL     1      34.827   0.748  42.057  1.00  0.00     0.000 C 
BRANCH  13  14
ATOM     14  C   UNL     1      36.209   0.080  42.144  1.00  0.00     0.000 C 
BRANCH  14  15
ATOM     15  C   UNL     1      36.336  -0.865  43.353  1.00  0.00     0.000 C 
BRANCH  15  16
ATOM     16  C   UNL     1      37.310  -2.026  43.090  1.00  0.00     0.006 C 
BRANCH  16  17
ATOM     17  C   UNL     1      36.881  -3.326  43.781  1.00  0.00     0.053 C 
BRANCH  17  18
ATOM     18  C   UNL     1      35.573  -3.803  43.233  1.00  0.00     0.041 C 
ATOM     19  O   UNL     1      34.732  -4.357  43.988  1.00  0.00    -0.550 OA
ATOM     20  O   UNL     1      35.301  -3.675  41.876  1.00  0.00    -0.550 OA
ENDBRANCH  17  18
ENDBRANCH  16  17
ENDBRANCH  15  16
ENDBRANCH  14  15
ENDBRANCH  13  14
ENDBRANCH  12  13
ENDBRANCH  11  12
ENDBRANCH   1  11
TORSDOF 15
ENDMDL
MODEL 6
REMARK VINA RESULT:    -3.430     12.605     15.705
REMARK INTER + INTRA:          -7.316
REMARK INTER:                  -6.155
REMARK INTRA:                  -1.160
REMARK UNBOUND:                -0.878
REMARK SMILES O=C([O-])CCCCCCCCCCCCCCC(=O)[O-]
REMARK SMILES IDX 10 1 9 2 8 3 7 4 6 5 5 6 4 7 2 8 1 9 3 10 11 11 12 12 13 13
REMARK SMILES IDX 14 14 15 15 16 16 17 17 18 18 19 19 20 20
REMARK H PARENT
REMARK Flexibility Score: inf
ROOT
ATOM      1  C   UNL     1      20.902 -10.744  43.955  1.00  0.00     0.000 C 
ENDROOT
BRANCH   1   2
ATOM      2  C   UNL     1      19.910 -10.558  45.118  1.00  0.00     0.000 C 
BRANCH   2   3
ATOM      3  C   UNL     1      20.455 -11.088  46.455  1.00  0.00     0.000 C 
BRANCH   3   4
ATOM      4  C   UNL     1      19.758 -12.382  46.904  1.00  0.00     0.000 C 
BRANCH   4   5
ATOM      5  C   UNL     1      20.568 -13.644  46.556  1.00  0.00     0.000 C 
BRANCH   5   6
ATOM      6  C   UNL     1      19.671 -14.840  46.198  1.00  0.00     0.006 C 
BRANCH   6   7
ATOM      7  C   UNL     1      20.040 -15.471  44.849  1.00  0.00     0.053 C 
BRANCH   7   8
ATOM      8  C   UNL     1      20.137 -14.416  43.791  1.00  0.00     0.041 C 
ATOM      9  O   UNL     1      21.249 -14.139  43.271  1.00  0.00    -0.550 OA
ATOM     10  O   UNL     1      19.007 -13.699  43.420  1.00  0.00    -0.550 OA
ENDBRANCH   7   8
ENDBRANCH   6   7
ENDBRANCH   5   6
ENDBRANCH   4   5
ENDBRANCH   3   4
ENDBRANCH   2   3
ENDBRANCH   1   2
BRANCH   1  11
ATOM     11  C   UNL     1      20.334 -10.452  42.550  1.00  0.00     0.000 C 
BRANCH  11  12
ATOM     12  C   UNL     1      20.310  -8.967  42.145  1.00  0.00     0.000 C 
BRANCH  12  13
ATOM     13  C   UNL     1      21.467  -8.161  42.764  1.00  0.00     0.000 C 
BRANCH  13  14
ATOM     14  C   UNL     1      21.491  -6.700  42.288  1.00  0.00     0.000 C 
BRANCH  14  15
ATOM     15  C   UNL     1      20.102  -6.038  42.329  1.00  0.00     0.000 C 
BRANCH  15  16
ATOM     16  C   UNL     1      20.184  -4.504  42.402  1.00  0.00     0.006 C 
BRANCH  16  17
ATOM     17  C   UNL     1      21.107  -4.014  43.525  1.00  0.00     0.053 C 
BRANCH  17  18
ATOM     18  C   UNL     1      20.314  -3.701  44.753  1.00  0.00     0.041 C 
ATOM     19  O   UNL     1      19.056  -3.678  44.707  1.00  0.00    -0.550 OA
ATOM     20  O   UNL     1      20.964  -3.389  45.941  1.00  0.00    -0.550 OA
ENDBRANCH  17  18
ENDBRANCH  16  17
ENDBRANCH  15  16
ENDBRANCH  14  15
ENDBRANCH  13  14
ENDBRANCH  12  13
ENDBRANCH  11  12
ENDBRANCH   1  11
TORSDOF 15
ENDMDL
MODEL 7
REMARK VINA RESULT:    -3.302     13.313     16.055
REMARK INTER + INTRA:          -7.074
REMARK INTER:                  -5.992
REMARK INTRA:                  -1.082
REMARK UNBOUND:                -0.878
REMARK SMILES O=C([O-])CCCCCCCCCCCCCCC(=O)[O-]
REMARK SMILES IDX 10 1 9 2 8 3 7 4 6 5 5 6 4 7 2 8 1 9 3 10 11 11 12 12 13 13
REMARK SMILES IDX 14 14 15 15 16 16 17 17 18 18 19 19 20 20
REMARK H PARENT
REMARK Flexibility Score: inf
ROOT
ATOM      1  C   UNL     1      20.339 -10.436  43.467  1.00  0.00     0.000 C 
ENDROOT
BRANCH   1   2
ATOM      2  C   UNL     1      20.551  -9.459  42.296  1.00  0.00     0.000 C 
BRANCH   2   3
ATOM      3  C   UNL     1      21.446  -8.265  42.671  1.00  0.00     0.000 C 
BRANCH   3   4
ATOM      4  C   UNL     1      20.659  -7.123  43.333  1.00  0.00     0.000 C 
BRANCH   4   5
ATOM      5  C   UNL     1      19.510  -6.604  42.449  1.00  0.00     0.000 C 
BRANCH   5   6
ATOM      6  C   UNL     1      19.577  -5.084  42.230  1.00  0.00     0.006 C 
BRANCH   6   7
ATOM      7  C   UNL     1      18.931  -4.294  43.377  1.00  0.00     0.053 C 
BRANCH   7   8
ATOM      8  C   UNL     1      19.888  -3.276  43.911  1.00  0.00     0.041 C 
ATOM      9  O   UNL     1      20.523  -3.499  44.975  1.00  0.00    -0.550 OA
ATOM     10  O   UNL     1      20.036  -2.055  43.265  1.00  0.00    -0.550 OA
ENDBRANCH   7   8
ENDBRANCH   6   7
ENDBRANCH   5   6
ENDBRANCH   4   5
ENDBRANCH   3   4
ENDBRANCH   2   3
ENDBRANCH   1   2
BRANCH   1  11
ATOM     11  C   UNL     1      19.289 -11.540  43.224  1.00  0.00     0.000 C 
BRANCH  11  12
ATOM     12  C   UNL     1      19.548 -12.438  42.001  1.00  0.00     0.000 C 
BRANCH  12  13
ATOM     13  C   UNL     1      19.916 -13.882  42.387  1.00  0.00     0.000 C 
BRANCH  13  14
ATOM     14  C   UNL     1      20.926 -13.945  43.545  1.00  0.00     0.000 C 
BRANCH  14  15
ATOM     15  C   UNL     1      20.439 -14.826  44.710  1.00  0.00     0.000 C 
BRANCH  15  16
ATOM     16  C   UNL     1      20.596 -14.133  46.074  1.00  0.00     0.006 C 
BRANCH  16  17
ATOM     17  C   UNL     1      19.305 -13.447  46.540  1.00  0.00     0.053 C 
BRANCH  17  18
ATOM     18  C   UNL     1      19.623 -12.207  47.313  1.00  0.00     0.041 C 
ATOM     19  O   UNL     1      19.135 -12.031  48.460  1.00  0.00    -0.550 OA
ATOM     20  O   UNL     1      20.425 -11.222  46.747  1.00  0.00    -0.550 OA
ENDBRANCH  17  18
ENDBRANCH  16  17
ENDBRANCH  15  16
ENDBRANCH  14  15
ENDBRANCH  13  14
ENDBRANCH  12  13
ENDBRANCH  11  12
ENDBRANCH   1  11
TORSDOF 15
ENDMDL
MODEL 8
REMARK VINA RESULT:    -3.229     13.198     15.804
REMARK INTER + INTRA:          -6.939
REMARK INTER:                  -5.768
REMARK INTRA:                  -1.171
REMARK UNBOUND:                -0.878
REMARK SMILES O=C([O-])CCCCCCCCCCCCCCC(=O)[O-]
REMARK SMILES IDX 10 1 9 2 8 3 7 4 6 5 5 6 4 7 2 8 1 9 3 10 11 11 12 12 13 13
REMARK SMILES IDX 14 14 15 15 16 16 17 17 18 18 19 19 20 20
REMARK H PARENT
REMARK Flexibility Score: inf
ROOT
ATOM      1  C   UNL     1      18.882 -10.222  42.747  1.00  0.00     0.000 C 
ENDROOT
BRANCH   1   2
ATOM      2  C   UNL     1      19.636 -11.254  41.888  1.00  0.00     0.000 C 
BRANCH   2   3
ATOM      3  C   UNL     1      19.527 -12.684  42.445  1.00  0.00     0.000 C 
BRANCH   3   4
ATOM      4  C   UNL     1      20.820 -13.492  42.251  1.00  0.00     0.000 C 
BRANCH   4   5
ATOM      5  C   UNL     1      21.307 -14.154  43.553  1.00  0.00     0.000 C 
BRANCH   5   6
ATOM      6  C   UNL     1      20.147 -14.565  44.474  1.00  0.00     0.006 C 
BRANCH   6   7
ATOM      7  C   UNL     1      20.516 -14.473  45.961  1.00  0.00     0.053 C 
BRANCH   7   8
ATOM      8  C   UNL     1      19.977 -13.208  46.552  1.00  0.00     0.041 C 
ATOM      9  O   UNL     1      18.875 -13.210  47.161  1.00  0.00    -0.550 OA
ATOM     10  O   UNL     1      20.666 -12.013  46.381  1.00  0.00    -0.550 OA
ENDBRANCH   7   8
ENDBRANCH   6   7
ENDBRANCH   5   6
ENDBRANCH   4   5
ENDBRANCH   3   4
ENDBRANCH   2   3
ENDBRANCH   1   2
BRANCH   1  11
ATOM     11  C   UNL     1      19.637  -9.725  43.997  1.00  0.00     0.000 C 
BRANCH  11  12
ATOM     12  C   UNL     1      21.166  -9.618  43.843  1.00  0.00     0.000 C 
BRANCH  12  13
ATOM     13  C   UNL     1      21.601  -8.358  43.073  1.00  0.00     0.000 C 
BRANCH  13  14
ATOM     14  C   UNL     1      20.662  -7.165  43.311  1.00  0.00     0.000 C 
BRANCH  14  15
ATOM     15  C   UNL     1      20.463  -6.305  42.050  1.00  0.00     0.000 C 
BRANCH  15  16
ATOM     16  C   UNL     1      19.515  -5.118  42.292  1.00  0.00     0.006 C 
BRANCH  16  17
ATOM     17  C   UNL     1      20.218  -3.762  42.153  1.00  0.00     0.053 C 
BRANCH  17  18
ATOM     18  C   UNL     1      20.122  -2.991  43.430  1.00  0.00     0.041 C 
ATOM     19  O   UNL     1      20.179  -3.587  44.538  1.00  0.00    -0.550 OA
ATOM     20  O   UNL     1      19.923  -1.615  43.399  1.00  0.00    -0.550 OA
ENDBRANCH  17  18
ENDBRANCH  16  17
ENDBRANCH  15  16
ENDBRANCH  14  15
ENDBRANCH  13  14
ENDBRANCH  12  13
ENDBRANCH  11  12
ENDBRANCH   1  11
TORSDOF 15
ENDMDL
MODEL 9
REMARK VINA RESULT:    -2.995      1.211      8.046
REMARK INTER + INTRA:          -6.499
REMARK INTER:                  -5.735
REMARK INTRA:                  -0.764
REMARK UNBOUND:                -0.878
REMARK SMILES O=C([O-])CCCCCCCCCCCCCCC(=O)[O-]
REMARK SMILES IDX 10 1 9 2 8 3 7 4 6 5 5 6 4 7 2 8 1 9 3 10 11 11 12 12 13 13
REMARK SMILES IDX 14 14 15 15 16 16 17 17 18 18 19 19 20 20
REMARK H PARENT
REMARK Flexibility Score: inf
ROOT
ATOM      1  C   UNL     1      31.180  -1.152  42.969  1.00  0.00     0.000 C 
ENDROOT
BRANCH   1   2
ATOM      2  C   UNL     1      30.074  -0.656  42.020  1.00  0.00     0.000 C 
BRANCH   2   3
ATOM      3  C   UNL     1      28.664  -1.055  42.489  1.00  0.00     0.000 C 
BRANCH   3   4
ATOM      4  C   UNL     1      28.692  -2.075  43.638  1.00  0.00     0.000 C 
BRANCH   4   5
ATOM      5  C   UNL     1      28.309  -1.454  44.993  1.00  0.00     0.000 C 
BRANCH   5   6
ATOM      6  C   UNL     1      28.880  -2.240  46.184  1.00  0.00     0.006 C 
BRANCH   6   7
ATOM      7  C   UNL     1      28.170  -3.585  46.397  1.00  0.00     0.053 C 
BRANCH   7   8
ATOM      8  C   UNL     1      27.036  -3.427  47.361  1.00  0.00     0.041 C 
ATOM      9  O   UNL     1      26.029  -2.738  47.050  1.00  0.00    -0.550 OA
ATOM     10  O   UNL     1      27.117  -3.995  48.626  1.00  0.00    -0.550 OA
ENDBRANCH   7   8
ENDBRANCH   6   7
ENDBRANCH   5   6
ENDBRANCH   4   5
ENDBRANCH   3   4
ENDBRANCH   2   3
ENDBRANCH   1   2
BRANCH   1  11
ATOM     11  C   UNL     1      32.392  -0.208  43.122  1.00  0.00     0.000 C 
BRANCH  11  12
ATOM     12  C   UNL     1      33.396  -0.232  41.955  1.00  0.00     0.000 C 
BRANCH  12  13
ATOM     13  C   UNL     1      34.247   1.048  41.875  1.00  0.00     0.000 C 
BRANCH  13  14
ATOM     14  C   UNL     1      35.754   0.765  41.995  1.00  0.00     0.000 C 
BRANCH  14  15
ATOM     15  C   UNL     1      36.071  -0.739  42.082  1.00  0.00     0.000 C 
BRANCH  15  16
ATOM     16  C   UNL     1      36.693  -1.130  43.433  1.00  0.00     0.006 C 
BRANCH  16  17
ATOM     17  C   UNL     1      37.452  -2.462  43.370  1.00  0.00     0.053 C 
BRANCH  17  18
ATOM     18  C   UNL     1      36.523  -3.575  43.003  1.00  0.00     0.041 C 
ATOM     19  O   UNL     1      36.616  -4.135  41.880  1.00  0.00    -0.550 OA
ATOM     20  O   UNL     1      35.523  -3.965  43.886  1.00  0.00    -0.550 OA
ENDBRANCH  17  18
ENDBRANCH  16  17
ENDBRANCH  15  16
ENDBRANCH  14  15
ENDBRANCH  13  14
ENDBRANCH  12  13
ENDBRANCH  11  12
ENDBRANCH   1  11
TORSDOF 15
ENDMDL
