MODEL 1
REMARK VINA RESULT:    -3.332      0.000      0.000
REMARK INTER + INTRA:          -4.044
REMARK INTER:                  -3.916
REMARK INTRA:                  -0.128
REMARK UNBOUND:                -0.128
REMARK SMILES CCCCC(=O)[O-]
REMARK SMILES IDX 4 1 5 2 6 3 7 4 3 5 2 6 1 7
REMARK H PARENT
REMARK Flexibility Score: inf
ROOT
ATOM      1  C   UNL     1      60.554  29.670  10.915  1.00  0.00     0.053 C 
ENDROOT
BRANCH   1   2
ATOM      2  C   UNL     1      61.417  28.731  10.133  1.00  0.00     0.041 C 
ATOM      3  O   UNL     1      62.662  28.715  10.314  1.00  0.00    -0.550 OA
ATOM      4  O   UNL     1      60.840  27.839   9.238  1.00  0.00    -0.550 OA
ENDBRANCH   1   2
BRANCH   1   5
ATOM      5  C   UNL     1      59.582  28.889  11.805  1.00  0.00     0.006 C 
BRANCH   5   6
ATOM      6  C   UNL     1      60.328  28.171  12.936  1.00  0.00    -0.003 C 
ATOM      7  C   UNL     1      61.063  29.165  13.830  1.00  0.00     0.004 C 
ENDBRANCH   5   6
ENDBRANCH   1   5
TORSDOF 3
ENDMDL
MODEL 2
REMARK VINA RESULT:    -3.316      1.146      1.737
REMARK INTER + INTRA:          -4.026
REMARK INTER:                  -3.916
REMARK INTRA:                  -0.110
REMARK UNBOUND:                -0.128
REMARK SMILES CCCCC(=O)[O-]
REMARK SMILES IDX 4 1 5 2 6 3 7 4 3 5 2 6 1 7
REMARK H PARENT
REMARK Flexibility Score: inf
ROOT
ATOM      1  C   UNL     1      59.644  29.276  11.708  1.00  0.00     0.053 C 
ENDROOT
BRANCH   1   2
ATOM      2  C   UNL     1      60.156  28.961  10.337  1.00  0.00     0.041 C 
ATOM      3  O   UNL     1      59.671  29.542   9.332  1.00  0.00    -0.550 OA
ATOM      4  O   UNL     1      61.202  28.061  10.176  1.00  0.00    -0.550 OA
ENDBRANCH   1   2
BRANCH   1   5
ATOM      5  C   UNL     1      60.209  28.286  12.732  1.00  0.00     0.006 C 
BRANCH   5   6
ATOM      6  C   UNL     1      61.108  29.000  13.748  1.00  0.00    -0.003 C 
ATOM      7  C   UNL     1      62.577  28.904  13.347  1.00  0.00     0.004 C 
ENDBRANCH   5   6
ENDBRANCH   1   5
TORSDOF 3
ENDMDL
MODEL 3
REMARK VINA RESULT:    -3.295     14.687     16.137
REMARK INTER + INTRA:          -4.001
REMARK INTER:                  -3.903
REMARK INTRA:                  -0.098
REMARK UNBOUND:                -0.128
REMARK SMILES CCCCC(=O)[O-]
REMARK SMILES IDX 4 1 5 2 6 3 7 4 3 5 2 6 1 7
REMARK H PARENT
REMARK Flexibility Score: inf
ROOT
ATOM      1  C   UNL     1      62.103  27.872  27.391  1.00  0.00     0.053 C 
ENDROOT
BRANCH   1   2
ATOM      2  C   UNL     1      61.576  29.005  28.214  1.00  0.00     0.041 C 
ATOM      3  O   UNL     1      60.585  28.832  28.969  1.00  0.00    -0.550 OA
ATOM      4  O   UNL     1      62.212  30.240  28.182  1.00  0.00    -0.550 OA
ENDBRANCH   1   2
BRANCH   1   5
ATOM      5  C   UNL     1      60.954  27.129  26.702  1.00  0.00     0.006 C 
BRANCH   5   6
ATOM      6  C   UNL     1      60.516  27.857  25.426  1.00  0.00    -0.003 C 
ATOM      7  C   UNL     1      61.721  28.257  24.579  1.00  0.00     0.004 C 
ENDBRANCH   5   6
ENDBRANCH   1   5
TORSDOF 3
ENDMDL
MODEL 4
REMARK VINA RESULT:    -3.214      1.443      1.866
REMARK INTER + INTRA:          -3.906
REMARK INTER:                  -3.801
REMARK INTRA:                  -0.105
REMARK UNBOUND:                -0.128
REMARK SMILES CCCCC(=O)[O-]
REMARK SMILES IDX 4 1 5 2 6 3 7 4 3 5 2 6 1 7
REMARK H PARENT
REMARK Flexibility Score: inf
ROOT
ATOM      1  C   UNL     1      61.518  28.627  10.232  1.00  0.00     0.053 C 
ENDROOT
BRANCH   1   2
ATOM      2  C   UNL     1      62.965  28.991  10.354  1.00  0.00     0.041 C 
ATOM      3  O   UNL     1      63.421  29.416  11.447  1.00  0.00    -0.550 OA
ATOM      4  O   UNL     1      63.819  28.813   9.272  1.00  0.00    -0.550 OA
ENDBRANCH   1   2
BRANCH   1   5
ATOM      5  C   UNL     1      60.643  29.667  10.939  1.00  0.00     0.006 C 
BRANCH   5   6
ATOM      6  C   UNL     1      59.613  28.989  11.851  1.00  0.00    -0.003 C 
ATOM      7  C   UNL     1      60.298  28.173  12.943  1.00  0.00     0.004 C 
ENDBRANCH   5   6
ENDBRANCH   1   5
TORSDOF 3
ENDMDL
MODEL 5
REMARK VINA RESULT:    -3.175      2.925      3.363
REMARK INTER + INTRA:          -3.860
REMARK INTER:                  -3.843
REMARK INTRA:                  -0.017
REMARK UNBOUND:                -0.128
REMARK SMILES CCCCC(=O)[O-]
REMARK SMILES IDX 4 1 5 2 6 3 7 4 3 5 2 6 1 7
REMARK H PARENT
REMARK Flexibility Score: inf
ROOT
ATOM      1  C   UNL     1      60.682  30.569  11.979  1.00  0.00     0.053 C 
ENDROOT
BRANCH   1   2
ATOM      2  C   UNL     1      59.783  29.429  11.619  1.00  0.00     0.041 C 
ATOM      3  O   UNL     1      59.625  29.102  10.414  1.00  0.00    -0.550 OA
ATOM      4  O   UNL     1      59.155  28.696  12.619  1.00  0.00    -0.550 OA
ENDBRANCH   1   2
BRANCH   1   5
ATOM      5  C   UNL     1      60.004  31.485  13.002  1.00  0.00     0.006 C 
BRANCH   5   6
ATOM      6  C   UNL     1      60.880  32.705  13.312  1.00  0.00    -0.003 C 
ATOM      7  C   UNL     1      60.532  33.302  14.672  1.00  0.00     0.004 C 
ENDBRANCH   5   6
ENDBRANCH   1   5
TORSDOF 3
ENDMDL
MODEL 6
REMARK VINA RESULT:    -3.172      2.399      3.357
REMARK INTER + INTRA:          -3.856
REMARK INTER:                  -3.772
REMARK INTRA:                  -0.084
REMARK UNBOUND:                -0.128
REMARK SMILES CCCCC(=O)[O-]
REMARK SMILES IDX 4 1 5 2 6 3 7 4 3 5 2 6 1 7
REMARK H PARENT
REMARK Flexibility Score: inf
ROOT
ATOM      1  C   UNL     1      59.958  29.095  10.860  1.00  0.00     0.053 C 
ENDROOT
BRANCH   1   2
ATOM      2  C   UNL     1      59.898  29.055  12.355  1.00  0.00     0.041 C 
ATOM      3  O   UNL     1      59.806  30.123  13.014  1.00  0.00    -0.550 OA
ATOM      4  O   UNL     1      59.895  27.834  13.017  1.00  0.00    -0.550 OA
ENDBRANCH   1   2
BRANCH   1   5
ATOM      5  C   UNL     1      61.181  28.324  10.352  1.00  0.00     0.006 C 
BRANCH   5   6
ATOM      6  C   UNL     1      62.482  29.004  10.795  1.00  0.00    -0.003 C 
ATOM      7  C   UNL     1      63.497  29.045   9.656  1.00  0.00     0.004 C 
ENDBRANCH   5   6
ENDBRANCH   1   5
TORSDOF 3
ENDMDL
MODEL 7
REMARK VINA RESULT:    -3.114     14.007     14.633
REMARK INTER + INTRA:          -3.788
REMARK INTER:                  -3.737
REMARK INTRA:                  -0.051
REMARK UNBOUND:                -0.128
REMARK SMILES CCCCC(=O)[O-]
REMARK SMILES IDX 4 1 5 2 6 3 7 4 3 5 2 6 1 7
REMARK H PARENT
REMARK Flexibility Score: inf
ROOT
ATOM      1  C   UNL     1      61.730  27.754  24.967  1.00  0.00     0.053 C 
ENDROOT
BRANCH   1   2
ATOM      2  C   UNL     1      60.629  27.213  25.824  1.00  0.00     0.041 C 
ATOM      3  O   UNL     1      59.542  26.849  25.304  1.00  0.00    -0.550 OA
ATOM      4  O   UNL     1      60.821  27.066  27.192  1.00  0.00    -0.550 OA
ENDBRANCH   1   2
BRANCH   1   5
ATOM      5  C   UNL     1      63.086  27.219  25.436  1.00  0.00     0.006 C 
BRANCH   5   6
ATOM      6  C   UNL     1      63.500  25.985  24.625  1.00  0.00    -0.003 C 
ATOM      7  C   UNL     1      64.981  26.033  24.265  1.00  0.00     0.004 C 
ENDBRANCH   5   6
ENDBRANCH   1   5
TORSDOF 3
ENDMDL
MODEL 8
REMARK VINA RESULT:    -3.109     14.414     15.666
REMARK INTER + INTRA:          -3.783
REMARK INTER:                  -3.732
REMARK INTRA:                  -0.051
REMARK UNBOUND:                -0.128
REMARK SMILES CCCCC(=O)[O-]
REMARK SMILES IDX 4 1 5 2 6 3 7 4 3 5 2 6 1 7
REMARK H PARENT
REMARK Flexibility Score: inf
ROOT
ATOM      1  C   UNL     1      61.379  27.196  27.093  1.00  0.00     0.053 C 
ENDROOT
BRANCH   1   2
ATOM      2  C   UNL     1      60.689  27.486  25.798  1.00  0.00     0.041 C 
ATOM      3  O   UNL     1      61.119  28.394  25.040  1.00  0.00    -0.550 OA
ATOM      4  O   UNL     1      59.598  26.720  25.405  1.00  0.00    -0.550 OA
ENDBRANCH   1   2
BRANCH   1   5
ATOM      5  C   UNL     1      62.377  28.309  27.430  1.00  0.00     0.006 C 
BRANCH   5   6
ATOM      6  C   UNL     1      61.777  29.299  28.435  1.00  0.00    -0.003 C 
ATOM      7  C   UNL     1      62.667  30.527  28.597  1.00  0.00     0.004 C 
ENDBRANCH   5   6
ENDBRANCH   1   5
TORSDOF 3
ENDMDL
