MODEL 1
REMARK VINA RESULT:    -1.909      0.000      0.000
REMARK INTER + INTRA:          -4.906
REMARK INTER:                  -3.695
REMARK INTRA:                  -1.211
REMARK UNBOUND:                -1.211
REMARK SMILES CCCCCCCCCCCCCCCCCC(=O)[O-]
REMARK SMILES IDX 10 1 11 2 12 3 13 4 14 5 15 6 16 7 17 8 18 9 19 10 20 11
REMARK SMILES IDX 9 12 8 13 7 14 6 15 5 16 4 17 3 18 2 19 1 20
REMARK H PARENT
REMARK Flexibility Score: inf
ROOT
ATOM      1  C   UNL     1     -18.201  33.845  -9.500  1.00  0.00     0.000 C 
ENDROOT
BRANCH   1   2
ATOM      2  C   UNL     1     -18.011  32.861 -10.668  1.00  0.00     0.000 C 
BRANCH   2   3
ATOM      3  C   UNL     1     -18.175  33.528 -12.045  1.00  0.00     0.000 C 
BRANCH   3   4
ATOM      4  C   UNL     1     -16.872  33.691 -12.855  1.00  0.00     0.000 C 
BRANCH   4   5
ATOM      5  C   UNL     1     -15.599  33.182 -12.155  1.00  0.00     0.000 C 
BRANCH   5   6
ATOM      6  C   UNL     1     -14.388  34.130 -12.245  1.00  0.00     0.000 C 
BRANCH   6   7
ATOM      7  C   UNL     1     -14.041  34.824 -10.910  1.00  0.00     0.006 C 
BRANCH   7   8
ATOM      8  C   UNL     1     -14.759  34.187  -9.713  1.00  0.00     0.053 C 
BRANCH   8   9
ATOM      9  C   UNL     1     -14.410  34.909  -8.450  1.00  0.00     0.041 C 
ATOM     10  O   UNL     1     -13.379  35.630  -8.395  1.00  0.00    -0.550 OA
ATOM     11  O   UNL     1     -15.251  34.824  -7.347  1.00  0.00    -0.550 OA
ENDBRANCH   8   9
ENDBRANCH   7   8
ENDBRANCH   6   7
ENDBRANCH   5   6
ENDBRANCH   4   5
ENDBRANCH   3   4
ENDBRANCH   2   3
ENDBRANCH   1   2
BRANCH   1  12
ATOM     12  C   UNL     1     -19.681  34.175  -9.246  1.00  0.00     0.000 C 
BRANCH  12  13
ATOM     13  C   UNL     1     -20.190  33.603  -7.911  1.00  0.00    -0.000 C 
BRANCH  13  14
ATOM     14  C   UNL     1     -21.491  34.270  -7.428  1.00  0.00    -0.000 C 
BRANCH  14  15
ATOM     15  C   UNL     1     -22.733  33.358  -7.413  1.00  0.00    -0.000 C 
BRANCH  15  16
ATOM     16  C   UNL     1     -23.993  34.051  -7.956  1.00  0.00    -0.000 C 
BRANCH  16  17
ATOM     17  C   UNL     1     -23.933  35.583  -7.828  1.00  0.00    -0.000 C 
BRANCH  17  18
ATOM     18  C   UNL     1     -24.125  36.324  -9.167  1.00  0.00    -0.000 C 
BRANCH  18  19
ATOM     19  C   UNL     1     -23.871  37.834  -9.034  1.00  0.00    -0.003 C 
ATOM     20  C   UNL     1     -22.405  38.122  -8.726  1.00  0.00     0.004 C 
ENDBRANCH  18  19
ENDBRANCH  17  18
ENDBRANCH  16  17
ENDBRANCH  15  16
ENDBRANCH  14  15
ENDBRANCH  13  14
ENDBRANCH  12  13
ENDBRANCH   1  12
TORSDOF 16
ENDMDL
MODEL 2
REMARK VINA RESULT:    -1.649     12.887     16.754
REMARK INTER + INTRA:          -4.402
REMARK INTER:                  -3.023
REMARK INTRA:                  -1.379
REMARK UNBOUND:                -1.211
REMARK SMILES CCCCCCCCCCCCCCCCCC(=O)[O-]
REMARK SMILES IDX 10 1 11 2 12 3 13 4 14 5 15 6 16 7 17 8 18 9 19 10 20 11
REMARK SMILES IDX 9 12 8 13 7 14 6 15 5 16 4 17 3 18 2 19 1 20
REMARK H PARENT
REMARK Flexibility Score: inf
ROOT
ATOM      1  C   UNL     1      -8.427  37.725  -1.841  1.00  0.00     0.000 C 
ENDROOT
BRANCH   1   2
ATOM      2  C   UNL     1      -9.697  37.704  -0.973  1.00  0.00     0.000 C 
BRANCH   2   3
ATOM      3  C   UNL     1     -10.592  36.483  -1.251  1.00  0.00     0.000 C 
BRANCH   3   4
ATOM      4  C   UNL     1     -10.263  35.226  -0.420  1.00  0.00     0.000 C 
BRANCH   4   5
ATOM      5  C   UNL     1      -8.805  34.742  -0.514  1.00  0.00     0.000 C 
BRANCH   5   6
ATOM      6  C   UNL     1      -8.271  34.042   0.750  1.00  0.00     0.000 C 
BRANCH   6   7
ATOM      7  C   UNL     1      -7.937  32.549   0.539  1.00  0.00     0.006 C 
BRANCH   7   8
ATOM      8  C   UNL     1      -7.135  31.956   1.705  1.00  0.00     0.053 C 
BRANCH   8   9
ATOM      9  C   UNL     1      -7.341  30.477   1.782  1.00  0.00     0.041 C 
ATOM     10  O   UNL     1      -7.223  29.765   0.750  1.00  0.00    -0.550 OA
ATOM     11  O   UNL     1      -7.614  29.876   3.005  1.00  0.00    -0.550 OA
ENDBRANCH   8   9
ENDBRANCH   7   8
ENDBRANCH   6   7
ENDBRANCH   5   6
ENDBRANCH   4   5
ENDBRANCH   3   4
ENDBRANCH   2   3
ENDBRANCH   1   2
BRANCH   1  12
ATOM     12  C   UNL     1      -7.176  38.125  -1.040  1.00  0.00     0.000 C 
BRANCH  12  13
ATOM     13  C   UNL     1      -6.959  37.235   0.195  1.00  0.00    -0.000 C 
BRANCH  13  14
ATOM     14  C   UNL     1      -6.478  38.022   1.428  1.00  0.00    -0.000 C 
BRANCH  14  15
ATOM     15  C   UNL     1      -5.214  37.468   2.112  1.00  0.00    -0.000 C 
BRANCH  15  16
ATOM     16  C   UNL     1      -5.251  35.942   2.297  1.00  0.00    -0.000 C 
BRANCH  16  17
ATOM     17  C   UNL     1      -3.875  35.285   2.092  1.00  0.00    -0.000 C 
BRANCH  17  18
ATOM     18  C   UNL     1      -3.933  33.962   1.299  1.00  0.00    -0.000 C 
BRANCH  18  19
ATOM     19  C   UNL     1      -4.328  34.185  -0.169  1.00  0.00    -0.003 C 
ATOM     20  C   UNL     1      -3.902  35.569  -0.651  1.00  0.00     0.004 C 
ENDBRANCH  18  19
ENDBRANCH  17  18
ENDBRANCH  16  17
ENDBRANCH  15  16
ENDBRANCH  14  15
ENDBRANCH  13  14
ENDBRANCH  12  13
ENDBRANCH   1  12
TORSDOF 16
ENDMDL
MODEL 3
REMARK VINA RESULT:    -1.526     13.015     16.640
REMARK INTER + INTRA:          -4.163
REMARK INTER:                  -4.080
REMARK INTRA:                  -0.084
REMARK UNBOUND:                -1.211
REMARK SMILES CCCCCCCCCCCCCCCCCC(=O)[O-]
REMARK SMILES IDX 10 1 11 2 12 3 13 4 14 5 15 6 16 7 17 8 18 9 19 10 20 11
REMARK SMILES IDX 9 12 8 13 7 14 6 15 5 16 4 17 3 18 2 19 1 20
REMARK H PARENT
REMARK Flexibility Score: inf
ROOT
ATOM      1  C   UNL     1      -5.507  37.736   1.352  1.00  0.00     0.000 C 
ENDROOT
BRANCH   1   2
ATOM      2  C   UNL     1      -4.048  37.770   0.865  1.00  0.00     0.000 C 
BRANCH   2   3
ATOM      3  C   UNL     1      -3.923  38.125  -0.627  1.00  0.00     0.000 C 
BRANCH   3   4
ATOM      4  C   UNL     1      -4.742  37.235  -1.584  1.00  0.00     0.000 C 
BRANCH   4   5
ATOM      5  C   UNL     1      -5.549  37.993  -2.653  1.00  0.00     0.000 C 
BRANCH   5   6
ATOM      6  C   UNL     1      -7.055  38.125  -2.355  1.00  0.00     0.000 C 
BRANCH   6   7
ATOM      7  C   UNL     1      -7.412  37.939  -0.865  1.00  0.00     0.006 C 
BRANCH   7   8
ATOM      8  C   UNL     1      -8.498  36.877  -0.648  1.00  0.00     0.053 C 
BRANCH   8   9
ATOM      9  C   UNL     1      -9.653  37.115  -1.568  1.00  0.00     0.041 C 
ATOM     10  O   UNL     1      -9.481  37.718  -2.660  1.00  0.00    -0.550 OA
ATOM     11  O   UNL     1     -10.912  36.625  -1.243  1.00  0.00    -0.550 OA
ENDBRANCH   8   9
ENDBRANCH   7   8
ENDBRANCH   6   7
ENDBRANCH   5   6
ENDBRANCH   4   5
ENDBRANCH   3   4
ENDBRANCH   2   3
ENDBRANCH   1   2
BRANCH   1  12
ATOM     12  C   UNL     1      -5.776  36.572   2.319  1.00  0.00     0.000 C 
BRANCH  12  13
ATOM     13  C   UNL     1      -4.641  35.533   2.320  1.00  0.00    -0.000 C 
BRANCH  13  14
ATOM     14  C   UNL     1      -4.845  34.418   1.278  1.00  0.00    -0.000 C 
BRANCH  14  15
ATOM     15  C   UNL     1      -6.256  34.337   0.666  1.00  0.00    -0.000 C 
BRANCH  15  16
ATOM     16  C   UNL     1      -7.243  33.539   1.534  1.00  0.00    -0.000 C 
BRANCH  16  17
ATOM     17  C   UNL     1      -7.658  32.206   0.890  1.00  0.00    -0.000 C 
BRANCH  17  18
ATOM     18  C   UNL     1      -6.953  30.976   1.500  1.00  0.00    -0.000 C 
BRANCH  18  19
ATOM     19  C   UNL     1      -7.951  29.883   1.913  1.00  0.00    -0.003 C 
ATOM     20  C   UNL     1      -7.943  29.670   3.423  1.00  0.00     0.004 C 
ENDBRANCH  18  19
ENDBRANCH  17  18
ENDBRANCH  16  17
ENDBRANCH  15  16
ENDBRANCH  14  15
ENDBRANCH  13  14
ENDBRANCH  12  13
ENDBRANCH   1  12
TORSDOF 16
ENDMDL
MODEL 4
REMARK VINA RESULT:    -1.506     12.834     16.418
REMARK INTER + INTRA:          -4.125
REMARK INTER:                  -2.979
REMARK INTRA:                  -1.146
REMARK UNBOUND:                -1.211
REMARK SMILES CCCCCCCCCCCCCCCCCC(=O)[O-]
REMARK SMILES IDX 10 1 11 2 12 3 13 4 14 5 15 6 16 7 17 8 18 9 19 10 20 11
REMARK SMILES IDX 9 12 8 13 7 14 6 15 5 16 4 17 3 18 2 19 1 20
REMARK H PARENT
REMARK Flexibility Score: inf
ROOT
ATOM      1  C   UNL     1     -10.103  37.380  -2.083  1.00  0.00     0.000 C 
ENDROOT
BRANCH   1   2
ATOM      2  C   UNL     1     -10.581  36.508  -0.909  1.00  0.00     0.000 C 
BRANCH   2   3
ATOM      3  C   UNL     1      -9.593  35.380  -0.560  1.00  0.00     0.000 C 
BRANCH   3   4
ATOM      4  C   UNL     1      -8.269  35.843   0.083  1.00  0.00     0.000 C 
BRANCH   4   5
ATOM      5  C   UNL     1      -7.127  34.811   0.044  1.00  0.00     0.000 C 
BRANCH   5   6
ATOM      6  C   UNL     1      -6.848  34.103   1.383  1.00  0.00     0.000 C 
BRANCH   6   7
ATOM      7  C   UNL     1      -7.575  32.749   1.534  1.00  0.00     0.006 C 
BRANCH   7   8
ATOM      8  C   UNL     1      -6.611  31.557   1.498  1.00  0.00     0.053 C 
BRANCH   8   9
ATOM      9  C   UNL     1      -7.363  30.272   1.633  1.00  0.00     0.041 C 
ATOM     10  O   UNL     1      -7.817  29.916   2.752  1.00  0.00    -0.550 OA
ATOM     11  O   UNL     1      -7.608  29.489   0.511  1.00  0.00    -0.550 OA
ENDBRANCH   8   9
ENDBRANCH   7   8
ENDBRANCH   6   7
ENDBRANCH   5   6
ENDBRANCH   4   5
ENDBRANCH   3   4
ENDBRANCH   2   3
ENDBRANCH   1   2
BRANCH   1  12
ATOM     12  C   UNL     1      -8.658  37.871  -1.898  1.00  0.00     0.000 C 
BRANCH  12  13
ATOM     13  C   UNL     1      -7.819  37.730  -3.180  1.00  0.00    -0.000 C 
BRANCH  13  14
ATOM     14  C   UNL     1      -6.344  38.125  -2.982  1.00  0.00    -0.000 C 
BRANCH  14  15
ATOM     15  C   UNL     1      -5.851  38.118  -1.522  1.00  0.00    -0.000 C 
BRANCH  15  16
ATOM     16  C   UNL     1      -4.706  37.121  -1.279  1.00  0.00    -0.000 C 
BRANCH  16  17
ATOM     17  C   UNL     1      -4.215  37.123   0.178  1.00  0.00    -0.000 C 
BRANCH  17  18
ATOM     18  C   UNL     1      -5.269  37.627   1.187  1.00  0.00    -0.000 C 
BRANCH  18  19
ATOM     19  C   UNL     1      -4.726  37.659   2.624  1.00  0.00    -0.003 C 
ATOM     20  C   UNL     1      -5.795  38.124   3.607  1.00  0.00     0.004 C 
ENDBRANCH  18  19
ENDBRANCH  17  18
ENDBRANCH  16  17
ENDBRANCH  15  16
ENDBRANCH  14  15
ENDBRANCH  13  14
ENDBRANCH  12  13
ENDBRANCH   1  12
TORSDOF 16
ENDMDL
MODEL 5
REMARK VINA RESULT:    -1.394     12.411     16.559
REMARK INTER + INTRA:          -3.909
REMARK INTER:                  -2.552
REMARK INTRA:                  -1.357
REMARK UNBOUND:                -1.211
REMARK SMILES CCCCCCCCCCCCCCCCCC(=O)[O-]
REMARK SMILES IDX 10 1 11 2 12 3 13 4 14 5 15 6 16 7 17 8 18 9 19 10 20 11
REMARK SMILES IDX 9 12 8 13 7 14 6 15 5 16 4 17 3 18 2 19 1 20
REMARK H PARENT
REMARK Flexibility Score: inf
ROOT
ATOM      1  C   UNL     1      -3.990  34.717  -0.409  1.00  0.00     0.000 C 
ENDROOT
BRANCH   1   2
ATOM      2  C   UNL     1      -3.891  34.555   1.117  1.00  0.00     0.000 C 
BRANCH   2   3
ATOM      3  C   UNL     1      -5.004  33.664   1.698  1.00  0.00     0.000 C 
BRANCH   3   4
ATOM      4  C   UNL     1      -6.441  34.185   1.483  1.00  0.00     0.000 C 
BRANCH   4   5
ATOM      5  C   UNL     1      -7.538  33.106   1.512  1.00  0.00     0.000 C 
BRANCH   5   6
ATOM      6  C   UNL     1      -7.390  32.002   0.448  1.00  0.00     0.000 C 
BRANCH   6   7
ATOM      7  C   UNL     1      -7.567  30.573   1.006  1.00  0.00     0.006 C 
BRANCH   7   8
ATOM      8  C   UNL     1      -6.974  30.413   2.411  1.00  0.00     0.053 C 
BRANCH   8   9
ATOM      9  C   UNL     1      -7.942  29.713   3.311  1.00  0.00     0.041 C 
ATOM     10  O   UNL     1      -9.031  29.276   2.854  1.00  0.00    -0.550 OA
ATOM     11  O   UNL     1      -7.620  29.498   4.646  1.00  0.00    -0.550 OA
ENDBRANCH   8   9
ENDBRANCH   7   8
ENDBRANCH   6   7
ENDBRANCH   5   6
ENDBRANCH   4   5
ENDBRANCH   3   4
ENDBRANCH   2   3
ENDBRANCH   1   2
BRANCH   1  12
ATOM     12  C   UNL     1      -3.928  36.189  -0.848  1.00  0.00     0.000 C 
BRANCH  12  13
ATOM     13  C   UNL     1      -3.880  37.158   0.346  1.00  0.00    -0.000 C 
BRANCH  13  14
ATOM     14  C   UNL     1      -5.277  37.552   0.858  1.00  0.00    -0.000 C 
BRANCH  14  15
ATOM     15  C   UNL     1      -6.231  38.125  -0.207  1.00  0.00    -0.000 C 
BRANCH  15  16
ATOM     16  C   UNL     1      -7.574  37.379  -0.275  1.00  0.00    -0.000 C 
BRANCH  16  17
ATOM     17  C   UNL     1      -8.588  38.063  -1.207  1.00  0.00    -0.000 C 
BRANCH  17  18
ATOM     18  C   UNL     1      -9.489  37.073  -1.976  1.00  0.00    -0.000 C 
BRANCH  18  19
ATOM     19  C   UNL     1     -10.374  36.244  -1.032  1.00  0.00    -0.003 C 
ATOM     20  C   UNL     1     -11.848  36.372  -1.404  1.00  0.00     0.004 C 
ENDBRANCH  18  19
ENDBRANCH  17  18
ENDBRANCH  16  17
ENDBRANCH  15  16
ENDBRANCH  14  15
ENDBRANCH  13  14
ENDBRANCH  12  13
ENDBRANCH   1  12
TORSDOF 16
ENDMDL
MODEL 6
REMARK VINA RESULT:    -0.842      2.944      8.173
REMARK INTER + INTRA:          -2.840
REMARK INTER:                  -2.528
REMARK INTRA:                  -0.312
REMARK UNBOUND:                -1.211
REMARK SMILES CCCCCCCCCCCCCCCCCC(=O)[O-]
REMARK SMILES IDX 10 1 11 2 12 3 13 4 14 5 15 6 16 7 17 8 18 9 19 10 20 11
REMARK SMILES IDX 9 12 8 13 7 14 6 15 5 16 4 17 3 18 2 19 1 20
REMARK H PARENT
REMARK Flexibility Score: inf
ROOT
ATOM      1  C   UNL     1     -18.244  33.190 -10.129  1.00  0.00     0.000 C 
ENDROOT
BRANCH   1   2
ATOM      2  C   UNL     1     -18.522  33.680  -8.697  1.00  0.00     0.000 C 
BRANCH   2   3
ATOM      3  C   UNL     1     -19.915  34.316  -8.543  1.00  0.00     0.000 C 
BRANCH   3   4
ATOM      4  C   UNL     1     -21.026  33.356  -8.069  1.00  0.00     0.000 C 
BRANCH   4   5
ATOM      5  C   UNL     1     -22.065  33.977  -7.117  1.00  0.00     0.000 C 
BRANCH   5   6
ATOM      6  C   UNL     1     -23.534  33.711  -7.499  1.00  0.00     0.000 C 
BRANCH   6   7
ATOM      7  C   UNL     1     -24.125  34.761  -8.465  1.00  0.00     0.006 C 
BRANCH   7   8
ATOM      8  C   UNL     1     -24.011  36.191  -7.920  1.00  0.00     0.053 C 
BRANCH   8   9
ATOM      9  C   UNL     1     -23.551  37.124  -8.994  1.00  0.00     0.041 C 
ATOM     10  O   UNL     1     -22.627  37.949  -8.765  1.00  0.00    -0.550 OA
ATOM     11  O   UNL     1     -24.108  37.051 -10.265  1.00  0.00    -0.550 OA
ENDBRANCH   8   9
ENDBRANCH   7   8
ENDBRANCH   6   7
ENDBRANCH   5   6
ENDBRANCH   4   5
ENDBRANCH   3   4
ENDBRANCH   2   3
ENDBRANCH   1   2
BRANCH   1  12
ATOM     12  C   UNL     1     -18.802  34.146 -11.196  1.00  0.00     0.000 C 
BRANCH  12  13
ATOM     13  C   UNL     1     -18.384  33.747 -12.621  1.00  0.00    -0.000 C 
BRANCH  13  14
ATOM     14  C   UNL     1     -16.972  34.235 -12.994  1.00  0.00    -0.000 C 
BRANCH  14  15
ATOM     15  C   UNL     1     -15.826  33.269 -12.637  1.00  0.00    -0.000 C 
BRANCH  15  16
ATOM     16  C   UNL     1     -15.603  33.134 -11.122  1.00  0.00    -0.000 C 
BRANCH  16  17
ATOM     17  C   UNL     1     -14.742  34.270 -10.543  1.00  0.00    -0.000 C 
BRANCH  17  18
ATOM     18  C   UNL     1     -14.734  34.317  -9.000  1.00  0.00    -0.000 C 
BRANCH  18  19
ATOM     19  C   UNL     1     -13.950  35.523  -8.463  1.00  0.00    -0.003 C 
ATOM     20  C   UNL     1     -12.691  35.775  -9.287  1.00  0.00     0.004 C 
ENDBRANCH  18  19
ENDBRANCH  17  18
ENDBRANCH  16  17
ENDBRANCH  15  16
ENDBRANCH  14  15
ENDBRANCH  13  14
ENDBRANCH  12  13
ENDBRANCH   1  12
TORSDOF 16
ENDMDL
MODEL 7
REMARK VINA RESULT:    -0.412     13.376     16.988
REMARK INTER + INTRA:          -2.009
REMARK INTER:                  -1.692
REMARK INTRA:                  -0.317
REMARK UNBOUND:                -1.211
REMARK SMILES CCCCCCCCCCCCCCCCCC(=O)[O-]
REMARK SMILES IDX 10 1 11 2 12 3 13 4 14 5 15 6 16 7 17 8 18 9 19 10 20 11
REMARK SMILES IDX 9 12 8 13 7 14 6 15 5 16 4 17 3 18 2 19 1 20
REMARK H PARENT
REMARK Flexibility Score: inf
ROOT
ATOM      1  C   UNL     1      -4.823  37.285  -0.452  1.00  0.00     0.000 C 
ENDROOT
BRANCH   1   2
ATOM      2  C   UNL     1      -3.875  36.559  -1.423  1.00  0.00     0.000 C 
BRANCH   2   3
ATOM      3  C   UNL     1      -3.889  35.031  -1.243  1.00  0.00     0.000 C 
BRANCH   3   4
ATOM      4  C   UNL     1      -4.012  34.543   0.216  1.00  0.00     0.000 C 
BRANCH   4   5
ATOM      5  C   UNL     1      -5.448  34.259   0.692  1.00  0.00     0.000 C 
BRANCH   5   6
ATOM      6  C   UNL     1      -5.672  32.847   1.267  1.00  0.00     0.000 C 
BRANCH   6   7
ATOM      7  C   UNL     1      -6.982  32.183   0.790  1.00  0.00     0.006 C 
BRANCH   7   8
ATOM      8  C   UNL     1      -7.864  31.718   1.955  1.00  0.00     0.053 C 
BRANCH   8   9
ATOM      9  C   UNL     1      -7.661  30.260   2.216  1.00  0.00     0.041 C 
ATOM     10  O   UNL     1      -7.192  29.513   1.317  1.00  0.00    -0.550 OA
ATOM     11  O   UNL     1      -7.944  29.732   3.470  1.00  0.00    -0.550 OA
ENDBRANCH   8   9
ENDBRANCH   7   8
ENDBRANCH   6   7
ENDBRANCH   5   6
ENDBRANCH   4   5
ENDBRANCH   3   4
ENDBRANCH   2   3
ENDBRANCH   1   2
BRANCH   1  12
ATOM     12  C   UNL     1      -4.066  38.120   0.593  1.00  0.00     0.000 C 
BRANCH  12  13
ATOM     13  C   UNL     1      -3.897  37.377   1.930  1.00  0.00    -0.000 C 
BRANCH  13  14
ATOM     14  C   UNL     1      -5.238  36.975   2.570  1.00  0.00    -0.000 C 
BRANCH  14  15
ATOM     15  C   UNL     1      -6.244  38.125   2.767  1.00  0.00    -0.000 C 
BRANCH  15  16
ATOM     16  C   UNL     1      -7.509  37.972   1.907  1.00  0.00    -0.000 C 
BRANCH  16  17
ATOM     17  C   UNL     1      -7.359  36.901   0.813  1.00  0.00    -0.000 C 
BRANCH  17  18
ATOM     18  C   UNL     1      -8.489  36.927  -0.238  1.00  0.00    -0.000 C 
BRANCH  18  19
ATOM     19  C   UNL     1      -8.122  37.782  -1.461  1.00  0.00    -0.003 C 
ATOM     20  C   UNL     1      -9.269  37.829  -2.465  1.00  0.00     0.004 C 
ENDBRANCH  18  19
ENDBRANCH  17  18
ENDBRANCH  16  17
ENDBRANCH  15  16
ENDBRANCH  14  15
ENDBRANCH  13  14
ENDBRANCH  12  13
ENDBRANCH   1  12
TORSDOF 16
ENDMDL
