MODEL 1
REMARK VINA RESULT:    -3.789      0.000      0.000
REMARK INTER + INTRA:          -7.775
REMARK INTER:                  -6.447
REMARK INTRA:                  -1.328
REMARK UNBOUND:                -1.328
REMARK SMILES CCCCCCCCCCCCCC(=O)[O-]
REMARK SMILES IDX 8 1 9 2 10 3 11 4 12 5 13 6 14 7 15 8 16 9 7 10 6 11 5 12
REMARK SMILES IDX 4 13 3 14 2 15 1 16
REMARK H PARENT
REMARK Flexibility Score: inf
ROOT
ATOM      1  C   UNL     1     125.919 119.987 118.094  1.00  0.00     0.000 C 
ENDROOT
BRANCH   1   2
ATOM      2  C   UNL     1     127.145 120.856 117.757  1.00  0.00     0.000 C 
BRANCH   2   3
ATOM      3  C   UNL     1     128.384 120.496 118.589  1.00  0.00     0.000 C 
BRANCH   3   4
ATOM      4  C   UNL     1     128.265 121.042 120.017  1.00  0.00     0.000 C 
BRANCH   4   5
ATOM      5  C   UNL     1     129.505 121.864 120.398  1.00  0.00     0.006 C 
BRANCH   5   6
ATOM      6  C   UNL     1     130.738 121.471 119.572  1.00  0.00     0.053 C 
BRANCH   6   7
ATOM      7  C   UNL     1     131.699 120.644 120.370  1.00  0.00     0.041 C 
ATOM      8  O   UNL     1     132.872 121.052 120.571  1.00  0.00    -0.550 OA
ATOM      9  O   UNL     1     131.306 119.406 120.865  1.00  0.00    -0.550 OA
ENDBRANCH   6   7
ENDBRANCH   5   6
ENDBRANCH   4   5
ENDBRANCH   3   4
ENDBRANCH   2   3
ENDBRANCH   1   2
BRANCH   1  10
ATOM     10  C   UNL     1     124.620 120.371 117.360  1.00  0.00     0.000 C 
BRANCH  10  11
ATOM     11  C   UNL     1     124.558 121.861 116.988  1.00  0.00    -0.000 C 
BRANCH  11  12
ATOM     12  C   UNL     1     123.219 122.515 117.369  1.00  0.00    -0.000 C 
BRANCH  12  13
ATOM     13  C   UNL     1     123.173 123.031 118.824  1.00  0.00    -0.000 C 
BRANCH  13  14
ATOM     14  C   UNL     1     122.408 122.072 119.753  1.00  0.00    -0.000 C 
BRANCH  14  15
ATOM     15  C   UNL     1     123.337 121.333 120.729  1.00  0.00    -0.003 C 
ATOM     16  C   UNL     1     124.694 122.020 120.884  1.00  0.00     0.004 C 
ENDBRANCH  14  15
ENDBRANCH  13  14
ENDBRANCH  12  13
ENDBRANCH  11  12
ENDBRANCH  10  11
ENDBRANCH   1  10
TORSDOF 12
ENDMDL
MODEL 2
REMARK VINA RESULT:    -3.763      3.853      6.949
REMARK INTER + INTRA:          -7.730
REMARK INTER:                  -6.900
REMARK INTRA:                  -0.830
REMARK UNBOUND:                -1.328
REMARK SMILES CCCCCCCCCCCCCC(=O)[O-]
REMARK SMILES IDX 8 1 9 2 10 3 11 4 12 5 13 6 14 7 15 8 16 9 7 10 6 11 5 12
REMARK SMILES IDX 4 13 3 14 2 15 1 16
REMARK H PARENT
REMARK Flexibility Score: inf
ROOT
ATOM      1  C   UNL     1     126.126 120.554 118.453  1.00  0.00     0.000 C 
ENDROOT
BRANCH   1   2
ATOM      2  C   UNL     1     125.103 119.843 117.548  1.00  0.00     0.000 C 
BRANCH   2   3
ATOM      3  C   UNL     1     123.793 120.628 117.389  1.00  0.00     0.000 C 
BRANCH   3   4
ATOM      4  C   UNL     1     124.043 122.139 117.475  1.00  0.00     0.000 C 
BRANCH   4   5
ATOM      5  C   UNL     1     123.065 122.805 118.453  1.00  0.00     0.006 C 
BRANCH   5   6
ATOM      6  C   UNL     1     123.376 122.455 119.915  1.00  0.00     0.053 C 
BRANCH   6   7
ATOM      7  C   UNL     1     122.189 121.859 120.607  1.00  0.00     0.041 C 
ATOM      8  O   UNL     1     121.466 121.017 120.013  1.00  0.00    -0.550 OA
ATOM      9  O   UNL     1     121.864 122.258 121.897  1.00  0.00    -0.550 OA
ENDBRANCH   6   7
ENDBRANCH   5   6
ENDBRANCH   4   5
ENDBRANCH   3   4
ENDBRANCH   2   3
ENDBRANCH   1   2
BRANCH   1  10
ATOM     10  C   UNL     1     127.449 120.947 117.768  1.00  0.00     0.000 C 
BRANCH  10  11
ATOM     11  C   UNL     1     128.634 120.071 118.204  1.00  0.00    -0.000 C 
BRANCH  11  12
ATOM     12  C   UNL     1     129.918 120.884 118.446  1.00  0.00    -0.000 C 
BRANCH  12  13
ATOM     13  C   UNL     1     130.293 121.021 119.937  1.00  0.00    -0.000 C 
BRANCH  13  14
ATOM     14  C   UNL     1     129.571 122.203 120.608  1.00  0.00    -0.000 C 
BRANCH  14  15
ATOM     15  C   UNL     1     130.537 123.320 121.032  1.00  0.00    -0.003 C 
ATOM     16  C   UNL     1     132.000 122.964 120.764  1.00  0.00     0.004 C 
ENDBRANCH  14  15
ENDBRANCH  13  14
ENDBRANCH  12  13
ENDBRANCH  11  12
ENDBRANCH  10  11
ENDBRANCH   1  10
TORSDOF 12
ENDMDL
MODEL 3
REMARK VINA RESULT:    -3.739      3.401      7.154
REMARK INTER + INTRA:          -7.690
REMARK INTER:                  -6.916
REMARK INTRA:                  -0.774
REMARK UNBOUND:                -1.328
REMARK SMILES CCCCCCCCCCCCCC(=O)[O-]
REMARK SMILES IDX 8 1 9 2 10 3 11 4 12 5 13 6 14 7 15 8 16 9 7 10 6 11 5 12
REMARK SMILES IDX 4 13 3 14 2 15 1 16
REMARK H PARENT
REMARK Flexibility Score: inf
ROOT
ATOM      1  C   UNL     1     127.348 120.758 117.938  1.00  0.00     0.000 C 
ENDROOT
BRANCH   1   2
ATOM      2  C   UNL     1     126.370 119.579 118.096  1.00  0.00     0.000 C 
BRANCH   2   3
ATOM      3  C   UNL     1     124.897 120.010 118.058  1.00  0.00     0.000 C 
BRANCH   3   4
ATOM      4  C   UNL     1     124.761 121.461 117.580  1.00  0.00     0.000 C 
BRANCH   4   5
ATOM      5  C   UNL     1     123.285 121.880 117.503  1.00  0.00     0.006 C 
BRANCH   5   6
ATOM      6  C   UNL     1     122.899 122.856 118.622  1.00  0.00     0.053 C 
BRANCH   6   7
ATOM      7  C   UNL     1     122.704 122.151 119.930  1.00  0.00     0.041 C 
ATOM      8  O   UNL     1     123.499 122.355 120.884  1.00  0.00    -0.550 OA
ATOM      9  O   UNL     1     121.661 121.247 120.083  1.00  0.00    -0.550 OA
ENDBRANCH   6   7
ENDBRANCH   5   6
ENDBRANCH   4   5
ENDBRANCH   3   4
ENDBRANCH   2   3
ENDBRANCH   1   2
BRANCH   1  10
ATOM     10  C   UNL     1     128.662 120.632 118.732  1.00  0.00     0.000 C 
BRANCH  10  11
ATOM     11  C   UNL     1     129.912 120.775 117.850  1.00  0.00    -0.000 C 
BRANCH  11  12
ATOM     12  C   UNL     1     131.220 120.550 118.629  1.00  0.00    -0.000 C 
BRANCH  12  13
ATOM     13  C   UNL     1     131.066 120.709 120.158  1.00  0.00    -0.000 C 
BRANCH  13  14
ATOM     14  C   UNL     1     132.249 121.471 120.780  1.00  0.00    -0.000 C 
BRANCH  14  15
ATOM     15  C   UNL     1     132.046 122.994 120.756  1.00  0.00    -0.003 C 
ATOM     16  C   UNL     1     130.597 123.399 121.029  1.00  0.00     0.004 C 
ENDBRANCH  14  15
ENDBRANCH  13  14
ENDBRANCH  12  13
ENDBRANCH  11  12
ENDBRANCH  10  11
ENDBRANCH   1  10
TORSDOF 12
ENDMDL
MODEL 4
REMARK VINA RESULT:    -3.682      1.285      2.805
REMARK INTER + INTRA:          -7.592
REMARK INTER:                  -6.012
REMARK INTRA:                  -1.580
REMARK UNBOUND:                -1.328
REMARK SMILES CCCCCCCCCCCCCC(=O)[O-]
REMARK SMILES IDX 8 1 9 2 10 3 11 4 12 5 13 6 14 7 15 8 16 9 7 10 6 11 5 12
REMARK SMILES IDX 4 13 3 14 2 15 1 16
REMARK H PARENT
REMARK Flexibility Score: inf
ROOT
ATOM      1  C   UNL     1     124.391 122.029 116.998  1.00  0.00     0.000 C 
ENDROOT
BRANCH   1   2
ATOM      2  C   UNL     1     124.250 120.500 117.118  1.00  0.00     0.000 C 
BRANCH   2   3
ATOM      3  C   UNL     1     125.458 119.837 117.795  1.00  0.00     0.000 C 
BRANCH   3   4
ATOM      4  C   UNL     1     126.686 120.753 117.750  1.00  0.00     0.000 C 
BRANCH   4   5
ATOM      5  C   UNL     1     127.962 119.984 118.124  1.00  0.00     0.006 C 
BRANCH   5   6
ATOM      6  C   UNL     1     129.214 120.869 118.060  1.00  0.00     0.053 C 
BRANCH   6   7
ATOM      7  C   UNL     1     129.894 120.964 119.392  1.00  0.00     0.041 C 
ATOM      8  O   UNL     1     130.106 122.089 119.916  1.00  0.00    -0.550 OA
ATOM      9  O   UNL     1     130.320 119.811 120.038  1.00  0.00    -0.550 OA
ENDBRANCH   6   7
ENDBRANCH   5   6
ENDBRANCH   4   5
ENDBRANCH   3   4
ENDBRANCH   2   3
ENDBRANCH   1   2
BRANCH   1  10
ATOM     10  C   UNL     1     123.197 122.842 117.534  1.00  0.00     0.000 C 
BRANCH  10  11
ATOM     11  C   UNL     1     122.597 122.252 118.820  1.00  0.00    -0.000 C 
BRANCH  11  12
ATOM     12  C   UNL     1     123.514 122.432 120.042  1.00  0.00    -0.000 C 
BRANCH  12  13
ATOM     13  C   UNL     1     123.690 121.146 120.880  1.00  0.00    -0.000 C 
BRANCH  13  14
ATOM     14  C   UNL     1     124.857 121.262 121.876  1.00  0.00    -0.000 C 
BRANCH  14  15
ATOM     15  C   UNL     1     126.223 121.339 121.177  1.00  0.00    -0.003 C 
ATOM     16  C   UNL     1     127.290 120.498 121.878  1.00  0.00     0.004 C 
ENDBRANCH  14  15
ENDBRANCH  13  14
ENDBRANCH  12  13
ENDBRANCH  11  12
ENDBRANCH  10  11
ENDBRANCH   1  10
TORSDOF 12
ENDMDL
MODEL 5
REMARK VINA RESULT:    -3.662      3.633      7.479
REMARK INTER + INTRA:          -7.558
REMARK INTER:                  -6.382
REMARK INTRA:                  -1.176
REMARK UNBOUND:                -1.328
REMARK SMILES CCCCCCCCCCCCCC(=O)[O-]
REMARK SMILES IDX 8 1 9 2 10 3 11 4 12 5 13 6 14 7 15 8 16 9 7 10 6 11 5 12
REMARK SMILES IDX 4 13 3 14 2 15 1 16
REMARK H PARENT
REMARK Flexibility Score: inf
ROOT
ATOM      1  C   UNL     1     128.400 121.684 120.742  1.00  0.00     0.000 C 
ENDROOT
BRANCH   1   2
ATOM      2  C   UNL     1     128.638 120.535 119.746  1.00  0.00     0.000 C 
BRANCH   2   3
ATOM      3  C   UNL     1     128.126 120.849 118.333  1.00  0.00     0.000 C 
BRANCH   3   4
ATOM      4  C   UNL     1     126.891 120.005 117.995  1.00  0.00     0.000 C 
BRANCH   4   5
ATOM      5  C   UNL     1     125.699 120.897 117.620  1.00  0.00     0.006 C 
BRANCH   5   6
ATOM      6  C   UNL     1     124.813 121.223 118.830  1.00  0.00     0.053 C 
BRANCH   6   7
ATOM      7  C   UNL     1     123.509 121.831 118.415  1.00  0.00     0.041 C 
ATOM      8  O   UNL     1     122.645 121.134 117.823  1.00  0.00    -0.550 OA
ATOM      9  O   UNL     1     123.262 123.177 118.654  1.00  0.00    -0.550 OA
ENDBRANCH   6   7
ENDBRANCH   5   6
ENDBRANCH   4   5
ENDBRANCH   3   4
ENDBRANCH   2   3
ENDBRANCH   1   2
BRANCH   1  10
ATOM     10  C   UNL     1     129.599 122.629 120.954  1.00  0.00     0.000 C 
BRANCH  10  11
ATOM     11  C   UNL     1     130.795 122.294 120.049  1.00  0.00    -0.000 C 
BRANCH  11  12
ATOM     12  C   UNL     1     132.105 122.116 120.836  1.00  0.00    -0.000 C 
BRANCH  12  13
ATOM     13  C   UNL     1     132.898 120.850 120.441  1.00  0.00    -0.000 C 
BRANCH  13  14
ATOM     14  C   UNL     1     132.087 119.565 120.678  1.00  0.00    -0.000 C 
BRANCH  14  15
ATOM     15  C   UNL     1     131.901 118.740 119.395  1.00  0.00    -0.003 C 
ATOM     16  C   UNL     1     132.265 119.526 118.134  1.00  0.00     0.004 C 
ENDBRANCH  14  15
ENDBRANCH  13  14
ENDBRANCH  12  13
ENDBRANCH  11  12
ENDBRANCH  10  11
ENDBRANCH   1  10
TORSDOF 12
ENDMDL
MODEL 6
REMARK VINA RESULT:    -3.648      3.874      7.453
REMARK INTER + INTRA:          -7.535
REMARK INTER:                  -6.533
REMARK INTRA:                  -1.002
REMARK UNBOUND:                -1.328
REMARK SMILES CCCCCCCCCCCCCC(=O)[O-]
REMARK SMILES IDX 8 1 9 2 10 3 11 4 12 5 13 6 14 7 15 8 16 9 7 10 6 11 5 12
REMARK SMILES IDX 4 13 3 14 2 15 1 16
REMARK H PARENT
REMARK Flexibility Score: inf
ROOT
ATOM      1  C   UNL     1     129.170 120.570 118.206  1.00  0.00     0.000 C 
ENDROOT
BRANCH   1   2
ATOM      2  C   UNL     1     128.349 120.723 119.500  1.00  0.00     0.000 C 
BRANCH   2   3
ATOM      3  C   UNL     1     126.839 120.839 119.244  1.00  0.00     0.000 C 
BRANCH   3   4
ATOM      4  C   UNL     1     126.537 120.861 117.741  1.00  0.00     0.000 C 
BRANCH   4   5
ATOM      5  C   UNL     1     125.030 120.716 117.480  1.00  0.00     0.006 C 
BRANCH   5   6
ATOM      6  C   UNL     1     124.402 122.018 116.964  1.00  0.00     0.053 C 
BRANCH   6   7
ATOM      7  C   UNL     1     123.130 122.343 117.686  1.00  0.00     0.041 C 
ATOM      8  O   UNL     1     122.945 123.496 118.155  1.00  0.00    -0.550 OA
ATOM      9  O   UNL     1     122.163 121.362 117.867  1.00  0.00    -0.550 OA
ENDBRANCH   6   7
ENDBRANCH   5   6
ENDBRANCH   4   5
ENDBRANCH   3   4
ENDBRANCH   2   3
ENDBRANCH   1   2
BRANCH   1  10
ATOM     10  C   UNL     1     129.880 119.213 118.035  1.00  0.00     0.000 C 
BRANCH  10  11
ATOM     11  C   UNL     1     131.378 119.354 117.722  1.00  0.00    -0.000 C 
BRANCH  11  12
ATOM     12  C   UNL     1     132.271 119.057 118.938  1.00  0.00    -0.000 C 
BRANCH  12  13
ATOM     13  C   UNL     1     132.888 120.321 119.577  1.00  0.00    -0.000 C 
BRANCH  13  14
ATOM     14  C   UNL     1     131.993 120.903 120.684  1.00  0.00    -0.000 C 
BRANCH  14  15
ATOM     15  C   UNL     1     132.197 122.414 120.873  1.00  0.00    -0.003 C 
ATOM     16  C   UNL     1     130.881 123.194 120.839  1.00  0.00     0.004 C 
ENDBRANCH  14  15
ENDBRANCH  13  14
ENDBRANCH  12  13
ENDBRANCH  11  12
ENDBRANCH  10  11
ENDBRANCH   1  10
TORSDOF 12
ENDMDL
MODEL 7
REMARK VINA RESULT:    -3.591      9.163     10.936
REMARK INTER + INTRA:          -7.437
REMARK INTER:                  -5.795
REMARK INTRA:                  -1.642
REMARK UNBOUND:                -1.328
REMARK SMILES CCCCCCCCCCCCCC(=O)[O-]
REMARK SMILES IDX 8 1 9 2 10 3 11 4 12 5 13 6 14 7 15 8 16 9 7 10 6 11 5 12
REMARK SMILES IDX 4 13 3 14 2 15 1 16
REMARK H PARENT
REMARK Flexibility Score: inf
ROOT
ATOM      1  C   UNL     1     123.026 128.458 126.667  1.00  0.00     0.000 C 
ENDROOT
BRANCH   1   2
ATOM      2  C   UNL     1     122.175 128.592 125.391  1.00  0.00     0.000 C 
BRANCH   2   3
ATOM      3  C   UNL     1     122.632 129.743 124.482  1.00  0.00     0.000 C 
BRANCH   3   4
ATOM      4  C   UNL     1     123.079 129.217 123.113  1.00  0.00     0.000 C 
BRANCH   4   5
ATOM      5  C   UNL     1     123.563 130.365 122.213  1.00  0.00     0.006 C 
BRANCH   5   6
ATOM      6  C   UNL     1     123.498 130.002 120.723  1.00  0.00     0.053 C 
BRANCH   6   7
ATOM      7  C   UNL     1     124.774 130.338 120.015  1.00  0.00     0.041 C 
ATOM      8  O   UNL     1     125.730 130.861 120.646  1.00  0.00    -0.550 OA
ATOM      9  O   UNL     1     124.896 130.101 118.652  1.00  0.00    -0.550 OA
ENDBRANCH   6   7
ENDBRANCH   5   6
ENDBRANCH   4   5
ENDBRANCH   3   4
ENDBRANCH   2   3
ENDBRANCH   1   2
BRANCH   1  10
ATOM     10  C   UNL     1     123.743 127.105 126.839  1.00  0.00     0.000 C 
BRANCH  10  11
ATOM     11  C   UNL     1     124.136 126.459 125.501  1.00  0.00    -0.000 C 
BRANCH  11  12
ATOM     12  C   UNL     1     125.572 126.805 125.072  1.00  0.00    -0.000 C 
BRANCH  12  13
ATOM     13  C   UNL     1     126.493 127.199 126.247  1.00  0.00    -0.000 C 
BRANCH  13  14
ATOM     14  C   UNL     1     127.107 128.596 126.055  1.00  0.00    -0.000 C 
BRANCH  14  15
ATOM     15  C   UNL     1     126.343 129.439 125.022  1.00  0.00    -0.003 C 
ATOM     16  C   UNL     1     127.256 129.998 123.930  1.00  0.00     0.004 C 
ENDBRANCH  14  15
ENDBRANCH  13  14
ENDBRANCH  12  13
ENDBRANCH  11  12
ENDBRANCH  10  11
ENDBRANCH   1  10
TORSDOF 12
ENDMDL
MODEL 8
REMARK VINA RESULT:    -3.581      9.343     11.124
REMARK INTER + INTRA:          -7.420
REMARK INTER:                  -5.253
REMARK INTRA:                  -2.167
REMARK UNBOUND:                -1.328
REMARK SMILES CCCCCCCCCCCCCC(=O)[O-]
REMARK SMILES IDX 8 1 9 2 10 3 11 4 12 5 13 6 14 7 15 8 16 9 7 10 6 11 5 12
REMARK SMILES IDX 4 13 3 14 2 15 1 16
REMARK H PARENT
REMARK Flexibility Score: inf
ROOT
ATOM      1  C   UNL     1     123.390 128.080 127.068  1.00  0.00     0.000 C 
ENDROOT
BRANCH   1   2
ATOM      2  C   UNL     1     123.362 127.333 125.722  1.00  0.00     0.000 C 
BRANCH   2   3
ATOM      3  C   UNL     1     124.675 127.461 124.936  1.00  0.00     0.000 C 
BRANCH   3   4
ATOM      4  C   UNL     1     125.390 128.776 125.271  1.00  0.00     0.000 C 
BRANCH   4   5
ATOM      5  C   UNL     1     126.915 128.587 125.279  1.00  0.00     0.006 C 
BRANCH   5   6
ATOM      6  C   UNL     1     127.642 129.763 125.945  1.00  0.00     0.053 C 
BRANCH   6   7
ATOM      7  C   UNL     1     128.697 130.340 125.053  1.00  0.00     0.041 C 
ATOM      8  O   UNL     1     128.497 130.434 123.813  1.00  0.00    -0.550 OA
ATOM      9  O   UNL     1     129.914 130.744 125.586  1.00  0.00    -0.550 OA
ENDBRANCH   6   7
ENDBRANCH   5   6
ENDBRANCH   4   5
ENDBRANCH   3   4
ENDBRANCH   2   3
ENDBRANCH   1   2
BRANCH   1  10
ATOM     10  C   UNL     1     123.264 127.188 128.318  1.00  0.00     0.000 C 
BRANCH  10  11
ATOM     11  C   UNL     1     124.174 127.638 129.471  1.00  0.00    -0.000 C 
BRANCH  11  12
ATOM     12  C   UNL     1     125.312 128.563 129.006  1.00  0.00    -0.000 C 
BRANCH  12  13
ATOM     13  C   UNL     1     126.696 127.880 128.982  1.00  0.00    -0.000 C 
BRANCH  13  14
ATOM     14  C   UNL     1     126.582 126.346 128.942  1.00  0.00    -0.000 C 
BRANCH  14  15
ATOM     15  C   UNL     1     126.812 125.775 127.534  1.00  0.00    -0.003 C 
ATOM     16  C   UNL     1     125.793 124.697 127.163  1.00  0.00     0.004 C 
ENDBRANCH  14  15
ENDBRANCH  13  14
ENDBRANCH  12  13
ENDBRANCH  11  12
ENDBRANCH  10  11
ENDBRANCH   1  10
TORSDOF 12
ENDMDL
MODEL 9
REMARK VINA RESULT:    -3.513      9.368     11.549
REMARK INTER + INTRA:          -7.305
REMARK INTER:                  -5.370
REMARK INTRA:                  -1.934
REMARK UNBOUND:                -1.328
REMARK SMILES CCCCCCCCCCCCCC(=O)[O-]
REMARK SMILES IDX 8 1 9 2 10 3 11 4 12 5 13 6 14 7 15 8 16 9 7 10 6 11 5 12
REMARK SMILES IDX 4 13 3 14 2 15 1 16
REMARK H PARENT
REMARK Flexibility Score: inf
ROOT
ATOM      1  C   UNL     1     123.427 127.117 126.182  1.00  0.00     0.000 C 
ENDROOT
BRANCH   1   2
ATOM      2  C   UNL     1     122.738 128.458 126.493  1.00  0.00     0.000 C 
BRANCH   2   3
ATOM      3  C   UNL     1     123.668 129.466 127.186  1.00  0.00     0.000 C 
BRANCH   3   4
ATOM      4  C   UNL     1     123.779 130.760 126.372  1.00  0.00     0.000 C 
BRANCH   4   5
ATOM      5  C   UNL     1     122.583 130.917 125.420  1.00  0.00     0.006 C 
BRANCH   5   6
ATOM      6  C   UNL     1     123.000 131.473 124.051  1.00  0.00     0.053 C 
BRANCH   6   7
ATOM      7  C   UNL     1     123.690 130.436 123.219  1.00  0.00     0.041 C 
ATOM      8  O   UNL     1     124.931 130.504 123.023  1.00  0.00    -0.550 OA
ATOM      9  O   UNL     1     122.955 129.413 122.634  1.00  0.00    -0.550 OA
ENDBRANCH   6   7
ENDBRANCH   5   6
ENDBRANCH   4   5
ENDBRANCH   3   4
ENDBRANCH   2   3
ENDBRANCH   1   2
BRANCH   1  10
ATOM     10  C   UNL     1     124.251 127.087 124.880  1.00  0.00     0.000 C 
BRANCH  10  11
ATOM     11  C   UNL     1     125.747 126.831 125.121  1.00  0.00    -0.000 C 
BRANCH  11  12
ATOM     12  C   UNL     1     126.541 128.126 125.366  1.00  0.00    -0.000 C 
BRANCH  12  13
ATOM     13  C   UNL     1     127.206 128.191 126.758  1.00  0.00    -0.000 C 
BRANCH  13  14
ATOM     14  C   UNL     1     127.315 126.803 127.411  1.00  0.00    -0.000 C 
BRANCH  14  15
ATOM     15  C   UNL     1     126.583 126.726 128.760  1.00  0.00    -0.003 C 
ATOM     16  C   UNL     1     125.540 125.608 128.800  1.00  0.00     0.004 C 
ENDBRANCH  14  15
ENDBRANCH  13  14
ENDBRANCH  12  13
ENDBRANCH  11  12
ENDBRANCH  10  11
ENDBRANCH   1  10
TORSDOF 12
ENDMDL
