MODEL 1
REMARK VINA RESULT:    -3.703      0.000      0.000
REMARK INTER + INTRA:          -5.463
REMARK INTER:                  -5.001
REMARK INTRA:                  -0.462
REMARK UNBOUND:                -0.462
REMARK SMILES CCCCCCCC(=O)[O-]
REMARK SMILES IDX 5 1 6 2 7 3 8 4 9 5 10 6 4 7 3 8 2 9 1 10
REMARK H PARENT
REMARK Flexibility Score: inf
ROOT
ATOM      1  C   UNL     1      13.111  43.061  17.945  1.00  0.00     0.000 C 
ENDROOT
BRANCH   1   2
ATOM      2  C   UNL     1      12.404  42.158  18.966  1.00  0.00     0.006 C 
BRANCH   2   3
ATOM      3  C   UNL     1      13.224  40.905  19.300  1.00  0.00     0.053 C 
BRANCH   3   4
ATOM      4  C   UNL     1      13.008  40.462  20.715  1.00  0.00     0.041 C 
ATOM      5  O   UNL     1      12.013  39.752  21.013  1.00  0.00    -0.550 OA
ATOM      6  O   UNL     1      13.928  40.806  21.698  1.00  0.00    -0.550 OA
ENDBRANCH   3   4
ENDBRANCH   2   3
ENDBRANCH   1   2
BRANCH   1   7
ATOM      7  C   UNL     1      13.382  44.452  18.536  1.00  0.00     0.000 C 
BRANCH   7   8
ATOM      8  C   UNL     1      14.857  44.868  18.422  1.00  0.00    -0.000 C 
BRANCH   8   9
ATOM      9  C   UNL     1      15.806  43.875  19.109  1.00  0.00    -0.003 C 
ATOM     10  C   UNL     1      15.487  43.748  20.596  1.00  0.00     0.004 C 
ENDBRANCH   8   9
ENDBRANCH   7   8
ENDBRANCH   1   7
TORSDOF 6
ENDMDL
MODEL 2
REMARK VINA RESULT:    -3.402      1.929      3.969
REMARK INTER + INTRA:          -5.057
REMARK INTER:                  -4.535
REMARK INTRA:                  -0.522
REMARK UNBOUND:                -0.462
REMARK SMILES CCCCCCCC(=O)[O-]
REMARK SMILES IDX 5 1 6 2 7 3 8 4 9 5 10 6 4 7 3 8 2 9 1 10
REMARK H PARENT
REMARK Flexibility Score: inf
ROOT
ATOM      1  C   UNL     1      12.311  43.173  18.041  1.00  0.00     0.000 C 
ENDROOT
BRANCH   1   2
ATOM      2  C   UNL     1      13.110  44.285  18.736  1.00  0.00     0.006 C 
BRANCH   2   3
ATOM      3  C   UNL     1      14.585  44.292  18.313  1.00  0.00     0.053 C 
BRANCH   3   4
ATOM      4  C   UNL     1      15.493  43.974  19.461  1.00  0.00     0.041 C 
ATOM      5  O   UNL     1      16.741  44.067  19.328  1.00  0.00    -0.550 OA
ATOM      6  O   UNL     1      14.957  43.607  20.690  1.00  0.00    -0.550 OA
ENDBRANCH   3   4
ENDBRANCH   2   3
ENDBRANCH   1   2
BRANCH   1   7
ATOM      7  C   UNL     1      12.013  42.022  19.014  1.00  0.00     0.000 C 
BRANCH   7   8
ATOM      8  C   UNL     1      13.125  40.962  19.035  1.00  0.00    -0.000 C 
BRANCH   8   9
ATOM      9  C   UNL     1      13.471  40.494  20.456  1.00  0.00    -0.003 C 
ATOM     10  C   UNL     1      12.392  40.915  21.450  1.00  0.00     0.004 C 
ENDBRANCH   8   9
ENDBRANCH   7   8
ENDBRANCH   1   7
TORSDOF 6
ENDMDL
MODEL 3
REMARK VINA RESULT:    -2.457      1.575      2.382
REMARK INTER + INTRA:          -3.781
REMARK INTER:                  -3.365
REMARK INTRA:                  -0.416
REMARK UNBOUND:                -0.462
REMARK SMILES CCCCCCCC(=O)[O-]
REMARK SMILES IDX 5 1 6 2 7 3 8 4 9 5 10 6 4 7 3 8 2 9 1 10
REMARK H PARENT
REMARK Flexibility Score: inf
ROOT
ATOM      1  C   UNL     1      12.786  41.079  18.638  1.00  0.00     0.000 C 
ENDROOT
BRANCH   1   2
ATOM      2  C   UNL     1      12.342  40.427  19.955  1.00  0.00     0.006 C 
BRANCH   2   3
ATOM      3  C   UNL     1      12.469  41.382  21.148  1.00  0.00     0.053 C 
BRANCH   3   4
ATOM      4  C   UNL     1      13.900  41.602  21.534  1.00  0.00     0.041 C 
ATOM      5  O   UNL     1      14.517  42.622  21.131  1.00  0.00    -0.550 OA
ATOM      6  O   UNL     1      14.543  40.694  22.367  1.00  0.00    -0.550 OA
ENDBRANCH   3   4
ENDBRANCH   2   3
ENDBRANCH   1   2
BRANCH   1   7
ATOM      7  C   UNL     1      11.878  42.265  18.279  1.00  0.00     0.000 C 
BRANCH   7   8
ATOM      8  C   UNL     1      12.620  43.610  18.307  1.00  0.00    -0.000 C 
BRANCH   8   9
ATOM      9  C   UNL     1      14.092  43.482  17.886  1.00  0.00    -0.003 C 
ATOM     10  C   UNL     1      14.847  44.786  18.126  1.00  0.00     0.004 C 
ENDBRANCH   8   9
ENDBRANCH   7   8
ENDBRANCH   1   7
TORSDOF 6
ENDMDL
MODEL 4
REMARK VINA RESULT:    -2.070     15.016     16.371
REMARK INTER + INTRA:          -3.258
REMARK INTER:                  -3.044
REMARK INTRA:                  -0.214
REMARK UNBOUND:                -0.462
REMARK SMILES CCCCCCCC(=O)[O-]
REMARK SMILES IDX 5 1 6 2 7 3 8 4 9 5 10 6 4 7 3 8 2 9 1 10
REMARK H PARENT
REMARK Flexibility Score: inf
ROOT
ATOM      1  C   UNL     1      28.429  37.561  19.013  1.00  0.00     0.000 C 
ENDROOT
BRANCH   1   2
ATOM      2  C   UNL     1      29.858  37.445  18.461  1.00  0.00     0.006 C 
BRANCH   2   3
ATOM      3  C   UNL     1      30.511  36.102  18.815  1.00  0.00     0.053 C 
BRANCH   3   4
ATOM      4  C   UNL     1      30.862  36.023  20.269  1.00  0.00     0.041 C 
ATOM      5  O   UNL     1      31.764  36.760  20.745  1.00  0.00    -0.550 OA
ATOM      6  O   UNL     1      30.168  35.156  21.105  1.00  0.00    -0.550 OA
ENDBRANCH   3   4
ENDBRANCH   2   3
ENDBRANCH   1   2
BRANCH   1   7
ATOM      7  C   UNL     1      27.398  37.530  17.875  1.00  0.00     0.000 C 
BRANCH   7   8
ATOM      8  C   UNL     1      26.427  36.344  17.988  1.00  0.00    -0.000 C 
BRANCH   8   9
ATOM      9  C   UNL     1      24.956  36.770  17.876  1.00  0.00    -0.003 C 
ATOM     10  C   UNL     1      24.023  35.644  18.313  1.00  0.00     0.004 C 
ENDBRANCH   8   9
ENDBRANCH   7   8
ENDBRANCH   1   7
TORSDOF 6
ENDMDL
MODEL 5
REMARK VINA RESULT:    -2.014      1.397      2.345
REMARK INTER + INTRA:          -3.182
REMARK INTER:                  -2.836
REMARK INTRA:                  -0.346
REMARK UNBOUND:                -0.462
REMARK SMILES CCCCCCCC(=O)[O-]
REMARK SMILES IDX 5 1 6 2 7 3 8 4 9 5 10 6 4 7 3 8 2 9 1 10
REMARK H PARENT
REMARK Flexibility Score: inf
ROOT
ATOM      1  C   UNL     1      14.998  43.238  21.270  1.00  0.00     0.000 C 
ENDROOT
BRANCH   1   2
ATOM      2  C   UNL     1      13.900  42.408  20.589  1.00  0.00     0.006 C 
BRANCH   2   3
ATOM      3  C   UNL     1      13.897  40.949  21.063  1.00  0.00     0.053 C 
BRANCH   3   4
ATOM      4  C   UNL     1      12.507  40.454  21.324  1.00  0.00     0.041 C 
ATOM      5  O   UNL     1      11.918  39.737  20.473  1.00  0.00    -0.550 OA
ATOM      6  O   UNL     1      11.875  40.757  22.524  1.00  0.00    -0.550 OA
ENDBRANCH   3   4
ENDBRANCH   2   3
ENDBRANCH   1   2
BRANCH   1   7
ATOM      7  C   UNL     1      15.659  44.199  20.271  1.00  0.00     0.000 C 
BRANCH   7   8
ATOM      8  C   UNL     1      15.454  43.767  18.810  1.00  0.00    -0.000 C 
BRANCH   8   9
ATOM      9  C   UNL     1      14.933  44.908  17.923  1.00  0.00    -0.003 C 
ATOM     10  C   UNL     1      13.409  44.975  17.953  1.00  0.00     0.004 C 
ENDBRANCH   8   9
ENDBRANCH   7   8
ENDBRANCH   1   7
TORSDOF 6
ENDMDL
MODEL 6
REMARK VINA RESULT:    -1.810      1.940      2.787
REMARK INTER + INTRA:          -2.907
REMARK INTER:                  -2.800
REMARK INTRA:                  -0.107
REMARK UNBOUND:                -0.462
REMARK SMILES CCCCCCCC(=O)[O-]
REMARK SMILES IDX 5 1 6 2 7 3 8 4 9 5 10 6 4 7 3 8 2 9 1 10
REMARK H PARENT
REMARK Flexibility Score: inf
ROOT
ATOM      1  C   UNL     1      14.343  41.253  21.639  1.00  0.00     0.000 C 
ENDROOT
BRANCH   1   2
ATOM      2  C   UNL     1      13.181  40.587  22.390  1.00  0.00     0.006 C 
BRANCH   2   3
ATOM      3  C   UNL     1      11.885  40.581  21.568  1.00  0.00     0.053 C 
BRANCH   3   4
ATOM      4  C   UNL     1      11.875  39.477  20.556  1.00  0.00     0.041 C 
ATOM      5  O   UNL     1      11.893  39.742  19.326  1.00  0.00    -0.550 OA
ATOM      6  O   UNL     1      11.881  38.151  20.974  1.00  0.00    -0.550 OA
ENDBRANCH   3   4
ENDBRANCH   2   3
ENDBRANCH   1   2
BRANCH   1   7
ATOM      7  C   UNL     1      13.823  42.298  20.640  1.00  0.00     0.000 C 
BRANCH   7   8
ATOM      8  C   UNL     1      14.801  43.468  20.444  1.00  0.00    -0.000 C 
BRANCH   8   9
ATOM      9  C   UNL     1      15.273  43.608  18.990  1.00  0.00    -0.003 C 
ATOM     10  C   UNL     1      16.114  44.868  18.804  1.00  0.00     0.004 C 
ENDBRANCH   8   9
ENDBRANCH   7   8
ENDBRANCH   1   7
TORSDOF 6
ENDMDL
MODEL 7
REMARK VINA RESULT:    -1.650      2.974      4.838
REMARK INTER + INTRA:          -2.691
REMARK INTER:                  -2.444
REMARK INTRA:                  -0.246
REMARK UNBOUND:                -0.462
REMARK SMILES CCCCCCCC(=O)[O-]
REMARK SMILES IDX 5 1 6 2 7 3 8 4 9 5 10 6 4 7 3 8 2 9 1 10
REMARK H PARENT
REMARK Flexibility Score: inf
ROOT
ATOM      1  C   UNL     1      14.397  41.857  21.629  1.00  0.00     0.000 C 
ENDROOT
BRANCH   1   2
ATOM      2  C   UNL     1      14.811  42.409  20.258  1.00  0.00     0.006 C 
BRANCH   2   3
ATOM      3  C   UNL     1      14.543  43.914  20.132  1.00  0.00     0.053 C 
BRANCH   3   4
ATOM      4  C   UNL     1      15.380  44.539  19.058  1.00  0.00     0.041 C 
ATOM      5  O   UNL     1      14.864  45.339  18.235  1.00  0.00    -0.550 OA
ATOM      6  O   UNL     1      16.741  44.263  18.989  1.00  0.00    -0.550 OA
ENDBRANCH   3   4
ENDBRANCH   2   3
ENDBRANCH   1   2
BRANCH   1   7
ATOM      7  C   UNL     1      13.042  41.137  21.544  1.00  0.00     0.000 C 
BRANCH   7   8
ATOM      8  C   UNL     1      12.982  40.124  20.391  1.00  0.00    -0.000 C 
BRANCH   8   9
ATOM      9  C   UNL     1      11.875  40.447  19.376  1.00  0.00    -0.003 C 
ATOM     10  C   UNL     1      12.440  41.181  18.163  1.00  0.00     0.004 C 
ENDBRANCH   8   9
ENDBRANCH   7   8
ENDBRANCH   1   7
TORSDOF 6
ENDMDL
MODEL 8
REMARK VINA RESULT:    -1.513     14.315     15.391
REMARK INTER + INTRA:          -2.506
REMARK INTER:                  -2.316
REMARK INTRA:                  -0.190
REMARK UNBOUND:                -0.462
REMARK SMILES CCCCCCCC(=O)[O-]
REMARK SMILES IDX 5 1 6 2 7 3 8 4 9 5 10 6 4 7 3 8 2 9 1 10
REMARK H PARENT
REMARK Flexibility Score: inf
ROOT
ATOM      1  C   UNL     1      27.984  37.071  18.683  1.00  0.00     0.000 C 
ENDROOT
BRANCH   1   2
ATOM      2  C   UNL     1      26.673  37.091  17.884  1.00  0.00     0.006 C 
BRANCH   2   3
ATOM      3  C   UNL     1      25.951  35.737  17.916  1.00  0.00     0.053 C 
BRANCH   3   4
ATOM      4  C   UNL     1      24.520  35.881  18.332  1.00  0.00     0.041 C 
ATOM      5  O   UNL     1      23.644  35.101  17.875  1.00  0.00    -0.550 OA
ATOM      6  O   UNL     1      24.159  36.858  19.253  1.00  0.00    -0.550 OA
ENDBRANCH   3   4
ENDBRANCH   2   3
ENDBRANCH   1   2
BRANCH   1   7
ATOM      7  C   UNL     1      29.084  36.323  17.914  1.00  0.00     0.000 C 
BRANCH   7   8
ATOM      8  C   UNL     1      30.487  36.886  18.191  1.00  0.00    -0.000 C 
BRANCH   8   9
ATOM      9  C   UNL     1      31.335  35.955  19.070  1.00  0.00    -0.003 C 
ATOM     10  C   UNL     1      31.672  36.614  20.404  1.00  0.00     0.004 C 
ENDBRANCH   8   9
ENDBRANCH   7   8
ENDBRANCH   1   7
TORSDOF 6
ENDMDL
