MODEL 1
REMARK VINA RESULT:    -7.058      0.000      0.000
REMARK INTER + INTRA:         -11.259
REMARK INTER:                  -9.947
REMARK INTRA:                  -1.312
REMARK UNBOUND:                -1.312
REMARK SMILES COc1c(O[C@@H]2O[C@H](C(=O)[O-])[C@H](O)[C@@H](O)[C@@H]2O)cc(O)c2c(=O)cc(-c3ccccc3)oc12
REMARK SMILES IDX 5 1 6 2 8 3 12 4 7 5 14 6 16 7 9 8 10 9 11 10 13 11 15 13
REMARK SMILES IDX 17 15 4 17 3 18 18 19 33 20 19 21 21 22 32 23 22 24 25 25
REMARK SMILES IDX 24 26 23 27 2 28 1 29 20 30 26 32 27 33 31 34 28 35 30 36
REMARK SMILES IDX 29 37
REMARK H PARENT 13 12 15 14 17 16 20 31
REMARK Flexibility Score: inf
ROOT
ATOM      1  O   UNL     1      -2.290  49.263  83.452  1.00  0.00    -0.458 OA
ENDROOT
BRANCH   1   2
ATOM      2  C   UNL     1      -3.598  49.757  83.765  1.00  0.00     0.339 C 
ATOM      3  C   UNL     1      -2.815  51.808  84.696  1.00  0.00     0.199 C 
ATOM      4  C   UNL     1      -3.224  51.387  86.133  1.00  0.00     0.180 C 
ATOM      5  O   UNL     1      -3.614  51.178  83.699  1.00  0.00    -0.328 OA
ATOM      6  C   UNL     1      -3.250  49.858  86.274  1.00  0.00     0.181 C 
ATOM      7  C   UNL     1      -4.099  49.254  85.139  1.00  0.00     0.214 C 
BRANCH   3   8
ATOM      8  C   UNL     1      -1.340  51.705  84.376  1.00  0.00     0.073 C 
ATOM      9  O   UNL     1      -0.871  52.125  83.284  1.00  0.00    -0.547 OA
ATOM     10  O   UNL     1      -0.479  51.151  85.315  1.00  0.00    -0.547 OA
ENDBRANCH   3   8
BRANCH   4  11
ATOM     11  O   UNL     1      -2.356  51.939  87.091  1.00  0.00    -0.387 OA
ATOM     12  H   UNL     1      -1.433  51.794  86.757  1.00  0.00     0.211 HD
ENDBRANCH   4  11
BRANCH   6  13
ATOM     13  O   UNL     1      -3.749  49.478  87.533  1.00  0.00    -0.387 OA
ATOM     14  H   UNL     1      -4.489  48.833  87.385  1.00  0.00     0.211 HD
ENDBRANCH   6  13
BRANCH   7  15
ATOM     15  O   UNL     1      -4.125  47.850  85.202  1.00  0.00    -0.384 OA
ATOM     16  H   UNL     1      -4.679  47.585  85.982  1.00  0.00     0.211 HD
ENDBRANCH   7  15
ENDBRANCH   1   2
BRANCH   1  17
ATOM     17  C   UNL     1      -1.928  48.413  82.390  1.00  0.00     0.172 A 
ATOM     18  C   UNL     1      -1.143  47.295  82.698  1.00  0.00     0.205 A 
ATOM     19  C   UNL     1      -2.312  48.654  81.063  1.00  0.00     0.097 A 
ATOM     20  C   UNL     1      -0.765  46.396  81.669  1.00  0.00     0.188 A 
ATOM     21  C   UNL     1      -1.920  47.803  80.029  1.00  0.00     0.134 A 
ATOM     22  C   UNL     1      -1.176  46.628  80.326  1.00  0.00     0.111 A 
ATOM     23  O   UNL     1      -0.019  45.332  81.959  1.00  0.00    -0.452 OA
ATOM     24  C   UNL     1      -0.841  45.643  79.367  1.00  0.00     0.197 A 
ATOM     25  C   UNL     1       0.371  44.432  81.063  1.00  0.00     0.138 A 
ATOM     26  C   UNL     1      -0.048  44.558  79.736  1.00  0.00     0.100 A 
ATOM     27  O   UNL     1      -1.265  45.691  78.184  1.00  0.00    -0.289 OA
BRANCH  18  28
ATOM     28  O   UNL     1      -0.778  47.139  84.048  1.00  0.00    -0.490 OA
ATOM     29  C   UNL     1       0.473  47.475  84.634  1.00  0.00     0.278 C 
ENDBRANCH  18  28
BRANCH  21  30
ATOM     30  O   UNL     1      -2.274  48.195  78.734  1.00  0.00    -0.507 OA
ATOM     31  H   UNL     1      -2.811  47.633  78.091  1.00  0.00     0.293 HD
ENDBRANCH  21  30
BRANCH  25  32
ATOM     32  C   UNL     1       1.228  43.302  81.498  1.00  0.00     0.017 A 
ATOM     33  C   UNL     1       1.130  42.032  80.896  1.00  0.00     0.012 A 
ATOM     34  C   UNL     1       2.182  43.500  82.513  1.00  0.00     0.012 A 
ATOM     35  C   UNL     1       1.957  40.985  81.312  1.00  0.00     0.001 A 
ATOM     36  C   UNL     1       3.006  42.449  82.926  1.00  0.00     0.001 A 
ATOM     37  C   UNL     1       2.893  41.192  82.327  1.00  0.00     0.000 A 
ENDBRANCH  25  32
ENDBRANCH   1  17
TORSDOF 9
ENDMDL
MODEL 2
REMARK VINA RESULT:    -6.916      3.866      8.773
REMARK INTER + INTRA:         -11.059
REMARK INTER:                  -9.968
REMARK INTRA:                  -1.090
REMARK UNBOUND:                -1.312
REMARK SMILES COc1c(O[C@@H]2O[C@H](C(=O)[O-])[C@H](O)[C@@H](O)[C@@H]2O)cc(O)c2c(=O)cc(-c3ccccc3)oc12
REMARK SMILES IDX 5 1 6 2 8 3 12 4 7 5 14 6 16 7 9 8 10 9 11 10 13 11 15 13
REMARK SMILES IDX 17 15 4 17 3 18 18 19 33 20 19 21 21 22 32 23 22 24 25 25
REMARK SMILES IDX 24 26 23 27 2 28 1 29 20 30 26 32 27 33 31 34 28 35 30 36
REMARK SMILES IDX 29 37
REMARK H PARENT 13 12 15 14 17 16 20 31
REMARK Flexibility Score: inf
ROOT
ATOM      1  O   UNL     1       3.007  42.560  84.209  1.00  0.00    -0.458 OA
ENDROOT
BRANCH   1   2
ATOM      2  C   UNL     1       4.370  42.287  83.860  1.00  0.00     0.339 C 
ATOM      3  C   UNL     1       4.308  40.017  84.589  1.00  0.00     0.199 C 
ATOM      4  C   UNL     1       5.245  40.310  85.792  1.00  0.00     0.180 C 
ATOM      5  O   UNL     1       4.521  40.917  83.506  1.00  0.00    -0.328 OA
ATOM      6  C   UNL     1       5.151  41.783  86.218  1.00  0.00     0.181 C 
ATOM      7  C   UNL     1       5.352  42.686  84.986  1.00  0.00     0.214 C 
BRANCH   3   8
ATOM      8  C   UNL     1       2.838  39.878  84.919  1.00  0.00     0.073 C 
ATOM      9  O   UNL     1       2.000  39.512  84.052  1.00  0.00    -0.547 OA
ATOM     10  O   UNL     1       2.405  40.145  86.211  1.00  0.00    -0.547 OA
ENDBRANCH   3   8
BRANCH   4  11
ATOM     11  O   UNL     1       4.944  39.478  86.884  1.00  0.00    -0.387 OA
ATOM     12  H   UNL     1       4.028  39.717  87.182  1.00  0.00     0.211 HD
ENDBRANCH   4  11
BRANCH   6  13
ATOM     13  O   UNL     1       6.096  42.077  87.218  1.00  0.00    -0.387 OA
ATOM     14  H   UNL     1       6.986  42.146  86.784  1.00  0.00     0.211 HD
ENDBRANCH   6  13
BRANCH   7  15
ATOM     15  O   UNL     1       5.239  44.048  85.318  1.00  0.00    -0.384 OA
ATOM     16  H   UNL     1       4.279  44.255  85.454  1.00  0.00     0.211 HD
ENDBRANCH   7  15
ENDBRANCH   1   2
BRANCH   1  17
ATOM     17  C   UNL     1       2.220  43.649  83.793  1.00  0.00     0.172 A 
ATOM     18  C   UNL     1       1.641  43.578  82.520  1.00  0.00     0.205 A 
ATOM     19  C   UNL     1       2.012  44.783  84.592  1.00  0.00     0.097 A 
ATOM     20  C   UNL     1       0.824  44.640  82.057  1.00  0.00     0.188 A 
ATOM     21  C   UNL     1       1.242  45.856  84.142  1.00  0.00     0.134 A 
ATOM     22  C   UNL     1       0.593  45.778  82.879  1.00  0.00     0.111 A 
ATOM     23  O   UNL     1       0.273  44.573  80.847  1.00  0.00    -0.452 OA
ATOM     24  C   UNL     1      -0.306  46.757  82.392  1.00  0.00     0.197 A 
ATOM     25  C   UNL     1      -0.516  45.514  80.337  1.00  0.00     0.138 A 
ATOM     26  C   UNL     1      -0.840  46.631  81.111  1.00  0.00     0.100 A 
ATOM     27  O   UNL     1      -0.674  47.734  83.093  1.00  0.00    -0.289 OA
BRANCH  18  28
ATOM     28  O   UNL     1       1.920  42.420  81.770  1.00  0.00    -0.490 OA
ATOM     29  C   UNL     1       0.992  41.414  81.382  1.00  0.00     0.278 C 
ENDBRANCH  18  28
BRANCH  21  30
ATOM     30  O   UNL     1       1.186  46.974  84.980  1.00  0.00    -0.507 OA
ATOM     31  H   UNL     1       1.973  47.349  85.488  1.00  0.00     0.293 HD
ENDBRANCH  21  30
BRANCH  25  32
ATOM     32  C   UNL     1      -1.048  45.345  78.963  1.00  0.00     0.017 A 
ATOM     33  C   UNL     1      -1.706  44.162  78.572  1.00  0.00     0.012 A 
ATOM     34  C   UNL     1      -0.923  46.391  78.031  1.00  0.00     0.012 A 
ATOM     35  C   UNL     1      -2.213  44.028  77.276  1.00  0.00     0.001 A 
ATOM     36  C   UNL     1      -1.431  46.252  76.736  1.00  0.00     0.001 A 
ATOM     37  C   UNL     1      -2.075  45.071  76.359  1.00  0.00     0.000 A 
ENDBRANCH  25  32
ENDBRANCH   1  17
TORSDOF 9
ENDMDL
MODEL 3
REMARK VINA RESULT:    -6.480      4.362      9.307
REMARK INTER + INTRA:         -10.444
REMARK INTER:                  -9.123
REMARK INTRA:                  -1.321
REMARK UNBOUND:                -1.312
REMARK SMILES COc1c(O[C@@H]2O[C@H](C(=O)[O-])[C@H](O)[C@@H](O)[C@@H]2O)cc(O)c2c(=O)cc(-c3ccccc3)oc12
REMARK SMILES IDX 5 1 6 2 8 3 12 4 7 5 14 6 16 7 9 8 10 9 11 10 13 11 15 13
REMARK SMILES IDX 17 15 4 17 3 18 18 19 33 20 19 21 21 22 32 23 22 24 25 25
REMARK SMILES IDX 24 26 23 27 2 28 1 29 20 30 26 32 27 33 31 34 28 35 30 36
REMARK SMILES IDX 29 37
REMARK H PARENT 13 12 15 14 17 16 20 31
REMARK Flexibility Score: inf
ROOT
ATOM      1  O   UNL     1       3.366  41.598  84.486  1.00  0.00    -0.458 OA
ENDROOT
BRANCH   1   2
ATOM      2  C   UNL     1       4.752  41.267  84.340  1.00  0.00     0.339 C 
ATOM      3  C   UNL     1       4.621  39.286  85.661  1.00  0.00     0.199 C 
ATOM      4  C   UNL     1       5.453  39.918  86.809  1.00  0.00     0.180 C 
ATOM      5  O   UNL     1       4.928  39.856  84.392  1.00  0.00    -0.328 OA
ATOM      6  C   UNL     1       5.328  41.449  86.802  1.00  0.00     0.181 C 
ATOM      7  C   UNL     1       5.636  41.981  85.389  1.00  0.00     0.214 C 
BRANCH   3   8
ATOM      8  C   UNL     1       3.128  39.214  85.894  1.00  0.00     0.073 C 
ATOM      9  O   UNL     1       2.601  39.677  86.941  1.00  0.00    -0.547 OA
ATOM     10  O   UNL     1       2.317  38.639  84.925  1.00  0.00    -0.547 OA
ENDBRANCH   3   8
BRANCH   4  11
ATOM     11  O   UNL     1       5.058  39.414  88.060  1.00  0.00    -0.387 OA
ATOM     12  H   UNL     1       5.666  39.814  88.735  1.00  0.00     0.211 HD
ENDBRANCH   4  11
BRANCH   6  13
ATOM     13  O   UNL     1       6.186  42.027  87.755  1.00  0.00    -0.387 OA
ATOM     14  H   UNL     1       5.671  42.717  88.250  1.00  0.00     0.211 HD
ENDBRANCH   6  13
BRANCH   7  15
ATOM     15  O   UNL     1       5.501  43.379  85.320  1.00  0.00    -0.384 OA
ATOM     16  H   UNL     1       4.551  43.607  85.496  1.00  0.00     0.211 HD
ENDBRANCH   7  15
ENDBRANCH   1   2
BRANCH   1  17
ATOM     17  C   UNL     1       2.572  42.360  83.608  1.00  0.00     0.172 A 
ATOM     18  C   UNL     1       2.223  43.654  84.014  1.00  0.00     0.205 A 
ATOM     19  C   UNL     1       2.121  41.869  82.375  1.00  0.00     0.097 A 
ATOM     20  C   UNL     1       1.440  44.471  83.161  1.00  0.00     0.188 A 
ATOM     21  C   UNL     1       1.318  42.642  81.536  1.00  0.00     0.134 A 
ATOM     22  C   UNL     1       1.004  43.981  81.898  1.00  0.00     0.111 A 
ATOM     23  O   UNL     1       1.108  45.702  83.545  1.00  0.00    -0.452 OA
ATOM     24  C   UNL     1       0.303  44.882  81.060  1.00  0.00     0.197 A 
ATOM     25  C   UNL     1       0.388  46.542  82.806  1.00  0.00     0.138 A 
ATOM     26  C   UNL     1      -0.021  46.153  81.528  1.00  0.00     0.100 A 
ATOM     27  O   UNL     1      -0.012  44.587  79.879  1.00  0.00    -0.289 OA
BRANCH  18  28
ATOM     28  O   UNL     1       2.693  44.062  85.276  1.00  0.00    -0.490 OA
ATOM     29  C   UNL     1       2.348  43.498  86.535  1.00  0.00     0.278 C 
ENDBRANCH  18  28
BRANCH  21  30
ATOM     30  O   UNL     1       0.843  42.016  80.379  1.00  0.00    -0.507 OA
ATOM     31  H   UNL     1       1.207  41.153  80.004  1.00  0.00     0.293 HD
ENDBRANCH  21  30
BRANCH  25  32
ATOM     32  C   UNL     1       0.053  47.879  83.353  1.00  0.00     0.017 A 
ATOM     33  C   UNL     1      -0.648  48.830  82.584  1.00  0.00     0.012 A 
ATOM     34  C   UNL     1       0.412  48.206  84.673  1.00  0.00     0.012 A 
ATOM     35  C   UNL     1      -0.967  50.081  83.123  1.00  0.00     0.001 A 
ATOM     36  C   UNL     1       0.092  49.458  85.206  1.00  0.00     0.001 A 
ATOM     37  C   UNL     1      -0.596  50.395  84.432  1.00  0.00     0.000 A 
ENDBRANCH  25  32
ENDBRANCH   1  17
TORSDOF 9
ENDMDL
MODEL 4
REMARK VINA RESULT:    -6.347      3.806      8.588
REMARK INTER + INTRA:         -10.256
REMARK INTER:                  -8.931
REMARK INTRA:                  -1.325
REMARK UNBOUND:                -1.312
REMARK SMILES COc1c(O[C@@H]2O[C@H](C(=O)[O-])[C@H](O)[C@@H](O)[C@@H]2O)cc(O)c2c(=O)cc(-c3ccccc3)oc12
REMARK SMILES IDX 5 1 6 2 8 3 12 4 7 5 14 6 16 7 9 8 10 9 11 10 13 11 15 13
REMARK SMILES IDX 17 15 4 17 3 18 18 19 33 20 19 21 21 22 32 23 22 24 25 25
REMARK SMILES IDX 24 26 23 27 2 28 1 29 20 30 26 32 27 33 31 34 28 35 30 36
REMARK SMILES IDX 29 37
REMARK H PARENT 13 12 15 14 17 16 20 31
REMARK Flexibility Score: inf
ROOT
ATOM      1  O   UNL     1       2.554  42.415  84.272  1.00  0.00    -0.458 OA
ENDROOT
BRANCH   1   2
ATOM      2  C   UNL     1       2.358  41.712  85.506  1.00  0.00     0.339 C 
ATOM      3  C   UNL     1       4.680  41.602  86.039  1.00  0.00     0.199 C 
ATOM      4  C   UNL     1       4.728  40.068  85.802  1.00  0.00     0.180 C 
ATOM      5  O   UNL     1       3.385  42.049  86.431  1.00  0.00    -0.328 OA
ATOM      6  C   UNL     1       3.627  39.626  84.826  1.00  0.00     0.181 C 
ATOM      7  C   UNL     1       2.270  40.183  85.298  1.00  0.00     0.214 C 
BRANCH   3   8
ATOM      8  C   UNL     1       5.254  42.455  84.930  1.00  0.00     0.073 C 
ATOM      9  O   UNL     1       5.706  41.943  83.871  1.00  0.00    -0.547 OA
ATOM     10  O   UNL     1       5.268  43.837  85.075  1.00  0.00    -0.547 OA
ENDBRANCH   3   8
BRANCH   4  11
ATOM     11  O   UNL     1       5.984  39.667  85.317  1.00  0.00    -0.387 OA
ATOM     12  H   UNL     1       5.818  38.953  84.648  1.00  0.00     0.211 HD
ENDBRANCH   4  11
BRANCH   6  13
ATOM     13  O   UNL     1       3.586  38.224  84.717  1.00  0.00    -0.387 OA
ATOM     14  H   UNL     1       4.419  37.929  84.265  1.00  0.00     0.211 HD
ENDBRANCH   6  13
BRANCH   7  15
ATOM     15  O   UNL     1       1.232  39.835  84.416  1.00  0.00    -0.384 OA
ATOM     16  H   UNL     1       1.640  39.494  83.578  1.00  0.00     0.211 HD
ENDBRANCH   7  15
ENDBRANCH   1   2
BRANCH   1  17
ATOM     17  C   UNL     1       1.892  43.578  83.836  1.00  0.00     0.172 A 
ATOM     18  C   UNL     1       1.347  43.564  82.547  1.00  0.00     0.205 A 
ATOM     19  C   UNL     1       1.775  44.726  84.632  1.00  0.00     0.097 A 
ATOM     20  C   UNL     1       0.654  44.702  82.063  1.00  0.00     0.188 A 
ATOM     21  C   UNL     1       1.129  45.871  84.163  1.00  0.00     0.134 A 
ATOM     22  C   UNL     1       0.513  45.859  82.881  1.00  0.00     0.111 A 
ATOM     23  O   UNL     1       0.135  44.691  80.837  1.00  0.00    -0.452 OA
ATOM     24  C   UNL     1      -0.268  46.922  82.371  1.00  0.00     0.197 A 
ATOM     25  C   UNL     1      -0.540  45.706  80.307  1.00  0.00     0.138 A 
ATOM     26  C   UNL     1      -0.774  46.850  81.075  1.00  0.00     0.100 A 
ATOM     27  O   UNL     1      -0.557  47.931  83.064  1.00  0.00    -0.289 OA
BRANCH  18  28
ATOM     28  O   UNL     1       1.531  42.384  81.802  1.00  0.00    -0.490 OA
ATOM     29  C   UNL     1       0.530  41.438  81.447  1.00  0.00     0.278 C 
ENDBRANCH  18  28
BRANCH  21  30
ATOM     30  O   UNL     1       1.161  46.990  85.002  1.00  0.00    -0.507 OA
ATOM     31  H   UNL     1       0.600  47.818  84.873  1.00  0.00     0.293 HD
ENDBRANCH  21  30
BRANCH  25  32
ATOM     32  C   UNL     1      -1.046  45.591  78.917  1.00  0.00     0.017 A 
ATOM     33  C   UNL     1      -0.741  46.562  77.943  1.00  0.00     0.012 A 
ATOM     34  C   UNL     1      -1.823  44.479  78.546  1.00  0.00     0.012 A 
ATOM     35  C   UNL     1      -1.216  46.427  76.635  1.00  0.00     0.001 A 
ATOM     36  C   UNL     1      -2.296  44.349  77.237  1.00  0.00     0.001 A 
ATOM     37  C   UNL     1      -1.993  45.323  76.283  1.00  0.00     0.000 A 
ENDBRANCH  25  32
ENDBRANCH   1  17
TORSDOF 9
ENDMDL
MODEL 5
REMARK VINA RESULT:    -6.343      4.874      8.729
REMARK INTER + INTRA:         -10.251
REMARK INTER:                  -8.648
REMARK INTRA:                  -1.603
REMARK UNBOUND:                -1.312
REMARK SMILES COc1c(O[C@@H]2O[C@H](C(=O)[O-])[C@H](O)[C@@H](O)[C@@H]2O)cc(O)c2c(=O)cc(-c3ccccc3)oc12
REMARK SMILES IDX 5 1 6 2 8 3 12 4 7 5 14 6 16 7 9 8 10 9 11 10 13 11 15 13
REMARK SMILES IDX 17 15 4 17 3 18 18 19 33 20 19 21 21 22 32 23 22 24 25 25
REMARK SMILES IDX 24 26 23 27 2 28 1 29 20 30 26 32 27 33 31 34 28 35 30 36
REMARK SMILES IDX 29 37
REMARK H PARENT 13 12 15 14 17 16 20 31
REMARK Flexibility Score: inf
ROOT
ATOM      1  O   UNL     1       2.607  41.748  83.942  1.00  0.00    -0.458 OA
ENDROOT
BRANCH   1   2
ATOM      2  C   UNL     1       3.910  41.187  83.739  1.00  0.00     0.339 C 
ATOM      3  C   UNL     1       4.175  40.486  86.003  1.00  0.00     0.199 C 
ATOM      4  C   UNL     1       5.272  41.552  86.273  1.00  0.00     0.180 C 
ATOM      5  O   UNL     1       4.121  40.101  84.634  1.00  0.00    -0.328 OA
ATOM      6  C   UNL     1       5.121  42.751  85.325  1.00  0.00     0.181 C 
ATOM      7  C   UNL     1       5.029  42.246  83.873  1.00  0.00     0.214 C 
BRANCH   3   8
ATOM      8  C   UNL     1       2.801  40.806  86.549  1.00  0.00     0.073 C 
ATOM      9  O   UNL     1       2.569  41.885  87.158  1.00  0.00    -0.547 OA
ATOM     10  O   UNL     1       1.768  39.897  86.362  1.00  0.00    -0.547 OA
ENDBRANCH   3   8
BRANCH   4  11
ATOM     11  O   UNL     1       5.237  41.991  87.607  1.00  0.00    -0.387 OA
ATOM     12  H   UNL     1       4.989  41.206  88.161  1.00  0.00     0.211 HD
ENDBRANCH   4  11
BRANCH   6  13
ATOM     13  O   UNL     1       6.192  43.651  85.479  1.00  0.00    -0.387 OA
ATOM     14  H   UNL     1       7.024  43.183  85.208  1.00  0.00     0.211 HD
ENDBRANCH   6  13
BRANCH   7  15
ATOM     15  O   UNL     1       4.853  43.307  82.966  1.00  0.00    -0.384 OA
ATOM     16  H   UNL     1       4.244  43.001  82.245  1.00  0.00     0.211 HD
ENDBRANCH   7  15
ENDBRANCH   1   2
BRANCH   1  17
ATOM     17  C   UNL     1       1.549  41.809  83.016  1.00  0.00     0.172 A 
ATOM     18  C   UNL     1       1.274  43.052  82.433  1.00  0.00     0.205 A 
ATOM     19  C   UNL     1       0.774  40.691  82.677  1.00  0.00     0.097 A 
ATOM     20  C   UNL     1       0.231  43.167  81.480  1.00  0.00     0.188 A 
ATOM     21  C   UNL     1      -0.281  40.789  81.770  1.00  0.00     0.134 A 
ATOM     22  C   UNL     1      -0.539  42.026  81.117  1.00  0.00     0.111 A 
ATOM     23  O   UNL     1      -0.032  44.347  80.924  1.00  0.00    -0.452 OA
ATOM     24  C   UNL     1      -1.503  42.193  80.095  1.00  0.00     0.197 A 
ATOM     25  C   UNL     1      -0.981  44.545  80.014  1.00  0.00     0.138 A 
ATOM     26  C   UNL     1      -1.735  43.459  79.562  1.00  0.00     0.100 A 
ATOM     27  O   UNL     1      -2.143  41.222  79.615  1.00  0.00    -0.289 OA
BRANCH  18  28
ATOM     28  O   UNL     1       2.080  44.130  82.846  1.00  0.00    -0.490 OA
ATOM     29  C   UNL     1       1.833  45.006  83.938  1.00  0.00     0.278 C 
ENDBRANCH  18  28
BRANCH  21  30
ATOM     30  O   UNL     1      -1.050  39.635  81.584  1.00  0.00    -0.507 OA
ATOM     31  H   UNL     1      -1.061  39.084  80.739  1.00  0.00     0.293 HD
ENDBRANCH  21  30
BRANCH  25  32
ATOM     32  C   UNL     1      -1.204  45.914  79.488  1.00  0.00     0.017 A 
ATOM     33  C   UNL     1      -1.678  46.950  80.317  1.00  0.00     0.012 A 
ATOM     34  C   UNL     1      -0.913  46.202  78.143  1.00  0.00     0.012 A 
ATOM     35  C   UNL     1      -1.867  48.237  79.804  1.00  0.00     0.001 A 
ATOM     36  C   UNL     1      -1.105  47.490  77.634  1.00  0.00     0.001 A 
ATOM     37  C   UNL     1      -1.583  48.507  78.465  1.00  0.00     0.000 A 
ENDBRANCH  25  32
ENDBRANCH   1  17
TORSDOF 9
ENDMDL
MODEL 6
REMARK VINA RESULT:    -6.226      2.961      8.389
REMARK INTER + INTRA:         -10.086
REMARK INTER:                  -8.729
REMARK INTRA:                  -1.357
REMARK UNBOUND:                -1.312
REMARK SMILES COc1c(O[C@@H]2O[C@H](C(=O)[O-])[C@H](O)[C@@H](O)[C@@H]2O)cc(O)c2c(=O)cc(-c3ccccc3)oc12
REMARK SMILES IDX 5 1 6 2 8 3 12 4 7 5 14 6 16 7 9 8 10 9 11 10 13 11 15 13
REMARK SMILES IDX 17 15 4 17 3 18 18 19 33 20 19 21 21 22 32 23 22 24 25 25
REMARK SMILES IDX 24 26 23 27 2 28 1 29 20 30 26 32 27 33 31 34 28 35 30 36
REMARK SMILES IDX 29 37
REMARK H PARENT 13 12 15 14 17 16 20 31
REMARK Flexibility Score: inf
ROOT
ATOM      1  O   UNL     1       0.488  42.738  82.668  1.00  0.00    -0.458 OA
ENDROOT
BRANCH   1   2
ATOM      2  C   UNL     1       0.119  41.453  82.151  1.00  0.00     0.339 C 
ATOM      3  C   UNL     1       0.665  40.274  84.150  1.00  0.00     0.199 C 
ATOM      4  C   UNL     1       1.888  39.585  83.486  1.00  0.00     0.180 C 
ATOM      5  O   UNL     1      -0.343  40.615  83.204  1.00  0.00    -0.328 OA
ATOM      6  C   UNL     1       2.430  40.426  82.321  1.00  0.00     0.181 C 
ATOM      7  C   UNL     1       1.273  40.785  81.369  1.00  0.00     0.214 C 
BRANCH   3   8
ATOM      8  C   UNL     1       0.983  41.432  85.070  1.00  0.00     0.073 C 
ATOM      9  O   UNL     1       2.169  41.812  85.264  1.00  0.00    -0.547 OA
ATOM     10  O   UNL     1      -0.056  42.101  85.703  1.00  0.00    -0.547 OA
ENDBRANCH   3   8
BRANCH   4  11
ATOM     11  O   UNL     1       2.911  39.353  84.422  1.00  0.00    -0.387 OA
ATOM     12  H   UNL     1       3.166  38.398  84.336  1.00  0.00     0.211 HD
ENDBRANCH   4  11
BRANCH   6  13
ATOM     13  O   UNL     1       3.450  39.739  81.637  1.00  0.00    -0.387 OA
ATOM     14  H   UNL     1       3.673  40.259  80.821  1.00  0.00     0.211 HD
ENDBRANCH   6  13
BRANCH   7  15
ATOM     15  O   UNL     1       1.712  41.588  80.300  1.00  0.00    -0.384 OA
ATOM     16  H   UNL     1       1.965  42.476  80.664  1.00  0.00     0.211 HD
ENDBRANCH   7  15
ENDBRANCH   1   2
BRANCH   1  17
ATOM     17  C   UNL     1       0.040  43.997  82.228  1.00  0.00     0.172 A 
ATOM     18  C   UNL     1       0.261  45.091  83.073  1.00  0.00     0.205 A 
ATOM     19  C   UNL     1      -0.613  44.183  81.001  1.00  0.00     0.097 A 
ATOM     20  C   UNL     1      -0.154  46.386  82.672  1.00  0.00     0.188 A 
ATOM     21  C   UNL     1      -1.063  45.442  80.602  1.00  0.00     0.134 A 
ATOM     22  C   UNL     1      -0.795  46.578  81.416  1.00  0.00     0.111 A 
ATOM     23  O   UNL     1       0.055  47.428  83.475  1.00  0.00    -0.452 OA
ATOM     24  C   UNL     1      -1.099  47.908  81.040  1.00  0.00     0.197 A 
ATOM     25  C   UNL     1      -0.288  48.677  83.175  1.00  0.00     0.138 A 
ATOM     26  C   UNL     1      -0.864  48.951  81.932  1.00  0.00     0.100 A 
ATOM     27  O   UNL     1      -1.548  48.193  79.900  1.00  0.00    -0.289 OA
BRANCH  18  28
ATOM     28  O   UNL     1       0.899  44.818  84.298  1.00  0.00    -0.490 OA
ATOM     29  C   UNL     1       2.257  45.083  84.626  1.00  0.00     0.278 C 
ENDBRANCH  18  28
BRANCH  21  30
ATOM     30  O   UNL     1      -1.791  45.492  79.409  1.00  0.00    -0.507 OA
ATOM     31  H   UNL     1      -2.714  45.105  79.285  1.00  0.00     0.293 HD
ENDBRANCH  21  30
BRANCH  25  32
ATOM     32  C   UNL     1      -0.034  49.753  84.164  1.00  0.00     0.017 A 
ATOM     33  C   UNL     1       0.906  49.588  85.202  1.00  0.00     0.012 A 
ATOM     34  C   UNL     1      -0.717  50.977  84.056  1.00  0.00     0.012 A 
ATOM     35  C   UNL     1       1.141  50.620  86.115  1.00  0.00     0.001 A 
ATOM     36  C   UNL     1      -0.479  52.006  84.972  1.00  0.00     0.001 A 
ATOM     37  C   UNL     1       0.449  51.827  86.001  1.00  0.00     0.000 A 
ENDBRANCH  25  32
ENDBRANCH   1  17
TORSDOF 9
ENDMDL
MODEL 7
REMARK VINA RESULT:    -6.213      2.698      8.256
REMARK INTER + INTRA:         -10.068
REMARK INTER:                  -8.819
REMARK INTRA:                  -1.249
REMARK UNBOUND:                -1.312
REMARK SMILES COc1c(O[C@@H]2O[C@H](C(=O)[O-])[C@H](O)[C@@H](O)[C@@H]2O)cc(O)c2c(=O)cc(-c3ccccc3)oc12
REMARK SMILES IDX 5 1 6 2 8 3 12 4 7 5 14 6 16 7 9 8 10 9 11 10 13 11 15 13
REMARK SMILES IDX 17 15 4 17 3 18 18 19 33 20 19 21 21 22 32 23 22 24 25 25
REMARK SMILES IDX 24 26 23 27 2 28 1 29 20 30 26 32 27 33 31 34 28 35 30 36
REMARK SMILES IDX 29 37
REMARK H PARENT 13 12 15 14 17 16 20 31
REMARK Flexibility Score: inf
ROOT
ATOM      1  O   UNL     1       1.268  43.255  82.049  1.00  0.00    -0.458 OA
ENDROOT
BRANCH   1   2
ATOM      2  C   UNL     1       0.864  42.044  82.701  1.00  0.00     0.339 C 
ATOM      3  C   UNL     1       2.682  42.037  84.244  1.00  0.00     0.199 C 
ATOM      4  C   UNL     1       3.342  40.809  83.561  1.00  0.00     0.180 C 
ATOM      5  O   UNL     1       1.270  42.062  84.064  1.00  0.00    -0.328 OA
ATOM      6  C   UNL     1       2.931  40.711  82.085  1.00  0.00     0.181 C 
ATOM      7  C   UNL     1       1.396  40.786  81.975  1.00  0.00     0.214 C 
BRANCH   3   8
ATOM      8  C   UNL     1       3.309  43.378  83.931  1.00  0.00     0.073 C 
ATOM      9  O   UNL     1       3.108  44.386  84.661  1.00  0.00    -0.547 OA
ATOM     10  O   UNL     1       4.138  43.497  82.823  1.00  0.00    -0.547 OA
ENDBRANCH   3   8
BRANCH   4  11
ATOM     11  O   UNL     1       4.743  40.862  83.663  1.00  0.00    -0.387 OA
ATOM     12  H   UNL     1       4.964  41.717  84.116  1.00  0.00     0.211 HD
ENDBRANCH   4  11
BRANCH   6  13
ATOM     13  O   UNL     1       3.420  39.527  81.504  1.00  0.00    -0.387 OA
ATOM     14  H   UNL     1       3.511  38.850  82.224  1.00  0.00     0.211 HD
ENDBRANCH   6  13
BRANCH   7  15
ATOM     15  O   UNL     1       0.969  40.737  80.636  1.00  0.00    -0.384 OA
ATOM     16  H   UNL     1       0.202  41.358  80.533  1.00  0.00     0.211 HD
ENDBRANCH   7  15
ENDBRANCH   1   2
BRANCH   1  17
ATOM     17  C   UNL     1       0.448  44.173  81.367  1.00  0.00     0.172 A 
ATOM     18  C   UNL     1       0.046  45.319  82.063  1.00  0.00     0.205 A 
ATOM     19  C   UNL     1       0.022  43.972  80.046  1.00  0.00     0.097 A 
ATOM     20  C   UNL     1      -0.766  46.286  81.417  1.00  0.00     0.188 A 
ATOM     21  C   UNL     1      -0.807  44.892  79.403  1.00  0.00     0.134 A 
ATOM     22  C   UNL     1      -1.177  46.094  80.068  1.00  0.00     0.111 A 
ATOM     23  O   UNL     1      -1.149  47.377  82.077  1.00  0.00    -0.452 OA
ATOM     24  C   UNL     1      -1.909  47.140  79.458  1.00  0.00     0.197 A 
ATOM     25  C   UNL     1      -1.899  48.340  81.549  1.00  0.00     0.138 A 
ATOM     26  C   UNL     1      -2.286  48.251  80.210  1.00  0.00     0.100 A 
ATOM     27  O   UNL     1      -2.207  47.123  78.236  1.00  0.00    -0.289 OA
BRANCH  18  28
ATOM     28  O   UNL     1       0.493  45.434  83.393  1.00  0.00    -0.490 OA
ATOM     29  C   UNL     1      -0.285  45.251  84.569  1.00  0.00     0.278 C 
ENDBRANCH  18  28
BRANCH  21  30
ATOM     30  O   UNL     1      -1.251  44.540  78.125  1.00  0.00    -0.507 OA
ATOM     31  H   UNL     1      -0.913  44.951  77.267  1.00  0.00     0.293 HD
ENDBRANCH  21  30
BRANCH  25  32
ATOM     32  C   UNL     1      -2.290  49.496  82.392  1.00  0.00     0.017 A 
ATOM     33  C   UNL     1      -1.325  50.272  83.065  1.00  0.00     0.012 A 
ATOM     34  C   UNL     1      -3.646  49.850  82.507  1.00  0.00     0.012 A 
ATOM     35  C   UNL     1      -1.715  51.367  83.843  1.00  0.00     0.001 A 
ATOM     36  C   UNL     1      -4.030  50.944  83.288  1.00  0.00     0.001 A 
ATOM     37  C   UNL     1      -3.065  51.702  83.956  1.00  0.00     0.000 A 
ENDBRANCH  25  32
ENDBRANCH   1  17
TORSDOF 9
ENDMDL
MODEL 8
REMARK VINA RESULT:    -6.206      3.577      9.064
REMARK INTER + INTRA:         -10.058
REMARK INTER:                  -8.549
REMARK INTRA:                  -1.509
REMARK UNBOUND:                -1.312
REMARK SMILES COc1c(O[C@@H]2O[C@H](C(=O)[O-])[C@H](O)[C@@H](O)[C@@H]2O)cc(O)c2c(=O)cc(-c3ccccc3)oc12
REMARK SMILES IDX 5 1 6 2 8 3 12 4 7 5 14 6 16 7 9 8 10 9 11 10 13 11 15 13
REMARK SMILES IDX 17 15 4 17 3 18 18 19 33 20 19 21 21 22 32 23 22 24 25 25
REMARK SMILES IDX 24 26 23 27 2 28 1 29 20 30 26 32 27 33 31 34 28 35 30 36
REMARK SMILES IDX 29 37
REMARK H PARENT 13 12 15 14 17 16 20 31
REMARK Flexibility Score: inf
ROOT
ATOM      1  O   UNL     1       2.139  41.452  82.835  1.00  0.00    -0.458 OA
ENDROOT
BRANCH   1   2
ATOM      2  C   UNL     1       3.439  40.947  82.502  1.00  0.00     0.339 C 
ATOM      3  C   UNL     1       3.116  38.848  83.588  1.00  0.00     0.199 C 
ATOM      4  C   UNL     1       4.136  39.196  84.706  1.00  0.00     0.180 C 
ATOM      5  O   UNL     1       3.395  39.531  82.369  1.00  0.00    -0.328 OA
ATOM      6  C   UNL     1       4.253  40.716  84.892  1.00  0.00     0.181 C 
ATOM      7  C   UNL     1       4.513  41.380  83.526  1.00  0.00     0.214 C 
BRANCH   3   8
ATOM      8  C   UNL     1       1.657  38.961  83.971  1.00  0.00     0.073 C 
ATOM      9  O   UNL     1       1.305  39.367  85.111  1.00  0.00    -0.547 OA
ATOM     10  O   UNL     1       0.683  38.626  83.040  1.00  0.00    -0.547 OA
ENDBRANCH   3   8
BRANCH   4  11
ATOM     11  O   UNL     1       3.780  38.592  85.924  1.00  0.00    -0.387 OA
ATOM     12  H   UNL     1       3.238  37.792  85.699  1.00  0.00     0.211 HD
ENDBRANCH   4  11
BRANCH   6  13
ATOM     13  O   UNL     1       5.272  41.033  85.809  1.00  0.00    -0.387 OA
ATOM     14  H   UNL     1       5.945  41.588  85.335  1.00  0.00     0.211 HD
ENDBRANCH   6  13
BRANCH   7  15
ATOM     15  O   UNL     1       4.593  42.780  83.638  1.00  0.00    -0.384 OA
ATOM     16  H   UNL     1       3.760  43.104  84.070  1.00  0.00     0.211 HD
ENDBRANCH   7  15
ENDBRANCH   1   2
BRANCH   1  17
ATOM     17  C   UNL     1       1.439  42.494  82.201  1.00  0.00     0.172 A 
ATOM     18  C   UNL     1       1.335  43.711  82.885  1.00  0.00     0.205 A 
ATOM     19  C   UNL     1       0.846  42.350  80.938  1.00  0.00     0.097 A 
ATOM     20  C   UNL     1       0.656  44.801  82.284  1.00  0.00     0.188 A 
ATOM     21  C   UNL     1       0.141  43.397  80.344  1.00  0.00     0.134 A 
ATOM     22  C   UNL     1       0.076  44.662  80.992  1.00  0.00     0.111 A 
ATOM     23  O   UNL     1       0.557  45.959  82.933  1.00  0.00    -0.452 OA
ATOM     24  C   UNL     1      -0.506  45.815  80.415  1.00  0.00     0.197 A 
ATOM     25  C   UNL     1      -0.050  47.036  82.443  1.00  0.00     0.138 A 
ATOM     26  C   UNL     1      -0.586  46.994  81.154  1.00  0.00     0.100 A 
ATOM     27  O   UNL     1      -0.930  45.828  79.231  1.00  0.00    -0.289 OA
BRANCH  18  28
ATOM     28  O   UNL     1       1.934  43.767  84.158  1.00  0.00    -0.490 OA
ATOM     29  C   UNL     1       1.445  43.174  85.354  1.00  0.00     0.278 C 
ENDBRANCH  18  28
BRANCH  21  30
ATOM     30  O   UNL     1      -0.494  43.109  79.131  1.00  0.00    -0.507 OA
ATOM     31  H   UNL     1      -0.417  42.233  78.638  1.00  0.00     0.293 HD
ENDBRANCH  21  30
BRANCH  25  32
ATOM     32  C   UNL     1      -0.126  48.263  83.273  1.00  0.00     0.017 A 
ATOM     33  C   UNL     1       0.402  48.299  84.579  1.00  0.00     0.012 A 
ATOM     34  C   UNL     1      -0.708  49.429  82.744  1.00  0.00     0.012 A 
ATOM     35  C   UNL     1       0.333  49.471  85.339  1.00  0.00     0.001 A 
ATOM     36  C   UNL     1      -0.776  50.598  83.509  1.00  0.00     0.001 A 
ATOM     37  C   UNL     1      -0.256  50.618  84.805  1.00  0.00     0.000 A 
ENDBRANCH  25  32
ENDBRANCH   1  17
TORSDOF 9
ENDMDL
MODEL 9
REMARK VINA RESULT:    -6.093      3.086      7.326
REMARK INTER + INTRA:          -9.899
REMARK INTER:                  -8.566
REMARK INTRA:                  -1.333
REMARK UNBOUND:                -1.312
REMARK SMILES COc1c(O[C@@H]2O[C@H](C(=O)[O-])[C@H](O)[C@@H](O)[C@@H]2O)cc(O)c2c(=O)cc(-c3ccccc3)oc12
REMARK SMILES IDX 5 1 6 2 8 3 12 4 7 5 14 6 16 7 9 8 10 9 11 10 13 11 15 13
REMARK SMILES IDX 17 15 4 17 3 18 18 19 33 20 19 21 21 22 32 23 22 24 25 25
REMARK SMILES IDX 24 26 23 27 2 28 1 29 20 30 26 32 27 33 31 34 28 35 30 36
REMARK SMILES IDX 29 37
REMARK H PARENT 13 12 15 14 17 16 20 31
REMARK Flexibility Score: inf
ROOT
ATOM      1  O   UNL     1      -2.148  45.158  79.177  1.00  0.00    -0.458 OA
ENDROOT
BRANCH   1   2
ATOM      2  C   UNL     1      -3.014  45.934  78.337  1.00  0.00     0.339 C 
ATOM      3  C   UNL     1      -3.685  44.085  76.988  1.00  0.00     0.199 C 
ATOM      4  C   UNL     1      -2.908  44.619  75.755  1.00  0.00     0.180 C 
ATOM      5  O   UNL     1      -4.090  45.130  77.867  1.00  0.00    -0.328 OA
ATOM      6  C   UNL     1      -1.738  45.517  76.186  1.00  0.00     0.181 C 
ATOM      7  C   UNL     1      -2.252  46.592  77.164  1.00  0.00     0.214 C 
BRANCH   3   8
ATOM      8  C   UNL     1      -3.026  42.949  77.738  1.00  0.00     0.073 C 
ATOM      9  O   UNL     1      -1.915  42.476  77.375  1.00  0.00    -0.547 OA
ATOM     10  O   UNL     1      -3.651  42.424  78.862  1.00  0.00    -0.547 OA
ENDBRANCH   3   8
BRANCH   4  11
ATOM     11  O   UNL     1      -2.430  43.564  74.959  1.00  0.00    -0.387 OA
ATOM     12  H   UNL     1      -3.189  43.265  74.395  1.00  0.00     0.211 HD
ENDBRANCH   4  11
BRANCH   6  13
ATOM     13  O   UNL     1      -1.119  46.107  75.069  1.00  0.00    -0.387 OA
ATOM     14  H   UNL     1      -0.140  45.968  75.156  1.00  0.00     0.211 HD
ENDBRANCH   6  13
BRANCH   7  15
ATOM     15  O   UNL     1      -1.210  47.420  77.617  1.00  0.00    -0.384 OA
ATOM     16  H   UNL     1      -0.491  46.841  77.983  1.00  0.00     0.211 HD
ENDBRANCH   7  15
ENDBRANCH   1   2
BRANCH   1  17
ATOM     17  C   UNL     1      -1.569  45.548  80.398  1.00  0.00     0.172 A 
ATOM     18  C   UNL     1      -0.518  44.765  80.891  1.00  0.00     0.205 A 
ATOM     19  C   UNL     1      -2.009  46.664  81.124  1.00  0.00     0.097 A 
ATOM     20  C   UNL     1       0.115  45.122  82.109  1.00  0.00     0.188 A 
ATOM     21  C   UNL     1      -1.425  47.012  82.343  1.00  0.00     0.134 A 
ATOM     22  C   UNL     1      -0.316  46.269  82.832  1.00  0.00     0.111 A 
ATOM     23  O   UNL     1       1.114  44.378  82.579  1.00  0.00    -0.452 OA
ATOM     24  C   UNL     1       0.419  46.618  83.991  1.00  0.00     0.197 A 
ATOM     25  C   UNL     1       1.772  44.644  83.704  1.00  0.00     0.138 A 
ATOM     26  C   UNL     1       1.447  45.790  84.434  1.00  0.00     0.100 A 
ATOM     27  O   UNL     1       0.199  47.681  84.626  1.00  0.00    -0.289 OA
BRANCH  18  28
ATOM     28  O   UNL     1      -0.153  43.647  80.117  1.00  0.00    -0.490 OA
ATOM     29  C   UNL     1      -0.331  42.279  80.463  1.00  0.00     0.278 C 
ENDBRANCH  18  28
BRANCH  21  30
ATOM     30  O   UNL     1      -2.011  48.081  83.028  1.00  0.00    -0.507 OA
ATOM     31  H   UNL     1      -1.498  48.841  83.450  1.00  0.00     0.293 HD
ENDBRANCH  21  30
BRANCH  25  32
ATOM     32  C   UNL     1       2.849  43.725  84.145  1.00  0.00     0.017 A 
ATOM     33  C   UNL     1       3.688  43.078  83.216  1.00  0.00     0.012 A 
ATOM     34  C   UNL     1       3.064  43.508  85.518  1.00  0.00     0.012 A 
ATOM     35  C   UNL     1       4.706  42.226  83.654  1.00  0.00     0.001 A 
ATOM     36  C   UNL     1       4.084  42.655  85.951  1.00  0.00     0.001 A 
ATOM     37  C   UNL     1       4.903  42.014  85.019  1.00  0.00     0.000 A 
ENDBRANCH  25  32
ENDBRANCH   1  17
TORSDOF 9
ENDMDL
