MODEL 1
REMARK VINA RESULT:    -0.156      0.000      0.000
REMARK INTER + INTRA:          -1.538
REMARK INTER:                  -0.394
REMARK INTRA:                  -1.144
REMARK UNBOUND:                -1.144
REMARK SMILES CCCCCCCCCCCCCCCCCCCCCCCCCCCC(=O)[O-]
REMARK SMILES IDX 15 1 16 2 17 3 18 4 19 5 20 6 21 7 22 8 23 9 24 10 25 11
REMARK SMILES IDX 26 12 27 13 28 14 29 15 30 16 14 17 13 18 12 19 11 20 10 21
REMARK SMILES IDX 9 22 8 23 7 24 6 25 5 26 4 27 3 28 2 29 1 30
REMARK H PARENT
REMARK Flexibility Score: inf
ROOT
ATOM      1  C   UNL     1      44.866  22.170  16.479  1.00  0.00     0.000 C 
ENDROOT
BRANCH   1   2
ATOM      2  C   UNL     1      46.369  22.464  16.329  1.00  0.00     0.000 C 
BRANCH   2   3
ATOM      3  C   UNL     1      47.008  22.974  17.631  1.00  0.00     0.000 C 
BRANCH   3   4
ATOM      4  C   UNL     1      48.303  22.227  17.994  1.00  0.00     0.000 C 
BRANCH   4   5
ATOM      5  C   UNL     1      49.116  22.943  19.087  1.00  0.00     0.000 C 
BRANCH   5   6
ATOM      6  C   UNL     1      49.020  22.318  20.494  1.00  0.00     0.000 C 
BRANCH   6   7
ATOM      7  C   UNL     1      49.804  21.007  20.683  1.00  0.00     0.000 C 
BRANCH   7   8
ATOM      8  C   UNL     1      51.046  21.119  21.589  1.00  0.00     0.000 C 
BRANCH   8   9
ATOM      9  C   UNL     1      52.094  22.138  21.087  1.00  0.00     0.000 C 
BRANCH   9  10
ATOM     10  C   UNL     1      52.960  21.576  19.945  1.00  0.00     0.000 C 
BRANCH  10  11
ATOM     11  C   UNL     1      52.983  22.494  18.711  1.00  0.00     0.000 C 
BRANCH  11  12
ATOM     12  C   UNL     1      52.890  21.717  17.389  1.00  0.00     0.006 C 
BRANCH  12  13
ATOM     13  C   UNL     1      51.680  22.175  16.570  1.00  0.00     0.053 C 
BRANCH  13  14
ATOM     14  C   UNL     1      51.523  21.332  15.343  1.00  0.00     0.041 C 
ATOM     15  O   UNL     1      52.539  20.917  14.721  1.00  0.00    -0.550 OA
ATOM     16  O   UNL     1      50.254  21.007  14.880  1.00  0.00    -0.550 OA
ENDBRANCH  13  14
ENDBRANCH  12  13
ENDBRANCH  11  12
ENDBRANCH  10  11
ENDBRANCH   9  10
ENDBRANCH   8   9
ENDBRANCH   7   8
ENDBRANCH   6   7
ENDBRANCH   5   6
ENDBRANCH   4   5
ENDBRANCH   3   4
ENDBRANCH   2   3
ENDBRANCH   1   2
BRANCH   1  17
ATOM     17  C   UNL     1      43.992  23.082  15.599  1.00  0.00     0.000 C 
BRANCH  17  18
ATOM     18  C   UNL     1      42.498  23.124  15.977  1.00  0.00     0.000 C 
BRANCH  18  19
ATOM     19  C   UNL     1      41.518  23.085  14.791  1.00  0.00     0.000 C 
BRANCH  19  20
ATOM     20  C   UNL     1      40.168  22.446  15.156  1.00  0.00     0.000 C 
BRANCH  20  21
ATOM     21  C   UNL     1      38.992  23.079  14.396  1.00  0.00     0.000 C 
BRANCH  21  22
ATOM     22  C   UNL     1      37.629  22.589  14.913  1.00  0.00    -0.000 C 
BRANCH  22  23
ATOM     23  C   UNL     1      36.486  22.871  13.924  1.00  0.00    -0.000 C 
BRANCH  23  24
ATOM     24  C   UNL     1      35.911  21.592  13.296  1.00  0.00    -0.000 C 
BRANCH  24  25
ATOM     25  C   UNL     1      36.252  20.361  14.149  1.00  0.00    -0.000 C 
BRANCH  25  26
ATOM     26  C   UNL     1      35.190  20.076  15.223  1.00  0.00    -0.000 C 
BRANCH  26  27
ATOM     27  C   UNL     1      33.981  19.307  14.669  1.00  0.00    -0.000 C 
BRANCH  27  28
ATOM     28  C   UNL     1      33.512  18.235  15.664  1.00  0.00    -0.000 C 
BRANCH  28  29
ATOM     29  C   UNL     1      33.372  18.782  17.094  1.00  0.00    -0.003 C 
ATOM     30  C   UNL     1      32.878  20.227  17.125  1.00  0.00     0.004 C 
ENDBRANCH  28  29
ENDBRANCH  27  28
ENDBRANCH  26  27
ENDBRANCH  25  26
ENDBRANCH  24  25
ENDBRANCH  23  24
ENDBRANCH  22  23
ENDBRANCH  21  22
ENDBRANCH  20  21
ENDBRANCH  19  20
ENDBRANCH  18  19
ENDBRANCH  17  18
ENDBRANCH   1  17
TORSDOF 26
ENDMDL
MODEL 2
REMARK VINA RESULT:     0.842      2.147      3.358
REMARK INTER + INTRA:           0.977
REMARK INTER:                   1.833
REMARK INTRA:                  -0.856
REMARK UNBOUND:                -1.144
REMARK SMILES CCCCCCCCCCCCCCCCCCCCCCCCCCCC(=O)[O-]
REMARK SMILES IDX 15 1 16 2 17 3 18 4 19 5 20 6 21 7 22 8 23 9 24 10 25 11
REMARK SMILES IDX 26 12 27 13 28 14 29 15 30 16 14 17 13 18 12 19 11 20 10 21
REMARK SMILES IDX 9 22 8 23 7 24 6 25 5 26 4 27 3 28 2 29 1 30
REMARK H PARENT
REMARK Flexibility Score: inf
ROOT
ATOM      1  C   UNL     1      43.062  22.425  15.528  1.00  0.00     0.000 C 
ENDROOT
BRANCH   1   2
ATOM      2  C   UNL     1      44.095  22.841  16.589  1.00  0.00     0.000 C 
BRANCH   2   3
ATOM      3  C   UNL     1      45.522  22.939  16.024  1.00  0.00     0.000 C 
BRANCH   3   4
ATOM      4  C   UNL     1      46.356  21.672  16.282  1.00  0.00     0.000 C 
BRANCH   4   5
ATOM      5  C   UNL     1      47.350  21.841  17.445  1.00  0.00     0.000 C 
BRANCH   5   6
ATOM      6  C   UNL     1      48.207  23.123  17.398  1.00  0.00     0.000 C 
BRANCH   6   7
ATOM      7  C   UNL     1      49.708  22.897  17.141  1.00  0.00     0.000 C 
BRANCH   7   8
ATOM      8  C   UNL     1      50.035  21.721  16.200  1.00  0.00     0.000 C 
BRANCH   8   9
ATOM      9  C   UNL     1      51.544  21.557  15.911  1.00  0.00     0.000 C 
BRANCH   9  10
ATOM     10  C   UNL     1      52.355  22.810  16.287  1.00  0.00     0.000 C 
BRANCH  10  11
ATOM     11  C   UNL     1      53.027  22.690  17.665  1.00  0.00     0.000 C 
BRANCH  11  12
ATOM     12  C   UNL     1      52.371  21.624  18.557  1.00  0.00     0.006 C 
BRANCH  12  13
ATOM     13  C   UNL     1      51.788  22.256  19.825  1.00  0.00     0.053 C 
BRANCH  13  14
ATOM     14  C   UNL     1      52.648  21.947  21.011  1.00  0.00     0.041 C 
ATOM     15  O   UNL     1      53.125  22.881  21.712  1.00  0.00    -0.550 OA
ATOM     16  O   UNL     1      52.929  20.627  21.342  1.00  0.00    -0.550 OA
ENDBRANCH  13  14
ENDBRANCH  12  13
ENDBRANCH  11  12
ENDBRANCH  10  11
ENDBRANCH   9  10
ENDBRANCH   8   9
ENDBRANCH   7   8
ENDBRANCH   6   7
ENDBRANCH   5   6
ENDBRANCH   4   5
ENDBRANCH   3   4
ENDBRANCH   2   3
ENDBRANCH   1   2
BRANCH   1  17
ATOM     17  C   UNL     1      41.668  23.023  15.790  1.00  0.00     0.000 C 
BRANCH  17  18
ATOM     18  C   UNL     1      40.747  23.108  14.556  1.00  0.00     0.000 C 
BRANCH  18  19
ATOM     19  C   UNL     1      39.239  23.125  14.861  1.00  0.00     0.000 C 
BRANCH  19  20
ATOM     20  C   UNL     1      38.637  21.713  14.958  1.00  0.00     0.000 C 
BRANCH  20  21
ATOM     21  C   UNL     1      37.283  21.600  14.239  1.00  0.00     0.000 C 
BRANCH  21  22
ATOM     22  C   UNL     1      36.863  22.920  13.571  1.00  0.00    -0.000 C 
BRANCH  22  23
ATOM     23  C   UNL     1      35.563  22.786  12.762  1.00  0.00    -0.000 C 
BRANCH  23  24
ATOM     24  C   UNL     1      35.649  21.711  11.668  1.00  0.00    -0.000 C 
BRANCH  24  25
ATOM     25  C   UNL     1      34.422  20.788  11.708  1.00  0.00    -0.000 C 
BRANCH  25  26
ATOM     26  C   UNL     1      33.805  20.689  13.113  1.00  0.00    -0.000 C 
BRANCH  26  27
ATOM     27  C   UNL     1      34.470  19.606  13.975  1.00  0.00    -0.000 C 
BRANCH  27  28
ATOM     28  C   UNL     1      34.877  20.171  15.345  1.00  0.00    -0.000 C 
BRANCH  28  29
ATOM     29  C   UNL     1      33.932  19.722  16.470  1.00  0.00    -0.003 C 
ATOM     30  C   UNL     1      33.417  18.297  16.271  1.00  0.00     0.004 C 
ENDBRANCH  28  29
ENDBRANCH  27  28
ENDBRANCH  26  27
ENDBRANCH  25  26
ENDBRANCH  24  25
ENDBRANCH  23  24
ENDBRANCH  22  23
ENDBRANCH  21  22
ENDBRANCH  20  21
ENDBRANCH  19  20
ENDBRANCH  18  19
ENDBRANCH  17  18
ENDBRANCH   1  17
TORSDOF 26
ENDMDL
MODEL 3
REMARK VINA RESULT:     0.856      4.532     14.822
REMARK INTER + INTRA:           1.013
REMARK INTER:                   2.886
REMARK INTRA:                  -1.873
REMARK UNBOUND:                -1.144
REMARK SMILES CCCCCCCCCCCCCCCCCCCCCCCCCCCC(=O)[O-]
REMARK SMILES IDX 15 1 16 2 17 3 18 4 19 5 20 6 21 7 22 8 23 9 24 10 25 11
REMARK SMILES IDX 26 12 27 13 28 14 29 15 30 16 14 17 13 18 12 19 11 20 10 21
REMARK SMILES IDX 9 22 8 23 7 24 6 25 5 26 4 27 3 28 2 29 1 30
REMARK H PARENT
REMARK Flexibility Score: inf
ROOT
ATOM      1  C   UNL     1      39.862  21.740  15.176  1.00  0.00     0.000 C 
ENDROOT
BRANCH   1   2
ATOM      2  C   UNL     1      38.358  21.753  14.851  1.00  0.00     0.000 C 
BRANCH   2   3
ATOM      3  C   UNL     1      37.897  23.078  14.220  1.00  0.00     0.000 C 
BRANCH   3   4
ATOM      4  C   UNL     1      36.594  22.935  13.414  1.00  0.00     0.000 C 
BRANCH   4   5
ATOM      5  C   UNL     1      36.840  22.839  11.898  1.00  0.00     0.000 C 
BRANCH   5   6
ATOM      6  C   UNL     1      36.406  21.511  11.243  1.00  0.00     0.000 C 
BRANCH   6   7
ATOM      7  C   UNL     1      36.181  21.575   9.722  1.00  0.00     0.000 C 
BRANCH   7   8
ATOM      8  C   UNL     1      34.712  21.751   9.291  1.00  0.00     0.000 C 
BRANCH   8   9
ATOM      9  C   UNL     1      34.103  23.112   9.694  1.00  0.00     0.000 C 
BRANCH   9  10
ATOM     10  C   UNL     1      33.485  23.086  11.104  1.00  0.00     0.000 C 
BRANCH  10  11
ATOM     11  C   UNL     1      32.877  21.719  11.460  1.00  0.00     0.000 C 
BRANCH  11  12
ATOM     12  C   UNL     1      32.964  21.402  12.961  1.00  0.00     0.006 C 
BRANCH  12  13
ATOM     13  C   UNL     1      33.581  20.020  13.193  1.00  0.00     0.053 C 
BRANCH  13  14
ATOM     14  C   UNL     1      34.197  19.938  14.554  1.00  0.00     0.041 C 
ATOM     15  O   UNL     1      33.469  19.828  15.578  1.00  0.00    -0.550 OA
ATOM     16  O   UNL     1      35.579  19.989  14.696  1.00  0.00    -0.550 OA
ENDBRANCH  13  14
ENDBRANCH  12  13
ENDBRANCH  11  12
ENDBRANCH  10  11
ENDBRANCH   9  10
ENDBRANCH   8   9
ENDBRANCH   7   8
ENDBRANCH   6   7
ENDBRANCH   5   6
ENDBRANCH   4   5
ENDBRANCH   3   4
ENDBRANCH   2   3
ENDBRANCH   1   2
BRANCH   1  17
ATOM     17  C   UNL     1      40.517  23.124  15.007  1.00  0.00     0.000 C 
BRANCH  17  18
ATOM     18  C   UNL     1      42.058  23.120  14.966  1.00  0.00     0.000 C 
BRANCH  18  19
ATOM     19  C   UNL     1      42.748  22.579  16.231  1.00  0.00     0.000 C 
BRANCH  19  20
ATOM     20  C   UNL     1      44.207  23.050  16.358  1.00  0.00     0.000 C 
BRANCH  20  21
ATOM     21  C   UNL     1      44.719  22.991  17.806  1.00  0.00     0.000 C 
BRANCH  21  22
ATOM     22  C   UNL     1      46.255  23.002  17.885  1.00  0.00    -0.000 C 
BRANCH  22  23
ATOM     23  C   UNL     1      46.919  22.880  16.503  1.00  0.00    -0.000 C 
BRANCH  23  24
ATOM     24  C   UNL     1      47.536  21.495  16.258  1.00  0.00    -0.000 C 
BRANCH  24  25
ATOM     25  C   UNL     1      49.039  21.500  16.577  1.00  0.00    -0.000 C 
BRANCH  25  26
ATOM     26  C   UNL     1      49.544  22.886  17.011  1.00  0.00    -0.000 C 
BRANCH  26  27
ATOM     27  C   UNL     1      50.359  22.836  18.313  1.00  0.00    -0.000 C 
BRANCH  27  28
ATOM     28  C   UNL     1      49.435  22.663  19.528  1.00  0.00    -0.000 C 
BRANCH  28  29
ATOM     29  C   UNL     1      50.201  22.713  20.860  1.00  0.00    -0.003 C 
ATOM     30  C   UNL     1      51.107  21.499  21.063  1.00  0.00     0.004 C 
ENDBRANCH  28  29
ENDBRANCH  27  28
ENDBRANCH  26  27
ENDBRANCH  25  26
ENDBRANCH  24  25
ENDBRANCH  23  24
ENDBRANCH  22  23
ENDBRANCH  21  22
ENDBRANCH  20  21
ENDBRANCH  19  20
ENDBRANCH  18  19
ENDBRANCH  17  18
ENDBRANCH   1  17
TORSDOF 26
ENDMDL
MODEL 4
REMARK VINA RESULT:     0.870      2.138      3.666
REMARK INTER + INTRA:           1.049
REMARK INTER:                   1.810
REMARK INTRA:                  -0.761
REMARK UNBOUND:                -1.144
REMARK SMILES CCCCCCCCCCCCCCCCCCCCCCCCCCCC(=O)[O-]
REMARK SMILES IDX 15 1 16 2 17 3 18 4 19 5 20 6 21 7 22 8 23 9 24 10 25 11
REMARK SMILES IDX 26 12 27 13 28 14 29 15 30 16 14 17 13 18 12 19 11 20 10 21
REMARK SMILES IDX 9 22 8 23 7 24 6 25 5 26 4 27 3 28 2 29 1 30
REMARK H PARENT
REMARK Flexibility Score: inf
ROOT
ATOM      1  C   UNL     1      44.943  21.750  16.985  1.00  0.00     0.000 C 
ENDROOT
BRANCH   1   2
ATOM      2  C   UNL     1      46.397  21.712  16.485  1.00  0.00     0.000 C 
BRANCH   2   3
ATOM      3  C   UNL     1      47.182  22.984  16.842  1.00  0.00     0.000 C 
BRANCH   3   4
ATOM      4  C   UNL     1      48.692  22.732  16.996  1.00  0.00     0.000 C 
BRANCH   4   5
ATOM      5  C   UNL     1      49.033  21.917  18.256  1.00  0.00     0.000 C 
BRANCH   5   6
ATOM      6  C   UNL     1      49.365  22.752  19.511  1.00  0.00     0.000 C 
BRANCH   6   7
ATOM      7  C   UNL     1      48.156  23.125  20.387  1.00  0.00     0.000 C 
BRANCH   7   8
ATOM      8  C   UNL     1      48.254  22.669  21.856  1.00  0.00     0.000 C 
BRANCH   8   9
ATOM      9  C   UNL     1      49.026  21.344  22.046  1.00  0.00     0.000 C 
BRANCH   9  10
ATOM     10  C   UNL     1      50.492  21.571  22.454  1.00  0.00     0.000 C 
BRANCH  10  11
ATOM     11  C   UNL     1      51.053  22.905  21.934  1.00  0.00     0.000 C 
BRANCH  11  12
ATOM     12  C   UNL     1      52.564  22.849  21.659  1.00  0.00     0.006 C 
BRANCH  12  13
ATOM     13  C   UNL     1      52.846  22.858  20.153  1.00  0.00     0.053 C 
BRANCH  13  14
ATOM     14  C   UNL     1      52.942  21.460  19.626  1.00  0.00     0.041 C 
ATOM     15  O   UNL     1      52.869  20.477  20.411  1.00  0.00    -0.550 OA
ATOM     16  O   UNL     1      53.118  21.241  18.264  1.00  0.00    -0.550 OA
ENDBRANCH  13  14
ENDBRANCH  12  13
ENDBRANCH  11  12
ENDBRANCH  10  11
ENDBRANCH   9  10
ENDBRANCH   8   9
ENDBRANCH   7   8
ENDBRANCH   6   7
ENDBRANCH   5   6
ENDBRANCH   4   5
ENDBRANCH   3   4
ENDBRANCH   2   3
ENDBRANCH   1   2
BRANCH   1  17
ATOM     17  C   UNL     1      44.247  23.091  16.687  1.00  0.00     0.000 C 
BRANCH  17  18
ATOM     18  C   UNL     1      42.709  23.071  16.794  1.00  0.00     0.000 C 
BRANCH  18  19
ATOM     19  C   UNL     1      41.965  22.712  15.496  1.00  0.00     0.000 C 
BRANCH  19  20
ATOM     20  C   UNL     1      40.476  23.097  15.539  1.00  0.00     0.000 C 
BRANCH  20  21
ATOM     21  C   UNL     1      39.575  22.035  14.889  1.00  0.00     0.000 C 
BRANCH  21  22
ATOM     22  C   UNL     1      38.215  22.608  14.455  1.00  0.00    -0.000 C 
BRANCH  22  23
ATOM     23  C   UNL     1      37.042  21.680  14.809  1.00  0.00    -0.000 C 
BRANCH  23  24
ATOM     24  C   UNL     1      36.177  21.322  13.591  1.00  0.00    -0.000 C 
BRANCH  24  25
ATOM     25  C   UNL     1      34.682  21.435  13.928  1.00  0.00    -0.000 C 
BRANCH  25  26
ATOM     26  C   UNL     1      33.807  21.596  12.674  1.00  0.00    -0.000 C 
BRANCH  26  27
ATOM     27  C   UNL     1      34.579  21.318  11.375  1.00  0.00    -0.000 C 
BRANCH  27  28
ATOM     28  C   UNL     1      34.803  22.616  10.585  1.00  0.00    -0.000 C 
BRANCH  28  29
ATOM     29  C   UNL     1      35.924  22.482   9.541  1.00  0.00    -0.003 C 
ATOM     30  C   UNL     1      36.441  21.049   9.415  1.00  0.00     0.004 C 
ENDBRANCH  28  29
ENDBRANCH  27  28
ENDBRANCH  26  27
ENDBRANCH  25  26
ENDBRANCH  24  25
ENDBRANCH  23  24
ENDBRANCH  22  23
ENDBRANCH  21  22
ENDBRANCH  20  21
ENDBRANCH  19  20
ENDBRANCH  18  19
ENDBRANCH  17  18
ENDBRANCH   1  17
TORSDOF 26
ENDMDL
MODEL 5
REMARK VINA RESULT:     0.990      1.631      2.614
REMARK INTER + INTRA:           1.350
REMARK INTER:                   2.805
REMARK INTRA:                  -1.455
REMARK UNBOUND:                -1.144
REMARK SMILES CCCCCCCCCCCCCCCCCCCCCCCCCCCC(=O)[O-]
REMARK SMILES IDX 15 1 16 2 17 3 18 4 19 5 20 6 21 7 22 8 23 9 24 10 25 11
REMARK SMILES IDX 26 12 27 13 28 14 29 15 30 16 14 17 13 18 12 19 11 20 10 21
REMARK SMILES IDX 9 22 8 23 7 24 6 25 5 26 4 27 3 28 2 29 1 30
REMARK H PARENT
REMARK Flexibility Score: inf
ROOT
ATOM      1  C   UNL     1      44.938  22.160  16.428  1.00  0.00     0.000 C 
ENDROOT
BRANCH   1   2
ATOM      2  C   UNL     1      46.408  22.601  16.329  1.00  0.00     0.000 C 
BRANCH   2   3
ATOM      3  C   UNL     1      46.970  23.102  17.670  1.00  0.00     0.000 C 
BRANCH   3   4
ATOM      4  C   UNL     1      48.223  22.330  18.119  1.00  0.00     0.000 C 
BRANCH   4   5
ATOM      5  C   UNL     1      49.023  23.073  19.203  1.00  0.00     0.000 C 
BRANCH   5   6
ATOM      6  C   UNL     1      49.045  22.394  20.588  1.00  0.00     0.000 C 
BRANCH   6   7
ATOM      7  C   UNL     1      50.028  21.218  20.725  1.00  0.00     0.000 C 
BRANCH   7   8
ATOM      8  C   UNL     1      51.300  21.527  21.538  1.00  0.00     0.000 C 
BRANCH   8   9
ATOM      9  C   UNL     1      52.213  22.590  20.886  1.00  0.00     0.000 C 
BRANCH   9  10
ATOM     10  C   UNL     1      52.970  22.043  19.663  1.00  0.00     0.000 C 
BRANCH  10  11
ATOM     11  C   UNL     1      52.606  22.778  18.362  1.00  0.00     0.000 C 
BRANCH  11  12
ATOM     12  C   UNL     1      52.065  21.835  17.276  1.00  0.00     0.006 C 
BRANCH  12  13
ATOM     13  C   UNL     1      52.390  22.369  15.878  1.00  0.00     0.053 C 
BRANCH  13  14
ATOM     14  C   UNL     1      52.111  21.328  14.838  1.00  0.00     0.041 C 
ATOM     15  O   UNL     1      53.023  20.950  14.055  1.00  0.00    -0.550 OA
ATOM     16  O   UNL     1      50.839  20.778  14.729  1.00  0.00    -0.550 OA
ENDBRANCH  13  14
ENDBRANCH  12  13
ENDBRANCH  11  12
ENDBRANCH  10  11
ENDBRANCH   9  10
ENDBRANCH   8   9
ENDBRANCH   7   8
ENDBRANCH   6   7
ENDBRANCH   5   6
ENDBRANCH   4   5
ENDBRANCH   3   4
ENDBRANCH   2   3
ENDBRANCH   1   2
BRANCH   1  17
ATOM     17  C   UNL     1      44.010  22.980  15.513  1.00  0.00     0.000 C 
BRANCH  17  18
ATOM     18  C   UNL     1      42.508  22.886  15.846  1.00  0.00     0.000 C 
BRANCH  18  19
ATOM     19  C   UNL     1      41.555  23.125  14.662  1.00  0.00     0.000 C 
BRANCH  19  20
ATOM     20  C   UNL     1      40.480  22.033  14.534  1.00  0.00     0.000 C 
BRANCH  20  21
ATOM     21  C   UNL     1      39.058  22.611  14.469  1.00  0.00     0.000 C 
BRANCH  21  22
ATOM     22  C   UNL     1      38.003  21.635  15.017  1.00  0.00    -0.000 C 
BRANCH  22  23
ATOM     23  C   UNL     1      36.706  22.343  15.443  1.00  0.00    -0.000 C 
BRANCH  23  24
ATOM     24  C   UNL     1      35.799  22.692  14.253  1.00  0.00    -0.000 C 
BRANCH  24  25
ATOM     25  C   UNL     1      35.411  21.429  13.471  1.00  0.00    -0.000 C 
BRANCH  25  26
ATOM     26  C   UNL     1      33.916  21.396  13.109  1.00  0.00    -0.000 C 
BRANCH  26  27
ATOM     27  C   UNL     1      33.560  22.377  11.983  1.00  0.00    -0.000 C 
BRANCH  27  28
ATOM     28  C   UNL     1      34.031  21.842  10.622  1.00  0.00    -0.000 C 
BRANCH  28  29
ATOM     29  C   UNL     1      35.133  22.713   9.998  1.00  0.00    -0.003 C 
ATOM     30  C   UNL     1      36.442  22.660  10.785  1.00  0.00     0.004 C 
ENDBRANCH  28  29
ENDBRANCH  27  28
ENDBRANCH  26  27
ENDBRANCH  25  26
ENDBRANCH  24  25
ENDBRANCH  23  24
ENDBRANCH  22  23
ENDBRANCH  21  22
ENDBRANCH  20  21
ENDBRANCH  19  20
ENDBRANCH  18  19
ENDBRANCH  17  18
ENDBRANCH   1  17
TORSDOF 26
ENDMDL
MODEL 6
REMARK VINA RESULT:     1.263      2.646      4.364
REMARK INTER + INTRA:           2.038
REMARK INTER:                   3.402
REMARK INTRA:                  -1.364
REMARK UNBOUND:                -1.144
REMARK SMILES CCCCCCCCCCCCCCCCCCCCCCCCCCCC(=O)[O-]
REMARK SMILES IDX 15 1 16 2 17 3 18 4 19 5 20 6 21 7 22 8 23 9 24 10 25 11
REMARK SMILES IDX 26 12 27 13 28 14 29 15 30 16 14 17 13 18 12 19 11 20 10 21
REMARK SMILES IDX 9 22 8 23 7 24 6 25 5 26 4 27 3 28 2 29 1 30
REMARK H PARENT
REMARK Flexibility Score: inf
ROOT
ATOM      1  C   UNL     1      46.532  22.480  16.393  1.00  0.00     0.000 C 
ENDROOT
BRANCH   1   2
ATOM      2  C   UNL     1      46.516  20.962  16.145  1.00  0.00     0.000 C 
BRANCH   2   3
ATOM      3  C   UNL     1      47.847  20.436  15.583  1.00  0.00     0.000 C 
BRANCH   3   4
ATOM      4  C   UNL     1      49.015  21.414  15.800  1.00  0.00     0.000 C 
BRANCH   4   5
ATOM      5  C   UNL     1      50.020  21.409  14.634  1.00  0.00     0.000 C 
BRANCH   5   6
ATOM      6  C   UNL     1      51.259  20.512  14.837  1.00  0.00     0.000 C 
BRANCH   6   7
ATOM      7  C   UNL     1      52.197  20.940  15.980  1.00  0.00     0.000 C 
BRANCH   7   8
ATOM      8  C   UNL     1      52.354  22.464  16.153  1.00  0.00     0.000 C 
BRANCH   8   9
ATOM      9  C   UNL     1      52.072  22.959  17.590  1.00  0.00     0.000 C 
BRANCH   9  10
ATOM     10  C   UNL     1      52.451  21.916  18.656  1.00  0.00     0.000 C 
BRANCH  10  11
ATOM     11  C   UNL     1      52.932  22.557  19.969  1.00  0.00     0.000 C 
BRANCH  11  12
ATOM     12  C   UNL     1      51.780  22.871  20.936  1.00  0.00     0.006 C 
BRANCH  12  13
ATOM     13  C   UNL     1      51.490  21.674  21.847  1.00  0.00     0.053 C 
BRANCH  13  14
ATOM     14  C   UNL     1      50.074  21.709  22.331  1.00  0.00     0.041 C 
ATOM     15  O   UNL     1      49.619  22.743  22.891  1.00  0.00    -0.550 OA
ATOM     16  O   UNL     1      49.255  20.598  22.167  1.00  0.00    -0.550 OA
ENDBRANCH  13  14
ENDBRANCH  12  13
ENDBRANCH  11  12
ENDBRANCH  10  11
ENDBRANCH   9  10
ENDBRANCH   8   9
ENDBRANCH   7   8
ENDBRANCH   6   7
ENDBRANCH   5   6
ENDBRANCH   4   5
ENDBRANCH   3   4
ENDBRANCH   2   3
ENDBRANCH   1   2
BRANCH   1  17
ATOM     17  C   UNL     1      45.144  23.124  16.223  1.00  0.00     0.000 C 
BRANCH  17  18
ATOM     18  C   UNL     1      43.951  22.222  16.598  1.00  0.00     0.000 C 
BRANCH  18  19
ATOM     19  C   UNL     1      42.567  22.887  16.500  1.00  0.00     0.000 C 
BRANCH  19  20
ATOM     20  C   UNL     1      41.583  22.085  15.632  1.00  0.00     0.000 C 
BRANCH  20  21
ATOM     21  C   UNL     1      40.455  22.959  15.061  1.00  0.00     0.000 C 
BRANCH  21  22
ATOM     22  C   UNL     1      39.141  22.179  14.885  1.00  0.00    -0.000 C 
BRANCH  22  23
ATOM     23  C   UNL     1      37.910  23.097  14.841  1.00  0.00    -0.000 C 
BRANCH  23  24
ATOM     24  C   UNL     1      36.585  22.323  14.913  1.00  0.00    -0.000 C 
BRANCH  24  25
ATOM     25  C   UNL     1      36.730  20.929  14.284  1.00  0.00    -0.000 C 
BRANCH  25  26
ATOM     26  C   UNL     1      35.371  20.266  14.003  1.00  0.00    -0.000 C 
BRANCH  26  27
ATOM     27  C   UNL     1      34.696  20.818  12.738  1.00  0.00    -0.000 C 
BRANCH  27  28
ATOM     28  C   UNL     1      35.699  21.608  11.884  1.00  0.00    -0.000 C 
BRANCH  28  29
ATOM     29  C   UNL     1      35.079  22.874  11.271  1.00  0.00    -0.003 C 
ATOM     30  C   UNL     1      34.937  22.782   9.752  1.00  0.00     0.004 C 
ENDBRANCH  28  29
ENDBRANCH  27  28
ENDBRANCH  26  27
ENDBRANCH  25  26
ENDBRANCH  24  25
ENDBRANCH  23  24
ENDBRANCH  22  23
ENDBRANCH  21  22
ENDBRANCH  20  21
ENDBRANCH  19  20
ENDBRANCH  18  19
ENDBRANCH  17  18
ENDBRANCH   1  17
TORSDOF 26
ENDMDL
MODEL 7
REMARK VINA RESULT:     1.380      2.314      4.277
REMARK INTER + INTRA:           2.334
REMARK INTER:                   3.928
REMARK INTRA:                  -1.594
REMARK UNBOUND:                -1.144
REMARK SMILES CCCCCCCCCCCCCCCCCCCCCCCCCCCC(=O)[O-]
REMARK SMILES IDX 15 1 16 2 17 3 18 4 19 5 20 6 21 7 22 8 23 9 24 10 25 11
REMARK SMILES IDX 26 12 27 13 28 14 29 15 30 16 14 17 13 18 12 19 11 20 10 21
REMARK SMILES IDX 9 22 8 23 7 24 6 25 5 26 4 27 3 28 2 29 1 30
REMARK H PARENT
REMARK Flexibility Score: inf
ROOT
ATOM      1  C   UNL     1      47.376  21.282  17.136  1.00  0.00     0.000 C 
ENDROOT
BRANCH   1   2
ATOM      2  C   UNL     1      48.841  21.443  16.694  1.00  0.00     0.000 C 
BRANCH   2   3
ATOM      3  C   UNL     1      48.977  21.824  15.211  1.00  0.00     0.000 C 
BRANCH   3   4
ATOM      4  C   UNL     1      49.915  20.883  14.435  1.00  0.00     0.000 C 
BRANCH   4   5
ATOM      5  C   UNL     1      50.847  20.079  15.359  1.00  0.00     0.000 C 
BRANCH   5   6
ATOM      6  C   UNL     1      52.277  20.640  15.503  1.00  0.00     0.000 C 
BRANCH   6   7
ATOM      7  C   UNL     1      52.659  21.728  14.483  1.00  0.00     0.000 C 
BRANCH   7   8
ATOM      8  C   UNL     1      53.020  23.094  15.098  1.00  0.00     0.000 C 
BRANCH   8   9
ATOM      9  C   UNL     1      53.124  23.076  16.639  1.00  0.00     0.000 C 
BRANCH   9  10
ATOM     10  C   UNL     1      51.745  23.102  17.322  1.00  0.00     0.000 C 
BRANCH  10  11
ATOM     11  C   UNL     1      51.655  22.134  18.514  1.00  0.00     0.000 C 
BRANCH  11  12
ATOM     12  C   UNL     1      51.151  22.814  19.796  1.00  0.00     0.006 C 
BRANCH  12  13
ATOM     13  C   UNL     1      49.683  22.464  20.060  1.00  0.00     0.053 C 
BRANCH  13  14
ATOM     14  C   UNL     1      49.496  21.998  21.470  1.00  0.00     0.041 C 
ATOM     15  O   UNL     1      49.864  20.841  21.813  1.00  0.00    -0.550 OA
ATOM     16  O   UNL     1      48.911  22.839  22.409  1.00  0.00    -0.550 OA
ENDBRANCH  13  14
ENDBRANCH  12  13
ENDBRANCH  11  12
ENDBRANCH  10  11
ENDBRANCH   9  10
ENDBRANCH   8   9
ENDBRANCH   7   8
ENDBRANCH   6   7
ENDBRANCH   5   6
ENDBRANCH   4   5
ENDBRANCH   3   4
ENDBRANCH   2   3
ENDBRANCH   1   2
BRANCH   1  17
ATOM     17  C   UNL     1      46.398  21.255  15.947  1.00  0.00     0.000 C 
BRANCH  17  18
ATOM     18  C   UNL     1      45.366  22.400  15.920  1.00  0.00     0.000 C 
BRANCH  18  19
ATOM     19  C   UNL     1      44.065  22.131  16.696  1.00  0.00     0.000 C 
BRANCH  19  20
ATOM     20  C   UNL     1      42.939  23.111  16.325  1.00  0.00     0.000 C 
BRANCH  20  21
ATOM     21  C   UNL     1      42.093  22.615  15.142  1.00  0.00     0.000 C 
BRANCH  21  22
ATOM     22  C   UNL     1      40.643  23.125  15.203  1.00  0.00    -0.000 C 
BRANCH  22  23
ATOM     23  C   UNL     1      39.618  22.036  14.847  1.00  0.00    -0.000 C 
BRANCH  23  24
ATOM     24  C   UNL     1      38.527  22.536  13.887  1.00  0.00    -0.000 C 
BRANCH  24  25
ATOM     25  C   UNL     1      37.167  22.617  14.596  1.00  0.00    -0.000 C 
BRANCH  25  26
ATOM     26  C   UNL     1      36.459  21.254  14.669  1.00  0.00    -0.000 C 
BRANCH  26  27
ATOM     27  C   UNL     1      34.967  21.344  14.315  1.00  0.00    -0.000 C 
BRANCH  27  28
ATOM     28  C   UNL     1      34.129  20.462  15.253  1.00  0.00    -0.000 C 
BRANCH  28  29
ATOM     29  C   UNL     1      33.276  19.437  14.488  1.00  0.00    -0.003 C 
ATOM     30  C   UNL     1      33.521  19.476  12.980  1.00  0.00     0.004 C 
ENDBRANCH  28  29
ENDBRANCH  27  28
ENDBRANCH  26  27
ENDBRANCH  25  26
ENDBRANCH  24  25
ENDBRANCH  23  24
ENDBRANCH  22  23
ENDBRANCH  21  22
ENDBRANCH  20  21
ENDBRANCH  19  20
ENDBRANCH  18  19
ENDBRANCH  17  18
ENDBRANCH   1  17
TORSDOF 26
ENDMDL
