MODEL 1
REMARK VINA RESULT:    16.486      0.000      0.000
REMARK INTER + INTRA:          23.271
REMARK INTER:                  22.751
REMARK INTRA:                   0.521
REMARK UNBOUND:                 0.521
REMARK SMILES CC[C@@H](CC[C@@H](C)[C@@H]1CC[C@@H]2[C@@H]3CC=C4C[C@@H](O)CC[C@]4(C)[C@@H]3CC[C@]21C)C(C)C
REMARK SMILES IDX 5 1 4 2 3 3 2 4 1 5 28 6 29 7 30 8 6 9 7 10 8 11 9 12 26 13
REMARK SMILES IDX 10 14 11 15 25 16 27 17 12 18 24 19 23 20 13 21 21 22 14 23
REMARK SMILES IDX 15 24 20 25 22 26 16 27 19 28 17 29 18 30
REMARK H PARENT 18 31
REMARK Flexibility Score: inf
ROOT
ATOM      1  C   UNL     1     -24.168 -20.389 -15.330  1.00  0.00     0.004 C 
ENDROOT
BRANCH   1   2
ATOM      2  C   UNL     1     -23.146 -20.529 -14.176  1.00  0.00     0.004 C 
BRANCH   2   3
ATOM      3  C   UNL     1     -22.235 -21.794 -14.191  1.00  0.00    -0.009 C 
BRANCH   3   4
ATOM      4  C   UNL     1     -23.065 -23.108 -14.349  1.00  0.00     0.000 C 
ATOM      5  C   UNL     1     -22.414 -24.382 -13.797  1.00  0.00     0.004 C 
ENDBRANCH   3   4
BRANCH   3   6
ATOM      6  C   UNL     1     -21.188 -21.831 -13.027  1.00  0.00    -0.014 C 
ATOM      7  C   UNL     1     -21.575 -20.897 -11.867  1.00  0.00     0.007 C 
ATOM      8  C   UNL     1     -19.748 -21.552 -13.478  1.00  0.00     0.007 C 
ENDBRANCH   3   6
ENDBRANCH   2   3
ENDBRANCH   1   2
BRANCH   1   9
ATOM      9  C   UNL     1     -25.298 -19.340 -15.094  1.00  0.00    -0.011 C 
ATOM     10  C   UNL     1     -26.614 -20.012 -14.667  1.00  0.00     0.008 C 
BRANCH   9  11
ATOM     11  C   UNL     1     -24.959 -18.105 -14.177  1.00  0.00    -0.002 C 
ATOM     12  C   UNL     1     -25.945 -16.912 -14.297  1.00  0.00     0.005 C 
ATOM     13  C   UNL     1     -23.539 -17.451 -14.140  1.00  0.00    -0.026 C 
ATOM     14  C   UNL     1     -25.179 -15.656 -13.846  1.00  0.00     0.005 C 
ATOM     15  C   UNL     1     -23.862 -16.195 -13.308  1.00  0.00    -0.001 C 
ATOM     16  C   UNL     1     -22.463 -18.230 -13.353  1.00  0.00     0.007 C 
ATOM     17  C   UNL     1     -23.022 -17.155 -15.570  1.00  0.00     0.012 C 
ATOM     18  C   UNL     1     -22.690 -15.223 -13.033  1.00  0.00     0.000 C 
ATOM     19  C   UNL     1     -21.208 -17.367 -13.081  1.00  0.00     0.005 C 
ATOM     20  C   UNL     1     -21.491 -15.992 -12.382  1.00  0.00     0.003 C 
ATOM     21  C   UNL     1     -22.310 -14.278 -14.209  1.00  0.00     0.031 C 
ATOM     22  C   UNL     1     -20.222 -15.059 -12.255  1.00  0.00    -0.008 C 
ATOM     23  C   UNL     1     -20.837 -14.175 -14.511  1.00  0.00    -0.027 C 
ATOM     24  C   UNL     1     -19.869 -14.483 -13.624  1.00  0.00    -0.065 C 
ATOM     25  C   UNL     1     -19.003 -15.844 -11.660  1.00  0.00     0.014 C 
ATOM     26  C   UNL     1     -20.547 -13.875 -11.303  1.00  0.00     0.016 C 
ATOM     27  C   UNL     1     -18.475 -13.937 -13.878  1.00  0.00     0.063 C 
ATOM     28  C   UNL     1     -17.662 -15.112 -11.806  1.00  0.00     0.033 C 
ATOM     29  C   UNL     1     -17.380 -14.824 -13.284  1.00  0.00     0.118 C 
BRANCH  29  30
ATOM     30  O   UNL     1     -16.142 -14.174 -13.410  1.00  0.00    -0.393 OA
ATOM     31  H   UNL     1     -16.105 -13.482 -12.701  1.00  0.00     0.210 HD
ENDBRANCH  29  30
ENDBRANCH   9  11
ENDBRANCH   1   9
TORSDOF 7
ENDMDL
MODEL 2
REMARK VINA RESULT:    16.980      2.015      4.281
REMARK INTER + INTRA:          23.953
REMARK INTER:                  20.297
REMARK INTRA:                   3.656
REMARK UNBOUND:                 0.521
REMARK SMILES CC[C@@H](CC[C@@H](C)[C@@H]1CC[C@@H]2[C@@H]3CC=C4C[C@@H](O)CC[C@]4(C)[C@@H]3CC[C@]21C)C(C)C
REMARK SMILES IDX 5 1 4 2 3 3 2 4 1 5 28 6 29 7 30 8 6 9 7 10 8 11 9 12 26 13
REMARK SMILES IDX 10 14 11 15 25 16 27 17 12 18 24 19 23 20 13 21 21 22 14 23
REMARK SMILES IDX 15 24 20 25 22 26 16 27 19 28 17 29 18 30
REMARK H PARENT 18 31
REMARK Flexibility Score: inf
ROOT
ATOM      1  C   UNL     1     -25.541 -17.924 -15.797  1.00  0.00     0.004 C 
ENDROOT
BRANCH   1   2
ATOM      2  C   UNL     1     -24.539 -16.946 -16.458  1.00  0.00     0.004 C 
BRANCH   2   3
ATOM      3  C   UNL     1     -25.138 -15.688 -17.157  1.00  0.00    -0.009 C 
BRANCH   3   4
ATOM      4  C   UNL     1     -24.948 -15.735 -18.706  1.00  0.00     0.000 C 
ATOM      5  C   UNL     1     -23.717 -15.002 -19.253  1.00  0.00     0.004 C 
ENDBRANCH   3   4
BRANCH   3   6
ATOM      6  C   UNL     1     -24.708 -14.335 -16.497  1.00  0.00    -0.014 C 
ATOM      7  C   UNL     1     -23.179 -14.171 -16.450  1.00  0.00     0.007 C 
ATOM      8  C   UNL     1     -25.311 -14.102 -15.106  1.00  0.00     0.007 C 
ENDBRANCH   3   6
ENDBRANCH   2   3
ENDBRANCH   1   2
BRANCH   1   9
ATOM      9  C   UNL     1     -25.138 -18.429 -14.377  1.00  0.00    -0.011 C 
ATOM     10  C   UNL     1     -24.315 -19.726 -14.451  1.00  0.00     0.008 C 
BRANCH   9  11
ATOM     11  C   UNL     1     -24.483 -17.385 -13.397  1.00  0.00    -0.002 C 
ATOM     12  C   UNL     1     -25.315 -16.096 -13.163  1.00  0.00     0.005 C 
ATOM     13  C   UNL     1     -23.010 -16.887 -13.562  1.00  0.00    -0.026 C 
ATOM     14  C   UNL     1     -24.328 -15.004 -12.718  1.00  0.00     0.005 C 
ATOM     15  C   UNL     1     -23.012 -15.745 -12.528  1.00  0.00    -0.001 C 
ATOM     16  C   UNL     1     -21.914 -17.878 -13.113  1.00  0.00     0.007 C 
ATOM     17  C   UNL     1     -22.732 -16.432 -15.016  1.00  0.00     0.012 C 
ATOM     18  C   UNL     1     -21.697 -14.945 -12.372  1.00  0.00     0.000 C 
ATOM     19  C   UNL     1     -20.531 -17.194 -12.990  1.00  0.00     0.005 C 
ATOM     20  C   UNL     1     -20.504 -15.919 -12.078  1.00  0.00     0.003 C 
ATOM     21  C   UNL     1     -21.424 -13.877 -13.469  1.00  0.00     0.031 C 
ATOM     22  C   UNL     1     -19.127 -15.145 -12.090  1.00  0.00    -0.008 C 
ATOM     23  C   UNL     1     -20.032 -13.876 -14.044  1.00  0.00    -0.027 C 
ATOM     24  C   UNL     1     -18.962 -14.408 -13.416  1.00  0.00    -0.065 C 
ATOM     25  C   UNL     1     -17.928 -16.127 -11.856  1.00  0.00     0.014 C 
ATOM     26  C   UNL     1     -19.119 -14.091 -10.948  1.00  0.00     0.016 C 
ATOM     27  C   UNL     1     -17.582 -13.970 -13.872  1.00  0.00     0.063 C 
ATOM     28  C   UNL     1     -16.555 -15.517 -12.173  1.00  0.00     0.033 C 
ATOM     29  C   UNL     1     -16.518 -15.041 -13.629  1.00  0.00     0.118 C 
BRANCH  29  30
ATOM     30  O   UNL     1     -15.252 -14.505 -13.916  1.00  0.00    -0.393 OA
ATOM     31  H   UNL     1     -14.626 -14.860 -13.234  1.00  0.00     0.210 HD
ENDBRANCH  29  30
ENDBRANCH   9  11
ENDBRANCH   1   9
TORSDOF 7
ENDMDL
MODEL 3
REMARK VINA RESULT:    18.988      2.329      4.461
REMARK INTER + INTRA:          26.724
REMARK INTER:                  26.315
REMARK INTRA:                   0.409
REMARK UNBOUND:                 0.521
REMARK SMILES CC[C@@H](CC[C@@H](C)[C@@H]1CC[C@@H]2[C@@H]3CC=C4C[C@@H](O)CC[C@]4(C)[C@@H]3CC[C@]21C)C(C)C
REMARK SMILES IDX 5 1 4 2 3 3 2 4 1 5 28 6 29 7 30 8 6 9 7 10 8 11 9 12 26 13
REMARK SMILES IDX 10 14 11 15 25 16 27 17 12 18 24 19 23 20 13 21 21 22 14 23
REMARK SMILES IDX 15 24 20 25 22 26 16 27 19 28 17 29 18 30
REMARK H PARENT 18 31
REMARK Flexibility Score: inf
ROOT
ATOM      1  C   UNL     1     -26.034 -17.803 -17.032  1.00  0.00     0.004 C 
ENDROOT
BRANCH   1   2
ATOM      2  C   UNL     1     -26.535 -16.413 -17.489  1.00  0.00     0.004 C 
BRANCH   2   3
ATOM      3  C   UNL     1     -25.841 -15.789 -18.737  1.00  0.00    -0.009 C 
BRANCH   3   4
ATOM      4  C   UNL     1     -26.083 -16.639 -20.025  1.00  0.00     0.000 C 
ATOM      5  C   UNL     1     -27.442 -17.343 -20.118  1.00  0.00     0.004 C 
ENDBRANCH   3   4
BRANCH   3   6
ATOM      6  C   UNL     1     -24.344 -15.396 -18.497  1.00  0.00    -0.014 C 
ATOM      7  C   UNL     1     -24.194 -14.308 -17.420  1.00  0.00     0.007 C 
ATOM      8  C   UNL     1     -23.597 -14.988 -19.773  1.00  0.00     0.007 C 
ENDBRANCH   3   6
ENDBRANCH   2   3
ENDBRANCH   1   2
BRANCH   1   9
ATOM      9  C   UNL     1     -26.096 -18.061 -15.495  1.00  0.00    -0.011 C 
ATOM     10  C   UNL     1     -25.540 -19.447 -15.130  1.00  0.00     0.008 C 
BRANCH   9  11
ATOM     11  C   UNL     1     -25.517 -16.942 -14.550  1.00  0.00    -0.002 C 
ATOM     12  C   UNL     1     -26.174 -15.544 -14.712  1.00  0.00     0.005 C 
ATOM     13  C   UNL     1     -23.985 -16.653 -14.429  1.00  0.00    -0.026 C 
ATOM     14  C   UNL     1     -25.152 -14.511 -14.209  1.00  0.00     0.005 C 
ATOM     15  C   UNL     1     -24.038 -15.352 -13.605  1.00  0.00    -0.001 C 
ATOM     16  C   UNL     1     -23.176 -17.667 -13.592  1.00  0.00     0.007 C 
ATOM     17  C   UNL     1     -23.333 -16.498 -15.826  1.00  0.00     0.012 C 
ATOM     18  C   UNL     1     -22.681 -14.694 -13.258  1.00  0.00     0.000 C 
ATOM     19  C   UNL     1     -21.766 -17.135 -13.244  1.00  0.00     0.005 C 
ATOM     20  C   UNL     1     -21.744 -15.730 -12.548  1.00  0.00     0.003 C 
ATOM     21  C   UNL     1     -22.018 -13.875 -14.402  1.00  0.00     0.031 C 
ATOM     22  C   UNL     1     -20.295 -15.133 -12.344  1.00  0.00    -0.008 C 
ATOM     23  C   UNL     1     -20.551 -14.136 -14.622  1.00  0.00    -0.027 C 
ATOM     24  C   UNL     1     -19.737 -14.666 -13.686  1.00  0.00    -0.065 C 
ATOM     25  C   UNL     1     -19.338 -16.189 -11.690  1.00  0.00     0.014 C 
ATOM     26  C   UNL     1     -20.374 -13.901 -11.400  1.00  0.00     0.016 C 
ATOM     27  C   UNL     1     -18.241 -14.478 -13.858  1.00  0.00     0.063 C 
ATOM     28  C   UNL     1     -17.853 -15.806 -11.756  1.00  0.00     0.033 C 
ATOM     29  C   UNL     1     -17.429 -15.602 -13.214  1.00  0.00     0.118 C 
BRANCH  29  30
ATOM     30  O   UNL     1     -16.065 -15.274 -13.266  1.00  0.00    -0.393 OA
ATOM     31  H   UNL     1     -15.903 -14.847 -14.147  1.00  0.00     0.210 HD
ENDBRANCH  29  30
ENDBRANCH   9  11
ENDBRANCH   1   9
TORSDOF 7
ENDMDL
