MODEL 1
REMARK VINA RESULT:    50.005      0.000      0.000
REMARK INTER + INTRA:          52.928
REMARK INTER:                  52.928
REMARK INTRA:                   0.000
REMARK UNBOUND:                 0.000
REMARK SMILES C[C@@H]1CC[C@@H]2[N@H+](C1)C[C@@H]1[C@H]3C[C@H]4[C@@H](CC(=O)[C@H]5C[C@H](O)CC[C@@]54C)[C@@H]3CC[C@@H]1[C@@]2(C)O
REMARK SMILES IDX 5 1 6 2 8 3 7 4 4 5 29 6 3 7 28 8 30 9 2 10 27 11 9 12 1 13
REMARK SMILES IDX 26 14 10 15 25 16 11 17 13 18 12 19 14 20 23 21 15 22 17 23
REMARK SMILES IDX 22 24 24 25 16 26 18 27 21 28 19 29 31 31 20 33
REMARK H PARENT 6 30 31 32 20 34
REMARK Flexibility Score: inf
ROOT
ATOM      1  C   UNL     1      13.776  21.342  -2.075  1.00  0.00     0.216 C 
ATOM      2  N   UNL     1      12.593  21.087  -1.187  1.00  0.00    -0.330 N 
ATOM      3  C   UNL     1      12.588  21.897   0.061  1.00  0.00     0.266 C 
ATOM      4  C   UNL     1      11.274  21.220  -1.854  1.00  0.00     0.265 C 
ATOM      5  C   UNL     1      13.639  20.747  -3.512  1.00  0.00     0.069 C 
ATOM      6  C   UNL     1      14.354  22.806  -1.995  1.00  0.00     0.117 C 
ATOM      7  C   UNL     1      12.238  20.821  -4.125  1.00  0.00     0.015 C 
ATOM      8  C   UNL     1      14.801  23.087  -0.507  1.00  0.00     0.036 C 
ATOM      9  C   UNL     1      13.348  23.854  -2.522  1.00  0.00     0.049 C 
ATOM     10  C   UNL     1      11.155  20.390  -3.138  1.00  0.00     0.041 C 
ATOM     11  C   UNL     1      14.910  24.602  -0.141  1.00  0.00     0.007 C 
ATOM     12  C   UNL     1      14.001  22.249   0.558  1.00  0.00     0.054 C 
ATOM     13  C   UNL     1      11.163  18.875  -2.874  1.00  0.00     0.013 C 
ATOM     14  C   UNL     1      15.513  24.852   1.269  1.00  0.00     0.004 C 
ATOM     15  C   UNL     1      13.943  22.990   1.915  1.00  0.00     0.002 C 
ATOM     16  C   UNL     1      15.301  23.642   2.196  1.00  0.00    -0.004 C 
ATOM     17  C   UNL     1      13.617  22.144   3.165  1.00  0.00     0.009 C 
ATOM     18  C   UNL     1      15.222  23.915   3.686  1.00  0.00     0.003 C 
ATOM     19  C   UNL     1      14.663  22.581   4.208  1.00  0.00    -0.000 C 
ATOM     20  C   UNL     1      16.528  24.280   4.405  1.00  0.00     0.080 C 
ATOM     21  C   UNL     1      14.284  22.659   5.724  1.00  0.00    -0.020 C 
ATOM     22  C   UNL     1      16.288  24.219   5.900  1.00  0.00     0.136 C 
ATOM     23  C   UNL     1      15.622  22.976   6.474  1.00  0.00     0.065 C 
ATOM     24  C   UNL     1      13.768  21.277   6.216  1.00  0.00     0.010 C 
ATOM     25  C   UNL     1      13.201  23.751   5.984  1.00  0.00     0.012 C 
ATOM     26  O   UNL     1      16.650  25.138   6.621  1.00  0.00    -0.299 OA
ATOM     27  C   UNL     1      15.438  22.988   8.004  1.00  0.00     0.043 C 
ATOM     28  C   UNL     1      13.629  21.198   7.751  1.00  0.00     0.032 C 
ATOM     29  C   UNL     1      14.910  21.627   8.498  1.00  0.00     0.115 C 
ATOM     30  H   UNL     1      12.669  20.090  -0.874  1.00  0.00     0.348 HD
ENDROOT
BRANCH   6  31
ATOM     31  O   UNL     1      15.491  22.916  -2.825  1.00  0.00    -0.384 OA
ATOM     32  H   UNL     1      16.231  23.324  -2.301  1.00  0.00     0.211 HD
ENDBRANCH   6  31
BRANCH  29  33
ATOM     33  O   UNL     1      15.910  20.653   8.341  1.00  0.00    -0.393 OA
ATOM     34  H   UNL     1      16.777  21.135   8.303  1.00  0.00     0.210 HD
ENDBRANCH  29  33
TORSDOF 2
ENDMDL
