MODEL 1
REMARK VINA RESULT:    13.518      0.000      0.000
REMARK INTER + INTRA:          15.964
REMARK INTER:                  16.284
REMARK INTRA:                  -0.320
REMARK UNBOUND:                -0.320
REMARK SMILES O=c1c(O)c(-c2ccc(O)c(O)c2)oc2cc(O)cc(O)c12
REMARK SMILES IDX 5 1 3 2 2 3 1 4 22 5 20 6 19 7 17 8 16 9 15 10 14 11 6 12
REMARK SMILES IDX 7 13 8 14 9 15 13 16 11 17 10 18 12 20 4 22 21 24 18 26
REMARK H PARENT 10 19 12 21 4 23 21 25 18 27
REMARK Flexibility Score: inf
ROOT
ATOM      1  C   UNL     1      22.764  76.816  10.206  1.00  0.00     0.180 A 
ATOM      2  C   UNL     1      22.193  78.100  10.169  1.00  0.00     0.208 A 
ATOM      3  C   UNL     1      20.813  78.238  10.388  1.00  0.00     0.238 A 
ATOM      4  O   UNL     1      20.298  79.383  10.300  1.00  0.00    -0.285 OA
ATOM      5  C   UNL     1      20.024  77.093  10.658  1.00  0.00     0.111 A 
ATOM      6  C   UNL     1      18.625  77.120  10.936  1.00  0.00     0.134 A 
ATOM      7  C   UNL     1      17.923  75.914  11.059  1.00  0.00     0.093 A 
ATOM      8  C   UNL     1      18.582  74.685  10.981  1.00  0.00     0.123 A 
ATOM      9  C   UNL     1      19.957  74.650  10.770  1.00  0.00     0.094 A 
ATOM     10  C   UNL     1      20.680  75.835  10.607  1.00  0.00     0.146 A 
ATOM     11  O   UNL     1      21.988  75.756  10.397  1.00  0.00    -0.452 OA
ENDROOT
BRANCH   1  12
ATOM     12  C   UNL     1      24.215  76.595  10.009  1.00  0.00     0.025 A 
ATOM     13  C   UNL     1      25.071  76.601  11.119  1.00  0.00     0.016 A 
ATOM     14  C   UNL     1      26.445  76.415  10.954  1.00  0.00     0.051 A 
ATOM     15  C   UNL     1      26.993  76.235   9.679  1.00  0.00     0.157 A 
ATOM     16  C   UNL     1      24.765  76.438   8.724  1.00  0.00     0.062 A 
ATOM     17  C   UNL     1      26.142  76.254   8.548  1.00  0.00     0.158 A 
BRANCH  15  18
ATOM     18  O   UNL     1      28.373  76.047   9.582  1.00  0.00    -0.504 OA
ATOM     19  H   UNL     1      28.841  75.722   8.749  1.00  0.00     0.293 HD
ENDBRANCH  15  18
BRANCH  17  20
ATOM     20  O   UNL     1      26.618  76.101   7.244  1.00  0.00    -0.504 OA
ATOM     21  H   UNL     1      26.231  75.453   6.575  1.00  0.00     0.293 HD
ENDBRANCH  17  20
ENDBRANCH   1  12
BRANCH   2  22
ATOM     22  O   UNL     1      22.985  79.214   9.878  1.00  0.00    -0.502 OA
ATOM     23  H   UNL     1      23.120  79.973  10.537  1.00  0.00     0.293 HD
ENDBRANCH   2  22
BRANCH   6  24
ATOM     24  O   UNL     1      17.889  78.293  11.124  1.00  0.00    -0.507 OA
ATOM     25  H   UNL     1      18.092  78.993  11.822  1.00  0.00     0.293 HD
ENDBRANCH   6  24
BRANCH   8  26
ATOM     26  O   UNL     1      17.877  73.491  11.121  1.00  0.00    -0.508 OA
ATOM     27  H   UNL     1      16.974  73.354  10.684  1.00  0.00     0.293 HD
ENDBRANCH   8  26
TORSDOF 6
ENDMDL
MODEL 2
REMARK VINA RESULT:    13.674     12.978     14.419
REMARK INTER + INTRA:          16.152
REMARK INTER:                  15.641
REMARK INTRA:                   0.511
REMARK UNBOUND:                -0.320
REMARK SMILES O=c1c(O)c(-c2ccc(O)c(O)c2)oc2cc(O)cc(O)c12
REMARK SMILES IDX 5 1 3 2 2 3 1 4 22 5 20 6 19 7 17 8 16 9 15 10 14 11 6 12
REMARK SMILES IDX 7 13 8 14 9 15 13 16 11 17 10 18 12 20 4 22 21 24 18 26
REMARK H PARENT 10 19 12 21 4 23 21 25 18 27
REMARK Flexibility Score: inf
ROOT
ATOM      1  C   UNL     1      29.388  65.154   5.120  1.00  0.00     0.180 A 
ATOM      2  C   UNL     1      29.278  65.069   3.721  1.00  0.00     0.208 A 
ATOM      3  C   UNL     1      28.001  65.009   3.142  1.00  0.00     0.238 A 
ATOM      4  O   UNL     1      27.910  64.878   1.893  1.00  0.00    -0.285 OA
ATOM      5  C   UNL     1      26.850  65.053   3.965  1.00  0.00     0.111 A 
ATOM      6  C   UNL     1      25.508  65.040   3.482  1.00  0.00     0.134 A 
ATOM      7  C   UNL     1      24.447  64.955   4.394  1.00  0.00     0.093 A 
ATOM      8  C   UNL     1      24.680  64.948   5.771  1.00  0.00     0.123 A 
ATOM      9  C   UNL     1      25.984  65.021   6.253  1.00  0.00     0.094 A 
ATOM     10  C   UNL     1      27.065  65.070   5.368  1.00  0.00     0.146 A 
ATOM     11  O   UNL     1      28.292  65.128   5.869  1.00  0.00    -0.452 OA
ENDROOT
BRANCH   1  12
ATOM     12  C   UNL     1      30.700  65.246   5.802  1.00  0.00     0.025 A 
ATOM     13  C   UNL     1      31.856  65.475   5.045  1.00  0.00     0.016 A 
ATOM     14  C   UNL     1      33.105  65.543   5.665  1.00  0.00     0.051 A 
ATOM     15  C   UNL     1      33.227  65.371   7.048  1.00  0.00     0.157 A 
ATOM     16  C   UNL     1      30.820  65.048   7.189  1.00  0.00     0.062 A 
ATOM     17  C   UNL     1      32.069  65.112   7.820  1.00  0.00     0.158 A 
BRANCH  15  18
ATOM     18  O   UNL     1      34.503  65.459   7.608  1.00  0.00    -0.504 OA
ATOM     19  H   UNL     1      34.855  66.276   8.084  1.00  0.00     0.293 HD
ENDBRANCH  15  18
BRANCH  17  20
ATOM     20  O   UNL     1      32.114  64.909   9.200  1.00  0.00    -0.504 OA
ATOM     21  H   UNL     1      31.844  64.048   9.653  1.00  0.00     0.293 HD
ENDBRANCH  17  20
ENDBRANCH   1  12
BRANCH   2  22
ATOM     22  O   UNL     1      30.427  65.005   2.928  1.00  0.00    -0.502 OA
ATOM     23  H   UNL     1      31.360  65.088   3.314  1.00  0.00     0.293 HD
ENDBRANCH   2  22
BRANCH   6  24
ATOM     24  O   UNL     1      25.163  65.136   2.131  1.00  0.00    -0.507 OA
ATOM     25  H   UNL     1      25.824  65.162   1.370  1.00  0.00     0.293 HD
ENDBRANCH   6  24
BRANCH   8  26
ATOM     26  O   UNL     1      23.618  64.879   6.670  1.00  0.00    -0.508 OA
ATOM     27  H   UNL     1      23.566  65.486   7.479  1.00  0.00     0.293 HD
ENDBRANCH   8  26
TORSDOF 6
ENDMDL
MODEL 3
REMARK VINA RESULT:    14.373     13.819     16.364
REMARK INTER + INTRA:          16.994
REMARK INTER:                  16.810
REMARK INTRA:                   0.184
REMARK UNBOUND:                -0.320
REMARK SMILES O=c1c(O)c(-c2ccc(O)c(O)c2)oc2cc(O)cc(O)c12
REMARK SMILES IDX 5 1 3 2 2 3 1 4 22 5 20 6 19 7 17 8 16 9 15 10 14 11 6 12
REMARK SMILES IDX 7 13 8 14 9 15 13 16 11 17 10 18 12 20 4 22 21 24 18 26
REMARK H PARENT 10 19 12 21 4 23 21 25 18 27
REMARK Flexibility Score: inf
ROOT
ATOM      1  C   UNL     1      31.982  66.165   6.159  1.00  0.00     0.180 A 
ATOM      2  C   UNL     1      32.263  65.724   7.464  1.00  0.00     0.208 A 
ATOM      3  C   UNL     1      33.466  66.118   8.071  1.00  0.00     0.238 A 
ATOM      4  O   UNL     1      33.737  65.676   9.219  1.00  0.00    -0.285 OA
ATOM      5  C   UNL     1      34.365  66.960   7.374  1.00  0.00     0.111 A 
ATOM      6  C   UNL     1      35.593  67.453   7.907  1.00  0.00     0.134 A 
ATOM      7  C   UNL     1      36.465  68.172   7.080  1.00  0.00     0.093 A 
ATOM      8  C   UNL     1      36.123  68.471   5.759  1.00  0.00     0.123 A 
ATOM      9  C   UNL     1      34.901  68.045   5.248  1.00  0.00     0.094 A 
ATOM     10  C   UNL     1      34.025  67.295   6.037  1.00  0.00     0.146 A 
ATOM     11  O   UNL     1      32.874  66.900   5.507  1.00  0.00    -0.452 OA
ENDROOT
BRANCH   1  12
ATOM     12  C   UNL     1      30.723  65.811   5.463  1.00  0.00     0.025 A 
ATOM     13  C   UNL     1      30.725  65.659   4.070  1.00  0.00     0.016 A 
ATOM     14  C   UNL     1      29.545  65.347   3.392  1.00  0.00     0.051 A 
ATOM     15  C   UNL     1      28.340  65.195   4.086  1.00  0.00     0.157 A 
ATOM     16  C   UNL     1      29.510  65.683   6.163  1.00  0.00     0.062 A 
ATOM     17  C   UNL     1      28.321  65.373   5.490  1.00  0.00     0.158 A 
BRANCH  15  18
ATOM     18  O   UNL     1      27.197  64.875   3.351  1.00  0.00    -0.504 OA
ATOM     19  H   UNL     1      27.162  64.148   2.652  1.00  0.00     0.293 HD
ENDBRANCH  15  18
BRANCH  17  20
ATOM     20  O   UNL     1      27.154  65.258   6.249  1.00  0.00    -0.504 OA
ATOM     21  H   UNL     1      26.562  64.441   6.253  1.00  0.00     0.293 HD
ENDBRANCH  17  20
ENDBRANCH   1  12
BRANCH   2  22
ATOM     22  O   UNL     1      31.372  64.875   8.127  1.00  0.00    -0.502 OA
ATOM     23  H   UNL     1      30.552  65.219   8.613  1.00  0.00     0.293 HD
ENDBRANCH   2  22
BRANCH   6  24
ATOM     24  O   UNL     1      35.987  67.290   9.238  1.00  0.00    -0.507 OA
ATOM     25  H   UNL     1      35.932  68.007   9.946  1.00  0.00     0.293 HD
ENDBRANCH   6  24
BRANCH   8  26
ATOM     26  O   UNL     1      36.991  69.201   4.949  1.00  0.00    -0.508 OA
ATOM     27  H   UNL     1      37.978  68.980   4.895  1.00  0.00     0.293 HD
ENDBRANCH   8  26
TORSDOF 6
ENDMDL
MODEL 4
REMARK VINA RESULT:    15.308     13.231     14.682
REMARK INTER + INTRA:          18.120
REMARK INTER:                  18.236
REMARK INTRA:                  -0.116
REMARK UNBOUND:                -0.320
REMARK SMILES O=c1c(O)c(-c2ccc(O)c(O)c2)oc2cc(O)cc(O)c12
REMARK SMILES IDX 5 1 3 2 2 3 1 4 22 5 20 6 19 7 17 8 16 9 15 10 14 11 6 12
REMARK SMILES IDX 7 13 8 14 9 15 13 16 11 17 10 18 12 20 4 22 21 24 18 26
REMARK H PARENT 10 19 12 21 4 23 21 25 18 27
REMARK Flexibility Score: inf
ROOT
ATOM      1  C   UNL     1      30.939  65.522   6.051  1.00  0.00     0.180 A 
ATOM      2  C   UNL     1      31.111  65.318   4.671  1.00  0.00     0.208 A 
ATOM      3  C   UNL     1      29.979  65.112   3.867  1.00  0.00     0.238 A 
ATOM      4  O   UNL     1      30.142  64.876   2.641  1.00  0.00    -0.285 OA
ATOM      5  C   UNL     1      28.688  65.129   4.450  1.00  0.00     0.111 A 
ATOM      6  C   UNL     1      27.469  64.972   3.724  1.00  0.00     0.134 A 
ATOM      7  C   UNL     1      26.259  64.875   4.422  1.00  0.00     0.093 A 
ATOM      8  C   UNL     1      26.217  64.996   5.813  1.00  0.00     0.123 A 
ATOM      9  C   UNL     1      27.394  65.209   6.525  1.00  0.00     0.094 A 
ATOM     10  C   UNL     1      28.622  65.274   5.860  1.00  0.00     0.146 A 
ATOM     11  O   UNL     1      29.722  65.468   6.578  1.00  0.00    -0.452 OA
ENDROOT
BRANCH   1  12
ATOM     12  C   UNL     1      32.083  65.771   6.958  1.00  0.00     0.025 A 
ATOM     13  C   UNL     1      32.264  64.952   8.081  1.00  0.00     0.016 A 
ATOM     14  C   UNL     1      33.323  65.181   8.961  1.00  0.00     0.051 A 
ATOM     15  C   UNL     1      34.214  66.239   8.746  1.00  0.00     0.157 A 
ATOM     16  C   UNL     1      32.962  66.849   6.751  1.00  0.00     0.062 A 
ATOM     17  C   UNL     1      34.026  67.089   7.631  1.00  0.00     0.158 A 
BRANCH  15  18
ATOM     18  O   UNL     1      35.257  66.410   9.658  1.00  0.00    -0.504 OA
ATOM     19  H   UNL     1      35.206  67.011  10.468  1.00  0.00     0.293 HD
ENDBRANCH  15  18
BRANCH  17  20
ATOM     20  O   UNL     1      34.860  68.176   7.362  1.00  0.00    -0.504 OA
ATOM     21  H   UNL     1      34.533  69.125   7.252  1.00  0.00     0.293 HD
ENDBRANCH  17  20
ENDBRANCH   1  12
BRANCH   2  22
ATOM     22  O   UNL     1      32.395  65.283   4.120  1.00  0.00    -0.502 OA
ATOM     23  H   UNL     1      32.594  64.840   3.231  1.00  0.00     0.293 HD
ENDBRANCH   2  22
BRANCH   6  24
ATOM     24  O   UNL     1      27.391  64.934   2.329  1.00  0.00    -0.507 OA
ATOM     25  H   UNL     1      27.405  65.745   1.730  1.00  0.00     0.293 HD
ENDBRANCH   6  24
BRANCH   8  26
ATOM     26  O   UNL     1      25.005  64.914   6.497  1.00  0.00    -0.508 OA
ATOM     27  H   UNL     1      24.128  65.152   6.052  1.00  0.00     0.293 HD
ENDBRANCH   8  26
TORSDOF 6
ENDMDL
