MODEL 1
REMARK VINA RESULT:    -4.795      0.000      0.000
REMARK INTER + INTRA:          -8.364
REMARK INTER:                  -7.318
REMARK INTRA:                  -1.045
REMARK UNBOUND:                -1.045
REMARK SMILES O=C([O-])CCCCCCCCC(=O)[O-]
REMARK SMILES IDX 7 1 6 2 5 3 4 4 2 5 1 6 3 7 8 8 9 9 10 10 11 11 12 12 13 13
REMARK SMILES IDX 14 14
REMARK H PARENT
REMARK Flexibility Score: inf
ROOT
ATOM      1  C   UNL     1      18.040  -3.223  35.003  1.00  0.00     0.000 C 
ENDROOT
BRANCH   1   2
ATOM      2  C   UNL     1      17.832  -4.258  36.121  1.00  0.00     0.000 C 
BRANCH   2   3
ATOM      3  C   UNL     1      16.652  -5.203  35.838  1.00  0.00     0.006 C 
BRANCH   3   4
ATOM      4  C   UNL     1      15.977  -4.899  34.493  1.00  0.00     0.053 C 
BRANCH   4   5
ATOM      5  C   UNL     1      15.901  -6.115  33.622  1.00  0.00     0.041 C 
ATOM      6  O   UNL     1      16.127  -6.024  32.387  1.00  0.00    -0.550 OA
ATOM      7  O   UNL     1      15.546  -7.342  34.168  1.00  0.00    -0.550 OA
ENDBRANCH   4   5
ENDBRANCH   3   4
ENDBRANCH   2   3
ENDBRANCH   1   2
BRANCH   1   8
ATOM      8  C   UNL     1      19.515  -2.818  34.843  1.00  0.00     0.000 C 
BRANCH   8   9
ATOM      9  C   UNL     1      20.276  -3.717  33.852  1.00  0.00     0.000 C 
BRANCH   9  10
ATOM     10  C   UNL     1      19.384  -4.627  32.983  1.00  0.00     0.006 C 
BRANCH  10  11
ATOM     11  C   UNL     1      20.007  -5.988  32.634  1.00  0.00     0.053 C 
BRANCH  11  12
ATOM     12  C   UNL     1      19.379  -7.107  33.408  1.00  0.00     0.041 C 
ATOM     13  O   UNL     1      18.759  -8.023  32.806  1.00  0.00    -0.550 OA
ATOM     14  O   UNL     1      19.451  -7.121  34.795  1.00  0.00    -0.550 OA
ENDBRANCH  11  12
ENDBRANCH  10  11
ENDBRANCH   9  10
ENDBRANCH   8   9
ENDBRANCH   1   8
TORSDOF 9
ENDMDL
MODEL 2
REMARK VINA RESULT:    -4.774      2.140      4.158
REMARK INTER + INTRA:          -8.331
REMARK INTER:                  -7.629
REMARK INTRA:                  -0.702
REMARK UNBOUND:                -1.045
REMARK SMILES O=C([O-])CCCCCCCCC(=O)[O-]
REMARK SMILES IDX 7 1 6 2 5 3 4 4 2 5 1 6 3 7 8 8 9 9 10 10 11 11 12 12 13 13
REMARK SMILES IDX 14 14
REMARK H PARENT
REMARK Flexibility Score: inf
ROOT
ATOM      1  C   UNL     1      16.914  -3.914  33.287  1.00  0.00     0.000 C 
ENDROOT
BRANCH   1   2
ATOM      2  C   UNL     1      18.035  -2.957  33.722  1.00  0.00     0.000 C 
BRANCH   2   3
ATOM      3  C   UNL     1      19.181  -3.683  34.449  1.00  0.00     0.006 C 
BRANCH   3   4
ATOM      4  C   UNL     1      20.392  -3.913  33.534  1.00  0.00     0.053 C 
BRANCH   4   5
ATOM      5  C   UNL     1      20.362  -5.272  32.906  1.00  0.00     0.041 C 
ATOM      6  O   UNL     1      20.933  -5.473  31.802  1.00  0.00    -0.550 OA
ATOM      7  O   UNL     1      19.674  -6.310  33.523  1.00  0.00    -0.550 OA
ENDBRANCH   4   5
ENDBRANCH   3   4
ENDBRANCH   2   3
ENDBRANCH   1   2
BRANCH   1   8
ATOM      8  C   UNL     1      16.517  -4.900  34.398  1.00  0.00     0.000 C 
BRANCH   8   9
ATOM      9  C   UNL     1      15.838  -6.170  33.854  1.00  0.00     0.000 C 
BRANCH   9  10
ATOM     10  C   UNL     1      16.271  -6.579  32.430  1.00  0.00     0.006 C 
BRANCH  10  11
ATOM     11  C   UNL     1      16.823  -8.009  32.317  1.00  0.00     0.053 C 
BRANCH  11  12
ATOM     12  C   UNL     1      15.894  -8.911  31.563  1.00  0.00     0.041 C 
ATOM     13  O   UNL     1      15.779  -8.801  30.314  1.00  0.00    -0.550 OA
ATOM     14  O   UNL     1      15.130  -9.851  32.244  1.00  0.00    -0.550 OA
ENDBRANCH  11  12
ENDBRANCH  10  11
ENDBRANCH   9  10
ENDBRANCH   8   9
ENDBRANCH   1   8
TORSDOF 9
ENDMDL
MODEL 3
REMARK VINA RESULT:    -4.772      2.028      3.066
REMARK INTER + INTRA:          -8.328
REMARK INTER:                  -7.531
REMARK INTRA:                  -0.797
REMARK UNBOUND:                -1.045
REMARK SMILES O=C([O-])CCCCCCCCC(=O)[O-]
REMARK SMILES IDX 7 1 6 2 5 3 4 4 2 5 1 6 3 7 8 8 9 9 10 10 11 11 12 12 13 13
REMARK SMILES IDX 14 14
REMARK H PARENT
REMARK Flexibility Score: inf
ROOT
ATOM      1  C   UNL     1      15.896  -5.232  34.758  1.00  0.00     0.000 C 
ENDROOT
BRANCH   1   2
ATOM      2  C   UNL     1      15.865  -6.655  34.178  1.00  0.00     0.000 C 
BRANCH   2   3
ATOM      3  C   UNL     1      16.208  -6.689  32.679  1.00  0.00     0.006 C 
BRANCH   3   4
ATOM      4  C   UNL     1      16.857  -8.017  32.264  1.00  0.00     0.053 C 
BRANCH   4   5
ATOM      5  C   UNL     1      15.901  -8.893  31.515  1.00  0.00     0.041 C 
ATOM      6  O   UNL     1      15.886  -8.883  30.256  1.00  0.00    -0.550 OA
ATOM      7  O   UNL     1      15.000  -9.693  32.208  1.00  0.00    -0.550 OA
ENDBRANCH   4   5
ENDBRANCH   3   4
ENDBRANCH   2   3
ENDBRANCH   1   2
BRANCH   1   8
ATOM      8  C   UNL     1      16.987  -5.055  35.827  1.00  0.00     0.000 C 
BRANCH   8   9
ATOM      9  C   UNL     1      17.835  -3.788  35.611  1.00  0.00     0.000 C 
BRANCH   9  10
ATOM     10  C   UNL     1      19.215  -4.032  34.968  1.00  0.00     0.006 C 
BRANCH  10  11
ATOM     11  C   UNL     1      19.174  -4.332  33.461  1.00  0.00     0.053 C 
BRANCH  11  12
ATOM     12  C   UNL     1      19.860  -5.621  33.126  1.00  0.00     0.041 C 
ATOM     13  O   UNL     1      19.601  -6.665  33.781  1.00  0.00    -0.550 OA
ATOM     14  O   UNL     1      20.810  -5.662  32.113  1.00  0.00    -0.550 OA
ENDBRANCH  11  12
ENDBRANCH  10  11
ENDBRANCH   9  10
ENDBRANCH   8   9
ENDBRANCH   1   8
TORSDOF 9
ENDMDL
MODEL 4
REMARK VINA RESULT:    -4.748      2.106      3.301
REMARK INTER + INTRA:          -8.291
REMARK INTER:                  -7.209
REMARK INTRA:                  -1.082
REMARK UNBOUND:                -1.045
REMARK SMILES O=C([O-])CCCCCCCCC(=O)[O-]
REMARK SMILES IDX 7 1 6 2 5 3 4 4 2 5 1 6 3 7 8 8 9 9 10 10 11 11 12 12 13 13
REMARK SMILES IDX 14 14
REMARK H PARENT
REMARK Flexibility Score: inf
ROOT
ATOM      1  C   UNL     1      17.646  -6.345  35.947  1.00  0.00     0.000 C 
ENDROOT
BRANCH   1   2
ATOM      2  C   UNL     1      16.733  -5.116  35.809  1.00  0.00     0.000 C 
BRANCH   2   3
ATOM      3  C   UNL     1      15.800  -5.209  34.590  1.00  0.00     0.006 C 
BRANCH   3   4
ATOM      4  C   UNL     1      15.817  -6.605  33.952  1.00  0.00     0.053 C 
BRANCH   4   5
ATOM      5  C   UNL     1      16.165  -6.546  32.497  1.00  0.00     0.041 C 
ATOM      6  O   UNL     1      16.238  -7.606  31.820  1.00  0.00    -0.550 OA
ATOM      7  O   UNL     1      16.443  -5.325  31.896  1.00  0.00    -0.550 OA
ENDBRANCH   4   5
ENDBRANCH   3   4
ENDBRANCH   2   3
ENDBRANCH   1   2
BRANCH   1   8
ATOM      8  C   UNL     1      19.119  -6.022  35.642  1.00  0.00     0.000 C 
BRANCH   8   9
ATOM      9  C   UNL     1      19.453  -6.121  34.143  1.00  0.00     0.000 C 
BRANCH   9  10
ATOM     10  C   UNL     1      19.629  -4.767  33.425  1.00  0.00     0.006 C 
BRANCH  10  11
ATOM     11  C   UNL     1      19.931  -3.584  34.359  1.00  0.00     0.053 C 
BRANCH  11  12
ATOM     12  C   UNL     1      18.845  -2.552  34.325  1.00  0.00     0.041 C 
ATOM     13  O   UNL     1      18.828  -1.623  35.176  1.00  0.00    -0.550 OA
ATOM     14  O   UNL     1      17.835  -2.634  33.375  1.00  0.00    -0.550 OA
ENDBRANCH  11  12
ENDBRANCH  10  11
ENDBRANCH   9  10
ENDBRANCH   8   9
ENDBRANCH   1   8
TORSDOF 9
ENDMDL
MODEL 5
REMARK VINA RESULT:    -4.716     19.369     20.583
REMARK INTER + INTRA:          -8.243
REMARK INTER:                  -7.382
REMARK INTRA:                  -0.861
REMARK UNBOUND:                -1.045
REMARK SMILES O=C([O-])CCCCCCCCC(=O)[O-]
REMARK SMILES IDX 7 1 6 2 5 3 4 4 2 5 1 6 3 7 8 8 9 9 10 10 11 11 12 12 13 13
REMARK SMILES IDX 14 14
REMARK H PARENT
REMARK Flexibility Score: inf
ROOT
ATOM      1  C   UNL     1       9.575   3.534  18.453  1.00  0.00     0.000 C 
ENDROOT
BRANCH   1   2
ATOM      2  C   UNL     1       8.330   4.332  18.872  1.00  0.00     0.000 C 
BRANCH   2   3
ATOM      3  C   UNL     1       8.263   5.716  18.204  1.00  0.00     0.006 C 
BRANCH   3   4
ATOM      4  C   UNL     1       9.484   5.988  17.314  1.00  0.00     0.053 C 
BRANCH   4   5
ATOM      5  C   UNL     1      10.051   7.353  17.552  1.00  0.00     0.041 C 
ATOM      6  O   UNL     1      11.293   7.508  17.688  1.00  0.00    -0.550 OA
ATOM      7  O   UNL     1       9.205   8.450  17.659  1.00  0.00    -0.550 OA
ENDBRANCH   4   5
ENDBRANCH   3   4
ENDBRANCH   2   3
ENDBRANCH   1   2
BRANCH   1   8
ATOM      8  C   UNL     1      10.233   2.803  19.635  1.00  0.00     0.000 C 
BRANCH   8   9
ATOM      9  C   UNL     1      10.578   3.745  20.802  1.00  0.00     0.000 C 
BRANCH   9  10
ATOM     10  C   UNL     1      11.513   4.917  20.437  1.00  0.00     0.006 C 
BRANCH  10  11
ATOM     11  C   UNL     1      11.760   5.917  21.577  1.00  0.00     0.053 C 
BRANCH  11  12
ATOM     12  C   UNL     1      11.639   7.337  21.114  1.00  0.00     0.041 C 
ATOM     13  O   UNL     1      10.512   7.897  21.080  1.00  0.00    -0.550 OA
ATOM     14  O   UNL     1      12.766   8.030  20.690  1.00  0.00    -0.550 OA
ENDBRANCH  11  12
ENDBRANCH  10  11
ENDBRANCH   9  10
ENDBRANCH   8   9
ENDBRANCH   1   8
TORSDOF 9
ENDMDL
MODEL 6
REMARK VINA RESULT:    -4.711      2.147      3.845
REMARK INTER + INTRA:          -8.235
REMARK INTER:                  -7.376
REMARK INTRA:                  -0.859
REMARK UNBOUND:                -1.045
REMARK SMILES O=C([O-])CCCCCCCCC(=O)[O-]
REMARK SMILES IDX 7 1 6 2 5 3 4 4 2 5 1 6 3 7 8 8 9 9 10 10 11 11 12 12 13 13
REMARK SMILES IDX 14 14
REMARK H PARENT
REMARK Flexibility Score: inf
ROOT
ATOM      1  C   UNL     1      16.037  -5.013  34.725  1.00  0.00     0.000 C 
ENDROOT
BRANCH   1   2
ATOM      2  C   UNL     1      17.099  -4.908  35.832  1.00  0.00     0.000 C 
BRANCH   2   3
ATOM      3  C   UNL     1      18.054  -3.720  35.624  1.00  0.00     0.006 C 
BRANCH   3   4
ATOM      4  C   UNL     1      19.494  -4.175  35.350  1.00  0.00     0.053 C 
BRANCH   4   5
ATOM      5  C   UNL     1      20.299  -3.102  34.686  1.00  0.00     0.041 C 
ATOM      6  O   UNL     1      20.957  -3.357  33.643  1.00  0.00    -0.550 OA
ATOM      7  O   UNL     1      20.352  -1.827  35.238  1.00  0.00    -0.550 OA
ENDBRANCH   4   5
ENDBRANCH   3   4
ENDBRANCH   2   3
ENDBRANCH   1   2
BRANCH   1   8
ATOM      8  C   UNL     1      16.557  -4.526  33.362  1.00  0.00     0.000 C 
BRANCH   8   9
ATOM      9  C   UNL     1      16.578  -5.639  32.299  1.00  0.00     0.000 C 
BRANCH   9  10
ATOM     10  C   UNL     1      16.532  -7.075  32.862  1.00  0.00     0.006 C 
BRANCH  10  11
ATOM     11  C   UNL     1      17.816  -7.890  32.641  1.00  0.00     0.053 C 
BRANCH  11  12
ATOM     12  C   UNL     1      18.968  -7.344  33.427  1.00  0.00     0.041 C 
ATOM     13  O   UNL     1      19.096  -7.632  34.646  1.00  0.00    -0.550 OA
ATOM     14  O   UNL     1      19.884  -6.492  32.822  1.00  0.00    -0.550 OA
ENDBRANCH  11  12
ENDBRANCH  10  11
ENDBRANCH   9  10
ENDBRANCH   8   9
ENDBRANCH   1   8
TORSDOF 9
ENDMDL
MODEL 7
REMARK VINA RESULT:    -4.704      2.035      4.237
REMARK INTER + INTRA:          -8.225
REMARK INTER:                  -7.247
REMARK INTRA:                  -0.978
REMARK UNBOUND:                -1.045
REMARK SMILES O=C([O-])CCCCCCCCC(=O)[O-]
REMARK SMILES IDX 7 1 6 2 5 3 4 4 2 5 1 6 3 7 8 8 9 9 10 10 11 11 12 12 13 13
REMARK SMILES IDX 14 14
REMARK H PARENT
REMARK Flexibility Score: inf
ROOT
ATOM      1  C   UNL     1      19.311  -6.468  35.016  1.00  0.00     0.000 C 
ENDROOT
BRANCH   1   2
ATOM      2  C   UNL     1      19.512  -6.383  33.494  1.00  0.00     0.000 C 
BRANCH   2   3
ATOM      3  C   UNL     1      19.428  -4.940  32.967  1.00  0.00     0.006 C 
BRANCH   3   4
ATOM      4  C   UNL     1      19.856  -3.912  34.024  1.00  0.00     0.053 C 
BRANCH   4   5
ATOM      5  C   UNL     1      18.841  -2.824  34.184  1.00  0.00     0.041 C 
ATOM      6  O   UNL     1      18.950  -1.987  35.119  1.00  0.00    -0.550 OA
ATOM      7  O   UNL     1      17.752  -2.755  33.323  1.00  0.00    -0.550 OA
ENDBRANCH   4   5
ENDBRANCH   3   4
ENDBRANCH   2   3
ENDBRANCH   1   2
BRANCH   1   8
ATOM      8  C   UNL     1      17.868  -6.833  35.400  1.00  0.00     0.000 C 
BRANCH   8   9
ATOM      9  C   UNL     1      16.962  -5.599  35.559  1.00  0.00     0.000 C 
BRANCH   9  10
ATOM     10  C   UNL     1      15.837  -5.480  34.510  1.00  0.00     0.006 C 
BRANCH  10  11
ATOM     11  C   UNL     1      15.505  -6.790  33.778  1.00  0.00     0.053 C 
BRANCH  11  12
ATOM     12  C   UNL     1      16.095  -6.829  32.401  1.00  0.00     0.041 C 
ATOM     13  O   UNL     1      16.488  -7.920  31.912  1.00  0.00    -0.550 OA
ATOM     14  O   UNL     1      16.241  -5.655  31.672  1.00  0.00    -0.550 OA
ENDBRANCH  11  12
ENDBRANCH  10  11
ENDBRANCH   9  10
ENDBRANCH   8   9
ENDBRANCH   1   8
TORSDOF 9
ENDMDL
MODEL 8
REMARK VINA RESULT:    -4.694     18.518     19.767
REMARK INTER + INTRA:          -8.209
REMARK INTER:                  -7.378
REMARK INTRA:                  -0.831
REMARK UNBOUND:                -1.045
REMARK SMILES O=C([O-])CCCCCCCCC(=O)[O-]
REMARK SMILES IDX 7 1 6 2 5 3 4 4 2 5 1 6 3 7 8 8 9 9 10 10 11 11 12 12 13 13
REMARK SMILES IDX 14 14
REMARK H PARENT
REMARK Flexibility Score: inf
ROOT
ATOM      1  C   UNL     1       9.539   5.230  20.964  1.00  0.00     0.000 C 
ENDROOT
BRANCH   1   2
ATOM      2  C   UNL     1      10.074   6.670  20.946  1.00  0.00     0.000 C 
BRANCH   2   3
ATOM      3  C   UNL     1      11.610   6.730  21.015  1.00  0.00     0.006 C 
BRANCH   3   4
ATOM      4  C   UNL     1      12.216   7.453  19.804  1.00  0.00     0.053 C 
BRANCH   4   5
ATOM      5  C   UNL     1      11.930   6.730  18.525  1.00  0.00     0.041 C 
ATOM      6  O   UNL     1      12.485   5.626  18.284  1.00  0.00    -0.550 OA
ATOM      7  O   UNL     1      11.077   7.292  17.583  1.00  0.00    -0.550 OA
ENDBRANCH   4   5
ENDBRANCH   3   4
ENDBRANCH   2   3
ENDBRANCH   1   2
BRANCH   1   8
ATOM      8  C   UNL     1      10.662   4.185  21.072  1.00  0.00     0.000 C 
BRANCH   8   9
ATOM      9  C   UNL     1      10.480   3.009  20.095  1.00  0.00     0.000 C 
BRANCH   9  10
ATOM     10  C   UNL     1       9.788   3.372  18.764  1.00  0.00     0.006 C 
BRANCH  10  11
ATOM     11  C   UNL     1       9.519   2.175  17.838  1.00  0.00     0.053 C 
BRANCH  11  12
ATOM     12  C   UNL     1       8.418   1.301  18.356  1.00  0.00     0.041 C 
ATOM     13  O   UNL     1       8.610   0.067  18.513  1.00  0.00    -0.550 OA
ATOM     14  O   UNL     1       7.170   1.844  18.634  1.00  0.00    -0.550 OA
ENDBRANCH  11  12
ENDBRANCH  10  11
ENDBRANCH   9  10
ENDBRANCH   8   9
ENDBRANCH   1   8
TORSDOF 9
ENDMDL
MODEL 9
REMARK VINA RESULT:    -4.574      2.142      3.635
REMARK INTER + INTRA:          -8.026
REMARK INTER:                  -7.033
REMARK INTRA:                  -0.993
REMARK UNBOUND:                -1.045
REMARK SMILES O=C([O-])CCCCCCCCC(=O)[O-]
REMARK SMILES IDX 7 1 6 2 5 3 4 4 2 5 1 6 3 7 8 8 9 9 10 10 11 11 12 12 13 13
REMARK SMILES IDX 14 14
REMARK H PARENT
REMARK Flexibility Score: inf
ROOT
ATOM      1  C   UNL     1      19.196  -6.372  35.887  1.00  0.00     0.000 C 
ENDROOT
BRANCH   1   2
ATOM      2  C   UNL     1      19.258  -7.519  34.865  1.00  0.00     0.000 C 
BRANCH   2   3
ATOM      3  C   UNL     1      19.021  -7.037  33.423  1.00  0.00     0.006 C 
BRANCH   3   4
ATOM      4  C   UNL     1      18.045  -7.945  32.663  1.00  0.00     0.053 C 
BRANCH   4   5
ATOM      5  C   UNL     1      16.643  -7.425  32.722  1.00  0.00     0.041 C 
ATOM      6  O   UNL     1      16.234  -6.604  31.860  1.00  0.00    -0.550 OA
ATOM      7  O   UNL     1      15.796  -7.821  33.751  1.00  0.00    -0.550 OA
ENDBRANCH   4   5
ENDBRANCH   3   4
ENDBRANCH   2   3
ENDBRANCH   1   2
BRANCH   1   8
ATOM      8  C   UNL     1      17.754  -6.012  36.282  1.00  0.00     0.000 C 
BRANCH   8   9
ATOM      9  C   UNL     1      17.392  -4.552  35.955  1.00  0.00     0.000 C 
BRANCH   9  10
ATOM     10  C   UNL     1      16.609  -4.356  34.641  1.00  0.00     0.006 C 
BRANCH  10  11
ATOM     11  C   UNL     1      17.429  -3.748  33.492  1.00  0.00     0.053 C 
BRANCH  11  12
ATOM     12  C   UNL     1      18.655  -3.044  33.990  1.00  0.00     0.041 C 
ATOM     13  O   UNL     1      18.559  -1.908  34.524  1.00  0.00    -0.550 OA
ATOM     14  O   UNL     1      19.905  -3.629  33.834  1.00  0.00    -0.550 OA
ENDBRANCH  11  12
ENDBRANCH  10  11
ENDBRANCH   9  10
ENDBRANCH   8   9
ENDBRANCH   1   8
TORSDOF 9
ENDMDL
