MODEL 1
REMARK VINA RESULT:    -3.554      0.000      0.000
REMARK INTER + INTRA:          -5.273
REMARK INTER:                  -5.424
REMARK INTRA:                   0.152
REMARK UNBOUND:                 0.152
REMARK SMILES CC1=CCC[C@@H](C)C(=O)C[C@H](C(C)C)C(=O)C1
REMARK SMILES IDX 8 1 9 2 6 3 7 4 5 5 4 6 3 7 2 8 1 9 10 11 11 12 15 13 16 14
REMARK SMILES IDX 17 15 12 17 13 18 14 19
REMARK H PARENT
REMARK Flexibility Score: 70.00
ROOT
ATOM      1  C   UNL     1      -2.245  26.355  51.864  1.00  0.00     0.136 C 
ATOM      2  O   UNL     1      -1.797  25.864  50.836  1.00  0.00    -0.299 OA
ENDROOT
BRANCH   1   3
ATOM      3  C   UNL     1      -3.554  27.120  51.816  1.00  0.00     0.053 C 
ATOM      4  C   UNL     1      -4.742  26.148  51.782  1.00  0.00     0.016 C 
BRANCH   3   5
ATOM      5  C   UNL     1      -3.583  28.069  50.595  1.00  0.00     0.015 C 
BRANCH   5   6
ATOM      6  C   UNL     1      -2.274  28.872  50.471  1.00  0.00     0.028 C 
BRANCH   6   7
ATOM      7  C   UNL     1      -2.279  30.152  51.272  1.00  0.00    -0.028 C 
ATOM      8  C   UNL     1      -1.424  30.454  52.279  1.00  0.00    -0.070 CG0
ATOM      9  C   UNL     1      -1.656  31.743  53.030  1.00  0.00     0.039 C 
ATOM     10  G   UNL     1      -0.224  29.595  52.658  1.00  0.00     0.000 G0
ENDBRANCH   6   7
ENDBRANCH   5   6
ENDBRANCH   3   5
ENDBRANCH   1   3
BRANCH   1  11
ATOM     11  C   UNL     1      -1.478  26.175  53.156  1.00  0.00     0.087 C 
BRANCH  11  12
ATOM     12  C   UNL     1      -0.192  27.039  53.196  1.00  0.00     0.066 C 
BRANCH  12  13
ATOM     13  C   UNL     1      -0.506  28.472  53.605  1.00  0.00     0.140 C 
ATOM     14  O   UNL     1      -0.980  28.714  54.705  1.00  0.00    -0.299 OA
BRANCH  13  15
ATOM     15  C   UNL     1      -0.198  29.605  52.659  1.00  0.00     0.106 CG0
ATOM     16  G   UNL     1      -1.411  30.447  52.281  1.00  0.00     0.000 G0
ENDBRANCH  13  15
ENDBRANCH  12  13
BRANCH  12  17
ATOM     17  C   UNL     1       0.948  26.371  54.027  1.00  0.00    -0.006 C 
ATOM     18  C   UNL     1       0.527  25.895  55.430  1.00  0.00     0.008 C 
ATOM     19  C   UNL     1       2.187  27.276  54.118  1.00  0.00     0.008 C 
ENDBRANCH  12  17
ENDBRANCH  11  12
ENDBRANCH   1  11
TORSDOF 1
ENDMDL
MODEL 2
REMARK VINA RESULT:    -3.439      2.444      4.114
REMARK INTER + INTRA:          -5.098
REMARK INTER:                  -4.789
REMARK INTRA:                  -0.309
REMARK UNBOUND:                 0.152
REMARK SMILES CC1=CCC[C@@H](C)C(=O)C[C@H](C(C)C)C(=O)C1
REMARK SMILES IDX 8 1 9 2 6 3 7 4 5 5 4 6 3 7 2 8 1 9 10 11 11 12 15 13 16 14
REMARK SMILES IDX 17 15 12 17 13 18 14 19
REMARK H PARENT
REMARK Flexibility Score: 70.00
ROOT
ATOM      1  C   UNL     1      -1.419  27.825  54.768  1.00  0.00     0.136 C 
ATOM      2  O   UNL     1      -0.659  27.365  55.611  1.00  0.00    -0.299 OA
ENDROOT
BRANCH   1   3
ATOM      3  C   UNL     1      -1.028  27.771  53.304  1.00  0.00     0.053 C 
ATOM      4  C   UNL     1      -0.732  26.325  52.881  1.00  0.00     0.016 C 
BRANCH   3   5
ATOM      5  C   UNL     1       0.191  28.684  53.034  1.00  0.00     0.015 C 
BRANCH   5   6
ATOM      6  C   UNL     1      -0.231  30.009  52.370  1.00  0.00     0.028 C 
BRANCH   6   7
ATOM      7  C   UNL     1      -1.428  29.868  51.460  1.00  0.00    -0.028 C 
ATOM      8  C   UNL     1      -2.668  30.355  51.708  1.00  0.00    -0.070 CG0
ATOM      9  C   UNL     1      -3.761  30.020  50.723  1.00  0.00     0.039 C 
ATOM     10  G   UNL     1      -3.003  31.254  52.892  1.00  0.00     0.000 G0
ENDBRANCH   6   7
ENDBRANCH   5   6
ENDBRANCH   3   5
ENDBRANCH   1   3
BRANCH   1  11
ATOM     11  C   UNL     1      -2.732  28.427  55.217  1.00  0.00     0.087 C 
BRANCH  11  12
ATOM     12  C   UNL     1      -2.710  29.976  55.168  1.00  0.00     0.066 C 
BRANCH  12  13
ATOM     13  C   UNL     1      -3.619  30.504  54.066  1.00  0.00     0.140 C 
ATOM     14  O   UNL     1      -4.830  30.356  54.136  1.00  0.00    -0.299 OA
BRANCH  13  15
ATOM     15  C   UNL     1      -3.023  31.246  52.896  1.00  0.00     0.106 CG0
ATOM     16  G   UNL     1      -2.666  30.355  51.712  1.00  0.00     0.000 G0
ENDBRANCH  13  15
ENDBRANCH  12  13
BRANCH  12  17
ATOM     17  C   UNL     1      -2.962  30.620  56.568  1.00  0.00    -0.006 C 
ATOM     18  C   UNL     1      -2.132  31.886  56.851  1.00  0.00     0.008 C 
ATOM     19  C   UNL     1      -2.783  29.598  57.702  1.00  0.00     0.008 C 
ENDBRANCH  12  17
ENDBRANCH  11  12
ENDBRANCH   1  11
TORSDOF 1
ENDMDL
MODEL 3
REMARK VINA RESULT:    -3.426      1.753      3.319
REMARK INTER + INTRA:          -5.077
REMARK INTER:                  -4.997
REMARK INTRA:                  -0.081
REMARK UNBOUND:                 0.152
REMARK SMILES CC1=CCC[C@@H](C)C(=O)C[C@H](C(C)C)C(=O)C1
REMARK SMILES IDX 8 1 9 2 6 3 7 4 5 5 4 6 3 7 2 8 1 9 10 11 11 12 15 13 16 14
REMARK SMILES IDX 17 15 12 17 13 18 14 19
REMARK H PARENT
REMARK Flexibility Score: 70.00
ROOT
ATOM      1  C   UNL     1      -2.119  29.340  55.232  1.00  0.00     0.136 C 
ATOM      2  O   UNL     1      -2.178  28.790  56.324  1.00  0.00    -0.299 OA
ENDROOT
BRANCH   1   3
ATOM      3  C   UNL     1      -3.092  30.457  54.906  1.00  0.00     0.053 C 
ATOM      4  C   UNL     1      -4.500  29.892  54.676  1.00  0.00     0.016 C 
BRANCH   3   5
ATOM      5  C   UNL     1      -2.609  31.253  53.671  1.00  0.00     0.015 C 
BRANCH   5   6
ATOM      6  C   UNL     1      -3.451  30.927  52.423  1.00  0.00     0.028 C 
BRANCH   6   7
ATOM      7  C   UNL     1      -2.635  30.377  51.277  1.00  0.00    -0.028 C 
ATOM      8  C   UNL     1      -2.279  29.079  51.116  1.00  0.00    -0.070 CG0
ATOM      9  C   UNL     1      -1.372  28.742  49.958  1.00  0.00     0.039 C 
ATOM     10  G   UNL     1      -2.781  27.946  52.003  1.00  0.00     0.000 G0
ENDBRANCH   6   7
ENDBRANCH   5   6
ENDBRANCH   3   5
ENDBRANCH   1   3
BRANCH   1  11
ATOM     11  C   UNL     1      -1.067  28.890  54.241  1.00  0.00     0.087 C 
BRANCH  11  12
ATOM     12  C   UNL     1      -1.133  27.365  53.974  1.00  0.00     0.066 C 
BRANCH  12  13
ATOM     13  C   UNL     1      -1.661  27.074  52.576  1.00  0.00     0.140 C 
ATOM     14  O   UNL     1      -1.212  26.144  51.923  1.00  0.00    -0.299 OA
BRANCH  13  15
ATOM     15  C   UNL     1      -2.770  27.921  52.004  1.00  0.00     0.106 CG0
ATOM     16  G   UNL     1      -2.286  29.076  51.136  1.00  0.00     0.000 G0
ENDBRANCH  13  15
ENDBRANCH  12  13
BRANCH  12  17
ATOM     17  C   UNL     1       0.209  26.642  54.314  1.00  0.00    -0.006 C 
ATOM     18  C   UNL     1       0.306  26.114  55.758  1.00  0.00     0.008 C 
ATOM     19  C   UNL     1       1.426  27.520  53.981  1.00  0.00     0.008 C 
ENDBRANCH  12  17
ENDBRANCH  11  12
ENDBRANCH   1  11
TORSDOF 1
ENDMDL
MODEL 4
REMARK VINA RESULT:    -3.350      2.204      3.203
REMARK INTER + INTRA:          -4.960
REMARK INTER:                  -5.168
REMARK INTRA:                   0.207
REMARK UNBOUND:                 0.152
REMARK SMILES CC1=CCC[C@@H](C)C(=O)C[C@H](C(C)C)C(=O)C1
REMARK SMILES IDX 8 1 9 2 6 3 7 4 5 5 4 6 3 7 2 8 1 9 10 11 11 12 15 13 16 14
REMARK SMILES IDX 17 15 12 17 13 18 14 19
REMARK H PARENT
REMARK Flexibility Score: 70.00
ROOT
ATOM      1  C   UNL     1      -1.015  29.230  51.980  1.00  0.00     0.136 C 
ATOM      2  O   UNL     1       0.064  29.779  51.794  1.00  0.00    -0.299 OA
ENDROOT
BRANCH   1   3
ATOM      3  C   UNL     1      -2.257  29.783  51.308  1.00  0.00     0.053 C 
ATOM      4  C   UNL     1      -2.166  29.609  49.785  1.00  0.00     0.016 C 
BRANCH   3   5
ATOM      5  C   UNL     1      -2.460  31.269  51.682  1.00  0.00     0.015 C 
BRANCH   5   6
ATOM      6  C   UNL     1      -3.151  31.419  53.051  1.00  0.00     0.028 C 
BRANCH   6   7
ATOM      7  C   UNL     1      -3.988  30.222  53.433  1.00  0.00    -0.028 C 
ATOM      8  C   UNL     1      -3.686  29.328  54.406  1.00  0.00    -0.070 CG0
ATOM      9  C   UNL     1      -4.599  28.137  54.569  1.00  0.00     0.039 C 
ATOM     10  G   UNL     1      -2.515  29.486  55.368  1.00  0.00     0.000 G0
ENDBRANCH   6   7
ENDBRANCH   5   6
ENDBRANCH   3   5
ENDBRANCH   1   3
BRANCH   1  11
ATOM     11  C   UNL     1      -1.071  28.008  52.870  1.00  0.00     0.087 C 
BRANCH  11  12
ATOM     12  C   UNL     1      -0.451  28.274  54.265  1.00  0.00     0.066 C 
BRANCH  12  13
ATOM     13  C   UNL     1      -1.526  28.347  55.340  1.00  0.00     0.140 C 
ATOM     14  O   UNL     1      -1.590  27.493  56.213  1.00  0.00    -0.299 OA
BRANCH  13  15
ATOM     15  C   UNL     1      -2.500  29.499  55.349  1.00  0.00     0.106 CG0
ATOM     16  G   UNL     1      -3.680  29.322  54.402  1.00  0.00     0.000 G0
ENDBRANCH  13  15
ENDBRANCH  12  13
BRANCH  12  17
ATOM     17  C   UNL     1       0.718  27.293  54.594  1.00  0.00    -0.006 C 
ATOM     18  C   UNL     1       2.100  27.746  54.087  1.00  0.00     0.008 C 
ATOM     19  C   UNL     1       0.412  25.866  54.113  1.00  0.00     0.008 C 
ENDBRANCH  12  17
ENDBRANCH  11  12
ENDBRANCH   1  11
TORSDOF 1
ENDMDL
MODEL 5
REMARK VINA RESULT:    -3.348      2.389      4.679
REMARK INTER + INTRA:          -4.959
REMARK INTER:                  -4.778
REMARK INTRA:                  -0.181
REMARK UNBOUND:                 0.152
REMARK SMILES CC1=CCC[C@@H](C)C(=O)C[C@H](C(C)C)C(=O)C1
REMARK SMILES IDX 8 1 9 2 6 3 7 4 5 5 4 6 3 7 2 8 1 9 10 11 11 12 15 13 16 14
REMARK SMILES IDX 17 15 12 17 13 18 14 19
REMARK H PARENT
REMARK Flexibility Score: 70.00
ROOT
ATOM      1  C   UNL     1      -0.544  27.866  52.891  1.00  0.00     0.136 C 
ATOM      2  O   UNL     1      -0.746  26.800  52.324  1.00  0.00    -0.299 OA
ENDROOT
BRANCH   1   3
ATOM      3  C   UNL     1      -0.015  27.867  54.313  1.00  0.00     0.053 C 
ATOM      4  C   UNL     1       1.426  27.338  54.350  1.00  0.00     0.016 C 
BRANCH   3   5
ATOM      5  C   UNL     1      -0.933  27.028  55.232  1.00  0.00     0.015 C 
BRANCH   5   6
ATOM      6  C   UNL     1      -1.794  27.925  56.142  1.00  0.00     0.028 C 
BRANCH   6   7
ATOM      7  C   UNL     1      -3.205  28.112  55.636  1.00  0.00    -0.028 C 
ATOM      8  C   UNL     1      -3.652  29.176  54.925  1.00  0.00    -0.070 CG0
ATOM      9  C   UNL     1      -5.125  29.229  54.599  1.00  0.00     0.039 C 
ATOM     10  G   UNL     1      -2.748  30.285  54.402  1.00  0.00     0.000 G0
ENDBRANCH   6   7
ENDBRANCH   5   6
ENDBRANCH   3   5
ENDBRANCH   1   3
BRANCH   1  11
ATOM     11  C   UNL     1      -0.821  29.155  52.148  1.00  0.00     0.087 C 
BRANCH  11  12
ATOM     12  C   UNL     1      -2.340  29.406  51.965  1.00  0.00     0.066 C 
BRANCH  12  13
ATOM     13  C   UNL     1      -2.834  30.495  52.907  1.00  0.00     0.140 C 
ATOM     14  O   UNL     1      -3.315  31.528  52.465  1.00  0.00    -0.299 OA
BRANCH  13  15
ATOM     15  C   UNL     1      -2.760  30.283  54.399  1.00  0.00     0.106 CG0
ATOM     16  G   UNL     1      -3.673  29.179  54.916  1.00  0.00     0.000 G0
ENDBRANCH  13  15
ENDBRANCH  12  13
BRANCH  12  17
ATOM     17  C   UNL     1      -2.730  29.629  50.469  1.00  0.00    -0.006 C 
ATOM     18  C   UNL     1      -3.993  28.873  50.016  1.00  0.00     0.008 C 
ATOM     19  C   UNL     1      -1.556  29.326  49.526  1.00  0.00     0.008 C 
ENDBRANCH  12  17
ENDBRANCH  11  12
ENDBRANCH   1  11
TORSDOF 1
ENDMDL
MODEL 6
REMARK VINA RESULT:    -3.279      1.990      2.883
REMARK INTER + INTRA:          -4.853
REMARK INTER:                  -4.980
REMARK INTRA:                   0.127
REMARK UNBOUND:                 0.152
REMARK SMILES CC1=CCC[C@@H](C)C(=O)C[C@H](C(C)C)C(=O)C1
REMARK SMILES IDX 8 1 9 2 6 3 7 4 5 5 4 6 3 7 2 8 1 9 10 11 11 12 15 13 16 14
REMARK SMILES IDX 17 15 12 17 13 18 14 19
REMARK H PARENT
REMARK Flexibility Score: 70.00
ROOT
ATOM      1  C   UNL     1      -1.018  27.601  52.833  1.00  0.00     0.136 C 
ATOM      2  O   UNL     1      -0.394  26.576  53.077  1.00  0.00    -0.299 OA
ENDROOT
BRANCH   1   3
ATOM      3  C   UNL     1      -2.235  27.536  51.931  1.00  0.00     0.053 C 
ATOM      4  C   UNL     1      -2.895  26.152  52.019  1.00  0.00     0.016 C 
BRANCH   3   5
ATOM      5  C   UNL     1      -1.847  27.869  50.472  1.00  0.00     0.015 C 
BRANCH   5   6
ATOM      6  C   UNL     1      -1.985  29.375  50.178  1.00  0.00     0.028 C 
BRANCH   6   7
ATOM      7  C   UNL     1      -3.259  29.975  50.722  1.00  0.00    -0.028 C 
ATOM      8  C   UNL     1      -3.366  30.693  51.867  1.00  0.00    -0.070 CG0
ATOM      9  C   UNL     1      -4.748  31.122  52.297  1.00  0.00     0.039 C 
ATOM     10  G   UNL     1      -2.172  31.128  52.708  1.00  0.00     0.000 G0
ENDBRANCH   6   7
ENDBRANCH   5   6
ENDBRANCH   3   5
ENDBRANCH   1   3
BRANCH   1  11
ATOM     11  C   UNL     1      -0.556  28.904  53.449  1.00  0.00     0.087 C 
BRANCH  11  12
ATOM     12  C   UNL     1      -1.521  29.399  54.557  1.00  0.00     0.066 C 
BRANCH  12  13
ATOM     13  C   UNL     1      -2.200  30.700  54.153  1.00  0.00     0.140 C 
ATOM     14  O   UNL     1      -2.745  31.402  54.991  1.00  0.00    -0.299 OA
BRANCH  13  15
ATOM     15  C   UNL     1      -2.170  31.144  52.712  1.00  0.00     0.106 CG0
ATOM     16  G   UNL     1      -3.369  30.679  51.893  1.00  0.00     0.000 G0
ENDBRANCH  13  15
ENDBRANCH  12  13
BRANCH  12  17
ATOM     17  C   UNL     1      -2.507  28.283  55.030  1.00  0.00    -0.006 C 
ATOM     18  C   UNL     1      -3.994  28.678  54.983  1.00  0.00     0.008 C 
ATOM     19  C   UNL     1      -2.136  27.754  56.424  1.00  0.00     0.008 C 
ENDBRANCH  12  17
ENDBRANCH  11  12
ENDBRANCH   1  11
TORSDOF 1
ENDMDL
MODEL 7
REMARK VINA RESULT:    -3.274      2.323      4.292
REMARK INTER + INTRA:          -4.845
REMARK INTER:                  -5.053
REMARK INTRA:                   0.208
REMARK UNBOUND:                 0.152
REMARK SMILES CC1=CCC[C@@H](C)C(=O)C[C@H](C(C)C)C(=O)C1
REMARK SMILES IDX 8 1 9 2 6 3 7 4 5 5 4 6 3 7 2 8 1 9 10 11 11 12 15 13 16 14
REMARK SMILES IDX 17 15 12 17 13 18 14 19
REMARK H PARENT
REMARK Flexibility Score: 70.00
ROOT
ATOM      1  C   UNL     1      -0.664  28.018  54.198  1.00  0.00     0.136 C 
ATOM      2  O   UNL     1       0.175  28.805  53.779  1.00  0.00    -0.299 OA
ENDROOT
BRANCH   1   3
ATOM      3  C   UNL     1      -0.535  26.543  53.864  1.00  0.00     0.053 C 
ATOM      4  C   UNL     1       0.928  26.094  53.976  1.00  0.00     0.016 C 
BRANCH   3   5
ATOM      5  C   UNL     1      -1.094  26.256  52.451  1.00  0.00     0.015 C 
BRANCH   5   6
ATOM      6  C   UNL     1      -2.624  26.424  52.402  1.00  0.00     0.028 C 
BRANCH   6   7
ATOM      7  C   UNL     1      -3.088  27.366  51.318  1.00  0.00    -0.028 C 
ATOM      8  C   UNL     1      -3.692  28.563  51.518  1.00  0.00    -0.070 CG0
ATOM      9  C   UNL     1      -4.177  29.314  50.303  1.00  0.00     0.039 C 
ATOM     10  G   UNL     1      -3.862  29.206  52.889  1.00  0.00     0.000 G0
ENDBRANCH   6   7
ENDBRANCH   5   6
ENDBRANCH   3   5
ENDBRANCH   1   3
BRANCH   1  11
ATOM     11  C   UNL     1      -1.803  28.543  55.045  1.00  0.00     0.087 C 
BRANCH  11  12
ATOM     12  C   UNL     1      -2.151  30.014  54.704  1.00  0.00     0.066 C 
BRANCH  12  13
ATOM     13  C   UNL     1      -2.745  30.129  53.307  1.00  0.00     0.140 C 
ATOM     14  O   UNL     1      -2.304  30.942  52.509  1.00  0.00    -0.299 OA
BRANCH  13  15
ATOM     15  C   UNL     1      -3.866  29.209  52.893  1.00  0.00     0.106 CG0
ATOM     16  G   UNL     1      -3.668  28.564  51.526  1.00  0.00     0.000 G0
ENDBRANCH  13  15
ENDBRANCH  12  13
BRANCH  12  17
ATOM     17  C   UNL     1      -3.004  30.697  55.820  1.00  0.00    -0.006 C 
ATOM     18  C   UNL     1      -2.189  31.512  56.842  1.00  0.00     0.008 C 
ATOM     19  C   UNL     1      -3.910  29.686  56.540  1.00  0.00     0.008 C 
ENDBRANCH  12  17
ENDBRANCH  11  12
ENDBRANCH   1  11
TORSDOF 1
ENDMDL
MODEL 8
REMARK VINA RESULT:    -3.085      2.189      4.423
REMARK INTER + INTRA:          -4.557
REMARK INTER:                  -4.450
REMARK INTRA:                  -0.107
REMARK UNBOUND:                 0.152
REMARK SMILES CC1=CCC[C@@H](C)C(=O)C[C@H](C(C)C)C(=O)C1
REMARK SMILES IDX 8 1 9 2 6 3 7 4 5 5 4 6 3 7 2 8 1 9 10 11 11 12 15 13 16 14
REMARK SMILES IDX 17 15 12 17 13 18 14 19
REMARK H PARENT
REMARK Flexibility Score: 70.00
ROOT
ATOM      1  C   UNL     1      -4.153  28.482  53.156  1.00  0.00     0.136 C 
ATOM      2  O   UNL     1      -4.229  27.377  53.676  1.00  0.00    -0.299 OA
ENDROOT
BRANCH   1   3
ATOM      3  C   UNL     1      -4.474  29.716  53.978  1.00  0.00     0.053 C 
ATOM      4  C   UNL     1      -4.035  30.985  53.233  1.00  0.00     0.016 C 
BRANCH   3   5
ATOM      5  C   UNL     1      -3.800  29.632  55.367  1.00  0.00     0.015 C 
BRANCH   5   6
ATOM      6  C   UNL     1      -2.271  29.794  55.265  1.00  0.00     0.028 C 
BRANCH   6   7
ATOM      7  C   UNL     1      -1.515  28.521  55.557  1.00  0.00    -0.028 C 
ATOM      8  C   UNL     1      -0.728  27.853  54.678  1.00  0.00    -0.070 CG0
ATOM      9  C   UNL     1      -0.137  26.539  55.127  1.00  0.00     0.039 C 
ATOM     10  G   UNL     1      -0.372  28.378  53.293  1.00  0.00     0.000 G0
ENDBRANCH   6   7
ENDBRANCH   5   6
ENDBRANCH   3   5
ENDBRANCH   1   3
BRANCH   1  11
ATOM     11  C   UNL     1      -3.733  28.583  51.706  1.00  0.00     0.087 C 
BRANCH  11  12
ATOM     12  C   UNL     1      -2.244  28.986  51.557  1.00  0.00     0.066 C 
BRANCH  12  13
ATOM     13  C   UNL     1      -1.328  27.952  52.199  1.00  0.00     0.140 C 
ATOM     14  O   UNL     1      -1.347  26.789  51.825  1.00  0.00    -0.299 OA
BRANCH  13  15
ATOM     15  C   UNL     1      -0.367  28.374  53.282  1.00  0.00     0.106 CG0
ATOM     16  G   UNL     1      -0.727  27.855  54.669  1.00  0.00     0.000 G0
ENDBRANCH  13  15
ENDBRANCH  12  13
BRANCH  12  17
ATOM     17  C   UNL     1      -1.868  29.347  50.085  1.00  0.00    -0.006 C 
ATOM     18  C   UNL     1      -0.386  29.702  49.869  1.00  0.00     0.008 C 
ATOM     19  C   UNL     1      -2.772  30.456  49.526  1.00  0.00     0.008 C 
ENDBRANCH  12  17
ENDBRANCH  11  12
ENDBRANCH   1  11
TORSDOF 1
ENDMDL
MODEL 9
REMARK VINA RESULT:    -3.052      8.369     10.463
REMARK INTER + INTRA:          -4.506
REMARK INTER:                  -4.556
REMARK INTRA:                   0.050
REMARK UNBOUND:                 0.152
REMARK SMILES CC1=CCC[C@@H](C)C(=O)C[C@H](C(C)C)C(=O)C1
REMARK SMILES IDX 8 1 9 2 6 3 7 4 5 5 4 6 3 7 2 8 1 9 10 11 11 12 15 13 16 14
REMARK SMILES IDX 17 15 12 17 13 18 14 19
REMARK H PARENT
REMARK Flexibility Score: 70.00
ROOT
ATOM      1  C   UNL     1      -0.095  34.084  61.867  1.00  0.00     0.136 C 
ATOM      2  O   UNL     1       0.746  34.908  61.530  1.00  0.00    -0.299 OA
ENDROOT
BRANCH   1   3
ATOM      3  C   UNL     1      -0.964  34.359  63.079  1.00  0.00     0.053 C 
ATOM      4  C   UNL     1      -0.937  33.162  64.040  1.00  0.00     0.016 C 
BRANCH   3   5
ATOM      5  C   UNL     1      -2.412  34.685  62.645  1.00  0.00     0.015 C 
BRANCH   5   6
ATOM      6  C   UNL     1      -2.467  35.940  61.753  1.00  0.00     0.028 C 
BRANCH   6   7
ATOM      7  C   UNL     1      -3.441  35.815  60.606  1.00  0.00    -0.028 C 
ATOM      8  C   UNL     1      -3.126  35.433  59.344  1.00  0.00    -0.070 CG0
ATOM      9  C   UNL     1      -4.224  35.470  58.308  1.00  0.00     0.039 C 
ATOM     10  G   UNL     1      -1.750  34.927  58.930  1.00  0.00     0.000 G0
ENDBRANCH   6   7
ENDBRANCH   5   6
ENDBRANCH   3   5
ENDBRANCH   1   3
BRANCH   1  11
ATOM     11  C   UNL     1      -0.245  32.817  61.054  1.00  0.00     0.087 C 
BRANCH  11  12
ATOM     12  C   UNL     1      -1.628  32.731  60.359  1.00  0.00     0.066 C 
BRANCH  12  13
ATOM     13  C   UNL     1      -1.606  33.423  59.003  1.00  0.00     0.140 C 
ATOM     14  O   UNL     1      -1.495  32.772  57.976  1.00  0.00    -0.299 OA
BRANCH  13  15
ATOM     15  C   UNL     1      -1.756  34.922  58.926  1.00  0.00     0.106 CG0
ATOM     16  G   UNL     1      -3.130  35.432  59.342  1.00  0.00     0.000 G0
ENDBRANCH  13  15
ENDBRANCH  12  13
BRANCH  12  17
ATOM     17  C   UNL     1      -2.188  31.274  60.325  1.00  0.00    -0.006 C 
ATOM     18  C   UNL     1      -3.125  30.918  61.494  1.00  0.00     0.008 C 
ATOM     19  C   UNL     1      -1.060  30.237  60.207  1.00  0.00     0.008 C 
ENDBRANCH  12  17
ENDBRANCH  11  12
ENDBRANCH   1  11
TORSDOF 1
ENDMDL
