MODEL 1
REMARK VINA RESULT:    24.751      0.000      0.000
REMARK INTER + INTRA:          65.516
REMARK INTER:                  65.265
REMARK INTRA:                   0.250
REMARK UNBOUND:                 0.250
REMARK SMILES CCCCCCCCCCCCCCCCCCCCCCCCCCCCCC(=O)[O-]
REMARK SMILES IDX 16 1 17 2 18 3 19 4 20 5 21 6 22 7 23 8 24 9 25 10 26 11
REMARK SMILES IDX 27 12 28 13 29 14 30 15 31 16 32 17 15 18 14 19 13 20 12 21
REMARK SMILES IDX 11 22 10 23 9 24 8 25 7 26 6 27 5 28 4 29 3 30 2 31 1 32
REMARK H PARENT
REMARK Flexibility Score: inf
ROOT
ATOM      1  C   UNL     1       6.018  16.486  46.844  1.00  0.00     0.000 C 
ENDROOT
BRANCH   1   2
ATOM      2  C   UNL     1       7.255  16.624  45.939  1.00  0.00     0.000 C 
BRANCH   2   3
ATOM      3  C   UNL     1       8.227  15.442  46.080  1.00  0.00     0.000 C 
BRANCH   3   4
ATOM      4  C   UNL     1       8.059  14.409  44.952  1.00  0.00     0.000 C 
BRANCH   4   5
ATOM      5  C   UNL     1       8.827  14.785  43.673  1.00  0.00     0.000 C 
BRANCH   5   6
ATOM      6  C   UNL     1      10.139  15.560  43.897  1.00  0.00     0.000 C 
BRANCH   6   7
ATOM      7  C   UNL     1      11.384  14.656  43.864  1.00  0.00     0.000 C 
BRANCH   7   8
ATOM      8  C   UNL     1      11.318  13.582  42.760  1.00  0.00     0.000 C 
BRANCH   8   9
ATOM      9  C   UNL     1      12.538  12.640  42.676  1.00  0.00     0.000 C 
BRANCH   9  10
ATOM     10  C   UNL     1      12.590  11.538  43.748  1.00  0.00     0.000 C 
BRANCH  10  11
ATOM     11  C   UNL     1      13.697  10.502  43.485  1.00  0.00     0.000 C 
BRANCH  11  12
ATOM     12  C   UNL     1      15.111  11.097  43.621  1.00  0.00     0.000 C 
BRANCH  12  13
ATOM     13  C   UNL     1      16.035  10.334  44.588  1.00  0.00     0.006 C 
BRANCH  13  14
ATOM     14  C   UNL     1      15.535  10.360  46.039  1.00  0.00     0.053 C 
BRANCH  14  15
ATOM     15  C   UNL     1      15.419  11.768  46.530  1.00  0.00     0.041 C 
ATOM     16  O   UNL     1      16.029  12.696  45.937  1.00  0.00    -0.550 OA
ATOM     17  O   UNL     1      14.613  12.061  47.625  1.00  0.00    -0.550 OA
ENDBRANCH  14  15
ENDBRANCH  13  14
ENDBRANCH  12  13
ENDBRANCH  11  12
ENDBRANCH  10  11
ENDBRANCH   9  10
ENDBRANCH   8   9
ENDBRANCH   7   8
ENDBRANCH   6   7
ENDBRANCH   5   6
ENDBRANCH   4   5
ENDBRANCH   3   4
ENDBRANCH   2   3
ENDBRANCH   1   2
BRANCH   1  18
ATOM     18  C   UNL     1       6.119  17.337  48.123  1.00  0.00     0.000 C 
BRANCH  18  19
ATOM     19  C   UNL     1       5.702  18.814  47.959  1.00  0.00     0.000 C 
BRANCH  19  20
ATOM     20  C   UNL     1       4.979  19.426  49.173  1.00  0.00     0.000 C 
BRANCH  20  21
ATOM     21  C   UNL     1       5.813  19.359  50.460  1.00  0.00     0.000 C 
BRANCH  21  22
ATOM     22  C   UNL     1       5.748  20.685  51.226  1.00  0.00     0.000 C 
BRANCH  22  23
ATOM     23  C   UNL     1       5.450  20.452  52.712  1.00  0.00     0.000 C 
BRANCH  23  24
ATOM     24  C   UNL     1       3.998  20.825  53.045  1.00  0.00    -0.000 C 
BRANCH  24  25
ATOM     25  C   UNL     1       3.631  20.554  54.516  1.00  0.00    -0.000 C 
BRANCH  25  26
ATOM     26  C   UNL     1       4.644  21.080  55.549  1.00  0.00    -0.000 C 
BRANCH  26  27
ATOM     27  C   UNL     1       6.037  21.334  54.947  1.00  0.00    -0.000 C 
BRANCH  27  28
ATOM     28  C   UNL     1       7.162  20.680  55.765  1.00  0.00    -0.000 C 
BRANCH  28  29
ATOM     29  C   UNL     1       8.563  21.088  55.277  1.00  0.00    -0.000 C 
BRANCH  29  30
ATOM     30  C   UNL     1       9.692  20.477  56.124  1.00  0.00    -0.000 C 
BRANCH  30  31
ATOM     31  C   UNL     1      10.914  20.029  55.295  1.00  0.00    -0.003 C 
ATOM     32  C   UNL     1      12.189  20.778  55.685  1.00  0.00     0.004 C 
ENDBRANCH  30  31
ENDBRANCH  29  30
ENDBRANCH  28  29
ENDBRANCH  27  28
ENDBRANCH  26  27
ENDBRANCH  25  26
ENDBRANCH  24  25
ENDBRANCH  23  24
ENDBRANCH  22  23
ENDBRANCH  21  22
ENDBRANCH  20  21
ENDBRANCH  19  20
ENDBRANCH  18  19
ENDBRANCH   1  18
TORSDOF 28
ENDMDL
MODEL 2
REMARK VINA RESULT:    25.654      1.189      2.059
REMARK INTER + INTRA:          67.897
REMARK INTER:                  67.479
REMARK INTRA:                   0.418
REMARK UNBOUND:                 0.250
REMARK SMILES CCCCCCCCCCCCCCCCCCCCCCCCCCCCCC(=O)[O-]
REMARK SMILES IDX 16 1 17 2 18 3 19 4 20 5 21 6 22 7 23 8 24 9 25 10 26 11
REMARK SMILES IDX 27 12 28 13 29 14 30 15 31 16 32 17 15 18 14 19 13 20 12 21
REMARK SMILES IDX 11 22 10 23 9 24 8 25 7 26 6 27 5 28 4 29 3 30 2 31 1 32
REMARK H PARENT
REMARK Flexibility Score: inf
ROOT
ATOM      1  C   UNL     1       6.516  17.425  48.418  1.00  0.00     0.000 C 
ENDROOT
BRANCH   1   2
ATOM      2  C   UNL     1       7.938  16.877  48.629  1.00  0.00     0.000 C 
BRANCH   2   3
ATOM      3  C   UNL     1       8.741  16.793  47.322  1.00  0.00     0.000 C 
BRANCH   3   4
ATOM      4  C   UNL     1       9.768  15.647  47.339  1.00  0.00     0.000 C 
BRANCH   4   5
ATOM      5  C   UNL     1      10.116  15.131  45.931  1.00  0.00     0.000 C 
BRANCH   5   6
ATOM      6  C   UNL     1       8.948  15.116  44.928  1.00  0.00     0.000 C 
BRANCH   6   7
ATOM      7  C   UNL     1       9.258  14.305  43.658  1.00  0.00     0.000 C 
BRANCH   7   8
ATOM      8  C   UNL     1      10.707  13.781  43.617  1.00  0.00     0.000 C 
BRANCH   8   9
ATOM      9  C   UNL     1      10.925  12.493  42.794  1.00  0.00     0.000 C 
BRANCH   9  10
ATOM     10  C   UNL     1      11.829  11.438  43.457  1.00  0.00     0.000 C 
BRANCH  10  11
ATOM     11  C   UNL     1      13.319  11.644  43.136  1.00  0.00     0.000 C 
BRANCH  11  12
ATOM     12  C   UNL     1      14.090  12.300  44.296  1.00  0.00     0.000 C 
BRANCH  12  13
ATOM     13  C   UNL     1      14.816  11.307  45.224  1.00  0.00     0.006 C 
BRANCH  13  14
ATOM     14  C   UNL     1      15.987  11.945  45.984  1.00  0.00     0.053 C 
BRANCH  14  15
ATOM     15  C   UNL     1      15.577  12.302  47.378  1.00  0.00     0.041 C 
ATOM     16  O   UNL     1      14.529  12.971  47.577  1.00  0.00    -0.550 OA
ATOM     17  O   UNL     1      16.335  11.869  48.460  1.00  0.00    -0.550 OA
ENDBRANCH  14  15
ENDBRANCH  13  14
ENDBRANCH  12  13
ENDBRANCH  11  12
ENDBRANCH  10  11
ENDBRANCH   9  10
ENDBRANCH   8   9
ENDBRANCH   7   8
ENDBRANCH   6   7
ENDBRANCH   5   6
ENDBRANCH   4   5
ENDBRANCH   3   4
ENDBRANCH   2   3
ENDBRANCH   1   2
BRANCH   1  18
ATOM     18  C   UNL     1       6.015  17.240  46.975  1.00  0.00     0.000 C 
BRANCH  18  19
ATOM     19  C   UNL     1       5.717  18.549  46.214  1.00  0.00     0.000 C 
BRANCH  19  20
ATOM     20  C   UNL     1       4.970  19.622  47.028  1.00  0.00     0.000 C 
BRANCH  20  21
ATOM     21  C   UNL     1       4.891  19.287  48.524  1.00  0.00     0.000 C 
BRANCH  21  22
ATOM     22  C   UNL     1       5.081  20.546  49.378  1.00  0.00     0.000 C 
BRANCH  22  23
ATOM     23  C   UNL     1       5.854  20.230  50.664  1.00  0.00     0.000 C 
BRANCH  23  24
ATOM     24  C   UNL     1       4.904  19.752  51.772  1.00  0.00    -0.000 C 
BRANCH  24  25
ATOM     25  C   UNL     1       4.628  20.833  52.834  1.00  0.00    -0.000 C 
BRANCH  25  26
ATOM     26  C   UNL     1       3.350  20.619  53.666  1.00  0.00    -0.000 C 
BRANCH  26  27
ATOM     27  C   UNL     1       3.543  20.953  55.155  1.00  0.00    -0.000 C 
BRANCH  27  28
ATOM     28  C   UNL     1       4.863  21.691  55.429  1.00  0.00    -0.000 C 
BRANCH  28  29
ATOM     29  C   UNL     1       6.098  20.818  55.148  1.00  0.00    -0.000 C 
BRANCH  29  30
ATOM     30  C   UNL     1       7.367  21.334  55.848  1.00  0.00    -0.000 C 
BRANCH  30  31
ATOM     31  C   UNL     1       8.675  20.931  55.134  1.00  0.00    -0.003 C 
ATOM     32  C   UNL     1       9.773  20.527  56.118  1.00  0.00     0.004 C 
ENDBRANCH  30  31
ENDBRANCH  29  30
ENDBRANCH  28  29
ENDBRANCH  27  28
ENDBRANCH  26  27
ENDBRANCH  25  26
ENDBRANCH  24  25
ENDBRANCH  23  24
ENDBRANCH  22  23
ENDBRANCH  21  22
ENDBRANCH  20  21
ENDBRANCH  19  20
ENDBRANCH  18  19
ENDBRANCH   1  18
TORSDOF 28
ENDMDL
MODEL 3
REMARK VINA RESULT:    27.595      1.939      2.943
REMARK INTER + INTRA:          73.015
REMARK INTER:                  74.329
REMARK INTRA:                  -1.315
REMARK UNBOUND:                 0.250
REMARK SMILES CCCCCCCCCCCCCCCCCCCCCCCCCCCCCC(=O)[O-]
REMARK SMILES IDX 16 1 17 2 18 3 19 4 20 5 21 6 22 7 23 8 24 9 25 10 26 11
REMARK SMILES IDX 27 12 28 13 29 14 30 15 31 16 32 17 15 18 14 19 13 20 12 21
REMARK SMILES IDX 11 22 10 23 9 24 8 25 7 26 6 27 5 28 4 29 3 30 2 31 1 32
REMARK H PARENT
REMARK Flexibility Score: inf
ROOT
ATOM      1  C   UNL     1       6.611  16.132  45.170  1.00  0.00     0.000 C 
ENDROOT
BRANCH   1   2
ATOM      2  C   UNL     1       7.893  16.053  44.323  1.00  0.00     0.000 C 
BRANCH   2   3
ATOM      3  C   UNL     1       8.172  14.635  43.801  1.00  0.00     0.000 C 
BRANCH   3   4
ATOM      4  C   UNL     1       9.315  13.944  44.566  1.00  0.00     0.000 C 
BRANCH   4   5
ATOM      5  C   UNL     1      10.546  14.848  44.752  1.00  0.00     0.000 C 
BRANCH   5   6
ATOM      6  C   UNL     1      10.417  15.919  45.851  1.00  0.00     0.000 C 
BRANCH   6   7
ATOM      7  C   UNL     1      10.233  15.319  47.255  1.00  0.00     0.000 C 
BRANCH   7   8
ATOM      8  C   UNL     1      11.529  14.709  47.824  1.00  0.00     0.000 C 
BRANCH   8   9
ATOM      9  C   UNL     1      11.343  13.758  49.026  1.00  0.00     0.000 C 
BRANCH   9  10
ATOM     10  C   UNL     1      12.634  13.406  49.788  1.00  0.00     0.000 C 
BRANCH  10  11
ATOM     11  C   UNL     1      13.646  12.637  48.921  1.00  0.00     0.000 C 
BRANCH  11  12
ATOM     12  C   UNL     1      14.924  13.450  48.643  1.00  0.00     0.000 C 
BRANCH  12  13
ATOM     13  C   UNL     1      15.768  12.930  47.463  1.00  0.00     0.006 C 
BRANCH  13  14
ATOM     14  C   UNL     1      14.929  12.634  46.212  1.00  0.00     0.053 C 
BRANCH  14  15
ATOM     15  C   UNL     1      15.414  11.390  45.536  1.00  0.00     0.041 C 
ATOM     16  O   UNL     1      16.647  11.151  45.462  1.00  0.00    -0.550 OA
ATOM     17  O   UNL     1      14.501  10.480  45.014  1.00  0.00    -0.550 OA
ENDBRANCH  14  15
ENDBRANCH  13  14
ENDBRANCH  12  13
ENDBRANCH  11  12
ENDBRANCH  10  11
ENDBRANCH   9  10
ENDBRANCH   8   9
ENDBRANCH   7   8
ENDBRANCH   6   7
ENDBRANCH   5   6
ENDBRANCH   4   5
ENDBRANCH   3   4
ENDBRANCH   2   3
ENDBRANCH   1   2
BRANCH   1  18
ATOM     18  C   UNL     1       6.900  16.339  46.667  1.00  0.00     0.000 C 
BRANCH  18  19
ATOM     19  C   UNL     1       5.982  17.359  47.375  1.00  0.00     0.000 C 
BRANCH  19  20
ATOM     20  C   UNL     1       6.548  17.954  48.677  1.00  0.00     0.000 C 
BRANCH  20  21
ATOM     21  C   UNL     1       5.963  19.334  49.006  1.00  0.00     0.000 C 
BRANCH  21  22
ATOM     22  C   UNL     1       5.997  19.599  50.516  1.00  0.00     0.000 C 
BRANCH  22  23
ATOM     23  C   UNL     1       4.623  19.358  51.151  1.00  0.00     0.000 C 
BRANCH  23  24
ATOM     24  C   UNL     1       4.183  20.571  51.982  1.00  0.00    -0.000 C 
BRANCH  24  25
ATOM     25  C   UNL     1       4.341  20.350  53.498  1.00  0.00    -0.000 C 
BRANCH  25  26
ATOM     26  C   UNL     1       5.667  20.853  54.097  1.00  0.00    -0.000 C 
BRANCH  26  27
ATOM     27  C   UNL     1       5.463  21.850  55.251  1.00  0.00    -0.000 C 
BRANCH  27  28
ATOM     28  C   UNL     1       6.742  22.070  56.075  1.00  0.00    -0.000 C 
BRANCH  28  29
ATOM     29  C   UNL     1       7.711  20.877  55.993  1.00  0.00    -0.000 C 
BRANCH  29  30
ATOM     30  C   UNL     1       9.184  21.309  55.894  1.00  0.00    -0.000 C 
BRANCH  30  31
ATOM     31  C   UNL     1      10.044  20.377  55.014  1.00  0.00    -0.003 C 
ATOM     32  C   UNL     1      11.466  20.217  55.553  1.00  0.00     0.004 C 
ENDBRANCH  30  31
ENDBRANCH  29  30
ENDBRANCH  28  29
ENDBRANCH  27  28
ENDBRANCH  26  27
ENDBRANCH  25  26
ENDBRANCH  24  25
ENDBRANCH  23  24
ENDBRANCH  22  23
ENDBRANCH  21  22
ENDBRANCH  20  21
ENDBRANCH  19  20
ENDBRANCH  18  19
ENDBRANCH   1  18
TORSDOF 28
ENDMDL
