MODEL 1
REMARK VINA RESULT:    -2.504      0.000      0.000
REMARK INTER + INTRA:          -2.504
REMARK INTER:                  -2.504
REMARK INTRA:                   0.000
REMARK UNBOUND:                 0.000
REMARK SMILES CC(=O)[O-]
REMARK SMILES IDX 1 1 2 2 3 3 4 4
REMARK H PARENT
REMARK Flexibility Score: inf
ROOT
ATOM      1  C   UNL     1      19.428   1.412 -13.490  1.00  0.00     0.063 C 
ATOM      2  C   UNL     1      18.811   0.161 -12.961  1.00  0.00     0.038 C 
ATOM      3  O   UNL     1      19.443  -0.561 -12.148  1.00  0.00    -0.550 OA
ATOM      4  O   UNL     1      17.558  -0.238 -13.408  1.00  0.00    -0.550 OA
ENDROOT
TORSDOF 0
ENDMDL
MODEL 2
REMARK VINA RESULT:    -2.446      2.139      2.559
REMARK INTER + INTRA:          -2.446
REMARK INTER:                  -2.446
REMARK INTRA:                   0.000
REMARK UNBOUND:                 0.000
REMARK SMILES CC(=O)[O-]
REMARK SMILES IDX 1 1 2 2 3 3 4 4
REMARK H PARENT
REMARK Flexibility Score: inf
ROOT
ATOM      1  C   UNL     1      18.391   0.274 -13.221  1.00  0.00     0.063 C 
ATOM      2  C   UNL     1      19.469   1.223 -13.624  1.00  0.00     0.038 C 
ATOM      3  O   UNL     1      19.331   2.457 -13.422  1.00  0.00    -0.550 OA
ATOM      4  O   UNL     1      20.603   0.752 -14.273  1.00  0.00    -0.550 OA
ENDROOT
TORSDOF 0
ENDMDL
MODEL 3
REMARK VINA RESULT:    -2.295     16.821     17.196
REMARK INTER + INTRA:          -2.295
REMARK INTER:                  -2.295
REMARK INTRA:                   0.000
REMARK UNBOUND:                 0.000
REMARK SMILES CC(=O)[O-]
REMARK SMILES IDX 1 1 2 2 3 3 4 4
REMARK H PARENT
REMARK Flexibility Score: inf
ROOT
ATOM      1  C   UNL     1       4.373   7.421 -17.558  1.00  0.00     0.063 C 
ATOM      2  C   UNL     1       4.880   8.325 -18.630  1.00  0.00     0.038 C 
ATOM      3  O   UNL     1       5.502   7.850 -19.616  1.00  0.00    -0.550 OA
ATOM      4  O   UNL     1       4.717   9.700 -18.516  1.00  0.00    -0.550 OA
ENDROOT
TORSDOF 0
ENDMDL
MODEL 4
REMARK VINA RESULT:    -2.267      1.761      2.008
REMARK INTER + INTRA:          -2.267
REMARK INTER:                  -2.267
REMARK INTRA:                   0.000
REMARK UNBOUND:                 0.000
REMARK SMILES CC(=O)[O-]
REMARK SMILES IDX 1 1 2 2 3 3 4 4
REMARK H PARENT
REMARK Flexibility Score: inf
ROOT
ATOM      1  C   UNL     1      20.439   0.743 -14.145  1.00  0.00     0.063 C 
ATOM      2  C   UNL     1      19.179   1.158 -13.465  1.00  0.00     0.038 C 
ATOM      3  O   UNL     1      18.276   0.312 -13.238  1.00  0.00    -0.550 OA
ATOM      4  O   UNL     1      18.975   2.490 -13.130  1.00  0.00    -0.550 OA
ENDROOT
TORSDOF 0
ENDMDL
MODEL 5
REMARK VINA RESULT:    -2.216     17.031     17.249
REMARK INTER + INTRA:          -2.216
REMARK INTER:                  -2.216
REMARK INTRA:                   0.000
REMARK UNBOUND:                 0.000
REMARK SMILES CC(=O)[O-]
REMARK SMILES IDX 1 1 2 2 3 3 4 4
REMARK H PARENT
REMARK Flexibility Score: inf
ROOT
ATOM      1  C   UNL     1       4.741   9.962 -18.646  1.00  0.00     0.063 C 
ATOM      2  C   UNL     1       4.802   8.487 -18.435  1.00  0.00     0.038 C 
ATOM      3  O   UNL     1       5.129   7.727 -19.383  1.00  0.00    -0.550 OA
ATOM      4  O   UNL     1       4.445   7.944 -17.207  1.00  0.00    -0.550 OA
ENDROOT
TORSDOF 0
ENDMDL
MODEL 6
REMARK VINA RESULT:    -2.144     10.339     10.565
REMARK INTER + INTRA:          -2.144
REMARK INTER:                  -2.144
REMARK INTRA:                   0.000
REMARK UNBOUND:                 0.000
REMARK SMILES CC(=O)[O-]
REMARK SMILES IDX 1 1 2 2 3 3 4 4
REMARK H PARENT
REMARK Flexibility Score: inf
ROOT
ATOM      1  C   UNL     1      11.038   8.012  -8.917  1.00  0.00     0.063 C 
ATOM      2  C   UNL     1      12.297   7.214  -8.905  1.00  0.00     0.038 C 
ATOM      3  O   UNL     1      13.375   7.728  -9.300  1.00  0.00    -0.550 OA
ATOM      4  O   UNL     1      12.273   5.882  -8.511  1.00  0.00    -0.550 OA
ENDROOT
TORSDOF 0
ENDMDL
MODEL 7
REMARK VINA RESULT:    -2.117     10.331     10.566
REMARK INTER + INTRA:          -2.117
REMARK INTER:                  -2.117
REMARK INTRA:                   0.000
REMARK UNBOUND:                 0.000
REMARK SMILES CC(=O)[O-]
REMARK SMILES IDX 1 1 2 2 3 3 4 4
REMARK H PARENT
REMARK Flexibility Score: inf
ROOT
ATOM      1  C   UNL     1      12.331   5.858  -8.205  1.00  0.00     0.063 C 
ATOM      2  C   UNL     1      12.323   7.195  -8.867  1.00  0.00     0.038 C 
ATOM      3  O   UNL     1      13.399   7.705  -9.274  1.00  0.00    -0.550 OA
ATOM      4  O   UNL     1      11.135   7.904  -8.987  1.00  0.00    -0.550 OA
ENDROOT
TORSDOF 0
ENDMDL
MODEL 8
REMARK VINA RESULT:    -2.036     15.776     16.347
REMARK INTER + INTRA:          -2.036
REMARK INTER:                  -2.036
REMARK INTRA:                   0.000
REMARK UNBOUND:                 0.000
REMARK SMILES CC(=O)[O-]
REMARK SMILES IDX 1 1 2 2 3 3 4 4
REMARK H PARENT
REMARK Flexibility Score: inf
ROOT
ATOM      1  C   UNL     1       3.966   2.694 -20.985  1.00  0.00     0.063 C 
ATOM      2  C   UNL     1       4.124   1.714 -19.872  1.00  0.00     0.038 C 
ATOM      3  O   UNL     1       5.223   1.617 -19.268  1.00  0.00    -0.550 OA
ATOM      4  O   UNL     1       3.075   0.868 -19.536  1.00  0.00    -0.550 OA
ENDROOT
TORSDOF 0
ENDMDL
MODEL 9
REMARK VINA RESULT:    -2.029      7.139      7.172
REMARK INTER + INTRA:          -2.029
REMARK INTER:                  -2.029
REMARK INTRA:                   0.000
REMARK UNBOUND:                 0.000
REMARK SMILES CC(=O)[O-]
REMARK SMILES IDX 1 1 2 2 3 3 4 4
REMARK H PARENT
REMARK Flexibility Score: inf
ROOT
ATOM      1  C   UNL     1      21.216  -3.334 -18.745  1.00  0.00     0.063 C 
ATOM      2  C   UNL     1      20.487  -4.489 -18.146  1.00  0.00     0.038 C 
ATOM      3  O   UNL     1      20.993  -5.124 -17.184  1.00  0.00    -0.550 OA
ATOM      4  O   UNL     1      19.275  -4.902 -18.683  1.00  0.00    -0.550 OA
ENDROOT
TORSDOF 0
ENDMDL
