MODEL 1
REMARK VINA RESULT:    -5.099      0.000      0.000
REMARK INTER + INTRA:          -7.162
REMARK INTER:                  -6.590
REMARK INTRA:                  -0.572
REMARK UNBOUND:                -0.572
REMARK SMILES CO[C@]1(CO)O[C@H](CO)[C@@H](O)[C@H]1O
REMARK SMILES IDX 3 1 12 2 10 3 7 4 6 5 2 6 1 7 4 8 5 9 13 11 11 13 8 15 9 16
REMARK H PARENT 5 10 13 12 11 14 9 17
REMARK Flexibility Score: inf
ROOT
ATOM      1  C   UNL     1      19.566  19.067  32.977  1.00  0.00     0.221 C 
ATOM      2  C   UNL     1      19.091  18.958  31.515  1.00  0.00     0.207 C 
ATOM      3  C   UNL     1      19.276  17.479  31.256  1.00  0.00     0.180 C 
ATOM      4  C   UNL     1      19.031  16.859  32.642  1.00  0.00     0.179 C 
ATOM      5  O   UNL     1      19.160  17.872  33.623  1.00  0.00    -0.337 OA
ENDROOT
BRANCH   1   6
ATOM      6  O   UNL     1      20.991  19.160  32.947  1.00  0.00    -0.349 OA
ATOM      7  C   UNL     1      21.460  20.309  32.268  1.00  0.00     0.198 C 
ENDBRANCH   1   6
BRANCH   1   8
ATOM      8  C   UNL     1      18.948  20.293  33.699  1.00  0.00     0.224 C 
BRANCH   8   9
ATOM      9  O   UNL     1      17.614  20.043  34.056  1.00  0.00    -0.391 OA
ATOM     10  H   UNL     1      17.631  19.325  34.741  1.00  0.00     0.210 HD
ENDBRANCH   8   9
ENDBRANCH   1   8
BRANCH   2  11
ATOM     11  O   UNL     1      17.750  19.362  31.336  1.00  0.00    -0.385 OA
ATOM     12  H   UNL     1      17.157  18.623  31.630  1.00  0.00     0.211 HD
ENDBRANCH   2  11
BRANCH   3  13
ATOM     13  O   UNL     1      18.430  16.976  30.248  1.00  0.00    -0.387 OA
ATOM     14  H   UNL     1      18.597  17.474  29.407  1.00  0.00     0.211 HD
ENDBRANCH   3  13
BRANCH   4  15
ATOM     15  C   UNL     1      20.002  15.712  32.955  1.00  0.00     0.191 C 
BRANCH  15  16
ATOM     16  O   UNL     1      20.299  14.986  31.792  1.00  0.00    -0.394 OA
ATOM     17  H   UNL     1      19.888  15.476  31.033  1.00  0.00     0.210 HD
ENDBRANCH  15  16
ENDBRANCH   4  15
TORSDOF 7
ENDMDL
MODEL 2
REMARK VINA RESULT:    -4.718      7.517      9.223
REMARK INTER + INTRA:          -6.669
REMARK INTER:                  -5.999
REMARK INTRA:                  -0.669
REMARK UNBOUND:                -0.572
REMARK SMILES CO[C@]1(CO)O[C@H](CO)[C@@H](O)[C@H]1O
REMARK SMILES IDX 3 1 12 2 10 3 7 4 6 5 2 6 1 7 4 8 5 9 13 11 11 13 8 15 9 16
REMARK H PARENT 5 10 13 12 11 14 9 17
REMARK Flexibility Score: inf
ROOT
ATOM      1  C   UNL     1      14.817  11.809  34.175  1.00  0.00     0.221 C 
ATOM      2  C   UNL     1      14.202  10.788  35.152  1.00  0.00     0.207 C 
ATOM      3  C   UNL     1      13.095  11.608  35.777  1.00  0.00     0.180 C 
ATOM      4  C   UNL     1      12.697  12.562  34.639  1.00  0.00     0.179 C 
ATOM      5  O   UNL     1      13.743  12.593  33.683  1.00  0.00    -0.337 OA
ENDROOT
BRANCH   1   6
ATOM      6  O   UNL     1      15.721  12.616  34.930  1.00  0.00    -0.349 OA
ATOM      7  C   UNL     1      16.337  13.631  34.160  1.00  0.00     0.198 C 
ENDBRANCH   1   6
BRANCH   1   8
ATOM      8  C   UNL     1      15.548  11.117  32.995  1.00  0.00     0.224 C 
BRANCH   8   9
ATOM      9  O   UNL     1      14.628  10.630  32.053  1.00  0.00    -0.391 OA
ATOM     10  H   UNL     1      14.590   9.646  32.173  1.00  0.00     0.210 HD
ENDBRANCH   8   9
ENDBRANCH   1   8
BRANCH   2  11
ATOM     11  O   UNL     1      13.706   9.633  34.508  1.00  0.00    -0.385 OA
ATOM     12  H   UNL     1      14.047   9.622  33.576  1.00  0.00     0.211 HD
ENDBRANCH   2  11
BRANCH   3  13
ATOM     13  O   UNL     1      12.029  10.830  36.268  1.00  0.00    -0.387 OA
ATOM     14  H   UNL     1      11.308  10.802  35.587  1.00  0.00     0.211 HD
ENDBRANCH   3  13
BRANCH   4  15
ATOM     15  C   UNL     1      12.412  13.986  35.136  1.00  0.00     0.191 C 
BRANCH  15  16
ATOM     16  O   UNL     1      13.461  14.445  35.946  1.00  0.00    -0.394 OA
ATOM     17  H   UNL     1      13.614  15.396  35.708  1.00  0.00     0.210 HD
ENDBRANCH  15  16
ENDBRANCH   4  15
TORSDOF 7
ENDMDL
MODEL 3
REMARK VINA RESULT:    -4.556      6.823      8.178
REMARK INTER + INTRA:          -6.459
REMARK INTER:                  -5.791
REMARK INTRA:                  -0.668
REMARK UNBOUND:                -0.572
REMARK SMILES CO[C@]1(CO)O[C@H](CO)[C@@H](O)[C@H]1O
REMARK SMILES IDX 3 1 12 2 10 3 7 4 6 5 2 6 1 7 4 8 5 9 13 11 11 13 8 15 9 16
REMARK H PARENT 5 10 13 12 11 14 9 17
REMARK Flexibility Score: inf
ROOT
ATOM      1  C   UNL     1      15.976  12.183  34.965  1.00  0.00     0.221 C 
ATOM      2  C   UNL     1      14.760  13.106  35.171  1.00  0.00     0.207 C 
ATOM      3  C   UNL     1      13.689  12.357  34.409  1.00  0.00     0.180 C 
ATOM      4  C   UNL     1      14.117  10.890  34.577  1.00  0.00     0.179 C 
ATOM      5  O   UNL     1      15.478  10.855  34.969  1.00  0.00    -0.337 OA
ENDROOT
BRANCH   1   6
ATOM      6  O   UNL     1      16.533  12.505  33.691  1.00  0.00    -0.349 OA
ATOM      7  C   UNL     1      17.710  11.777  33.397  1.00  0.00     0.198 C 
ENDBRANCH   1   6
BRANCH   1   8
ATOM      8  C   UNL     1      17.032  12.353  36.089  1.00  0.00     0.224 C 
BRANCH   8   9
ATOM      9  O   UNL     1      17.234  13.710  36.384  1.00  0.00    -0.391 OA
ATOM     10  H   UNL     1      18.138  13.943  36.050  1.00  0.00     0.210 HD
ENDBRANCH   8   9
ENDBRANCH   1   8
BRANCH   2  11
ATOM     11  O   UNL     1      14.418  13.279  36.530  1.00  0.00    -0.385 OA
ATOM     12  H   UNL     1      13.430  13.338  36.601  1.00  0.00     0.211 HD
ENDBRANCH   2  11
BRANCH   3  13
ATOM     13  O   UNL     1      12.383  12.626  34.865  1.00  0.00    -0.387 OA
ATOM     14  H   UNL     1      12.435  13.085  35.743  1.00  0.00     0.211 HD
ENDBRANCH   3  13
BRANCH   4  15
ATOM     15  C   UNL     1      13.929  10.070  33.294  1.00  0.00     0.191 C 
BRANCH  15  16
ATOM     16  O   UNL     1      14.518  10.723  32.200  1.00  0.00    -0.394 OA
ATOM     17  H   UNL     1      15.483  10.489  32.211  1.00  0.00     0.210 HD
ENDBRANCH  15  16
ENDBRANCH   4  15
TORSDOF 7
ENDMDL
MODEL 4
REMARK VINA RESULT:    -4.509      5.546      7.140
REMARK INTER + INTRA:          -6.398
REMARK INTER:                  -5.859
REMARK INTRA:                  -0.539
REMARK UNBOUND:                -0.572
REMARK SMILES CO[C@]1(CO)O[C@H](CO)[C@@H](O)[C@H]1O
REMARK SMILES IDX 3 1 12 2 10 3 7 4 6 5 2 6 1 7 4 8 5 9 13 11 11 13 8 15 9 16
REMARK H PARENT 5 10 13 12 11 14 9 17
REMARK Flexibility Score: inf
ROOT
ATOM      1  C   UNL     1      16.932  13.517  35.128  1.00  0.00     0.221 C 
ATOM      2  C   UNL     1      17.039  12.134  34.457  1.00  0.00     0.207 C 
ATOM      3  C   UNL     1      15.640  11.598  34.664  1.00  0.00     0.180 C 
ATOM      4  C   UNL     1      14.782  12.873  34.643  1.00  0.00     0.179 C 
ATOM      5  O   UNL     1      15.621  13.992  34.867  1.00  0.00    -0.337 OA
ENDROOT
BRANCH   1   6
ATOM      6  O   UNL     1      17.121  13.316  36.530  1.00  0.00    -0.349 OA
ATOM      7  C   UNL     1      18.392  13.739  36.986  1.00  0.00     0.198 C 
ENDBRANCH   1   6
BRANCH   1   8
ATOM      8  C   UNL     1      17.976  14.518  34.567  1.00  0.00     0.224 C 
BRANCH   8   9
ATOM      9  O   UNL     1      17.428  15.281  33.524  1.00  0.00    -0.391 OA
ATOM     10  H   UNL     1      16.450  15.112  33.532  1.00  0.00     0.210 HD
ENDBRANCH   8   9
ENDBRANCH   1   8
BRANCH   2  11
ATOM     11  O   UNL     1      17.380  12.207  33.089  1.00  0.00    -0.385 OA
ATOM     12  H   UNL     1      17.567  11.289  32.763  1.00  0.00     0.211 HD
ENDBRANCH   2  11
BRANCH   3  13
ATOM     13  O   UNL     1      15.260  10.637  33.706  1.00  0.00    -0.387 OA
ATOM     14  H   UNL     1      15.549   9.740  34.015  1.00  0.00     0.211 HD
ENDBRANCH   3  13
BRANCH   4  15
ATOM     15  C   UNL     1      13.665  12.849  35.696  1.00  0.00     0.191 C 
BRANCH  15  16
ATOM     16  O   UNL     1      14.143  13.304  36.934  1.00  0.00    -0.394 OA
ATOM     17  H   UNL     1      14.752  14.063  36.745  1.00  0.00     0.210 HD
ENDBRANCH  15  16
ENDBRANCH   4  15
TORSDOF 7
ENDMDL
MODEL 5
REMARK VINA RESULT:    -4.504      2.281      4.168
REMARK INTER + INTRA:          -6.393
REMARK INTER:                  -5.948
REMARK INTRA:                  -0.445
REMARK UNBOUND:                -0.572
REMARK SMILES CO[C@]1(CO)O[C@H](CO)[C@@H](O)[C@H]1O
REMARK SMILES IDX 3 1 12 2 10 3 7 4 6 5 2 6 1 7 4 8 5 9 13 11 11 13 8 15 9 16
REMARK H PARENT 5 10 13 12 11 14 9 17
REMARK Flexibility Score: inf
ROOT
ATOM      1  C   UNL     1      20.514  16.330  33.389  1.00  0.00     0.221 C 
ATOM      2  C   UNL     1      21.996  16.380  33.809  1.00  0.00     0.207 C 
ATOM      3  C   UNL     1      22.441  14.970  33.486  1.00  0.00     0.180 C 
ATOM      4  C   UNL     1      21.550  14.600  32.289  1.00  0.00     0.179 C 
ATOM      5  O   UNL     1      20.446  15.487  32.250  1.00  0.00    -0.337 OA
ENDROOT
BRANCH   1   6
ATOM      6  O   UNL     1      19.791  15.757  34.479  1.00  0.00    -0.349 OA
ATOM      7  C   UNL     1      18.454  15.434  34.151  1.00  0.00     0.198 C 
ENDBRANCH   1   6
BRANCH   1   8
ATOM      8  C   UNL     1      19.962  17.737  33.037  1.00  0.00     0.224 C 
BRANCH   8   9
ATOM      9  O   UNL     1      20.158  18.631  34.101  1.00  0.00    -0.391 OA
ATOM     10  H   UNL     1      21.045  19.053  33.959  1.00  0.00     0.210 HD
ENDBRANCH   8   9
ENDBRANCH   1   8
BRANCH   2  11
ATOM     11  O   UNL     1      22.742  17.345  33.098  1.00  0.00    -0.385 OA
ATOM     12  H   UNL     1      22.670  17.146  32.128  1.00  0.00     0.211 HD
ENDBRANCH   2  11
BRANCH   3  13
ATOM     13  O   UNL     1      23.821  14.863  33.225  1.00  0.00    -0.387 OA
ATOM     14  H   UNL     1      24.321  14.979  34.074  1.00  0.00     0.211 HD
ENDBRANCH   3  13
BRANCH   4  15
ATOM     15  C   UNL     1      21.044  13.152  32.356  1.00  0.00     0.191 C 
BRANCH  15  16
ATOM     16  O   UNL     1      19.889  12.996  31.576  1.00  0.00    -0.394 OA
ATOM     17  H   UNL     1      19.263  12.431  32.098  1.00  0.00     0.210 HD
ENDBRANCH  15  16
ENDBRANCH   4  15
TORSDOF 7
ENDMDL
MODEL 6
REMARK VINA RESULT:    -4.443      2.416      4.344
REMARK INTER + INTRA:          -6.314
REMARK INTER:                  -5.814
REMARK INTRA:                  -0.500
REMARK UNBOUND:                -0.572
REMARK SMILES CO[C@]1(CO)O[C@H](CO)[C@@H](O)[C@H]1O
REMARK SMILES IDX 3 1 12 2 10 3 7 4 6 5 2 6 1 7 4 8 5 9 13 11 11 13 8 15 9 16
REMARK H PARENT 5 10 13 12 11 14 9 17
REMARK Flexibility Score: inf
ROOT
ATOM      1  C   UNL     1      21.460  15.667  33.343  1.00  0.00     0.221 C 
ATOM      2  C   UNL     1      20.892  17.077  33.093  1.00  0.00     0.207 C 
ATOM      3  C   UNL     1      19.424  16.861  33.392  1.00  0.00     0.180 C 
ATOM      4  C   UNL     1      19.456  15.757  34.462  1.00  0.00     0.179 C 
ATOM      5  O   UNL     1      20.720  15.120  34.423  1.00  0.00    -0.337 OA
ENDROOT
BRANCH   1   6
ATOM      6  O   UNL     1      21.238  14.911  32.152  1.00  0.00    -0.349 OA
ATOM      7  C   UNL     1      22.096  13.793  32.034  1.00  0.00     0.198 C 
ENDBRANCH   1   6
BRANCH   1   8
ATOM      8  C   UNL     1      22.968  15.703  33.702  1.00  0.00     0.224 C 
BRANCH   8   9
ATOM      9  O   UNL     1      23.623  16.732  33.008  1.00  0.00    -0.391 OA
ATOM     10  H   UNL     1      22.924  17.233  32.514  1.00  0.00     0.210 HD
ENDBRANCH   8   9
ENDBRANCH   1   8
BRANCH   2  11
ATOM     11  O   UNL     1      21.461  18.061  33.931  1.00  0.00    -0.385 OA
ATOM     12  H   UNL     1      20.844  18.836  33.970  1.00  0.00     0.211 HD
ENDBRANCH   2  11
BRANCH   3  13
ATOM     13  O   UNL     1      18.755  18.032  33.798  1.00  0.00    -0.387 OA
ATOM     14  H   UNL     1      17.964  17.780  34.341  1.00  0.00     0.211 HD
ENDBRANCH   3  13
BRANCH   4  15
ATOM     15  C   UNL     1      18.347  14.714  34.266  1.00  0.00     0.191 C 
BRANCH  15  16
ATOM     16  O   UNL     1      17.303  15.242  33.492  1.00  0.00    -0.394 OA
ATOM     17  H   UNL     1      16.455  14.945  33.912  1.00  0.00     0.210 HD
ENDBRANCH  15  16
ENDBRANCH   4  15
TORSDOF 7
ENDMDL
MODEL 7
REMARK VINA RESULT:    -4.397      3.045      4.852
REMARK INTER + INTRA:          -6.255
REMARK INTER:                  -5.680
REMARK INTRA:                  -0.575
REMARK UNBOUND:                -0.572
REMARK SMILES CO[C@]1(CO)O[C@H](CO)[C@@H](O)[C@H]1O
REMARK SMILES IDX 3 1 12 2 10 3 7 4 6 5 2 6 1 7 4 8 5 9 13 11 11 13 8 15 9 16
REMARK H PARENT 5 10 13 12 11 14 9 17
REMARK Flexibility Score: inf
ROOT
ATOM      1  C   UNL     1      22.494  15.931  33.815  1.00  0.00     0.221 C 
ATOM      2  C   UNL     1      22.251  14.640  33.010  1.00  0.00     0.207 C 
ATOM      3  C   UNL     1      20.748  14.677  32.840  1.00  0.00     0.180 C 
ATOM      4  C   UNL     1      20.450  16.185  32.800  1.00  0.00     0.179 C 
ATOM      5  O   UNL     1      21.556  16.884  33.342  1.00  0.00    -0.337 OA
ENDROOT
BRANCH   1   6
ATOM      6  O   UNL     1      22.243  15.621  35.186  1.00  0.00    -0.349 OA
ATOM      7  C   UNL     1      22.522  16.696  36.061  1.00  0.00     0.198 C 
ENDBRANCH   1   6
BRANCH   1   8
ATOM      8  C   UNL     1      23.936  16.471  33.626  1.00  0.00     0.224 C 
BRANCH   8   9
ATOM      9  O   UNL     1      24.880  15.444  33.780  1.00  0.00    -0.391 OA
ATOM     10  H   UNL     1      24.744  14.817  33.024  1.00  0.00     0.210 HD
ENDBRANCH   8   9
ENDBRANCH   1   8
BRANCH   2  11
ATOM     11  O   UNL     1      22.923  14.626  31.768  1.00  0.00    -0.385 OA
ATOM     12  H   UNL     1      23.572  13.876  31.770  1.00  0.00     0.211 HD
ENDBRANCH   2  11
BRANCH   3  13
ATOM     13  O   UNL     1      20.294  13.975  31.707  1.00  0.00    -0.387 OA
ATOM     14  H   UNL     1      19.312  14.097  31.623  1.00  0.00     0.211 HD
ENDBRANCH   3  13
BRANCH   4  15
ATOM     15  C   UNL     1      19.178  16.555  33.575  1.00  0.00     0.191 C 
BRANCH  15  16
ATOM     16  O   UNL     1      18.191  15.574  33.401  1.00  0.00    -0.394 OA
ATOM     17  H   UNL     1      17.775  15.423  34.289  1.00  0.00     0.210 HD
ENDBRANCH  15  16
ENDBRANCH   4  15
TORSDOF 7
ENDMDL
MODEL 8
REMARK VINA RESULT:    -4.343      2.432      4.112
REMARK INTER + INTRA:          -6.185
REMARK INTER:                  -5.556
REMARK INTRA:                  -0.628
REMARK UNBOUND:                -0.572
REMARK SMILES CO[C@]1(CO)O[C@H](CO)[C@@H](O)[C@H]1O
REMARK SMILES IDX 3 1 12 2 10 3 7 4 6 5 2 6 1 7 4 8 5 9 13 11 11 13 8 15 9 16
REMARK H PARENT 5 10 13 12 11 14 9 17
REMARK Flexibility Score: inf
ROOT
ATOM      1  C   UNL     1      19.805  16.110  33.484  1.00  0.00     0.221 C 
ATOM      2  C   UNL     1      20.579  14.868  33.002  1.00  0.00     0.207 C 
ATOM      3  C   UNL     1      20.053  13.809  33.946  1.00  0.00     0.180 C 
ATOM      4  C   UNL     1      18.619  14.289  34.228  1.00  0.00     0.179 C 
ATOM      5  O   UNL     1      18.519  15.657  33.875  1.00  0.00    -0.337 OA
ENDROOT
BRANCH   1   6
ATOM      6  O   UNL     1      20.514  16.633  34.608  1.00  0.00    -0.349 OA
ATOM      7  C   UNL     1      21.767  17.192  34.264  1.00  0.00     0.198 C 
ENDBRANCH   1   6
BRANCH   1   8
ATOM      8  C   UNL     1      19.670  17.180  32.369  1.00  0.00     0.224 C 
BRANCH   8   9
ATOM      9  O   UNL     1      18.681  16.814  31.442  1.00  0.00    -0.391 OA
ATOM     10  H   UNL     1      17.807  17.033  31.856  1.00  0.00     0.210 HD
ENDBRANCH   8   9
ENDBRANCH   1   8
BRANCH   2  11
ATOM     11  O   UNL     1      20.324  14.545  31.652  1.00  0.00    -0.385 OA
ATOM     12  H   UNL     1      20.478  15.356  31.100  1.00  0.00     0.211 HD
ENDBRANCH   2  11
BRANCH   3  13
ATOM     13  O   UNL     1      20.124  12.504  33.422  1.00  0.00    -0.387 OA
ATOM     14  H   UNL     1      20.229  12.556  32.436  1.00  0.00     0.211 HD
ENDBRANCH   3  13
BRANCH   4  15
ATOM     15  C   UNL     1      18.215  14.106  35.698  1.00  0.00     0.191 C 
BRANCH  15  16
ATOM     16  O   UNL     1      19.254  14.508  36.550  1.00  0.00    -0.394 OA
ATOM     17  H   UNL     1      19.301  15.497  36.500  1.00  0.00     0.210 HD
ENDBRANCH  15  16
ENDBRANCH   4  15
TORSDOF 7
ENDMDL
MODEL 9
REMARK VINA RESULT:    -4.334      2.927      5.124
REMARK INTER + INTRA:          -6.173
REMARK INTER:                  -5.593
REMARK INTRA:                  -0.581
REMARK UNBOUND:                -0.572
REMARK SMILES CO[C@]1(CO)O[C@H](CO)[C@@H](O)[C@H]1O
REMARK SMILES IDX 3 1 12 2 10 3 7 4 6 5 2 6 1 7 4 8 5 9 13 11 11 13 8 15 9 16
REMARK H PARENT 5 10 13 12 11 14 9 17
REMARK Flexibility Score: inf
ROOT
ATOM      1  C   UNL     1      19.159  13.920  34.396  1.00  0.00     0.221 C 
ATOM      2  C   UNL     1      18.415  15.265  34.288  1.00  0.00     0.207 C 
ATOM      3  C   UNL     1      19.499  16.156  33.720  1.00  0.00     0.180 C 
ATOM      4  C   UNL     1      20.331  15.178  32.873  1.00  0.00     0.179 C 
ATOM      5  O   UNL     1      20.038  13.855  33.285  1.00  0.00    -0.337 OA
ENDROOT
BRANCH   1   6
ATOM      6  O   UNL     1      19.898  13.949  35.617  1.00  0.00    -0.349 OA
ATOM      7  C   UNL     1      19.076  14.054  36.763  1.00  0.00     0.198 C 
ENDBRANCH   1   6
BRANCH   1   8
ATOM      8  C   UNL     1      18.184  12.713  34.368  1.00  0.00     0.224 C 
BRANCH   8   9
ATOM      9  O   UNL     1      17.919  12.315  33.048  1.00  0.00    -0.391 OA
ATOM     10  H   UNL     1      18.311  11.410  32.939  1.00  0.00     0.210 HD
ENDBRANCH   8   9
ENDBRANCH   1   8
BRANCH   2  11
ATOM     11  O   UNL     1      17.284  15.207  33.445  1.00  0.00    -0.385 OA
ATOM     12  H   UNL     1      16.852  14.322  33.559  1.00  0.00     0.211 HD
ENDBRANCH   2  11
BRANCH   3  13
ATOM     13  O   UNL     1      19.000  17.256  32.996  1.00  0.00    -0.387 OA
ATOM     14  H   UNL     1      19.499  17.336  32.143  1.00  0.00     0.211 HD
ENDBRANCH   3  13
BRANCH   4  15
ATOM     15  C   UNL     1      21.840  15.432  32.992  1.00  0.00     0.191 C 
BRANCH  15  16
ATOM     16  O   UNL     1      22.101  16.805  33.122  1.00  0.00    -0.394 OA
ATOM     17  H   UNL     1      22.895  16.892  33.709  1.00  0.00     0.210 HD
ENDBRANCH  15  16
ENDBRANCH   4  15
TORSDOF 7
ENDMDL
