MODEL 1
REMARK VINA RESULT:    -3.437      0.000      0.000
REMARK INTER + INTRA:          -4.780
REMARK INTER:                  -5.246
REMARK INTRA:                   0.466
REMARK UNBOUND:                 0.466
REMARK SMILES CC1=CCC[C@@H](C)C(=O)C[C@@H](C(C)C)C(=O)C1
REMARK SMILES IDX 8 1 9 2 6 3 7 4 5 5 4 6 3 7 2 8 1 9 10 11 11 12 15 13 16 14
REMARK SMILES IDX 17 15 12 17 13 18 14 19
REMARK H PARENT
REMARK Flexibility Score: 70.00
ROOT
ATOM      1  C   UNL     1      -5.006  -3.801   1.629  1.00  0.00     0.136 C 
ATOM      2  O   UNL     1      -5.726  -3.531   0.678  1.00  0.00    -0.299 OA
ENDROOT
BRANCH   1   3
ATOM      3  C   UNL     1      -3.876  -2.861   2.017  1.00  0.00     0.053 C 
ATOM      4  C   UNL     1      -3.735  -1.728   0.990  1.00  0.00     0.016 C 
BRANCH   3   5
ATOM      5  C   UNL     1      -2.544  -3.636   2.167  1.00  0.00     0.015 C 
BRANCH   5   6
ATOM      6  C   UNL     1      -2.345  -4.195   3.591  1.00  0.00     0.028 C 
BRANCH   6   7
ATOM      7  C   UNL     1      -3.012  -3.322   4.623  1.00  0.00    -0.028 C 
ATOM      8  C   UNL     1      -4.079  -3.691   5.372  1.00  0.00    -0.070 CG0
ATOM      9  C   UNL     1      -4.594  -2.715   6.399  1.00  0.00     0.039 C 
ATOM     10  G   UNL     1      -4.770  -5.039   5.220  1.00  0.00     0.000 G0
ENDBRANCH   6   7
ENDBRANCH   5   6
ENDBRANCH   3   5
ENDBRANCH   1   3
BRANCH   1  11
ATOM     11  C   UNL     1      -5.245  -5.084   2.392  1.00  0.00     0.087 C 
BRANCH  11  12
ATOM     12  C   UNL     1      -6.539  -5.079   3.256  1.00  0.00     0.066 C 
BRANCH  12  13
ATOM     13  C   UNL     1      -6.197  -4.884   4.727  1.00  0.00     0.140 C 
ATOM     14  O   UNL     1      -7.073  -4.549   5.513  1.00  0.00    -0.299 OA
BRANCH  13  15
ATOM     15  C   UNL     1      -4.779  -5.034   5.216  1.00  0.00     0.106 CG0
ATOM     16  G   UNL     1      -4.070  -3.693   5.347  1.00  0.00     0.000 G0
ENDBRANCH  13  15
ENDBRANCH  12  13
BRANCH  12  17
ATOM     17  C   UNL     1      -7.469  -6.321   3.044  1.00  0.00    -0.006 C 
ATOM     18  C   UNL     1      -6.737  -7.508   2.393  1.00  0.00     0.008 C 
ATOM     19  C   UNL     1      -8.684  -5.952   2.173  1.00  0.00     0.008 C 
ENDBRANCH  12  17
ENDBRANCH  11  12
ENDBRANCH   1  11
TORSDOF 1
ENDMDL
MODEL 2
REMARK VINA RESULT:    -3.382      1.999      4.318
REMARK INTER + INTRA:          -4.695
REMARK INTER:                  -4.856
REMARK INTRA:                   0.161
REMARK UNBOUND:                 0.466
REMARK SMILES CC1=CCC[C@@H](C)C(=O)C[C@@H](C(C)C)C(=O)C1
REMARK SMILES IDX 8 1 9 2 6 3 7 4 5 5 4 6 3 7 2 8 1 9 10 11 11 12 15 13 16 14
REMARK SMILES IDX 17 15 12 17 13 18 14 19
REMARK H PARENT
REMARK Flexibility Score: 70.00
ROOT
ATOM      1  C   UNL     1      -6.556  -5.723   2.898  1.00  0.00     0.136 C 
ATOM      2  O   UNL     1      -5.998  -6.809   2.969  1.00  0.00    -0.299 OA
ENDROOT
BRANCH   1   3
ATOM      3  C   UNL     1      -8.058  -5.654   2.676  1.00  0.00     0.053 C 
ATOM      4  C   UNL     1      -8.379  -5.482   1.184  1.00  0.00     0.016 C 
BRANCH   3   5
ATOM      5  C   UNL     1      -8.684  -4.508   3.509  1.00  0.00     0.015 C 
BRANCH   5   6
ATOM      6  C   UNL     1      -8.880  -4.896   4.990  1.00  0.00     0.028 C 
BRANCH   6   7
ATOM      7  C   UNL     1      -8.461  -3.779   5.911  1.00  0.00    -0.028 C 
ATOM      8  C   UNL     1      -7.214  -3.624   6.417  1.00  0.00    -0.070 CG0
ATOM      9  C   UNL     1      -6.947  -2.420   7.284  1.00  0.00     0.039 C 
ATOM     10  G   UNL     1      -6.082  -4.606   6.146  1.00  0.00     0.000 G0
ENDBRANCH   6   7
ENDBRANCH   5   6
ENDBRANCH   3   5
ENDBRANCH   1   3
BRANCH   1  11
ATOM     11  C   UNL     1      -5.730  -4.462   3.014  1.00  0.00     0.087 C 
BRANCH  11  12
ATOM     12  C   UNL     1      -4.538  -4.571   4.007  1.00  0.00     0.066 C 
BRANCH  12  13
ATOM     13  C   UNL     1      -4.927  -4.012   5.370  1.00  0.00     0.140 C 
ATOM     14  O   UNL     1      -4.268  -3.106   5.864  1.00  0.00    -0.299 OA
BRANCH  13  15
ATOM     15  C   UNL     1      -6.073  -4.605   6.148  1.00  0.00     0.106 CG0
ATOM     16  G   UNL     1      -7.174  -3.589   6.417  1.00  0.00     0.000 G0
ENDBRANCH  13  15
ENDBRANCH  12  13
BRANCH  12  17
ATOM     17  C   UNL     1      -3.200  -3.942   3.492  1.00  0.00    -0.006 C 
ATOM     18  C   UNL     1      -3.261  -3.548   2.005  1.00  0.00     0.008 C 
ATOM     19  C   UNL     1      -2.024  -4.917   3.695  1.00  0.00     0.008 C 
ENDBRANCH  12  17
ENDBRANCH  11  12
ENDBRANCH   1  11
TORSDOF 1
ENDMDL
MODEL 3
REMARK VINA RESULT:    -3.381      2.260      5.312
REMARK INTER + INTRA:          -4.694
REMARK INTER:                  -4.919
REMARK INTRA:                   0.224
REMARK UNBOUND:                 0.466
REMARK SMILES CC1=CCC[C@@H](C)C(=O)C[C@@H](C(C)C)C(=O)C1
REMARK SMILES IDX 8 1 9 2 6 3 7 4 5 5 4 6 3 7 2 8 1 9 10 11 11 12 15 13 16 14
REMARK SMILES IDX 17 15 12 17 13 18 14 19
REMARK H PARENT
REMARK Flexibility Score: 70.00
ROOT
ATOM      1  C   UNL     1      -5.284  -3.413   6.945  1.00  0.00     0.136 C 
ATOM      2  O   UNL     1      -4.354  -2.814   7.467  1.00  0.00    -0.299 OA
ENDROOT
BRANCH   1   3
ATOM      3  C   UNL     1      -6.709  -2.920   7.140  1.00  0.00     0.053 C 
ATOM      4  C   UNL     1      -6.989  -2.642   8.624  1.00  0.00     0.016 C 
BRANCH   3   5
ATOM      5  C   UNL     1      -7.725  -3.940   6.570  1.00  0.00     0.015 C 
BRANCH   5   6
ATOM      6  C   UNL     1      -8.451  -3.410   5.316  1.00  0.00     0.028 C 
BRANCH   6   7
ATOM      7  C   UNL     1      -9.040  -4.535   4.504  1.00  0.00    -0.028 C 
ATOM      8  C   UNL     1      -8.401  -5.172   3.494  1.00  0.00    -0.070 CG0
ATOM      9  C   UNL     1      -9.113  -6.314   2.815  1.00  0.00     0.039 C 
ATOM     10  G   UNL     1      -7.005  -4.786   3.022  1.00  0.00     0.000 G0
ENDBRANCH   6   7
ENDBRANCH   5   6
ENDBRANCH   3   5
ENDBRANCH   1   3
BRANCH   1  11
ATOM     11  C   UNL     1      -4.996  -4.651   6.127  1.00  0.00     0.087 C 
BRANCH  11  12
ATOM     12  C   UNL     1      -4.940  -4.402   4.593  1.00  0.00     0.066 C 
BRANCH  12  13
ATOM     13  C   UNL     1      -5.892  -5.343   3.865  1.00  0.00     0.140 C 
ATOM     14  O   UNL     1      -5.727  -6.553   3.947  1.00  0.00    -0.299 OA
BRANCH  13  15
ATOM     15  C   UNL     1      -6.994  -4.801   2.992  1.00  0.00     0.106 CG0
ATOM     16  G   UNL     1      -8.376  -5.174   3.511  1.00  0.00     0.000 G0
ENDBRANCH  13  15
ENDBRANCH  12  13
BRANCH  12  17
ATOM     17  C   UNL     1      -3.502  -4.452   3.975  1.00  0.00    -0.006 C 
ATOM     18  C   UNL     1      -2.646  -3.232   4.360  1.00  0.00     0.008 C 
ATOM     19  C   UNL     1      -3.570  -4.543   2.439  1.00  0.00     0.008 C 
ENDBRANCH  12  17
ENDBRANCH  11  12
ENDBRANCH   1  11
TORSDOF 1
ENDMDL
MODEL 4
REMARK VINA RESULT:    -3.225      1.780      4.333
REMARK INTER + INTRA:          -4.456
REMARK INTER:                  -4.783
REMARK INTRA:                   0.327
REMARK UNBOUND:                 0.466
REMARK SMILES CC1=CCC[C@@H](C)C(=O)C[C@@H](C(C)C)C(=O)C1
REMARK SMILES IDX 8 1 9 2 6 3 7 4 5 5 4 6 3 7 2 8 1 9 10 11 11 12 15 13 16 14
REMARK SMILES IDX 17 15 12 17 13 18 14 19
REMARK H PARENT
REMARK Flexibility Score: 70.00
ROOT
ATOM      1  C   UNL     1      -7.383  -4.964   4.453  1.00  0.00     0.136 C 
ATOM      2  O   UNL     1      -8.529  -4.678   4.768  1.00  0.00    -0.299 OA
ENDROOT
BRANCH   1   3
ATOM      3  C   UNL     1      -7.068  -5.381   3.025  1.00  0.00     0.053 C 
ATOM      4  C   UNL     1      -8.251  -5.071   2.096  1.00  0.00     0.016 C 
BRANCH   3   5
ATOM      5  C   UNL     1      -6.695  -6.882   2.960  1.00  0.00     0.015 C 
BRANCH   5   6
ATOM      6  C   UNL     1      -5.172  -7.115   3.051  1.00  0.00     0.028 C 
BRANCH   6   7
ATOM      7  C   UNL     1      -4.404  -5.988   2.410  1.00  0.00    -0.028 C 
ATOM      8  C   UNL     1      -3.684  -5.062   3.088  1.00  0.00    -0.070 CG0
ATOM      9  C   UNL     1      -2.929  -4.030   2.291  1.00  0.00     0.039 C 
ATOM     10  G   UNL     1      -3.607  -5.025   4.608  1.00  0.00     0.000 G0
ENDBRANCH   6   7
ENDBRANCH   5   6
ENDBRANCH   3   5
ENDBRANCH   1   3
BRANCH   1  11
ATOM     11  C   UNL     1      -6.297  -4.918   5.505  1.00  0.00     0.087 C 
BRANCH  11  12
ATOM     12  C   UNL     1      -5.559  -3.552   5.598  1.00  0.00     0.066 C 
BRANCH  12  13
ATOM     13  C   UNL     1      -4.101  -3.705   5.184  1.00  0.00     0.140 C 
ATOM     14  O   UNL     1      -3.345  -2.746   5.261  1.00  0.00    -0.299 OA
BRANCH  13  15
ATOM     15  C   UNL     1      -3.593  -5.007   4.617  1.00  0.00     0.106 CG0
ATOM     16  G   UNL     1      -3.689  -5.051   3.099  1.00  0.00     0.000 G0
ENDBRANCH  13  15
ENDBRANCH  12  13
BRANCH  12  17
ATOM     17  C   UNL     1      -5.688  -2.833   6.983  1.00  0.00    -0.006 C 
ATOM     18  C   UNL     1      -4.648  -3.323   8.007  1.00  0.00     0.008 C 
ATOM     19  C   UNL     1      -7.096  -3.036   7.575  1.00  0.00     0.008 C 
ENDBRANCH  12  17
ENDBRANCH  11  12
ENDBRANCH   1  11
TORSDOF 1
ENDMDL
MODEL 5
REMARK VINA RESULT:    -2.927      2.020      2.882
REMARK INTER + INTRA:          -4.001
REMARK INTER:                  -3.967
REMARK INTRA:                  -0.035
REMARK UNBOUND:                 0.466
REMARK SMILES CC1=CCC[C@@H](C)C(=O)C[C@@H](C(C)C)C(=O)C1
REMARK SMILES IDX 8 1 9 2 6 3 7 4 5 5 4 6 3 7 2 8 1 9 10 11 11 12 15 13 16 14
REMARK SMILES IDX 17 15 12 17 13 18 14 19
REMARK H PARENT
REMARK Flexibility Score: 70.00
ROOT
ATOM      1  C   UNL     1      -4.087  -5.065   4.469  1.00  0.00     0.136 C 
ATOM      2  O   UNL     1      -3.025  -5.671   4.503  1.00  0.00    -0.299 OA
ENDROOT
BRANCH   1   3
ATOM      3  C   UNL     1      -4.094  -3.551   4.337  1.00  0.00     0.053 C 
ATOM      4  C   UNL     1      -3.185  -3.103   3.182  1.00  0.00     0.016 C 
BRANCH   3   5
ATOM      5  C   UNL     1      -3.665  -2.881   5.665  1.00  0.00     0.015 C 
BRANCH   5   6
ATOM      6  C   UNL     1      -4.458  -3.415   6.876  1.00  0.00     0.028 C 
BRANCH   6   7
ATOM      7  C   UNL     1      -5.743  -2.652   7.073  1.00  0.00    -0.028 C 
ATOM      8  C   UNL     1      -6.981  -3.160   6.860  1.00  0.00    -0.070 CG0
ATOM      9  C   UNL     1      -8.167  -2.279   7.155  1.00  0.00     0.039 C 
ATOM     10  G   UNL     1      -7.218  -4.572   6.342  1.00  0.00     0.000 G0
ENDBRANCH   6   7
ENDBRANCH   5   6
ENDBRANCH   3   5
ENDBRANCH   1   3
BRANCH   1  11
ATOM     11  C   UNL     1      -5.380  -5.839   4.582  1.00  0.00     0.087 C 
BRANCH  11  12
ATOM     12  C   UNL     1      -6.586  -5.174   3.859  1.00  0.00     0.066 C 
BRANCH  12  13
ATOM     13  C   UNL     1      -7.576  -4.619   4.874  1.00  0.00     0.140 C 
ATOM     14  O   UNL     1      -8.637  -4.146   4.490  1.00  0.00    -0.299 OA
BRANCH  13  15
ATOM     15  C   UNL     1      -7.237  -4.584   6.343  1.00  0.00     0.106 CG0
ATOM     16  G   UNL     1      -6.991  -3.167   6.844  1.00  0.00     0.000 G0
ENDBRANCH  13  15
ENDBRANCH  12  13
BRANCH  12  17
ATOM     17  C   UNL     1      -7.299  -6.085   2.804  1.00  0.00    -0.006 C 
ATOM     18  C   UNL     1      -6.451  -7.305   2.401  1.00  0.00     0.008 C 
ATOM     19  C   UNL     1      -7.645  -5.284   1.534  1.00  0.00     0.008 C 
ENDBRANCH  12  17
ENDBRANCH  11  12
ENDBRANCH   1  11
TORSDOF 1
ENDMDL
MODEL 6
REMARK VINA RESULT:    -2.811     12.440     14.044
REMARK INTER + INTRA:          -3.824
REMARK INTER:                  -3.347
REMARK INTRA:                  -0.477
REMARK UNBOUND:                 0.466
REMARK SMILES CC1=CCC[C@@H](C)C(=O)C[C@@H](C(C)C)C(=O)C1
REMARK SMILES IDX 8 1 9 2 6 3 7 4 5 5 4 6 3 7 2 8 1 9 10 11 11 12 15 13 16 14
REMARK SMILES IDX 17 15 12 17 13 18 14 19
REMARK H PARENT
REMARK Flexibility Score: 70.00
ROOT
ATOM      1  C   UNL     1       6.575  -7.174   5.338  1.00  0.00     0.136 C 
ATOM      2  O   UNL     1       5.417  -7.348   5.691  1.00  0.00    -0.299 OA
ENDROOT
BRANCH   1   3
ATOM      3  C   UNL     1       7.718  -7.645   6.224  1.00  0.00     0.053 C 
ATOM      4  C   UNL     1       7.504  -9.103   6.657  1.00  0.00     0.016 C 
BRANCH   3   5
ATOM      5  C   UNL     1       7.874  -6.721   7.457  1.00  0.00     0.015 C 
BRANCH   5   6
ATOM      6  C   UNL     1       9.021  -5.703   7.289  1.00  0.00     0.028 C 
BRANCH   6   7
ATOM      7  C   UNL     1       8.493  -4.322   7.001  1.00  0.00    -0.028 C 
ATOM      8  C   UNL     1       8.708  -3.638   5.851  1.00  0.00    -0.070 CG0
ATOM      9  C   UNL     1       8.063  -2.284   5.701  1.00  0.00     0.039 C 
ATOM     10  G   UNL     1       9.566  -4.179   4.715  1.00  0.00     0.000 G0
ENDBRANCH   6   7
ENDBRANCH   5   6
ENDBRANCH   3   5
ENDBRANCH   1   3
BRANCH   1  11
ATOM     11  C   UNL     1       6.848  -6.470   4.029  1.00  0.00     0.087 C 
BRANCH  11  12
ATOM     12  C   UNL     1       8.359  -6.301   3.699  1.00  0.00     0.066 C 
BRANCH  12  13
ATOM     13  C   UNL     1       8.725  -4.824   3.622  1.00  0.00     0.140 C 
ATOM     14  O   UNL     1       8.383  -4.166   2.648  1.00  0.00    -0.299 OA
BRANCH  13  15
ATOM     15  C   UNL     1       9.561  -4.179   4.698  1.00  0.00     0.106 CG0
ATOM     16  G   UNL     1       8.712  -3.644   5.843  1.00  0.00     0.000 G0
ENDBRANCH  13  15
ENDBRANCH  12  13
BRANCH  12  17
ATOM     17  C   UNL     1       8.841  -7.078   2.428  1.00  0.00    -0.006 C 
ATOM     18  C   UNL     1       8.315  -8.523   2.379  1.00  0.00     0.008 C 
ATOM     19  C   UNL     1      10.379  -7.110   2.358  1.00  0.00     0.008 C 
ENDBRANCH  12  17
ENDBRANCH  11  12
ENDBRANCH   1  11
TORSDOF 1
ENDMDL
MODEL 7
REMARK VINA RESULT:    -2.615     10.971     12.797
REMARK INTER + INTRA:          -3.525
REMARK INTER:                  -3.528
REMARK INTRA:                   0.004
REMARK UNBOUND:                 0.466
REMARK SMILES CC1=CCC[C@@H](C)C(=O)C[C@@H](C(C)C)C(=O)C1
REMARK SMILES IDX 8 1 9 2 6 3 7 4 5 5 4 6 3 7 2 8 1 9 10 11 11 12 15 13 16 14
REMARK SMILES IDX 17 15 12 17 13 18 14 19
REMARK H PARENT
REMARK Flexibility Score: 70.00
ROOT
ATOM      1  C   UNL     1       1.728  -7.875  -4.769  1.00  0.00     0.136 C 
ATOM      2  O   UNL     1       1.329  -8.776  -4.046  1.00  0.00    -0.299 OA
ENDROOT
BRANCH   1   3
ATOM      3  C   UNL     1       2.139  -8.176  -6.202  1.00  0.00     0.053 C 
ATOM      4  C   UNL     1       0.973  -8.802  -6.981  1.00  0.00     0.016 C 
BRANCH   3   5
ATOM      5  C   UNL     1       3.381  -9.101  -6.233  1.00  0.00     0.015 C 
BRANCH   5   6
ATOM      6  C   UNL     1       4.704  -8.313  -6.139  1.00  0.00     0.028 C 
BRANCH   6   7
ATOM      7  C   UNL     1       5.488  -8.699  -4.910  1.00  0.00    -0.028 C 
ATOM      8  C   UNL     1       5.881  -7.835  -3.944  1.00  0.00    -0.070 CG0
ATOM      9  C   UNL     1       6.615  -8.394  -2.751  1.00  0.00     0.039 C 
ATOM     10  G   UNL     1       5.613  -6.338  -4.013  1.00  0.00     0.000 G0
ENDBRANCH   6   7
ENDBRANCH   5   6
ENDBRANCH   3   5
ENDBRANCH   1   3
BRANCH   1  11
ATOM     11  C   UNL     1       1.824  -6.472  -4.214  1.00  0.00     0.087 C 
BRANCH  11  12
ATOM     12  C   UNL     1       3.128  -5.720  -4.605  1.00  0.00     0.066 C 
BRANCH  12  13
ATOM     13  C   UNL     1       4.218  -5.970  -3.571  1.00  0.00     0.140 C 
ATOM     14  O   UNL     1       3.970  -5.819  -2.382  1.00  0.00    -0.299 OA
BRANCH  13  15
ATOM     15  C   UNL     1       5.617  -6.336  -3.996  1.00  0.00     0.106 CG0
ATOM     16  G   UNL     1       5.861  -7.837  -3.941  1.00  0.00     0.000 G0
ENDBRANCH  13  15
ENDBRANCH  12  13
BRANCH  12  17
ATOM     17  C   UNL     1       2.942  -4.190  -4.882  1.00  0.00    -0.006 C 
ATOM     18  C   UNL     1       2.254  -3.454  -3.718  1.00  0.00     0.008 C 
ATOM     19  C   UNL     1       2.118  -3.963  -6.164  1.00  0.00     0.008 C 
ENDBRANCH  12  17
ENDBRANCH  11  12
ENDBRANCH   1  11
TORSDOF 1
ENDMDL
MODEL 8
REMARK VINA RESULT:    -2.598     13.099     14.381
REMARK INTER + INTRA:          -3.499
REMARK INTER:                  -3.154
REMARK INTRA:                  -0.345
REMARK UNBOUND:                 0.466
REMARK SMILES CC1=CCC[C@@H](C)C(=O)C[C@@H](C(C)C)C(=O)C1
REMARK SMILES IDX 8 1 9 2 6 3 7 4 5 5 4 6 3 7 2 8 1 9 10 11 11 12 15 13 16 14
REMARK SMILES IDX 17 15 12 17 13 18 14 19
REMARK H PARENT
REMARK Flexibility Score: 70.00
ROOT
ATOM      1  C   UNL     1       7.961  -4.433   5.747  1.00  0.00     0.136 C 
ATOM      2  O   UNL     1       7.358  -3.459   6.173  1.00  0.00    -0.299 OA
ENDROOT
BRANCH   1   3
ATOM      3  C   UNL     1       9.409  -4.297   5.304  1.00  0.00     0.053 C 
ATOM      4  C   UNL     1      10.048  -3.043   5.918  1.00  0.00     0.016 C 
BRANCH   3   5
ATOM      5  C   UNL     1       9.510  -4.267   3.759  1.00  0.00     0.015 C 
BRANCH   5   6
ATOM      6  C   UNL     1      10.343  -5.440   3.201  1.00  0.00     0.028 C 
BRANCH   6   7
ATOM      7  C   UNL     1       9.556  -6.246   2.199  1.00  0.00    -0.028 C 
ATOM      8  C   UNL     1       9.012  -7.462   2.444  1.00  0.00    -0.070 CG0
ATOM      9  C   UNL     1       8.208  -8.111   1.347  1.00  0.00     0.039 C 
ATOM     10  G   UNL     1       9.176  -8.190   3.771  1.00  0.00     0.000 G0
ENDBRANCH   6   7
ENDBRANCH   5   6
ENDBRANCH   3   5
ENDBRANCH   1   3
BRANCH   1  11
ATOM     11  C   UNL     1       7.241  -5.760   5.650  1.00  0.00     0.087 C 
BRANCH  11  12
ATOM     12  C   UNL     1       8.154  -6.997   5.885  1.00  0.00     0.066 C 
BRANCH  12  13
ATOM     13  C   UNL     1       8.025  -7.981   4.729  1.00  0.00     0.140 C 
ATOM     14  O   UNL     1       6.997  -8.631   4.599  1.00  0.00    -0.299 OA
BRANCH  13  15
ATOM     15  C   UNL     1       9.175  -8.213   3.782  1.00  0.00     0.106 CG0
ATOM     16  G   UNL     1       8.999  -7.464   2.468  1.00  0.00     0.000 G0
ENDBRANCH  13  15
ENDBRANCH  12  13
BRANCH  12  17
ATOM     17  C   UNL     1       7.948  -7.707   7.266  1.00  0.00    -0.006 C 
ATOM     18  C   UNL     1       6.533  -7.502   7.835  1.00  0.00     0.008 C 
ATOM     19  C   UNL     1       8.974  -7.201   8.298  1.00  0.00     0.008 C 
ENDBRANCH  12  17
ENDBRANCH  11  12
ENDBRANCH   1  11
TORSDOF 1
ENDMDL
MODEL 9
REMARK VINA RESULT:    -2.563      1.941      4.213
REMARK INTER + INTRA:          -3.445
REMARK INTER:                  -3.788
REMARK INTRA:                   0.344
REMARK UNBOUND:                 0.466
REMARK SMILES CC1=CCC[C@@H](C)C(=O)C[C@@H](C(C)C)C(=O)C1
REMARK SMILES IDX 8 1 9 2 6 3 7 4 5 5 4 6 3 7 2 8 1 9 10 11 11 12 15 13 16 14
REMARK SMILES IDX 17 15 12 17 13 18 14 19
REMARK H PARENT
REMARK Flexibility Score: 70.00
ROOT
ATOM      1  C   UNL     1      -8.123  -4.590   4.084  1.00  0.00     0.136 C 
ATOM      2  O   UNL     1      -9.113  -3.924   4.352  1.00  0.00    -0.299 OA
ENDROOT
BRANCH   1   3
ATOM      3  C   UNL     1      -7.873  -5.036   2.652  1.00  0.00     0.053 C 
ATOM      4  C   UNL     1      -8.935  -6.051   2.206  1.00  0.00     0.016 C 
BRANCH   3   5
ATOM      5  C   UNL     1      -6.449  -5.627   2.503  1.00  0.00     0.015 C 
BRANCH   5   6
ATOM      6  C   UNL     1      -5.397  -4.550   2.166  1.00  0.00     0.028 C 
BRANCH   6   7
ATOM      7  C   UNL     1      -4.036  -4.928   2.690  1.00  0.00    -0.028 C 
ATOM      8  C   UNL     1      -3.473  -4.417   3.812  1.00  0.00    -0.070 CG0
ATOM      9  C   UNL     1      -2.123  -4.941   4.228  1.00  0.00     0.039 C 
ATOM     10  G   UNL     1      -4.145  -3.347   4.662  1.00  0.00     0.000 G0
ENDBRANCH   6   7
ENDBRANCH   5   6
ENDBRANCH   3   5
ENDBRANCH   1   3
BRANCH   1  11
ATOM     11  C   UNL     1      -7.173  -4.976   5.195  1.00  0.00     0.087 C 
BRANCH  11  12
ATOM     12  C   UNL     1      -6.457  -3.771   5.868  1.00  0.00     0.066 C 
BRANCH  12  13
ATOM     13  C   UNL     1      -4.945  -3.947   5.807  1.00  0.00     0.140 C 
ATOM     14  O   UNL     1      -4.366  -4.532   6.713  1.00  0.00    -0.299 OA
BRANCH  13  15
ATOM     15  C   UNL     1      -4.145  -3.352   4.677  1.00  0.00     0.106 CG0
ATOM     16  G   UNL     1      -3.472  -4.418   3.823  1.00  0.00     0.000 G0
ENDBRANCH  13  15
ENDBRANCH  12  13
BRANCH  12  17
ATOM     17  C   UNL     1      -6.938  -3.458   7.325  1.00  0.00    -0.006 C 
ATOM     18  C   UNL     1      -8.428  -3.078   7.392  1.00  0.00     0.008 C 
ATOM     19  C   UNL     1      -6.110  -2.313   7.940  1.00  0.00     0.008 C 
ENDBRANCH  12  17
ENDBRANCH  11  12
ENDBRANCH   1  11
TORSDOF 1
ENDMDL
