MODEL 1
REMARK VINA RESULT:    -8.729      0.000      0.000
REMARK INTER + INTRA:         -10.569
REMARK INTER:                 -10.260
REMARK INTRA:                  -0.309
REMARK UNBOUND:                -0.309
REMARK SMILES O=c1cc(-c2ccc(O)c(O)c2)oc2cc(O)cc(O)c12
REMARK SMILES IDX 4 1 3 2 2 3 1 4 21 5 19 6 18 7 16 8 15 9 14 10 13 11 5 12
REMARK SMILES IDX 6 13 7 14 8 15 12 16 10 17 9 18 11 20 20 22 17 24
REMARK H PARENT 9 19 11 21 20 23 17 25
REMARK Flexibility Score: inf
ROOT
ATOM      1  C   UNL     1      16.213  -2.804  -6.204  1.00  0.00     0.138 A 
ATOM      2  C   UNL     1      15.433  -3.882  -5.761  1.00  0.00     0.100 A 
ATOM      3  C   UNL     1      15.311  -4.130  -4.393  1.00  0.00     0.197 A 
ATOM      4  O   UNL     1      14.560  -5.070  -4.026  1.00  0.00    -0.289 OA
ATOM      5  C   UNL     1      16.005  -3.316  -3.466  1.00  0.00     0.107 A 
ATOM      6  C   UNL     1      15.983  -3.495  -2.049  1.00  0.00     0.134 A 
ATOM      7  C   UNL     1      16.630  -2.565  -1.226  1.00  0.00     0.093 A 
ATOM      8  C   UNL     1      17.345  -1.498  -1.767  1.00  0.00     0.123 A 
ATOM      9  C   UNL     1      17.415  -1.341  -3.152  1.00  0.00     0.094 A 
ATOM     10  C   UNL     1      16.751  -2.231  -3.999  1.00  0.00     0.146 A 
ATOM     11  O   UNL     1      16.828  -2.036  -5.311  1.00  0.00    -0.456 OA
ENDROOT
BRANCH   1  12
ATOM     12  C   UNL     1      16.380  -2.496  -7.647  1.00  0.00     0.021 A 
ATOM     13  C   UNL     1      16.241  -3.488  -8.636  1.00  0.00     0.016 A 
ATOM     14  C   UNL     1      16.394  -3.167  -9.988  1.00  0.00     0.051 A 
ATOM     15  C   UNL     1      16.677  -1.855 -10.376  1.00  0.00     0.157 A 
ATOM     16  C   UNL     1      16.651  -1.175  -8.045  1.00  0.00     0.062 A 
ATOM     17  C   UNL     1      16.805  -0.852  -9.401  1.00  0.00     0.158 A 
BRANCH  15  18
ATOM     18  O   UNL     1      16.826  -1.566 -11.732  1.00  0.00    -0.504 OA
ATOM     19  H   UNL     1      17.707  -1.691 -12.215  1.00  0.00     0.293 HD
ENDBRANCH  15  18
BRANCH  17  20
ATOM     20  O   UNL     1      17.084   0.460  -9.782  1.00  0.00    -0.504 OA
ATOM     21  H   UNL     1      16.362   1.170  -9.806  1.00  0.00     0.293 HD
ENDBRANCH  17  20
ENDBRANCH   1  12
BRANCH   6  22
ATOM     22  O   UNL     1      15.366  -4.572  -1.404  1.00  0.00    -0.507 OA
ATOM     23  H   UNL     1      14.462  -4.541  -0.959  1.00  0.00     0.293 HD
ENDBRANCH   6  22
BRANCH   8  24
ATOM     24  O   UNL     1      17.989  -0.601  -0.918  1.00  0.00    -0.508 OA
ATOM     25  H   UNL     1      18.862  -0.837  -0.461  1.00  0.00     0.293 HD
ENDBRANCH   8  24
TORSDOF 5
ENDMDL
MODEL 2
REMARK VINA RESULT:    -8.678      1.273      2.551
REMARK INTER + INTRA:         -10.509
REMARK INTER:                 -10.241
REMARK INTRA:                  -0.268
REMARK UNBOUND:                -0.309
REMARK SMILES O=c1cc(-c2ccc(O)c(O)c2)oc2cc(O)cc(O)c12
REMARK SMILES IDX 4 1 3 2 2 3 1 4 21 5 19 6 18 7 16 8 15 9 14 10 13 11 5 12
REMARK SMILES IDX 6 13 7 14 8 15 12 16 10 17 9 18 11 20 20 22 17 24
REMARK H PARENT 9 19 11 21 20 23 17 25
REMARK Flexibility Score: inf
ROOT
ATOM      1  C   UNL     1      16.649  -2.558  -6.365  1.00  0.00     0.138 A 
ATOM      2  C   UNL     1      17.785  -2.257  -5.601  1.00  0.00     0.100 A 
ATOM      3  C   UNL     1      17.763  -2.461  -4.220  1.00  0.00     0.197 A 
ATOM      4  O   UNL     1      18.815  -2.234  -3.571  1.00  0.00    -0.289 OA
ATOM      5  C   UNL     1      16.582  -2.934  -3.598  1.00  0.00     0.107 A 
ATOM      6  C   UNL     1      16.431  -3.147  -2.194  1.00  0.00     0.134 A 
ATOM      7  C   UNL     1      15.246  -3.713  -1.705  1.00  0.00     0.093 A 
ATOM      8  C   UNL     1      14.188  -4.019  -2.560  1.00  0.00     0.123 A 
ATOM      9  C   UNL     1      14.305  -3.768  -3.927  1.00  0.00     0.094 A 
ATOM     10  C   UNL     1      15.487  -3.238  -4.451  1.00  0.00     0.146 A 
ATOM     11  O   UNL     1      15.564  -3.031  -5.760  1.00  0.00    -0.456 OA
ENDROOT
BRANCH   1  12
ATOM     12  C   UNL     1      16.616  -2.358  -7.836  1.00  0.00     0.021 A 
ATOM     13  C   UNL     1      16.295  -3.407  -8.719  1.00  0.00     0.016 A 
ATOM     14  C   UNL     1      16.263  -3.186 -10.099  1.00  0.00     0.051 A 
ATOM     15  C   UNL     1      16.539  -1.920 -10.620  1.00  0.00     0.157 A 
ATOM     16  C   UNL     1      16.880  -1.083  -8.366  1.00  0.00     0.062 A 
ATOM     17  C   UNL     1      16.848  -0.861  -9.751  1.00  0.00     0.158 A 
BRANCH  15  18
ATOM     18  O   UNL     1      16.500  -1.732 -12.002  1.00  0.00    -0.504 OA
ATOM     19  H   UNL     1      17.008  -0.984 -12.457  1.00  0.00     0.293 HD
ENDBRANCH  15  18
BRANCH  17  20
ATOM     20  O   UNL     1      17.121   0.406 -10.265  1.00  0.00    -0.504 OA
ATOM     21  H   UNL     1      18.002   0.616 -10.719  1.00  0.00     0.293 HD
ENDBRANCH  17  20
ENDBRANCH   1  12
BRANCH   6  22
ATOM     22  O   UNL     1      17.395  -2.803  -1.241  1.00  0.00    -0.507 OA
ATOM     23  H   UNL     1      17.239  -2.769  -0.245  1.00  0.00     0.293 HD
ENDBRANCH   6  22
BRANCH   8  24
ATOM     24  O   UNL     1      13.019  -4.566  -2.035  1.00  0.00    -0.508 OA
ATOM     25  H   UNL     1      12.145  -4.538  -2.546  1.00  0.00     0.293 HD
ENDBRANCH   8  24
TORSDOF 5
ENDMDL
MODEL 3
REMARK VINA RESULT:    -8.602      1.464      2.979
REMARK INTER + INTRA:         -10.419
REMARK INTER:                 -10.137
REMARK INTRA:                  -0.282
REMARK UNBOUND:                -0.309
REMARK SMILES O=c1cc(-c2ccc(O)c(O)c2)oc2cc(O)cc(O)c12
REMARK SMILES IDX 4 1 3 2 2 3 1 4 21 5 19 6 18 7 16 8 15 9 14 10 13 11 5 12
REMARK SMILES IDX 6 13 7 14 8 15 12 16 10 17 9 18 11 20 20 22 17 24
REMARK H PARENT 9 19 11 21 20 23 17 25
REMARK Flexibility Score: inf
ROOT
ATOM      1  C   UNL     1      16.677  -2.506  -6.516  1.00  0.00     0.138 A 
ATOM      2  C   UNL     1      17.823  -2.212  -5.763  1.00  0.00     0.100 A 
ATOM      3  C   UNL     1      17.818  -2.432  -4.384  1.00  0.00     0.197 A 
ATOM      4  O   UNL     1      18.879  -2.210  -3.746  1.00  0.00    -0.289 OA
ATOM      5  C   UNL     1      16.647  -2.914  -3.752  1.00  0.00     0.107 A 
ATOM      6  C   UNL     1      16.515  -3.143  -2.349  1.00  0.00     0.134 A 
ATOM      7  C   UNL     1      15.337  -3.717  -1.852  1.00  0.00     0.093 A 
ATOM      8  C   UNL     1      14.269  -4.015  -2.696  1.00  0.00     0.123 A 
ATOM      9  C   UNL     1      14.367  -3.749  -4.061  1.00  0.00     0.094 A 
ATOM     10  C   UNL     1      15.541  -3.210  -4.594  1.00  0.00     0.146 A 
ATOM     11  O   UNL     1      15.601  -2.988  -5.902  1.00  0.00    -0.456 OA
ENDROOT
BRANCH   1  12
ATOM     12  C   UNL     1      16.626  -2.289  -7.984  1.00  0.00     0.021 A 
ATOM     13  C   UNL     1      16.924  -1.039  -8.558  1.00  0.00     0.016 A 
ATOM     14  C   UNL     1      16.877  -0.868  -9.945  1.00  0.00     0.051 A 
ATOM     15  C   UNL     1      16.541  -1.936 -10.779  1.00  0.00     0.157 A 
ATOM     16  C   UNL     1      16.302  -3.364  -8.830  1.00  0.00     0.062 A 
ATOM     17  C   UNL     1      16.253  -3.192 -10.221  1.00  0.00     0.158 A 
BRANCH  15  18
ATOM     18  O   UNL     1      16.501  -1.732 -12.158  1.00  0.00    -0.504 OA
ATOM     19  H   UNL     1      16.372  -2.496 -12.811  1.00  0.00     0.293 HD
ENDBRANCH  15  18
BRANCH  17  20
ATOM     20  O   UNL     1      15.922  -4.264 -11.049  1.00  0.00    -0.504 OA
ATOM     21  H   UNL     1      15.369  -4.135 -11.888  1.00  0.00     0.293 HD
ENDBRANCH  17  20
ENDBRANCH   1  12
BRANCH   6  22
ATOM     22  O   UNL     1      17.490  -2.808  -1.404  1.00  0.00    -0.507 OA
ATOM     23  H   UNL     1      17.500  -3.122  -0.446  1.00  0.00     0.293 HD
ENDBRANCH   6  22
BRANCH   8  24
ATOM     24  O   UNL     1      13.107  -4.571  -2.163  1.00  0.00    -0.508 OA
ATOM     25  H   UNL     1      12.193  -4.351  -2.540  1.00  0.00     0.293 HD
ENDBRANCH   8  24
TORSDOF 5
ENDMDL
MODEL 4
REMARK VINA RESULT:    -7.003      1.512      7.505
REMARK INTER + INTRA:          -8.539
REMARK INTER:                  -8.229
REMARK INTRA:                  -0.310
REMARK UNBOUND:                -0.309
REMARK SMILES O=c1cc(-c2ccc(O)c(O)c2)oc2cc(O)cc(O)c12
REMARK SMILES IDX 4 1 3 2 2 3 1 4 21 5 19 6 18 7 16 8 15 9 14 10 13 11 5 12
REMARK SMILES IDX 6 13 7 14 8 15 12 16 10 17 9 18 11 20 20 22 17 24
REMARK H PARENT 9 19 11 21 20 23 17 25
REMARK Flexibility Score: inf
ROOT
ATOM      1  C   UNL     1      16.830  -2.394  -6.590  1.00  0.00     0.138 A 
ATOM      2  C   UNL     1      17.491  -1.199  -6.908  1.00  0.00     0.100 A 
ATOM      3  C   UNL     1      17.596  -0.802  -8.242  1.00  0.00     0.197 A 
ATOM      4  O   UNL     1      18.147   0.301  -8.489  1.00  0.00    -0.289 OA
ATOM      5  C   UNL     1      17.068  -1.626  -9.265  1.00  0.00     0.107 A 
ATOM      6  C   UNL     1      17.147  -1.340 -10.662  1.00  0.00     0.134 A 
ATOM      7  C   UNL     1      16.499  -2.182 -11.576  1.00  0.00     0.093 A 
ATOM      8  C   UNL     1      15.827  -3.327 -11.150  1.00  0.00     0.123 A 
ATOM      9  C   UNL     1      15.787  -3.643  -9.792  1.00  0.00     0.094 A 
ATOM     10  C   UNL     1      16.392  -2.805  -8.852  1.00  0.00     0.146 A 
ATOM     11  O   UNL     1      16.315  -3.133  -7.567  1.00  0.00    -0.456 OA
ENDROOT
BRANCH   1  12
ATOM     12  C   UNL     1      16.691  -2.866  -5.189  1.00  0.00     0.021 A 
ATOM     13  C   UNL     1      17.577  -2.449  -4.176  1.00  0.00     0.016 A 
ATOM     14  C   UNL     1      17.415  -2.902  -2.864  1.00  0.00     0.051 A 
ATOM     15  C   UNL     1      16.368  -3.767  -2.537  1.00  0.00     0.157 A 
ATOM     16  C   UNL     1      15.631  -3.725  -4.850  1.00  0.00     0.062 A 
ATOM     17  C   UNL     1      15.469  -4.180  -3.534  1.00  0.00     0.158 A 
BRANCH  15  18
ATOM     18  O   UNL     1      16.234  -4.202  -1.219  1.00  0.00    -0.504 OA
ATOM     19  H   UNL     1      15.567  -4.917  -0.954  1.00  0.00     0.293 HD
ENDBRANCH  15  18
BRANCH  17  20
ATOM     20  O   UNL     1      14.419  -5.040  -3.213  1.00  0.00    -0.504 OA
ATOM     21  H   UNL     1      14.580  -5.922  -2.742  1.00  0.00     0.293 HD
ENDBRANCH  17  20
ENDBRANCH   1  12
BRANCH   6  22
ATOM     22  O   UNL     1      17.860  -0.266 -11.204  1.00  0.00    -0.507 OA
ATOM     23  H   UNL     1      17.470   0.638 -11.421  1.00  0.00     0.293 HD
ENDBRANCH   6  22
BRANCH   8  24
ATOM     24  O   UNL     1      15.208  -4.149 -12.089  1.00  0.00    -0.508 OA
ATOM     25  H   UNL     1      14.454  -3.810 -12.675  1.00  0.00     0.293 HD
ENDBRANCH   8  24
TORSDOF 5
ENDMDL
MODEL 5
REMARK VINA RESULT:    -6.743      1.858      7.207
REMARK INTER + INTRA:          -8.235
REMARK INTER:                  -7.946
REMARK INTRA:                  -0.289
REMARK UNBOUND:                -0.309
REMARK SMILES O=c1cc(-c2ccc(O)c(O)c2)oc2cc(O)cc(O)c12
REMARK SMILES IDX 4 1 3 2 2 3 1 4 21 5 19 6 18 7 16 8 15 9 14 10 13 11 5 12
REMARK SMILES IDX 6 13 7 14 8 15 12 16 10 17 9 18 11 20 20 22 17 24
REMARK H PARENT 9 19 11 21 20 23 17 25
REMARK Flexibility Score: inf
ROOT
ATOM      1  C   UNL     1      16.645  -2.899  -5.791  1.00  0.00     0.138 A 
ATOM      2  C   UNL     1      17.560  -1.851  -5.621  1.00  0.00     0.100 A 
ATOM      3  C   UNL     1      17.941  -1.082  -6.722  1.00  0.00     0.197 A 
ATOM      4  O   UNL     1      18.721  -0.115  -6.527  1.00  0.00    -0.289 OA
ATOM      5  C   UNL     1      17.429  -1.388  -8.006  1.00  0.00     0.107 A 
ATOM      6  C   UNL     1      17.773  -0.695  -9.206  1.00  0.00     0.134 A 
ATOM      7  C   UNL     1      17.126  -1.026 -10.404  1.00  0.00     0.093 A 
ATOM      8  C   UNL     1      16.192  -2.060 -10.456  1.00  0.00     0.123 A 
ATOM      9  C   UNL     1      15.886  -2.778  -9.300  1.00  0.00     0.094 A 
ATOM     10  C   UNL     1      16.488  -2.450  -8.083  1.00  0.00     0.146 A 
ATOM     11  O   UNL     1      16.155  -3.146  -7.002  1.00  0.00    -0.456 OA
ENDROOT
BRANCH   1  12
ATOM     12  C   UNL     1      16.207  -3.751  -4.657  1.00  0.00     0.021 A 
ATOM     13  C   UNL     1      14.999  -4.474  -4.696  1.00  0.00     0.016 A 
ATOM     14  C   UNL     1      14.618  -5.276  -3.617  1.00  0.00     0.051 A 
ATOM     15  C   UNL     1      15.434  -5.378  -2.488  1.00  0.00     0.157 A 
ATOM     16  C   UNL     1      17.031  -3.869  -3.523  1.00  0.00     0.062 A 
ATOM     17  C   UNL     1      16.648  -4.673  -2.439  1.00  0.00     0.158 A 
BRANCH  15  18
ATOM     18  O   UNL     1      15.026  -6.185  -1.426  1.00  0.00    -0.504 OA
ATOM     19  H   UNL     1      14.107  -6.612  -1.398  1.00  0.00     0.293 HD
ENDBRANCH  15  18
BRANCH  17  20
ATOM     20  O   UNL     1      17.469  -4.774  -1.317  1.00  0.00    -0.504 OA
ATOM     21  H   UNL     1      17.125  -5.146  -0.440  1.00  0.00     0.293 HD
ENDBRANCH  17  20
ENDBRANCH   1  12
BRANCH   6  22
ATOM     22  O   UNL     1      18.751   0.302  -9.283  1.00  0.00    -0.507 OA
ATOM     23  H   UNL     1      19.714   0.192  -9.005  1.00  0.00     0.293 HD
ENDBRANCH   6  22
BRANCH   8  24
ATOM     24  O   UNL     1      15.580  -2.372 -11.669  1.00  0.00    -0.508 OA
ATOM     25  H   UNL     1      15.399  -3.331 -11.940  1.00  0.00     0.293 HD
ENDBRANCH   8  24
TORSDOF 5
ENDMDL
MODEL 6
REMARK VINA RESULT:    -6.226     13.783     14.434
REMARK INTER + INTRA:          -7.627
REMARK INTER:                  -7.364
REMARK INTRA:                  -0.263
REMARK UNBOUND:                -0.309
REMARK SMILES O=c1cc(-c2ccc(O)c(O)c2)oc2cc(O)cc(O)c12
REMARK SMILES IDX 4 1 3 2 2 3 1 4 21 5 19 6 18 7 16 8 15 9 14 10 13 11 5 12
REMARK SMILES IDX 6 13 7 14 8 15 12 16 10 17 9 18 11 20 20 22 17 24
REMARK H PARENT 9 19 11 21 20 23 17 25
REMARK Flexibility Score: inf
ROOT
ATOM      1  C   UNL     1       7.445   5.382 -13.624  1.00  0.00     0.138 A 
ATOM      2  C   UNL     1       6.495   4.955 -12.686  1.00  0.00     0.100 A 
ATOM      3  C   UNL     1       6.373   5.631 -11.470  1.00  0.00     0.197 A 
ATOM      4  O   UNL     1       5.475   5.258 -10.673  1.00  0.00    -0.289 OA
ATOM      5  C   UNL     1       7.233   6.717 -11.180  1.00  0.00     0.107 A 
ATOM      6  C   UNL     1       7.224   7.459  -9.959  1.00  0.00     0.134 A 
ATOM      7  C   UNL     1       8.056   8.578  -9.825  1.00  0.00     0.093 A 
ATOM      8  C   UNL     1       8.937   8.946 -10.842  1.00  0.00     0.123 A 
ATOM      9  C   UNL     1       8.991   8.199 -12.018  1.00  0.00     0.094 A 
ATOM     10  C   UNL     1       8.149   7.099 -12.197  1.00  0.00     0.146 A 
ATOM     11  O   UNL     1       8.219   6.425 -13.339  1.00  0.00    -0.456 OA
ENDROOT
BRANCH   1  12
ATOM     12  C   UNL     1       7.620   4.699 -14.931  1.00  0.00     0.021 A 
ATOM     13  C   UNL     1       6.902   5.096 -16.076  1.00  0.00     0.016 A 
ATOM     14  C   UNL     1       7.096   4.440 -17.295  1.00  0.00     0.051 A 
ATOM     15  C   UNL     1       8.010   3.389 -17.397  1.00  0.00     0.157 A 
ATOM     16  C   UNL     1       8.549   3.649 -15.043  1.00  0.00     0.062 A 
ATOM     17  C   UNL     1       8.742   2.991 -16.267  1.00  0.00     0.158 A 
BRANCH  15  18
ATOM     18  O   UNL     1       8.178   2.754 -18.627  1.00  0.00    -0.504 OA
ATOM     19  H   UNL     1       8.641   3.206 -19.406  1.00  0.00     0.293 HD
ENDBRANCH  15  18
BRANCH  17  20
ATOM     20  O   UNL     1       9.659   1.945 -16.362  1.00  0.00    -0.504 OA
ATOM     21  H   UNL     1      10.233   1.816 -17.187  1.00  0.00     0.293 HD
ENDBRANCH  17  20
ENDBRANCH   1  12
BRANCH   6  22
ATOM     22  O   UNL     1       6.441   7.130  -8.848  1.00  0.00    -0.507 OA
ATOM     23  H   UNL     1       6.518   6.277  -8.317  1.00  0.00     0.293 HD
ENDBRANCH   6  22
BRANCH   8  24
ATOM     24  O   UNL     1       9.761  10.056 -10.667  1.00  0.00    -0.508 OA
ATOM     25  H   UNL     1       9.380  10.991 -10.581  1.00  0.00     0.293 HD
ENDBRANCH   8  24
TORSDOF 5
ENDMDL
