MODEL 1
REMARK VINA RESULT:    -1.990      0.000      0.000
REMARK INTER + INTRA:          -2.760
REMARK INTER:                  -2.688
REMARK INTRA:                  -0.073
REMARK UNBOUND:                -0.073
REMARK SMILES C[C@@H](O)[C@H](O)[C@@H](O)[C@@H](O)C=O
REMARK SMILES IDX 4 1 2 2 1 3 3 4 6 6 8 7 10 8 11 9 9 10 7 12 5 14
REMARK H PARENT 3 5 9 11 7 13 5 15
REMARK Flexibility Score: inf
ROOT
ATOM      1  C   UNL     1       7.664  33.169  -8.652  1.00  0.00     0.174 C 
ENDROOT
BRANCH   1   2
ATOM      2  C   UNL     1       6.710  31.963  -8.858  1.00  0.00     0.142 C 
ATOM      3  C   UNL     1       5.659  31.876  -7.742  1.00  0.00     0.041 C 
BRANCH   2   4
ATOM      4  O   UNL     1       6.095  31.990 -10.123  1.00  0.00    -0.391 OA
ATOM      5  H   UNL     1       6.167  32.913 -10.480  1.00  0.00     0.211 HD
ENDBRANCH   2   4
ENDBRANCH   1   2
BRANCH   1   6
ATOM      6  C   UNL     1       9.052  32.957  -9.320  1.00  0.00     0.181 C 
BRANCH   6   7
ATOM      7  C   UNL     1      10.131  32.589  -8.279  1.00  0.00     0.209 C 
BRANCH   7   8
ATOM      8  C   UNL     1       9.526  32.447  -6.909  1.00  0.00     0.258 C 
ATOM      9  O   UNL     1      10.202  32.627  -5.908  1.00  0.00    -0.300 OA
ENDBRANCH   7   8
BRANCH   7  10
ATOM     10  O   UNL     1      11.125  33.581  -8.248  1.00  0.00    -0.383 OA
ATOM     11  H   UNL     1      10.729  34.397  -8.655  1.00  0.00     0.211 HD
ENDBRANCH   7  10
ENDBRANCH   6   7
BRANCH   6  12
ATOM     12  O   UNL     1       9.449  34.123 -10.002  1.00  0.00    -0.387 OA
ATOM     13  H   UNL     1       8.672  34.431 -10.538  1.00  0.00     0.211 HD
ENDBRANCH   6  12
ENDBRANCH   1   6
BRANCH   1  14
ATOM     14  O   UNL     1       7.063  34.376  -9.061  1.00  0.00    -0.388 OA
ATOM     15  H   UNL     1       6.396  34.636  -8.375  1.00  0.00     0.211 HD
ENDBRANCH   1  14
TORSDOF 8
ENDMDL
MODEL 2
REMARK VINA RESULT:    -1.701      1.532      4.234
REMARK INTER + INTRA:          -2.370
REMARK INTER:                  -2.534
REMARK INTRA:                   0.165
REMARK UNBOUND:                -0.073
REMARK SMILES C[C@@H](O)[C@H](O)[C@@H](O)[C@@H](O)C=O
REMARK SMILES IDX 4 1 2 2 1 3 3 4 6 6 8 7 10 8 11 9 9 10 7 12 5 14
REMARK H PARENT 3 5 9 11 7 13 5 15
REMARK Flexibility Score: inf
ROOT
ATOM      1  C   UNL     1       8.890  33.441  -7.292  1.00  0.00     0.174 C 
ENDROOT
BRANCH   1   2
ATOM      2  C   UNL     1      10.033  32.550  -6.738  1.00  0.00     0.142 C 
ATOM      3  C   UNL     1      11.122  32.305  -7.793  1.00  0.00     0.041 C 
BRANCH   2   4
ATOM      4  O   UNL     1      10.590  33.082  -5.561  1.00  0.00    -0.391 OA
ATOM      5  H   UNL     1       9.992  33.805  -5.237  1.00  0.00     0.211 HD
ENDBRANCH   2   4
ENDBRANCH   1   2
BRANCH   1   6
ATOM      6  C   UNL     1       8.038  32.719  -8.374  1.00  0.00     0.181 C 
BRANCH   6   7
ATOM      7  C   UNL     1       7.305  33.728  -9.284  1.00  0.00     0.209 C 
BRANCH   7   8
ATOM      8  C   UNL     1       6.267  33.033 -10.125  1.00  0.00     0.258 C 
ATOM      9  O   UNL     1       5.804  31.957  -9.779  1.00  0.00    -0.300 OA
ENDBRANCH   7   8
BRANCH   7  10
ATOM     10  O   UNL     1       8.227  34.374 -10.123  1.00  0.00    -0.383 OA
ATOM     11  H   UNL     1       8.337  33.798 -10.926  1.00  0.00     0.211 HD
ENDBRANCH   7  10
ENDBRANCH   6   7
BRANCH   6  12
ATOM     12  O   UNL     1       7.090  31.875  -7.765  1.00  0.00    -0.387 OA
ATOM     13  H   UNL     1       7.344  30.940  -7.980  1.00  0.00     0.211 HD
ENDBRANCH   6  12
ENDBRANCH   1   6
BRANCH   1  14
ATOM     14  O   UNL     1       8.093  33.960  -6.253  1.00  0.00    -0.388 OA
ATOM     15  H   UNL     1       8.411  34.876  -6.047  1.00  0.00     0.211 HD
ENDBRANCH   1  14
TORSDOF 8
ENDMDL
MODEL 3
REMARK VINA RESULT:    -1.416      1.415      2.115
REMARK INTER + INTRA:          -1.985
REMARK INTER:                  -2.198
REMARK INTRA:                   0.212
REMARK UNBOUND:                -0.073
REMARK SMILES C[C@@H](O)[C@H](O)[C@@H](O)[C@@H](O)C=O
REMARK SMILES IDX 4 1 2 2 1 3 3 4 6 6 8 7 10 8 11 9 9 10 7 12 5 14
REMARK H PARENT 3 5 9 11 7 13 5 15
REMARK Flexibility Score: inf
ROOT
ATOM      1  C   UNL     1       7.366  31.961  -8.541  1.00  0.00     0.174 C 
ENDROOT
BRANCH   1   2
ATOM      2  C   UNL     1       6.860  32.504  -9.904  1.00  0.00     0.142 C 
ATOM      3  C   UNL     1       5.374  32.184 -10.124  1.00  0.00     0.041 C 
BRANCH   2   4
ATOM      4  O   UNL     1       7.098  33.884 -10.039  1.00  0.00    -0.391 OA
ATOM      5  H   UNL     1       7.986  34.084  -9.642  1.00  0.00     0.211 HD
ENDBRANCH   2   4
ENDBRANCH   1   2
BRANCH   1   6
ATOM      6  C   UNL     1       8.613  32.728  -8.016  1.00  0.00     0.181 C 
BRANCH   6   7
ATOM      7  C   UNL     1       9.900  32.285  -8.744  1.00  0.00     0.209 C 
BRANCH   7   8
ATOM      8  C   UNL     1      11.122  32.700  -7.969  1.00  0.00     0.258 C 
ATOM      9  O   UNL     1      11.119  32.688  -6.748  1.00  0.00    -0.300 OA
ENDBRANCH   7   8
BRANCH   7  10
ATOM     10  O   UNL     1       9.946  32.857 -10.026  1.00  0.00    -0.383 OA
ATOM     11  H   UNL     1       9.435  33.708  -9.979  1.00  0.00     0.211 HD
ENDBRANCH   7  10
ENDBRANCH   6   7
BRANCH   6  12
ATOM     12  O   UNL     1       8.769  32.515  -6.633  1.00  0.00    -0.387 OA
ATOM     13  H   UNL     1       7.865  32.359  -6.253  1.00  0.00     0.211 HD
ENDBRANCH   6  12
ENDBRANCH   1   6
BRANCH   1  14
ATOM     14  O   UNL     1       6.332  31.921  -7.587  1.00  0.00    -0.388 OA
ATOM     15  H   UNL     1       6.740  31.788  -6.693  1.00  0.00     0.211 HD
ENDBRANCH   1  14
TORSDOF 8
ENDMDL
MODEL 4
REMARK VINA RESULT:    -0.911     24.251     25.273
REMARK INTER + INTRA:          -1.303
REMARK INTER:                  -1.339
REMARK INTRA:                   0.037
REMARK UNBOUND:                -0.073
REMARK SMILES C[C@@H](O)[C@H](O)[C@@H](O)[C@@H](O)C=O
REMARK SMILES IDX 4 1 2 2 1 3 3 4 6 6 8 7 10 8 11 9 9 10 7 12 5 14
REMARK H PARENT 3 5 9 11 7 13 5 15
REMARK Flexibility Score: inf
ROOT
ATOM      1  C   UNL     1      -8.313  50.131  -1.191  1.00  0.00     0.174 C 
ENDROOT
BRANCH   1   2
ATOM      2  C   UNL     1      -7.363  51.150  -0.508  1.00  0.00     0.142 C 
ATOM      3  C   UNL     1      -6.185  50.451   0.186  1.00  0.00     0.041 C 
BRANCH   2   4
ATOM      4  O   UNL     1      -6.903  52.125  -1.412  1.00  0.00    -0.391 OA
ATOM      5  H   UNL     1      -6.270  51.688  -2.040  1.00  0.00     0.211 HD
ENDBRANCH   2   4
ENDBRANCH   1   2
BRANCH   1   6
ATOM      6  C   UNL     1      -9.020  50.717  -2.446  1.00  0.00     0.181 C 
BRANCH   6   7
ATOM      7  C   UNL     1      -8.288  50.321  -3.746  1.00  0.00     0.209 C 
BRANCH   7   8
ATOM      8  C   UNL     1      -8.419  51.403  -4.784  1.00  0.00     0.258 C 
ATOM      9  O   UNL     1      -7.980  51.240  -5.912  1.00  0.00    -0.300 OA
ENDBRANCH   7   8
BRANCH   7  10
ATOM     10  O   UNL     1      -8.822  49.124  -4.251  1.00  0.00    -0.383 OA
ATOM     11  H   UNL     1      -8.623  48.417  -3.582  1.00  0.00     0.211 HD
ENDBRANCH   7  10
ENDBRANCH   6   7
BRANCH   6  12
ATOM     12  O   UNL     1      -9.079  52.121  -2.360  1.00  0.00    -0.387 OA
ATOM     13  H   UNL     1     -10.032  52.370  -2.236  1.00  0.00     0.211 HD
ENDBRANCH   6  12
ENDBRANCH   1   6
BRANCH   1  14
ATOM     14  O   UNL     1      -7.650  48.922  -1.477  1.00  0.00    -0.388 OA
ATOM     15  H   UNL     1      -8.055  48.533  -2.294  1.00  0.00     0.211 HD
ENDBRANCH   1  14
TORSDOF 8
ENDMDL
MODEL 5
REMARK VINA RESULT:     0.809     24.095     25.038
REMARK INTER + INTRA:           1.020
REMARK INTER:                   0.303
REMARK INTRA:                   0.717
REMARK UNBOUND:                -0.073
REMARK SMILES C[C@@H](O)[C@H](O)[C@@H](O)[C@@H](O)C=O
REMARK SMILES IDX 4 1 2 2 1 3 3 4 6 6 8 7 10 8 11 9 9 10 7 12 5 14
REMARK H PARENT 3 5 9 11 7 13 5 15
REMARK Flexibility Score: inf
ROOT
ATOM      1  C   UNL     1      -9.125  50.613  -2.662  1.00  0.00     0.174 C 
ENDROOT
BRANCH   1   2
ATOM      2  C   UNL     1      -8.758  49.922  -4.002  1.00  0.00     0.142 C 
ATOM      3  C   UNL     1      -8.045  50.888  -4.960  1.00  0.00     0.041 C 
BRANCH   2   4
ATOM      4  O   UNL     1      -7.989  48.761  -3.800  1.00  0.00    -0.391 OA
ATOM      5  H   UNL     1      -8.230  48.382  -2.915  1.00  0.00     0.211 HD
ENDBRANCH   2   4
ENDBRANCH   1   2
BRANCH   1   6
ATOM      6  C   UNL     1      -8.293  50.074  -1.463  1.00  0.00     0.181 C 
BRANCH   6   7
ATOM      7  C   UNL     1      -7.395  51.173  -0.856  1.00  0.00     0.209 C 
BRANCH   7   8
ATOM      8  C   UNL     1      -6.407  50.581   0.113  1.00  0.00     0.258 C 
ATOM      9  O   UNL     1      -5.784  51.297   0.882  1.00  0.00    -0.300 OA
ENDBRANCH   7   8
BRANCH   7  10
ATOM     10  O   UNL     1      -8.185  52.125  -0.191  1.00  0.00    -0.383 OA
ATOM     11  H   UNL     1      -8.092  51.946   0.782  1.00  0.00     0.211 HD
ENDBRANCH   7  10
ENDBRANCH   6   7
BRANCH   6  12
ATOM     12  O   UNL     1      -7.487  48.995  -1.874  1.00  0.00    -0.387 OA
ATOM     13  H   UNL     1      -7.286  48.452  -1.068  1.00  0.00     0.211 HD
ENDBRANCH   6  12
ENDBRANCH   1   6
BRANCH   1  14
ATOM     14  O   UNL     1      -9.049  52.015  -2.767  1.00  0.00    -0.388 OA
ATOM     15  H   UNL     1      -8.094  52.267  -2.854  1.00  0.00     0.211 HD
ENDBRANCH   1  14
TORSDOF 8
ENDMDL
MODEL 6
REMARK VINA RESULT:     0.878     24.254     25.071
REMARK INTER + INTRA:           1.113
REMARK INTER:                  -1.129
REMARK INTRA:                   2.243
REMARK UNBOUND:                -0.073
REMARK SMILES C[C@@H](O)[C@H](O)[C@@H](O)[C@@H](O)C=O
REMARK SMILES IDX 4 1 2 2 1 3 3 4 6 6 8 7 10 8 11 9 9 10 7 12 5 14
REMARK H PARENT 3 5 9 11 7 13 5 15
REMARK Flexibility Score: inf
ROOT
ATOM      1  C   UNL     1      -9.124  51.341  -3.376  1.00  0.00     0.174 C 
ENDROOT
BRANCH   1   2
ATOM      2  C   UNL     1      -8.431  51.812  -4.682  1.00  0.00     0.142 C 
ATOM      3  C   UNL     1      -6.939  52.100  -4.459  1.00  0.00     0.041 C 
BRANCH   2   4
ATOM      4  O   UNL     1      -8.610  50.893  -5.732  1.00  0.00    -0.391 OA
ATOM      5  H   UNL     1      -9.576  50.675  -5.789  1.00  0.00     0.211 HD
ENDBRANCH   2   4
ENDBRANCH   1   2
BRANCH   1   6
ATOM      6  C   UNL     1      -8.955  49.815  -3.125  1.00  0.00     0.181 C 
BRANCH   6   7
ATOM      7  C   UNL     1      -8.572  49.521  -1.659  1.00  0.00     0.209 C 
BRANCH   7   8
ATOM      8  C   UNL     1      -8.080  50.767  -0.974  1.00  0.00     0.258 C 
ATOM      9  O   UNL     1      -7.075  50.742  -0.282  1.00  0.00    -0.300 OA
ENDBRANCH   7   8
BRANCH   7  10
ATOM     10  O   UNL     1      -7.569  48.539  -1.614  1.00  0.00    -0.383 OA
ATOM     11  H   UNL     1      -7.499  48.243  -0.668  1.00  0.00     0.211 HD
ENDBRANCH   7  10
ENDBRANCH   6   7
BRANCH   6  12
ATOM     12  O   UNL     1      -7.965  49.288  -3.975  1.00  0.00    -0.387 OA
ATOM     13  H   UNL     1      -7.852  48.330  -3.739  1.00  0.00     0.211 HD
ENDBRANCH   6  12
ENDBRANCH   1   6
BRANCH   1  14
ATOM     14  O   UNL     1      -8.710  52.105  -2.268  1.00  0.00    -0.388 OA
ATOM     15  H   UNL     1      -9.096  53.014  -2.358  1.00  0.00     0.211 HD
ENDBRANCH   1  14
TORSDOF 8
ENDMDL
