MODEL 1
REMARK VINA RESULT:    -3.036      0.000      0.000
REMARK INTER + INTRA:          -8.515
REMARK INTER:                  -5.522
REMARK INTRA:                  -2.994
REMARK UNBOUND:                -2.994
REMARK SMILES CCCCCC=CCC=CCCCCCCCC(=O)[O-]
REMARK SMILES IDX 11 1 12 2 13 3 14 4 15 5 16 6 17 7 18 8 19 9 20 10 10 11
REMARK SMILES IDX 9 12 8 13 7 14 6 15 5 16 4 17 3 18 2 19 1 20
REMARK H PARENT
REMARK Flexibility Score: inf
ROOT
ATOM      1  C   UNL     1       7.698  18.634  49.994  1.00  0.00     0.027 C 
ENDROOT
BRANCH   1   2
ATOM      2  C   UNL     1       6.201  18.984  49.997  1.00  0.00     0.004 C 
BRANCH   2   3
ATOM      3  C   UNL     1       5.263  17.769  50.138  1.00  0.00     0.000 C 
BRANCH   3   4
ATOM      4  C   UNL     1       4.199  17.933  51.245  1.00  0.00     0.000 C 
BRANCH   4   5
ATOM      5  C   UNL     1       3.950  16.622  52.010  1.00  0.00     0.000 C 
BRANCH   5   6
ATOM      6  C   UNL     1       5.061  15.584  51.782  1.00  0.00     0.006 C 
BRANCH   6   7
ATOM      7  C   UNL     1       5.694  15.102  53.095  1.00  0.00     0.053 C 
BRANCH   7   8
ATOM      8  C   UNL     1       4.922  13.947  53.651  1.00  0.00     0.041 C 
ATOM      9  O   UNL     1       4.243  13.211  52.886  1.00  0.00    -0.550 OA
ATOM     10  O   UNL     1       4.912  13.711  55.020  1.00  0.00    -0.550 OA
ENDBRANCH   7   8
ENDBRANCH   6   7
ENDBRANCH   5   6
ENDBRANCH   4   5
ENDBRANCH   3   4
ENDBRANCH   2   3
ENDBRANCH   1   2
BRANCH   1  11
ATOM     11  C   UNL     1       8.018  17.519  50.962  1.00  0.00    -0.031 C 
ATOM     12  C   UNL     1       8.376  17.693  52.248  1.00  0.00    -0.027 C 
BRANCH  12  13
ATOM     13  C   UNL     1       8.574  19.032  52.915  1.00  0.00     0.054 C 
BRANCH  13  14
ATOM     14  C   UNL     1       7.327  19.495  53.614  1.00  0.00    -0.027 C 
ATOM     15  C   UNL     1       6.406  18.625  54.056  1.00  0.00    -0.031 C 
BRANCH  15  16
ATOM     16  C   UNL     1       5.148  19.089  54.739  1.00  0.00     0.027 C 
BRANCH  16  17
ATOM     17  C   UNL     1       4.378  17.938  55.407  1.00  0.00     0.004 C 
BRANCH  17  18
ATOM     18  C   UNL     1       5.247  17.013  56.284  1.00  0.00     0.000 C 
BRANCH  18  19
ATOM     19  C   UNL     1       5.738  17.641  57.599  1.00  0.00    -0.003 C 
ATOM     20  C   UNL     1       4.594  18.056  58.525  1.00  0.00     0.004 C 
ENDBRANCH  18  19
ENDBRANCH  17  18
ENDBRANCH  16  17
ENDBRANCH  15  16
ENDBRANCH  13  14
ENDBRANCH  12  13
ENDBRANCH   1  11
TORSDOF 14
ENDMDL
MODEL 2
REMARK VINA RESULT:    -2.743      2.293      4.461
REMARK INTER + INTRA:          -7.982
REMARK INTER:                  -5.805
REMARK INTRA:                  -2.177
REMARK UNBOUND:                -2.994
REMARK SMILES CCCCCC=CCC=CCCCCCCCC(=O)[O-]
REMARK SMILES IDX 11 1 12 2 13 3 14 4 15 5 16 6 17 7 18 8 19 9 20 10 10 11
REMARK SMILES IDX 9 12 8 13 7 14 6 15 5 16 4 17 3 18 2 19 1 20
REMARK H PARENT
REMARK Flexibility Score: inf
ROOT
ATOM      1  C   UNL     1       9.120  19.294  52.900  1.00  0.00     0.027 C 
ENDROOT
BRANCH   1   2
ATOM      2  C   UNL     1       8.303  20.125  53.902  1.00  0.00     0.004 C 
BRANCH   2   3
ATOM      3  C   UNL     1       6.776  20.002  53.736  1.00  0.00     0.000 C 
BRANCH   3   4
ATOM      4  C   UNL     1       6.229  18.594  54.061  1.00  0.00     0.000 C 
BRANCH   4   5
ATOM      5  C   UNL     1       4.700  18.588  54.222  1.00  0.00     0.000 C 
BRANCH   5   6
ATOM      6  C   UNL     1       4.253  18.972  55.642  1.00  0.00     0.006 C 
BRANCH   6   7
ATOM      7  C   UNL     1       4.230  17.770  56.596  1.00  0.00     0.053 C 
BRANCH   7   8
ATOM      8  C   UNL     1       5.194  17.977  57.720  1.00  0.00     0.041 C 
ATOM      9  O   UNL     1       4.818  17.827  58.913  1.00  0.00    -0.550 OA
ATOM     10  O   UNL     1       6.495  18.386  57.455  1.00  0.00    -0.550 OA
ENDBRANCH   7   8
ENDBRANCH   6   7
ENDBRANCH   5   6
ENDBRANCH   4   5
ENDBRANCH   3   4
ENDBRANCH   2   3
ENDBRANCH   1   2
BRANCH   1  11
ATOM     11  C   UNL     1       9.094  19.896  51.514  1.00  0.00    -0.031 C 
ATOM     12  C   UNL     1       8.658  19.266  50.408  1.00  0.00    -0.027 C 
BRANCH  12  13
ATOM     13  C   UNL     1       8.179  17.836  50.361  1.00  0.00     0.054 C 
BRANCH  13  14
ATOM     14  C   UNL     1       6.721  17.726  50.704  1.00  0.00    -0.027 C 
ATOM     15  C   UNL     1       6.090  16.542  50.717  1.00  0.00    -0.031 C 
BRANCH  15  16
ATOM     16  C   UNL     1       4.625  16.433  51.043  1.00  0.00     0.027 C 
BRANCH  16  17
ATOM     17  C   UNL     1       4.316  15.271  52.003  1.00  0.00     0.004 C 
BRANCH  17  18
ATOM     18  C   UNL     1       5.442  14.959  53.010  1.00  0.00     0.000 C 
BRANCH  18  19
ATOM     19  C   UNL     1       5.000  14.918  54.482  1.00  0.00    -0.003 C 
ATOM     20  C   UNL     1       4.653  13.509  54.961  1.00  0.00     0.004 C 
ENDBRANCH  18  19
ENDBRANCH  17  18
ENDBRANCH  16  17
ENDBRANCH  15  16
ENDBRANCH  13  14
ENDBRANCH  12  13
ENDBRANCH   1  11
TORSDOF 14
ENDMDL
MODEL 3
REMARK VINA RESULT:    -2.722      2.378      4.704
REMARK INTER + INTRA:          -7.942
REMARK INTER:                  -5.954
REMARK INTRA:                  -1.989
REMARK UNBOUND:                -2.994
REMARK SMILES CCCCCC=CCC=CCCCCCCCC(=O)[O-]
REMARK SMILES IDX 11 1 12 2 13 3 14 4 15 5 16 6 17 7 18 8 19 9 20 10 10 11
REMARK SMILES IDX 9 12 8 13 7 14 6 15 5 16 4 17 3 18 2 19 1 20
REMARK H PARENT
REMARK Flexibility Score: inf
ROOT
ATOM      1  C   UNL     1       5.795  15.602  52.774  1.00  0.00     0.027 C 
ENDROOT
BRANCH   1   2
ATOM      2  C   UNL     1       4.953  15.763  51.498  1.00  0.00     0.004 C 
BRANCH   2   3
ATOM      3  C   UNL     1       5.641  16.566  50.377  1.00  0.00     0.000 C 
BRANCH   3   4
ATOM      4  C   UNL     1       5.251  18.060  50.356  1.00  0.00     0.000 C 
BRANCH   4   5
ATOM      5  C   UNL     1       6.350  18.939  49.735  1.00  0.00     0.000 C 
BRANCH   5   6
ATOM      6  C   UNL     1       7.765  18.441  50.070  1.00  0.00     0.006 C 
BRANCH   6   7
ATOM      7  C   UNL     1       8.525  19.406  50.991  1.00  0.00     0.053 C 
BRANCH   7   8
ATOM      8  C   UNL     1       8.936  18.710  52.250  1.00  0.00     0.041 C 
ATOM      9  O   UNL     1       9.435  19.367  53.202  1.00  0.00    -0.550 OA
ATOM     10  O   UNL     1       8.815  17.331  52.355  1.00  0.00    -0.550 OA
ENDBRANCH   7   8
ENDBRANCH   6   7
ENDBRANCH   5   6
ENDBRANCH   4   5
ENDBRANCH   3   4
ENDBRANCH   2   3
ENDBRANCH   1   2
BRANCH   1  11
ATOM     11  C   UNL     1       5.644  14.226  53.379  1.00  0.00    -0.031 C 
ATOM     12  C   UNL     1       4.867  13.931  54.438  1.00  0.00    -0.027 C 
BRANCH  12  13
ATOM     13  C   UNL     1       4.067  14.936  55.229  1.00  0.00     0.054 C 
BRANCH  13  14
ATOM     14  C   UNL     1       4.954  15.906  55.955  1.00  0.00    -0.027 C 
ATOM     15  C   UNL     1       4.544  17.150  56.248  1.00  0.00    -0.031 C 
BRANCH  15  16
ATOM     16  C   UNL     1       5.439  18.127  56.960  1.00  0.00     0.027 C 
BRANCH  16  17
ATOM     17  C   UNL     1       5.571  19.464  56.210  1.00  0.00     0.004 C 
BRANCH  17  18
ATOM     18  C   UNL     1       6.423  19.393  54.926  1.00  0.00     0.000 C 
BRANCH  18  19
ATOM     19  C   UNL     1       5.728  19.917  53.658  1.00  0.00    -0.003 C 
ATOM     20  C   UNL     1       4.296  19.404  53.508  1.00  0.00     0.004 C 
ENDBRANCH  18  19
ENDBRANCH  17  18
ENDBRANCH  16  17
ENDBRANCH  15  16
ENDBRANCH  13  14
ENDBRANCH  12  13
ENDBRANCH   1  11
TORSDOF 14
ENDMDL
MODEL 4
REMARK VINA RESULT:    -2.592      1.632      3.396
REMARK INTER + INTRA:          -7.707
REMARK INTER:                  -5.959
REMARK INTRA:                  -1.748
REMARK UNBOUND:                -2.994
REMARK SMILES CCCCCC=CCC=CCCCCCCCC(=O)[O-]
REMARK SMILES IDX 11 1 12 2 13 3 14 4 15 5 16 6 17 7 18 8 19 9 20 10 10 11
REMARK SMILES IDX 9 12 8 13 7 14 6 15 5 16 4 17 3 18 2 19 1 20
REMARK H PARENT
REMARK Flexibility Score: inf
ROOT
ATOM      1  C   UNL     1       6.304  16.083  51.591  1.00  0.00     0.027 C 
ENDROOT
BRANCH   1   2
ATOM      2  C   UNL     1       6.334  16.179  53.125  1.00  0.00     0.004 C 
BRANCH   2   3
ATOM      3  C   UNL     1       4.951  16.362  53.779  1.00  0.00     0.000 C 
BRANCH   3   4
ATOM      4  C   UNL     1       4.836  15.716  55.177  1.00  0.00     0.000 C 
BRANCH   4   5
ATOM      5  C   UNL     1       3.917  14.484  55.174  1.00  0.00     0.000 C 
BRANCH   5   6
ATOM      6  C   UNL     1       4.517  13.296  55.945  1.00  0.00     0.006 C 
BRANCH   6   7
ATOM      7  C   UNL     1       4.400  11.975  55.173  1.00  0.00     0.053 C 
BRANCH   7   8
ATOM      8  C   UNL     1       4.908  12.142  53.776  1.00  0.00     0.041 C 
ATOM      9  O   UNL     1       6.142  12.282  53.562  1.00  0.00    -0.550 OA
ATOM     10  O   UNL     1       4.016  12.192  52.712  1.00  0.00    -0.550 OA
ENDBRANCH   7   8
ENDBRANCH   6   7
ENDBRANCH   5   6
ENDBRANCH   4   5
ENDBRANCH   3   4
ENDBRANCH   2   3
ENDBRANCH   1   2
BRANCH   1  11
ATOM     11  C   UNL     1       5.944  17.403  50.951  1.00  0.00    -0.031 C 
ATOM     12  C   UNL     1       6.828  18.278  50.437  1.00  0.00    -0.027 C 
BRANCH  12  13
ATOM     13  C   UNL     1       8.328  18.109  50.470  1.00  0.00     0.054 C 
BRANCH  13  14
ATOM     14  C   UNL     1       8.974  19.064  51.433  1.00  0.00    -0.027 C 
ATOM     15  C   UNL     1       8.705  19.025  52.747  1.00  0.00    -0.031 C 
BRANCH  15  16
ATOM     16  C   UNL     1       9.338  19.993  53.710  1.00  0.00     0.027 C 
BRANCH  16  17
ATOM     17  C   UNL     1       8.591  20.067  55.053  1.00  0.00     0.004 C 
BRANCH  17  18
ATOM     18  C   UNL     1       7.197  19.407  55.044  1.00  0.00     0.000 C 
BRANCH  18  19
ATOM     19  C   UNL     1       6.301  19.770  56.240  1.00  0.00    -0.003 C 
ATOM     20  C   UNL     1       6.122  18.613  57.224  1.00  0.00     0.004 C 
ENDBRANCH  18  19
ENDBRANCH  17  18
ENDBRANCH  16  17
ENDBRANCH  15  16
ENDBRANCH  13  14
ENDBRANCH  12  13
ENDBRANCH   1  11
TORSDOF 14
ENDMDL
MODEL 5
REMARK VINA RESULT:    -2.555      1.087      2.323
REMARK INTER + INTRA:          -7.640
REMARK INTER:                  -5.822
REMARK INTRA:                  -1.818
REMARK UNBOUND:                -2.994
REMARK SMILES CCCCCC=CCC=CCCCCCCCC(=O)[O-]
REMARK SMILES IDX 11 1 12 2 13 3 14 4 15 5 16 6 17 7 18 8 19 9 20 10 10 11
REMARK SMILES IDX 9 12 8 13 7 14 6 15 5 16 4 17 3 18 2 19 1 20
REMARK H PARENT
REMARK Flexibility Score: inf
ROOT
ATOM      1  C   UNL     1       8.761  18.277  52.459  1.00  0.00     0.027 C 
ENDROOT
BRANCH   1   2
ATOM      2  C   UNL     1       8.794  18.833  51.026  1.00  0.00     0.004 C 
BRANCH   2   3
ATOM      3  C   UNL     1       7.920  18.057  50.021  1.00  0.00     0.000 C 
BRANCH   3   4
ATOM      4  C   UNL     1       6.417  18.061  50.375  1.00  0.00     0.000 C 
BRANCH   4   5
ATOM      5  C   UNL     1       5.809  16.649  50.344  1.00  0.00     0.000 C 
BRANCH   5   6
ATOM      6  C   UNL     1       5.047  16.305  51.633  1.00  0.00     0.006 C 
BRANCH   6   7
ATOM      7  C   UNL     1       5.937  15.616  52.676  1.00  0.00     0.053 C 
BRANCH   7   8
ATOM      8  C   UNL     1       5.141  14.631  53.473  1.00  0.00     0.041 C 
ATOM      9  O   UNL     1       5.240  14.605  54.729  1.00  0.00    -0.550 OA
ATOM     10  O   UNL     1       4.328  13.709  52.827  1.00  0.00    -0.550 OA
ENDBRANCH   7   8
ENDBRANCH   6   7
ENDBRANCH   5   6
ENDBRANCH   4   5
ENDBRANCH   3   4
ENDBRANCH   2   3
ENDBRANCH   1   2
BRANCH   1  11
ATOM     11  C   UNL     1       8.819  19.378  53.492  1.00  0.00    -0.031 C 
ATOM     12  C   UNL     1       7.766  20.112  53.897  1.00  0.00    -0.027 C 
BRANCH  12  13
ATOM     13  C   UNL     1       6.368  19.996  53.343  1.00  0.00     0.054 C 
BRANCH  13  14
ATOM     14  C   UNL     1       5.536  19.023  54.131  1.00  0.00    -0.027 C 
ATOM     15  C   UNL     1       5.858  18.682  55.388  1.00  0.00    -0.031 C 
BRANCH  15  16
ATOM     16  C   UNL     1       5.036  17.695  56.171  1.00  0.00     0.027 C 
BRANCH  16  17
ATOM     17  C   UNL     1       4.467  18.295  57.468  1.00  0.00     0.004 C 
BRANCH  17  18
ATOM     18  C   UNL     1       5.271  17.948  58.738  1.00  0.00     0.000 C 
BRANCH  18  19
ATOM     19  C   UNL     1       4.479  18.046  60.052  1.00  0.00    -0.003 C 
ATOM     20  C   UNL     1       4.413  19.470  60.604  1.00  0.00     0.004 C 
ENDBRANCH  18  19
ENDBRANCH  17  18
ENDBRANCH  16  17
ENDBRANCH  15  16
ENDBRANCH  13  14
ENDBRANCH  12  13
ENDBRANCH   1  11
TORSDOF 14
ENDMDL
MODEL 6
REMARK VINA RESULT:    -2.550      1.628      4.916
REMARK INTER + INTRA:          -7.630
REMARK INTER:                  -5.988
REMARK INTRA:                  -1.642
REMARK UNBOUND:                -2.994
REMARK SMILES CCCCCC=CCC=CCCCCCCCC(=O)[O-]
REMARK SMILES IDX 11 1 12 2 13 3 14 4 15 5 16 6 17 7 18 8 19 9 20 10 10 11
REMARK SMILES IDX 9 12 8 13 7 14 6 15 5 16 4 17 3 18 2 19 1 20
REMARK H PARENT
REMARK Flexibility Score: inf
ROOT
ATOM      1  C   UNL     1       5.389  17.157  56.156  1.00  0.00     0.027 C 
ENDROOT
BRANCH   1   2
ATOM      2  C   UNL     1       4.045  17.281  55.420  1.00  0.00     0.004 C 
BRANCH   2   3
ATOM      3  C   UNL     1       4.122  17.022  53.904  1.00  0.00     0.000 C 
BRANCH   3   4
ATOM      4  C   UNL     1       4.966  15.784  53.529  1.00  0.00     0.000 C 
BRANCH   4   5
ATOM      5  C   UNL     1       4.179  14.473  53.690  1.00  0.00     0.000 C 
BRANCH   5   6
ATOM      6  C   UNL     1       5.077  13.287  54.079  1.00  0.00     0.006 C 
BRANCH   6   7
ATOM      7  C   UNL     1       4.555  12.532  55.308  1.00  0.00     0.053 C 
BRANCH   7   8
ATOM      8  C   UNL     1       4.103  11.159  54.923  1.00  0.00     0.041 C 
ATOM      9  O   UNL     1       3.879  10.294  55.811  1.00  0.00    -0.550 OA
ATOM     10  O   UNL     1       3.977  10.818  53.583  1.00  0.00    -0.550 OA
ENDBRANCH   7   8
ENDBRANCH   6   7
ENDBRANCH   5   6
ENDBRANCH   4   5
ENDBRANCH   3   4
ENDBRANCH   2   3
ENDBRANCH   1   2
BRANCH   1  11
ATOM     11  C   UNL     1       5.636  18.328  57.079  1.00  0.00    -0.031 C 
ATOM     12  C   UNL     1       5.756  19.609  56.685  1.00  0.00    -0.027 C 
BRANCH  12  13
ATOM     13  C   UNL     1       5.722  20.078  55.252  1.00  0.00     0.054 C 
BRANCH  13  14
ATOM     14  C   UNL     1       7.086  20.043  54.623  1.00  0.00    -0.027 C 
ATOM     15  C   UNL     1       7.400  19.146  53.675  1.00  0.00    -0.031 C 
BRANCH  15  16
ATOM     16  C   UNL     1       8.771  19.099  53.058  1.00  0.00     0.027 C 
BRANCH  16  17
ATOM     17  C   UNL     1       8.744  18.643  51.589  1.00  0.00     0.004 C 
BRANCH  17  18
ATOM     18  C   UNL     1       7.947  17.346  51.339  1.00  0.00     0.000 C 
BRANCH  18  19
ATOM     19  C   UNL     1       6.763  17.491  50.368  1.00  0.00    -0.003 C 
ATOM     20  C   UNL     1       6.524  18.936  49.931  1.00  0.00     0.004 C 
ENDBRANCH  18  19
ENDBRANCH  17  18
ENDBRANCH  16  17
ENDBRANCH  15  16
ENDBRANCH  13  14
ENDBRANCH  12  13
ENDBRANCH   1  11
TORSDOF 14
ENDMDL
MODEL 7
REMARK VINA RESULT:    -2.467      2.007      3.541
REMARK INTER + INTRA:          -7.480
REMARK INTER:                  -5.635
REMARK INTRA:                  -1.845
REMARK UNBOUND:                -2.994
REMARK SMILES CCCCCC=CCC=CCCCCCCCC(=O)[O-]
REMARK SMILES IDX 11 1 12 2 13 3 14 4 15 5 16 6 17 7 18 8 19 9 20 10 10 11
REMARK SMILES IDX 9 12 8 13 7 14 6 15 5 16 4 17 3 18 2 19 1 20
REMARK H PARENT
REMARK Flexibility Score: inf
ROOT
ATOM      1  C   UNL     1       8.581  18.104  52.246  1.00  0.00     0.027 C 
ENDROOT
BRANCH   1   2
ATOM      2  C   UNL     1       8.847  18.746  50.875  1.00  0.00     0.004 C 
BRANCH   2   3
ATOM      3  C   UNL     1       7.688  18.603  49.869  1.00  0.00     0.000 C 
BRANCH   3   4
ATOM      4  C   UNL     1       6.601  19.689  50.018  1.00  0.00     0.000 C 
BRANCH   4   5
ATOM      5  C   UNL     1       5.306  19.320  49.275  1.00  0.00     0.000 C 
BRANCH   5   6
ATOM      6  C   UNL     1       4.344  18.489  50.140  1.00  0.00     0.006 C 
BRANCH   6   7
ATOM      7  C   UNL     1       3.880  17.207  49.435  1.00  0.00     0.053 C 
BRANCH   7   8
ATOM      8  C   UNL     1       4.649  16.027  49.940  1.00  0.00     0.041 C 
ATOM      9  O   UNL     1       4.482  14.892  49.420  1.00  0.00    -0.550 OA
ATOM     10  O   UNL     1       5.515  16.169  51.017  1.00  0.00    -0.550 OA
ENDBRANCH   7   8
ENDBRANCH   6   7
ENDBRANCH   5   6
ENDBRANCH   4   5
ENDBRANCH   3   4
ENDBRANCH   2   3
ENDBRANCH   1   2
BRANCH   1  11
ATOM     11  C   UNL     1       8.868  19.059  53.381  1.00  0.00    -0.031 C 
ATOM     12  C   UNL     1       7.958  19.864  53.960  1.00  0.00    -0.027 C 
BRANCH  12  13
ATOM     13  C   UNL     1       6.517  19.988  53.530  1.00  0.00     0.054 C 
BRANCH  13  14
ATOM     14  C   UNL     1       5.604  19.177  54.406  1.00  0.00    -0.027 C 
ATOM     15  C   UNL     1       5.219  17.938  54.063  1.00  0.00    -0.031 C 
BRANCH  15  16
ATOM     16  C   UNL     1       4.291  17.133  54.931  1.00  0.00     0.027 C 
BRANCH  16  17
ATOM     17  C   UNL     1       4.959  15.870  55.501  1.00  0.00     0.004 C 
BRANCH  17  18
ATOM     18  C   UNL     1       4.027  14.645  55.600  1.00  0.00     0.000 C 
BRANCH  18  19
ATOM     19  C   UNL     1       4.406  13.467  54.686  1.00  0.00    -0.003 C 
ATOM     20  C   UNL     1       5.401  13.857  53.593  1.00  0.00     0.004 C 
ENDBRANCH  18  19
ENDBRANCH  17  18
ENDBRANCH  16  17
ENDBRANCH  15  16
ENDBRANCH  13  14
ENDBRANCH  12  13
ENDBRANCH   1  11
TORSDOF 14
ENDMDL
MODEL 8
REMARK VINA RESULT:    -2.462      2.696      5.978
REMARK INTER + INTRA:          -7.471
REMARK INTER:                  -5.203
REMARK INTRA:                  -2.269
REMARK UNBOUND:                -2.994
REMARK SMILES CCCCCC=CCC=CCCCCCCCC(=O)[O-]
REMARK SMILES IDX 11 1 12 2 13 3 14 4 15 5 16 6 17 7 18 8 19 9 20 10 10 11
REMARK SMILES IDX 9 12 8 13 7 14 6 15 5 16 4 17 3 18 2 19 1 20
REMARK H PARENT
REMARK Flexibility Score: inf
ROOT
ATOM      1  C   UNL     1       4.673  13.507  54.094  1.00  0.00     0.027 C 
ENDROOT
BRANCH   1   2
ATOM      2  C   UNL     1       4.436  14.000  55.530  1.00  0.00     0.004 C 
BRANCH   2   3
ATOM      3  C   UNL     1       3.876  15.432  55.628  1.00  0.00     0.000 C 
BRANCH   3   4
ATOM      4  C   UNL     1       4.930  16.483  56.040  1.00  0.00     0.000 C 
BRANCH   4   5
ATOM      5  C   UNL     1       4.723  17.826  55.320  1.00  0.00     0.000 C 
BRANCH   5   6
ATOM      6  C   UNL     1       5.978  18.292  54.566  1.00  0.00     0.006 C 
BRANCH   6   7
ATOM      7  C   UNL     1       6.339  19.753  54.871  1.00  0.00     0.053 C 
BRANCH   7   8
ATOM      8  C   UNL     1       7.318  19.822  56.000  1.00  0.00     0.041 C 
ATOM      9  O   UNL     1       6.908  19.909  57.189  1.00  0.00    -0.550 OA
ATOM     10  O   UNL     1       8.682  19.843  55.740  1.00  0.00    -0.550 OA
ENDBRANCH   7   8
ENDBRANCH   6   7
ENDBRANCH   5   6
ENDBRANCH   4   5
ENDBRANCH   3   4
ENDBRANCH   2   3
ENDBRANCH   1   2
BRANCH   1  11
ATOM     11  C   UNL     1       5.718  14.333  53.380  1.00  0.00    -0.031 C 
ATOM     12  C   UNL     1       5.464  15.220  52.401  1.00  0.00    -0.027 C 
BRANCH  12  13
ATOM     13  C   UNL     1       4.100  15.492  51.815  1.00  0.00     0.054 C 
BRANCH  13  14
ATOM     14  C   UNL     1       4.074  16.778  51.039  1.00  0.00    -0.027 C 
ATOM     15  C   UNL     1       5.037  17.702  51.180  1.00  0.00    -0.031 C 
BRANCH  15  16
ATOM     16  C   UNL     1       5.003  18.998  50.415  1.00  0.00     0.027 C 
BRANCH  16  17
ATOM     17  C   UNL     1       6.214  19.168  49.483  1.00  0.00     0.004 C 
BRANCH  17  18
ATOM     18  C   UNL     1       7.560  18.737  50.101  1.00  0.00     0.000 C 
BRANCH  18  19
ATOM     19  C   UNL     1       8.043  19.609  51.273  1.00  0.00    -0.003 C 
ATOM     20  C   UNL     1       8.903  18.838  52.274  1.00  0.00     0.004 C 
ENDBRANCH  18  19
ENDBRANCH  17  18
ENDBRANCH  16  17
ENDBRANCH  15  16
ENDBRANCH  13  14
ENDBRANCH  12  13
ENDBRANCH   1  11
TORSDOF 14
ENDMDL
MODEL 9
REMARK VINA RESULT:    -2.418      1.550      4.519
REMARK INTER + INTRA:          -7.391
REMARK INTER:                  -5.369
REMARK INTRA:                  -2.023
REMARK UNBOUND:                -2.994
REMARK SMILES CCCCCC=CCC=CCCCCCCCC(=O)[O-]
REMARK SMILES IDX 11 1 12 2 13 3 14 4 15 5 16 6 17 7 18 8 19 9 20 10 10 11
REMARK SMILES IDX 9 12 8 13 7 14 6 15 5 16 4 17 3 18 2 19 1 20
REMARK H PARENT
REMARK Flexibility Score: inf
ROOT
ATOM      1  C   UNL     1       8.298  19.259  53.499  1.00  0.00     0.027 C 
ENDROOT
BRANCH   1   2
ATOM      2  C   UNL     1       6.807  19.581  53.687  1.00  0.00     0.004 C 
BRANCH   2   3
ATOM      3  C   UNL     1       6.189  19.008  54.977  1.00  0.00     0.000 C 
BRANCH   3   4
ATOM      4  C   UNL     1       4.780  18.409  54.776  1.00  0.00     0.000 C 
BRANCH   4   5
ATOM      5  C   UNL     1       4.786  17.230  53.788  1.00  0.00     0.000 C 
BRANCH   5   6
ATOM      6  C   UNL     1       5.353  15.942  54.408  1.00  0.00     0.006 C 
BRANCH   6   7
ATOM      7  C   UNL     1       5.292  14.750  53.443  1.00  0.00     0.053 C 
BRANCH   7   8
ATOM      8  C   UNL     1       5.028  13.484  54.196  1.00  0.00     0.041 C 
ATOM      9  O   UNL     1       5.382  12.375  53.713  1.00  0.00    -0.550 OA
ATOM     10  O   UNL     1       4.348  13.522  55.406  1.00  0.00    -0.550 OA
ENDBRANCH   7   8
ENDBRANCH   6   7
ENDBRANCH   5   6
ENDBRANCH   4   5
ENDBRANCH   3   4
ENDBRANCH   2   3
ENDBRANCH   1   2
BRANCH   1  11
ATOM     11  C   UNL     1       8.505  17.975  52.730  1.00  0.00    -0.031 C 
ATOM     12  C   UNL     1       8.697  17.896  51.400  1.00  0.00    -0.027 C 
BRANCH  12  13
ATOM     13  C   UNL     1       8.677  19.070  50.453  1.00  0.00     0.054 C 
BRANCH  13  14
ATOM     14  C   UNL     1       7.281  19.401  50.007  1.00  0.00    -0.027 C 
ATOM     15  C   UNL     1       6.343  18.451  49.874  1.00  0.00    -0.031 C 
BRANCH  15  16
ATOM     16  C   UNL     1       4.949  18.780  49.410  1.00  0.00     0.027 C 
BRANCH  16  17
ATOM     17  C   UNL     1       3.965  17.617  49.622  1.00  0.00     0.004 C 
BRANCH  17  18
ATOM     18  C   UNL     1       4.585  16.369  50.282  1.00  0.00     0.000 C 
BRANCH  18  19
ATOM     19  C   UNL     1       4.035  15.026  49.771  1.00  0.00    -0.003 C 
ATOM     20  C   UNL     1       3.875  14.987  48.251  1.00  0.00     0.004 C 
ENDBRANCH  18  19
ENDBRANCH  17  18
ENDBRANCH  16  17
ENDBRANCH  15  16
ENDBRANCH  13  14
ENDBRANCH  12  13
ENDBRANCH   1  11
TORSDOF 14
ENDMDL
