MODEL 1
REMARK VINA RESULT:    -5.781      0.000      0.000
REMARK INTER + INTRA:          -5.781
REMARK INTER:                  -5.781
REMARK INTRA:                   0.000
REMARK UNBOUND:                 0.000
REMARK SMILES CC1=CC[C@H]2[C@H](C1)C2(C)C
REMARK SMILES IDX 1 1 2 2 3 3 4 4 5 5 6 6 7 7 8 8 9 9 10 10
REMARK H PARENT
REMARK Flexibility Score: inf
ROOT
ATOM      1  C   UNL     1     134.875 139.370 123.345  1.00  0.00     0.039 C 
ATOM      2  C   UNL     1     135.953 138.367 123.645  1.00  0.00    -0.077 C 
ATOM      3  C   UNL     1     136.001 137.780 124.877  1.00  0.00    -0.028 C 
ATOM      4  C   UNL     1     137.057 136.737 125.234  1.00  0.00     0.031 C 
ATOM      5  C   UNL     1     137.558 136.109 123.929  1.00  0.00     0.003 C 
ATOM      6  C   UNL     1     138.181 137.362 123.208  1.00  0.00     0.003 C 
ATOM      7  C   UNL     1     136.941 137.971 122.542  1.00  0.00     0.034 C 
ATOM      8  C   UNL     1     138.878 136.020 123.196  1.00  0.00    -0.029 C 
ATOM      9  C   UNL     1     138.879 135.287 121.852  1.00  0.00     0.012 C 
ATOM     10  C   UNL     1     140.119 135.874 124.082  1.00  0.00     0.012 C 
ENDROOT
TORSDOF 0
ENDMDL
MODEL 2
REMARK VINA RESULT:    -5.755     14.283     16.463
REMARK INTER + INTRA:          -5.755
REMARK INTER:                  -5.755
REMARK INTRA:                   0.000
REMARK UNBOUND:                 0.000
REMARK SMILES CC1=CC[C@H]2[C@H](C1)C2(C)C
REMARK SMILES IDX 1 1 2 2 3 3 4 4 5 5 6 6 7 7 8 8 9 9 10 10
REMARK H PARENT
REMARK Flexibility Score: inf
ROOT
ATOM      1  C   UNL     1     151.385 134.880 123.750  1.00  0.00     0.039 C 
ATOM      2  C   UNL     1     152.419 135.963 123.876  1.00  0.00    -0.077 C 
ATOM      3  C   UNL     1     153.212 136.008 124.987  1.00  0.00    -0.028 C 
ATOM      4  C   UNL     1     154.297 137.068 125.163  1.00  0.00     0.031 C 
ATOM      5  C   UNL     1     154.685 137.579 123.771  1.00  0.00     0.003 C 
ATOM      6  C   UNL     1     153.322 138.198 123.284  1.00  0.00     0.003 C 
ATOM      7  C   UNL     1     152.612 136.958 122.727  1.00  0.00     0.034 C 
ATOM      8  C   UNL     1     154.638 138.903 123.042  1.00  0.00    -0.029 C 
ATOM      9  C   UNL     1     155.125 138.915 121.590  1.00  0.00     0.012 C 
ATOM     10  C   UNL     1     154.930 140.141 123.896  1.00  0.00     0.012 C 
ENDROOT
TORSDOF 0
ENDMDL
MODEL 3
REMARK VINA RESULT:    -5.632     14.356     16.410
REMARK INTER + INTRA:          -5.632
REMARK INTER:                  -5.632
REMARK INTRA:                   0.000
REMARK UNBOUND:                 0.000
REMARK SMILES CC1=CC[C@H]2[C@H](C1)C2(C)C
REMARK SMILES IDX 1 1 2 2 3 3 4 4 5 5 6 6 7 7 8 8 9 9 10 10
REMARK H PARENT
REMARK Flexibility Score: inf
ROOT
ATOM      1  C   UNL     1     139.722 155.125 124.156  1.00  0.00     0.039 C 
ATOM      2  C   UNL     1     138.419 154.378 124.099  1.00  0.00    -0.077 C 
ATOM      3  C   UNL     1     137.391 154.761 124.912  1.00  0.00    -0.028 C 
ATOM      4  C   UNL     1     136.035 154.059 124.883  1.00  0.00     0.031 C 
ATOM      5  C   UNL     1     135.886 153.379 123.517  1.00  0.00     0.003 C 
ATOM      6  C   UNL     1     137.084 152.359 123.553  1.00  0.00     0.003 C 
ATOM      7  C   UNL     1     138.245 153.243 123.084  1.00  0.00     0.034 C 
ATOM      8  C   UNL     1     135.728 151.962 123.014  1.00  0.00    -0.029 C 
ATOM      9  C   UNL     1     135.649 151.768 121.497  1.00  0.00     0.012 C 
ATOM     10  C   UNL     1     134.875 151.040 123.890  1.00  0.00     0.012 C 
ENDROOT
TORSDOF 0
ENDMDL
MODEL 4
REMARK VINA RESULT:    -5.336      1.056      4.147
REMARK INTER + INTRA:          -5.336
REMARK INTER:                  -5.336
REMARK INTRA:                   0.000
REMARK UNBOUND:                 0.000
REMARK SMILES CC1=CC[C@H]2[C@H](C1)C2(C)C
REMARK SMILES IDX 1 1 2 2 3 3 4 4 5 5 6 6 7 7 8 8 9 9 10 10
REMARK H PARENT
REMARK Flexibility Score: inf
ROOT
ATOM      1  C   UNL     1     139.983 135.248 123.209  1.00  0.00     0.039 C 
ATOM      2  C   UNL     1     138.648 135.935 123.286  1.00  0.00    -0.077 C 
ATOM      3  C   UNL     1     137.514 135.231 122.997  1.00  0.00    -0.028 C 
ATOM      4  C   UNL     1     136.127 135.865 123.082  1.00  0.00     0.031 C 
ATOM      5  C   UNL     1     136.215 137.062 124.034  1.00  0.00     0.003 C 
ATOM      6  C   UNL     1     137.243 137.981 123.275  1.00  0.00     0.003 C 
ATOM      7  C   UNL     1     138.577 137.393 123.750  1.00  0.00     0.034 C 
ATOM      8  C   UNL     1     136.008 138.557 123.931  1.00  0.00    -0.029 C 
ATOM      9  C   UNL     1     136.256 139.382 125.198  1.00  0.00     0.012 C 
ATOM     10  C   UNL     1     134.875 139.007 123.004  1.00  0.00     0.012 C 
ENDROOT
TORSDOF 0
ENDMDL
MODEL 5
REMARK VINA RESULT:    -4.835      0.896      2.173
REMARK INTER + INTRA:          -4.835
REMARK INTER:                  -4.835
REMARK INTRA:                   0.000
REMARK UNBOUND:                 0.000
REMARK SMILES CC1=CC[C@H]2[C@H](C1)C2(C)C
REMARK SMILES IDX 1 1 2 2 3 3 4 4 5 5 6 6 7 7 8 8 9 9 10 10
REMARK H PARENT
REMARK Flexibility Score: inf
ROOT
ATOM      1  C   UNL     1     134.877 139.773 124.478  1.00  0.00     0.039 C 
ATOM      2  C   UNL     1     135.897 138.803 123.954  1.00  0.00    -0.077 C 
ATOM      3  C   UNL     1     136.437 139.001 122.715  1.00  0.00    -0.028 C 
ATOM      4  C   UNL     1     137.496 138.064 122.137  1.00  0.00     0.031 C 
ATOM      5  C   UNL     1     138.188 137.357 123.308  1.00  0.00     0.003 C 
ATOM      6  C   UNL     1     136.982 136.570 123.943  1.00  0.00     0.003 C 
ATOM      7  C   UNL     1     136.363 137.645 124.844  1.00  0.00     0.034 C 
ATOM      8  C   UNL     1     138.343 135.930 123.783  1.00  0.00    -0.029 C 
ATOM      9  C   UNL     1     139.127 135.710 125.080  1.00  0.00     0.012 C 
ATOM     10  C   UNL     1     138.490 134.876 122.681  1.00  0.00     0.012 C 
ENDROOT
TORSDOF 0
ENDMDL
MODEL 6
REMARK VINA RESULT:    -4.764     13.989     16.144
REMARK INTER + INTRA:          -4.764
REMARK INTER:                  -4.764
REMARK INTRA:                   0.000
REMARK UNBOUND:                 0.000
REMARK SMILES CC1=CC[C@H]2[C@H](C1)C2(C)C
REMARK SMILES IDX 1 1 2 2 3 3 4 4 5 5 6 6 7 7 8 8 9 9 10 10
REMARK H PARENT
REMARK Flexibility Score: inf
ROOT
ATOM      1  C   UNL     1     155.110 140.005 123.061  1.00  0.00     0.039 C 
ATOM      2  C   UNL     1     154.437 138.666 123.182  1.00  0.00    -0.077 C 
ATOM      3  C   UNL     1     155.124 137.537 122.839  1.00  0.00    -0.028 C 
ATOM      4  C   UNL     1     154.505 136.146 122.963  1.00  0.00     0.031 C 
ATOM      5  C   UNL     1     153.378 136.224 124.000  1.00  0.00     0.003 C 
ATOM      6  C   UNL     1     152.403 137.250 123.312  1.00  0.00     0.003 C 
ATOM      7  C   UNL     1     153.016 138.586 123.749  1.00  0.00     0.034 C 
ATOM      8  C   UNL     1     151.881 136.010 124.003  1.00  0.00    -0.029 C 
ATOM      9  C   UNL     1     151.148 136.249 125.326  1.00  0.00     0.012 C 
ATOM     10  C   UNL     1     151.372 134.878 123.106  1.00  0.00     0.012 C 
ENDROOT
TORSDOF 0
ENDMDL
MODEL 7
REMARK VINA RESULT:    -4.153     14.029     16.350
REMARK INTER + INTRA:          -4.153
REMARK INTER:                  -4.153
REMARK INTRA:                   0.000
REMARK UNBOUND:                 0.000
REMARK SMILES CC1=CC[C@H]2[C@H](C1)C2(C)C
REMARK SMILES IDX 1 1 2 2 3 3 4 4 5 5 6 6 7 7 8 8 9 9 10 10
REMARK H PARENT
REMARK Flexibility Score: inf
ROOT
ATOM      1  C   UNL     1     134.875 150.243 123.092  1.00  0.00     0.039 C 
ATOM      2  C   UNL     1     135.610 151.552 123.025  1.00  0.00    -0.077 C 
ATOM      3  C   UNL     1     135.149 152.538 122.200  1.00  0.00    -0.028 C 
ATOM      4  C   UNL     1     135.837 153.899 122.107  1.00  0.00     0.031 C 
ATOM      5  C   UNL     1     136.627 154.116 123.402  1.00  0.00     0.003 C 
ATOM      6  C   UNL     1     137.654 152.925 123.337  1.00  0.00     0.003 C 
ATOM      7  C   UNL     1     136.824 151.781 123.931  1.00  0.00     0.034 C 
ATOM      8  C   UNL     1     138.079 154.308 123.776  1.00  0.00    -0.029 C 
ATOM      9  C   UNL     1     138.399 154.460 125.267  1.00  0.00     0.012 C 
ATOM     10  C   UNL     1     138.916 155.125 122.787  1.00  0.00     0.012 C 
ENDROOT
TORSDOF 0
ENDMDL
MODEL 8
REMARK VINA RESULT:    -4.024     14.668     16.740
REMARK INTER + INTRA:          -4.024
REMARK INTER:                  -4.024
REMARK INTRA:                   0.000
REMARK UNBOUND:                 0.000
REMARK SMILES CC1=CC[C@H]2[C@H](C1)C2(C)C
REMARK SMILES IDX 1 1 2 2 3 3 4 4 5 5 6 6 7 7 8 8 9 9 10 10
REMARK H PARENT
REMARK Flexibility Score: inf
ROOT
ATOM      1  C   UNL     1     139.679 155.124 125.263  1.00  0.00     0.039 C 
ATOM      2  C   UNL     1     138.731 154.431 124.326  1.00  0.00    -0.077 C 
ATOM      3  C   UNL     1     139.086 154.258 123.019  1.00  0.00    -0.028 C 
ATOM      4  C   UNL     1     138.177 153.540 122.024  1.00  0.00     0.031 C 
ATOM      5  C   UNL     1     137.236 152.628 122.820  1.00  0.00     0.003 C 
ATOM      6  C   UNL     1     136.452 153.683 123.687  1.00  0.00     0.003 C 
ATOM      7  C   UNL     1     137.411 153.871 124.868  1.00  0.00     0.034 C 
ATOM      8  C   UNL     1     135.743 152.519 123.031  1.00  0.00    -0.029 C 
ATOM      9  C   UNL     1     135.254 151.422 123.982  1.00  0.00     0.012 C 
ATOM     10  C   UNL     1     134.875 152.834 121.809  1.00  0.00     0.012 C 
ENDROOT
TORSDOF 0
ENDMDL
