MODEL 1
REMARK VINA RESULT:    -3.005      0.000      0.000
REMARK INTER + INTRA:          -2.966
REMARK INTER:                  -3.707
REMARK INTRA:                   0.741
REMARK UNBOUND:                 0.741
REMARK SMILES CC1=CC=CC(C)(C)CC1=O
REMARK SMILES IDX 1 1 2 2 3 3 10 4 11 5 9 6 4 8 5 9 6 10 7 11 8 12
REMARK H PARENT
REMARK Flexibility Score: 80.00
ROOT
ATOM      1  C   UNL     1      -6.258  26.150  46.380  1.00  0.00     0.048 C 
ATOM      2  C   UNL     1      -6.148  27.623  46.066  1.00  0.00    -0.008 C 
ATOM      3  C   UNL     1      -5.204  28.334  46.719  1.00  0.00     0.007 C 
ENDROOT
BRANCH   2   4
ATOM      4  C   UNL     1      -7.140  28.187  45.116  1.00  0.00     0.159 C 
ATOM      5  O   UNL     1      -8.123  27.476  44.770  1.00  0.00    -0.295 OA
BRANCH   4   6
ATOM      6  C   UNL     1      -7.034  29.560  44.530  1.00  0.00     0.091 CG0
ATOM      7  G   UNL     1      -6.995  30.678  45.597  1.00  0.00     0.000 G0
ENDBRANCH   4   6
ENDBRANCH   2   4
BRANCH   3   8
ATOM      8  C   UNL     1      -4.878  29.777  46.645  1.00  0.00    -0.003 C 
ATOM      9  C   UNL     1      -5.625  30.788  46.183  1.00  0.00    -0.020 C 
BRANCH   9  10
ATOM     10  C   UNL     1      -7.008  30.683  45.585  1.00  0.00    -0.010 CG0
ATOM     11  C   UNL     1      -7.323  32.008  44.855  1.00  0.00     0.016 C 
ATOM     12  C   UNL     1      -8.055  30.496  46.708  1.00  0.00     0.016 C 
ATOM     13  G   UNL     1      -7.040  29.541  44.545  1.00  0.00     0.000 G0
ENDBRANCH   9  10
ENDBRANCH   3   8
TORSDOF 0
ENDMDL
MODEL 2
REMARK VINA RESULT:    -2.983      1.537      2.678
REMARK INTER + INTRA:          -2.939
REMARK INTER:                  -3.680
REMARK INTRA:                   0.740
REMARK UNBOUND:                 0.741
REMARK SMILES CC1=CC=CC(C)(C)CC1=O
REMARK SMILES IDX 1 1 2 2 3 3 10 4 11 5 9 6 4 8 5 9 6 10 7 11 8 12
REMARK H PARENT
REMARK Flexibility Score: 80.00
ROOT
ATOM      1  C   UNL     1      -9.510  27.998  44.160  1.00  0.00     0.048 C 
ATOM      2  C   UNL     1      -8.112  28.136  44.718  1.00  0.00    -0.008 C 
ATOM      3  C   UNL     1      -7.623  27.106  45.440  1.00  0.00     0.007 C 
ENDROOT
BRANCH   2   4
ATOM      4  C   UNL     1      -7.418  29.428  44.489  1.00  0.00     0.159 C 
ATOM      5  O   UNL     1      -8.076  30.398  44.022  1.00  0.00    -0.295 OA
BRANCH   4   6
ATOM      6  C   UNL     1      -5.963  29.644  44.769  1.00  0.00     0.091 CG0
ATOM      7  G   UNL     1      -5.581  29.381  46.244  1.00  0.00     0.000 G0
ENDBRANCH   4   6
ENDBRANCH   2   4
BRANCH   3   8
ATOM      8  C   UNL     1      -6.318  26.960  46.126  1.00  0.00    -0.003 C 
ATOM      9  C   UNL     1      -5.442  27.908  46.483  1.00  0.00    -0.020 C 
BRANCH   9  10
ATOM     10  C   UNL     1      -5.574  29.392  46.236  1.00  0.00    -0.010 CG0
ATOM     11  C   UNL     1      -4.193  30.046  46.462  1.00  0.00     0.016 C 
ATOM     12  C   UNL     1      -6.567  30.009  47.248  1.00  0.00     0.016 C 
ATOM     13  G   UNL     1      -5.989  29.640  44.768  1.00  0.00     0.000 G0
ENDBRANCH   9  10
ENDBRANCH   3   8
TORSDOF 0
ENDMDL
MODEL 3
REMARK VINA RESULT:    -2.955      1.852      2.716
REMARK INTER + INTRA:          -2.904
REMARK INTER:                  -3.652
REMARK INTRA:                   0.747
REMARK UNBOUND:                 0.741
REMARK SMILES CC1=CC=CC(C)(C)CC1=O
REMARK SMILES IDX 1 1 2 2 3 3 10 4 11 5 9 6 4 8 5 9 6 10 7 11 8 12
REMARK H PARENT
REMARK Flexibility Score: 80.00
ROOT
ATOM      1  C   UNL     1      -5.676  27.043  45.914  1.00  0.00     0.048 C 
ATOM      2  C   UNL     1      -6.287  28.406  46.140  1.00  0.00    -0.008 C 
ATOM      3  C   UNL     1      -7.540  28.613  45.683  1.00  0.00     0.007 C 
ENDROOT
BRANCH   2   4
ATOM      4  C   UNL     1      -5.429  29.433  46.782  1.00  0.00     0.159 C 
ATOM      5  O   UNL     1      -4.193  29.207  46.898  1.00  0.00    -0.295 OA
BRANCH   4   6
ATOM      6  C   UNL     1      -5.953  30.729  47.319  1.00  0.00     0.091 CG0
ATOM      7  G   UNL     1      -6.633  31.604  46.241  1.00  0.00     0.000 G0
ENDBRANCH   4   6
ENDBRANCH   2   4
BRANCH   3   8
ATOM      8  C   UNL     1      -8.381  29.832  45.730  1.00  0.00    -0.003 C 
ATOM      9  C   UNL     1      -8.015  31.101  45.950  1.00  0.00    -0.020 C 
BRANCH   9  10
ATOM     10  C   UNL     1      -6.617  31.596  46.237  1.00  0.00    -0.010 CG0
ATOM     11  C   UNL     1      -6.717  33.034  46.795  1.00  0.00     0.016 C 
ATOM     12  C   UNL     1      -5.797  31.648  44.928  1.00  0.00     0.016 C 
ATOM     13  G   UNL     1      -5.962  30.706  47.316  1.00  0.00     0.000 G0
ENDBRANCH   9  10
ENDBRANCH   3   8
TORSDOF 0
ENDMDL
MODEL 4
REMARK VINA RESULT:    -2.906      1.824      2.783
REMARK INTER + INTRA:          -2.844
REMARK INTER:                  -3.599
REMARK INTRA:                   0.754
REMARK UNBOUND:                 0.741
REMARK SMILES CC1=CC=CC(C)(C)CC1=O
REMARK SMILES IDX 1 1 2 2 3 3 10 4 11 5 9 6 4 8 5 9 6 10 7 11 8 12
REMARK H PARENT
REMARK Flexibility Score: 80.00
ROOT
ATOM      1  C   UNL     1      -7.290  27.319  45.356  1.00  0.00     0.048 C 
ATOM      2  C   UNL     1      -6.911  28.665  45.929  1.00  0.00    -0.008 C 
ATOM      3  C   UNL     1      -7.889  29.584  46.067  1.00  0.00     0.007 C 
ENDROOT
BRANCH   2   4
ATOM      4  C   UNL     1      -5.474  28.892  46.226  1.00  0.00     0.159 C 
ATOM      5  O   UNL     1      -4.628  28.051  45.815  1.00  0.00    -0.295 OA
BRANCH   4   6
ATOM      6  C   UNL     1      -4.968  30.066  47.005  1.00  0.00     0.091 CG0
ATOM      7  G   UNL     1      -5.335  31.425  46.366  1.00  0.00     0.000 G0
ENDBRANCH   4   6
ENDBRANCH   2   4
BRANCH   3   8
ATOM      8  C   UNL     1      -7.822  30.978  46.565  1.00  0.00    -0.003 C 
ATOM      9  C   UNL     1      -6.756  31.779  46.691  1.00  0.00    -0.020 C 
BRANCH   9  10
ATOM     10  C   UNL     1      -5.324  31.424  46.368  1.00  0.00    -0.010 CG0
ATOM     11  C   UNL     1      -4.405  32.495  46.999  1.00  0.00     0.016 C 
ATOM     12  C   UNL     1      -5.106  31.450  44.838  1.00  0.00     0.016 C 
ATOM     13  G   UNL     1      -4.972  30.058  46.998  1.00  0.00     0.000 G0
ENDBRANCH   9  10
ENDBRANCH   3   8
TORSDOF 0
ENDMDL
MODEL 5
REMARK VINA RESULT:    -2.843     15.056     16.109
REMARK INTER + INTRA:          -2.766
REMARK INTER:                  -3.512
REMARK INTRA:                   0.746
REMARK UNBOUND:                 0.741
REMARK SMILES CC1=CC=CC(C)(C)CC1=O
REMARK SMILES IDX 1 1 2 2 3 3 10 4 11 5 9 6 4 8 5 9 6 10 7 11 8 12
REMARK H PARENT
REMARK Flexibility Score: 80.00
ROOT
ATOM      1  C   UNL     1     -19.545  19.953  41.630  1.00  0.00     0.048 C 
ATOM      2  C   UNL     1     -20.151  21.321  41.414  1.00  0.00    -0.008 C 
ATOM      3  C   UNL     1     -21.485  21.446  41.579  1.00  0.00     0.007 C 
ENDROOT
BRANCH   2   4
ATOM      4  C   UNL     1     -19.238  22.401  40.965  1.00  0.00     0.159 C 
ATOM      5  O   UNL     1     -18.074  22.095  40.586  1.00  0.00    -0.295 OA
BRANCH   4   6
ATOM      6  C   UNL     1     -19.617  23.849  40.948  1.00  0.00     0.091 CG0
ATOM      7  G   UNL     1     -20.834  24.149  40.044  1.00  0.00     0.000 G0
ENDBRANCH   4   6
ENDBRANCH   2   4
BRANCH   3   8
ATOM      8  C   UNL     1     -22.356  22.634  41.414  1.00  0.00    -0.003 C 
ATOM      9  C   UNL     1     -22.111  23.776  40.760  1.00  0.00    -0.020 C 
BRANCH   9  10
ATOM     10  C   UNL     1     -20.835  24.141  40.038  1.00  0.00    -0.010 CG0
ATOM     11  C   UNL     1     -20.852  25.662  39.762  1.00  0.00     0.016 C 
ATOM     12  C   UNL     1     -20.771  23.409  38.677  1.00  0.00     0.016 C 
ATOM     13  G   UNL     1     -19.619  23.830  40.940  1.00  0.00     0.000 G0
ENDBRANCH   9  10
ENDBRANCH   3   8
TORSDOF 0
ENDMDL
MODEL 6
REMARK VINA RESULT:    -2.807      1.791      3.365
REMARK INTER + INTRA:          -2.722
REMARK INTER:                  -3.482
REMARK INTRA:                   0.759
REMARK UNBOUND:                 0.741
REMARK SMILES CC1=CC=CC(C)(C)CC1=O
REMARK SMILES IDX 1 1 2 2 3 3 10 4 11 5 9 6 4 8 5 9 6 10 7 11 8 12
REMARK H PARENT
REMARK Flexibility Score: 80.00
ROOT
ATOM      1  C   UNL     1      -7.892  30.657  46.875  1.00  0.00     0.048 C 
ATOM      2  C   UNL     1      -7.171  29.452  46.316  1.00  0.00    -0.008 C 
ATOM      3  C   UNL     1      -5.954  29.161  46.822  1.00  0.00     0.007 C 
ENDROOT
BRANCH   2   4
ATOM      4  C   UNL     1      -7.831  28.728  45.200  1.00  0.00     0.159 C 
ATOM      5  O   UNL     1      -8.841  29.249  44.651  1.00  0.00    -0.295 OA
BRANCH   4   6
ATOM      6  C   UNL     1      -7.371  27.397  44.693  1.00  0.00     0.091 CG0
ATOM      7  G   UNL     1      -5.910  27.408  44.190  1.00  0.00     0.000 G0
ENDBRANCH   4   6
ENDBRANCH   2   4
BRANCH   3   8
ATOM      8  C   UNL     1      -5.009  28.077  46.463  1.00  0.00    -0.003 C 
ATOM      9  C   UNL     1      -4.966  27.328  45.354  1.00  0.00    -0.020 C 
BRANCH   9  10
ATOM     10  C   UNL     1      -5.919  27.400  44.184  1.00  0.00    -0.010 CG0
ATOM     11  C   UNL     1      -5.717  26.137  43.316  1.00  0.00     0.016 C 
ATOM     12  C   UNL     1      -5.592  28.635  43.313  1.00  0.00     0.016 C 
ATOM     13  G   UNL     1      -7.376  27.402  44.699  1.00  0.00     0.000 G0
ENDBRANCH   9  10
ENDBRANCH   3   8
TORSDOF 0
ENDMDL
MODEL 7
REMARK VINA RESULT:    -2.764      1.425      2.774
REMARK INTER + INTRA:          -2.669
REMARK INTER:                  -3.423
REMARK INTRA:                   0.754
REMARK UNBOUND:                 0.741
REMARK SMILES CC1=CC=CC(C)(C)CC1=O
REMARK SMILES IDX 1 1 2 2 3 3 10 4 11 5 9 6 4 8 5 9 6 10 7 11 8 12
REMARK H PARENT
REMARK Flexibility Score: 80.00
ROOT
ATOM      1  C   UNL     1      -9.525  28.000  44.253  1.00  0.00     0.048 C 
ATOM      2  C   UNL     1      -8.465  28.696  45.073  1.00  0.00    -0.008 C 
ATOM      3  C   UNL     1      -8.746  29.931  45.541  1.00  0.00     0.007 C 
ENDROOT
BRANCH   2   4
ATOM      4  C   UNL     1      -7.166  27.994  45.235  1.00  0.00     0.159 C 
ATOM      5  O   UNL     1      -6.944  26.962  44.545  1.00  0.00    -0.295 OA
BRANCH   4   6
ATOM      6  C   UNL     1      -6.102  28.437  46.189  1.00  0.00     0.091 CG0
ATOM      7  G   UNL     1      -5.602  29.875  45.920  1.00  0.00     0.000 G0
ENDBRANCH   4   6
ENDBRANCH   2   4
BRANCH   3   8
ATOM      8  C   UNL     1      -7.911  30.859  46.339  1.00  0.00    -0.003 C 
ATOM      9  C   UNL     1      -6.583  30.865  46.509  1.00  0.00    -0.020 C 
BRANCH   9  10
ATOM     10  C   UNL     1      -5.599  29.877  45.928  1.00  0.00    -0.010 CG0
ATOM     11  C   UNL     1      -4.249  30.049  46.661  1.00  0.00     0.016 C 
ATOM     12  C   UNL     1      -5.370  30.179  44.429  1.00  0.00     0.016 C 
ATOM     13  G   UNL     1      -6.100  28.437  46.177  1.00  0.00     0.000 G0
ENDBRANCH   9  10
ENDBRANCH   3   8
TORSDOF 0
ENDMDL
MODEL 8
REMARK VINA RESULT:    -2.613     14.901     15.783
REMARK INTER + INTRA:          -2.483
REMARK INTER:                  -3.239
REMARK INTRA:                   0.756
REMARK UNBOUND:                 0.741
REMARK SMILES CC1=CC=CC(C)(C)CC1=O
REMARK SMILES IDX 1 1 2 2 3 3 10 4 11 5 9 6 4 8 5 9 6 10 7 11 8 12
REMARK H PARENT
REMARK Flexibility Score: 80.00
ROOT
ATOM      1  C   UNL     1     -20.742  20.848  41.999  1.00  0.00     0.048 C 
ATOM      2  C   UNL     1     -20.496  22.140  41.256  1.00  0.00    -0.008 C 
ATOM      3  C   UNL     1     -19.240  22.384  40.825  1.00  0.00     0.007 C 
ENDROOT
BRANCH   2   4
ATOM      4  C   UNL     1     -21.643  23.073  41.125  1.00  0.00     0.159 C 
ATOM      5  O   UNL     1     -22.689  22.848  41.794  1.00  0.00    -0.295 OA
BRANCH   4   6
ATOM      6  C   UNL     1     -21.636  24.269  40.225  1.00  0.00     0.091 CG0
ATOM      7  G   UNL     1     -20.508  25.273  40.556  1.00  0.00     0.000 G0
ENDBRANCH   4   6
ENDBRANCH   2   4
BRANCH   3   8
ATOM      8  C   UNL     1     -18.693  23.557  40.102  1.00  0.00    -0.003 C 
ATOM      9  C   UNL     1     -19.206  24.788  39.983  1.00  0.00    -0.020 C 
BRANCH   9  10
ATOM     10  C   UNL     1     -20.516  25.275  40.554  1.00  0.00    -0.010 CG0
ATOM     11  C   UNL     1     -20.874  26.615  39.873  1.00  0.00     0.016 C 
ATOM     12  C   UNL     1     -20.367  25.534  42.071  1.00  0.00     0.016 C 
ATOM     13  G   UNL     1     -21.634  24.258  40.230  1.00  0.00     0.000 G0
ENDBRANCH   9  10
ENDBRANCH   3   8
TORSDOF 0
ENDMDL
MODEL 9
REMARK VINA RESULT:    -2.603      1.586      2.031
REMARK INTER + INTRA:          -2.471
REMARK INTER:                  -3.220
REMARK INTRA:                   0.749
REMARK UNBOUND:                 0.741
REMARK SMILES CC1=CC=CC(C)(C)CC1=O
REMARK SMILES IDX 1 1 2 2 3 3 10 4 11 5 9 6 4 8 5 9 6 10 7 11 8 12
REMARK H PARENT
REMARK Flexibility Score: 80.00
ROOT
ATOM      1  C   UNL     1      -7.965  27.839  45.218  1.00  0.00     0.048 C 
ATOM      2  C   UNL     1      -6.879  28.857  45.480  1.00  0.00    -0.008 C 
ATOM      3  C   UNL     1      -5.931  28.540  46.387  1.00  0.00     0.007 C 
ENDROOT
BRANCH   2   4
ATOM      4  C   UNL     1      -6.986  30.157  44.771  1.00  0.00     0.159 C 
ATOM      5  O   UNL     1      -8.048  30.420  44.142  1.00  0.00    -0.295 OA
BRANCH   4   6
ATOM      6  C   UNL     1      -5.891  31.177  44.748  1.00  0.00     0.091 CG0
ATOM      7  G   UNL     1      -5.480  31.663  46.156  1.00  0.00     0.000 G0
ENDBRANCH   4   6
ENDBRANCH   2   4
BRANCH   3   8
ATOM      8  C   UNL     1      -4.773  29.330  46.869  1.00  0.00    -0.003 C 
ATOM      9  C   UNL     1      -4.562  30.650  46.792  1.00  0.00    -0.020 C 
BRANCH   9  10
ATOM     10  C   UNL     1      -5.474  31.670  46.152  1.00  0.00    -0.010 CG0
ATOM     11  C   UNL     1      -4.682  32.985  45.973  1.00  0.00     0.016 C 
ATOM     12  C   UNL     1      -6.676  31.959  47.080  1.00  0.00     0.016 C 
ATOM     13  G   UNL     1      -5.906  31.175  44.753  1.00  0.00     0.000 G0
ENDBRANCH   9  10
ENDBRANCH   3   8
TORSDOF 0
ENDMDL
