MODEL 1
REMARK VINA RESULT:     8.384      0.000      0.000
REMARK INTER + INTRA:           9.271
REMARK INTER:                   9.119
REMARK INTRA:                   0.151
REMARK UNBOUND:                 0.151
REMARK SMILES C[C@@H]1[C@H](C)CC[C@@]2(C(=O)[O-])CC[C@]3(C)C(=CC[C@H]4[C@]5(C)CC[C@H](O)C(C)(C)[C@H]5CC[C@]43C)[C@@H]12
REMARK SMILES IDX 7 1 6 2 11 3 33 4 5 5 12 6 15 7 2 8 3 9 13 10 16 11 1 12
REMARK SMILES IDX 4 13 14 14 31 15 17 16 18 17 30 18 32 19 19 20 29 21 28 22
REMARK SMILES IDX 21 23 20 24 25 25 22 26 23 27 26 28 27 29 8 30 9 31 10 32
REMARK SMILES IDX 24 33
REMARK H PARENT 24 34
REMARK Flexibility Score: inf
ROOT
ATOM      1  C   UNL     1     -45.075  27.732  -7.436  1.00  0.00     0.017 C 
ATOM      2  C   UNL     1     -44.343  26.673  -8.323  1.00  0.00     0.014 C 
ATOM      3  C   UNL     1     -46.008  26.901  -6.460  1.00  0.00     0.014 C 
ATOM      4  C   UNL     1     -44.081  28.693  -6.625  1.00  0.00     0.030 C 
ATOM      5  C   UNL     1     -43.045  27.158  -8.955  1.00  0.00     0.004 C 
ATOM      6  C   UNL     1     -46.597  27.637  -5.220  1.00  0.00     0.013 C 
ATOM      7  C   UNL     1     -44.257  28.464  -5.125  1.00  0.00    -0.063 C 
ATOM      8  C   UNL     1     -42.582  28.827  -7.108  1.00  0.00    -0.003 C 
ATOM      9  C   UNL     1     -42.070  27.564  -7.849  1.00  0.00    -0.011 C 
ATOM     10  C   UNL     1     -45.666  28.729  -4.573  1.00  0.00    -0.006 C 
ATOM     11  C   UNL     1     -43.487  27.543  -4.508  1.00  0.00    -0.027 C 
ATOM     12  C   UNL     1     -42.362  30.125  -7.926  1.00  0.00     0.008 C 
ATOM     13  C   UNL     1     -40.642  27.711  -8.402  1.00  0.00     0.008 C 
ATOM     14  C   UNL     1     -46.205  30.117  -5.065  1.00  0.00     0.017 C 
ATOM     15  C   UNL     1     -45.641  28.713  -2.954  1.00  0.00    -0.020 C 
ATOM     16  C   UNL     1     -44.061  26.657  -3.446  1.00  0.00     0.032 C 
ATOM     17  C   UNL     1     -44.858  27.437  -2.371  1.00  0.00     0.006 C 
ATOM     18  C   UNL     1     -44.928  30.014  -2.443  1.00  0.00     0.008 C 
ATOM     19  C   UNL     1     -47.121  28.747  -2.409  1.00  0.00     0.012 C 
ATOM     20  C   UNL     1     -44.009  27.661  -1.030  1.00  0.00    -0.025 C 
ATOM     21  C   UNL     1     -44.744  30.125  -0.916  1.00  0.00     0.005 C 
ATOM     22  C   UNL     1     -44.709  28.770  -0.169  1.00  0.00     0.003 C 
ATOM     23  C   UNL     1     -44.013  26.320  -0.227  1.00  0.00     0.010 C 
ATOM     24  C   UNL     1     -42.529  28.043  -1.356  1.00  0.00     0.012 C 
ATOM     25  C   UNL     1     -44.316  28.882   1.371  1.00  0.00    -0.006 C 
ATOM     26  C   UNL     1     -43.485  26.456   1.203  1.00  0.00     0.033 C 
ATOM     27  C   UNL     1     -44.320  27.459   2.015  1.00  0.00     0.120 C 
ATOM     28  C   UNL     1     -45.385  29.748   2.095  1.00  0.00     0.014 C 
ATOM     29  C   UNL     1     -42.943  29.560   1.673  1.00  0.00     0.014 C 
ENDROOT
BRANCH   1  30
ATOM     30  C   UNL     1     -45.945  28.578  -8.365  1.00  0.00     0.048 C 
ATOM     31  O   UNL     1     -47.124  28.874  -8.035  1.00  0.00    -0.550 OA
ATOM     32  O   UNL     1     -45.442  29.083  -9.560  1.00  0.00    -0.550 OA
ENDBRANCH   1  30
BRANCH  27  33
ATOM     33  O   UNL     1     -45.634  26.964   2.121  1.00  0.00    -0.393 OA
ATOM     34  H   UNL     1     -46.180  27.657   2.574  1.00  0.00     0.210 HD
ENDBRANCH  27  33
TORSDOF 2
ENDMDL
MODEL 2
REMARK VINA RESULT:    10.687      1.906      7.987
REMARK INTER + INTRA:          11.776
REMARK INTER:                  11.932
REMARK INTRA:                  -0.156
REMARK UNBOUND:                 0.151
REMARK SMILES C[C@@H]1[C@H](C)CC[C@@]2(C(=O)[O-])CC[C@]3(C)C(=CC[C@H]4[C@]5(C)CC[C@H](O)C(C)(C)[C@H]5CC[C@]43C)[C@@H]12
REMARK SMILES IDX 7 1 6 2 11 3 33 4 5 5 12 6 15 7 2 8 3 9 13 10 16 11 1 12
REMARK SMILES IDX 4 13 14 14 31 15 17 16 18 17 30 18 32 19 19 20 29 21 28 22
REMARK SMILES IDX 21 23 20 24 25 25 22 26 23 27 26 28 27 29 8 30 9 31 10 32
REMARK SMILES IDX 24 33
REMARK H PARENT 24 34
REMARK Flexibility Score: inf
ROOT
ATOM      1  C   UNL     1     -42.997  27.739   0.174  1.00  0.00     0.017 C 
ATOM      2  C   UNL     1     -43.513  26.679   1.201  1.00  0.00     0.014 C 
ATOM      3  C   UNL     1     -42.297  26.909  -0.981  1.00  0.00     0.014 C 
ATOM      4  C   UNL     1     -44.147  28.697  -0.399  1.00  0.00     0.030 C 
ATOM      5  C   UNL     1     -44.643  27.161   2.101  1.00  0.00     0.004 C 
ATOM      6  C   UNL     1     -41.996  27.646  -2.321  1.00  0.00     0.013 C 
ATOM      7  C   UNL     1     -44.303  28.465  -1.902  1.00  0.00    -0.063 C 
ATOM      8  C   UNL     1     -45.504  28.826   0.400  1.00  0.00    -0.003 C 
ATOM      9  C   UNL     1     -45.838  27.563   1.235  1.00  0.00    -0.011 C 
ATOM     10  C   UNL     1     -43.050  28.734  -2.749  1.00  0.00    -0.006 C 
ATOM     11  C   UNL     1     -45.187  27.542  -2.335  1.00  0.00    -0.027 C 
ATOM     12  C   UNL     1     -45.545  30.124   1.245  1.00  0.00     0.008 C 
ATOM     13  C   UNL     1     -47.111  27.706   2.087  1.00  0.00     0.008 C 
ATOM     14  C   UNL     1     -42.421  30.125  -2.387  1.00  0.00     0.017 C 
ATOM     15  C   UNL     1     -43.429  28.716  -4.323  1.00  0.00    -0.020 C 
ATOM     16  C   UNL     1     -44.856  26.656  -3.496  1.00  0.00     0.032 C 
ATOM     17  C   UNL     1     -44.316  27.437  -4.720  1.00  0.00     0.006 C 
ATOM     18  C   UNL     1     -44.241  30.015  -4.666  1.00  0.00     0.008 C 
ATOM     19  C   UNL     1     -42.104  28.754  -5.179  1.00  0.00     0.012 C 
ATOM     20  C   UNL     1     -45.439  27.657  -5.843  1.00  0.00    -0.025 C 
ATOM     21  C   UNL     1     -44.755  30.123  -6.116  1.00  0.00     0.005 C 
ATOM     22  C   UNL     1     -44.948  28.768  -6.837  1.00  0.00     0.003 C 
ATOM     23  C   UNL     1     -45.607  26.315  -6.626  1.00  0.00     0.010 C 
ATOM     24  C   UNL     1     -46.813  28.036  -5.201  1.00  0.00     0.012 C 
ATOM     25  C   UNL     1     -45.669  28.876  -8.253  1.00  0.00    -0.006 C 
ATOM     26  C   UNL     1     -46.435  26.448  -7.906  1.00  0.00     0.033 C 
ATOM     27  C   UNL     1     -45.802  27.452  -8.882  1.00  0.00     0.120 C 
ATOM     28  C   UNL     1     -44.787  29.744  -9.195  1.00  0.00     0.014 C 
ATOM     29  C   UNL     1     -47.077  29.550  -8.247  1.00  0.00     0.014 C 
ENDROOT
BRANCH   1  30
ATOM     30  C   UNL     1     -41.947  28.588   0.890  1.00  0.00     0.048 C 
ATOM     31  O   UNL     1     -41.072  28.040   1.612  1.00  0.00    -0.550 OA
ATOM     32  O   UNL     1     -41.897  29.969   0.718  1.00  0.00    -0.550 OA
ENDBRANCH   1  30
BRANCH  27  33
ATOM     33  O   UNL     1     -44.541  26.961  -9.273  1.00  0.00    -0.393 OA
ATOM     34  H   UNL     1     -44.341  27.328 -10.173  1.00  0.00     0.210 HD
ENDBRANCH  27  33
TORSDOF 2
ENDMDL
