MODEL 1
REMARK VINA RESULT:    -3.608      0.000      0.000
REMARK INTER + INTRA:          -5.811
REMARK INTER:                  -5.084
REMARK INTRA:                  -0.727
REMARK UNBOUND:                -0.727
REMARK SMILES CCCCCCCCC(=O)[O-]
REMARK SMILES IDX 6 1 7 2 8 3 9 4 10 5 11 6 5 7 4 8 3 9 2 10 1 11
REMARK H PARENT
REMARK Flexibility Score: inf
ROOT
ATOM      1  C   UNL     1     206.607 204.742 158.830  1.00  0.00     0.000 C 
ENDROOT
BRANCH   1   2
ATOM      2  C   UNL     1     205.971 203.396 158.451  1.00  0.00     0.006 C 
BRANCH   2   3
ATOM      3  C   UNL     1     205.963 203.163 156.933  1.00  0.00     0.053 C 
BRANCH   3   4
ATOM      4  C   UNL     1     206.779 201.967 156.550  1.00  0.00     0.041 C 
ATOM      5  O   UNL     1     206.624 200.873 157.156  1.00  0.00    -0.550 OA
ATOM      6  O   UNL     1     207.735 202.068 155.547  1.00  0.00    -0.550 OA
ENDBRANCH   3   4
ENDBRANCH   2   3
ENDBRANCH   1   2
BRANCH   1   7
ATOM      7  C   UNL     1     207.188 205.442 157.594  1.00  0.00     0.000 C 
BRANCH   7   8
ATOM      8  C   UNL     1     206.548 206.815 157.336  1.00  0.00    -0.000 C 
BRANCH   8   9
ATOM      9  C   UNL     1     205.073 206.871 157.772  1.00  0.00    -0.000 C 
BRANCH   9  10
ATOM     10  C   UNL     1     204.118 206.361 156.683  1.00  0.00    -0.003 C 
ATOM     11  C   UNL     1     203.013 205.463 157.239  1.00  0.00     0.004 C 
ENDBRANCH   9  10
ENDBRANCH   8   9
ENDBRANCH   7   8
ENDBRANCH   1   7
TORSDOF 7
ENDMDL
MODEL 2
REMARK VINA RESULT:    -3.604      2.437      3.777
REMARK INTER + INTRA:          -5.806
REMARK INTER:                  -5.176
REMARK INTRA:                  -0.629
REMARK UNBOUND:                -0.727
REMARK SMILES CCCCCCCCC(=O)[O-]
REMARK SMILES IDX 6 1 7 2 8 3 9 4 10 5 11 6 5 7 4 8 3 9 2 10 1 11
REMARK H PARENT
REMARK Flexibility Score: inf
ROOT
ATOM      1  C   UNL     1     205.992 206.021 156.014  1.00  0.00     0.000 C 
ENDROOT
BRANCH   1   2
ATOM      2  C   UNL     1     206.752 204.835 155.399  1.00  0.00     0.006 C 
BRANCH   2   3
ATOM      3  C   UNL     1     207.397 203.941 156.467  1.00  0.00     0.053 C 
BRANCH   3   4
ATOM      4  C   UNL     1     206.508 202.797 156.846  1.00  0.00     0.041 C 
ATOM      5  O   UNL     1     205.753 202.886 157.850  1.00  0.00    -0.550 OA
ATOM      6  O   UNL     1     206.538 201.618 156.111  1.00  0.00    -0.550 OA
ENDBRANCH   3   4
ENDBRANCH   2   3
ENDBRANCH   1   2
BRANCH   1   7
ATOM      7  C   UNL     1     206.772 206.620 157.193  1.00  0.00     0.000 C 
BRANCH   7   8
ATOM      8  C   UNL     1     207.584 207.862 156.795  1.00  0.00    -0.000 C 
BRANCH   8   9
ATOM      9  C   UNL     1     209.080 207.554 156.602  1.00  0.00    -0.000 C 
BRANCH   9  10
ATOM     10  C   UNL     1     209.477 207.471 155.120  1.00  0.00    -0.003 C 
ATOM     11  C   UNL     1     210.887 206.918 154.918  1.00  0.00     0.004 C 
ENDBRANCH   9  10
ENDBRANCH   8   9
ENDBRANCH   7   8
ENDBRANCH   1   7
TORSDOF 7
ENDMDL
MODEL 3
REMARK VINA RESULT:    -3.595      2.635      4.032
REMARK INTER + INTRA:          -5.793
REMARK INTER:                  -5.338
REMARK INTRA:                  -0.455
REMARK UNBOUND:                -0.727
REMARK SMILES CCCCCCCCC(=O)[O-]
REMARK SMILES IDX 6 1 7 2 8 3 9 4 10 5 11 6 5 7 4 8 3 9 2 10 1 11
REMARK H PARENT
REMARK Flexibility Score: inf
ROOT
ATOM      1  C   UNL     1     207.259 204.564 156.270  1.00  0.00     0.000 C 
ENDROOT
BRANCH   1   2
ATOM      2  C   UNL     1     205.890 203.889 156.439  1.00  0.00     0.006 C 
BRANCH   2   3
ATOM      3  C   UNL     1     205.245 204.211 157.794  1.00  0.00     0.053 C 
BRANCH   3   4
ATOM      4  C   UNL     1     205.949 203.524 158.923  1.00  0.00     0.041 C 
ATOM      5  O   UNL     1     206.599 204.195 159.768  1.00  0.00    -0.550 OA
ATOM      6  O   UNL     1     205.916 202.138 159.025  1.00  0.00    -0.550 OA
ENDBRANCH   3   4
ENDBRANCH   2   3
ENDBRANCH   1   2
BRANCH   1   7
ATOM      7  C   UNL     1     207.098 206.034 155.856  1.00  0.00     0.000 C 
BRANCH   7   8
ATOM      8  C   UNL     1     207.619 207.009 156.923  1.00  0.00    -0.000 C 
BRANCH   8   9
ATOM      9  C   UNL     1     209.085 207.417 156.687  1.00  0.00    -0.000 C 
BRANCH   9  10
ATOM     10  C   UNL     1     209.457 207.438 155.197  1.00  0.00    -0.003 C 
ATOM     11  C   UNL     1     210.860 206.891 154.932  1.00  0.00     0.004 C 
ENDBRANCH   9  10
ENDBRANCH   8   9
ENDBRANCH   7   8
ENDBRANCH   1   7
TORSDOF 7
ENDMDL
MODEL 4
REMARK VINA RESULT:    -3.586      1.215      1.694
REMARK INTER + INTRA:          -5.780
REMARK INTER:                  -4.961
REMARK INTRA:                  -0.819
REMARK UNBOUND:                -0.727
REMARK SMILES CCCCCCCCC(=O)[O-]
REMARK SMILES IDX 6 1 7 2 8 3 9 4 10 5 11 6 5 7 4 8 3 9 2 10 1 11
REMARK H PARENT
REMARK Flexibility Score: inf
ROOT
ATOM      1  C   UNL     1     207.748 206.147 156.763  1.00  0.00     0.000 C 
ENDROOT
BRANCH   1   2
ATOM      2  C   UNL     1     208.028 204.642 156.639  1.00  0.00     0.006 C 
BRANCH   2   3
ATOM      3  C   UNL     1     206.908 203.900 155.898  1.00  0.00     0.053 C 
BRANCH   3   4
ATOM      4  C   UNL     1     206.386 202.743 156.693  1.00  0.00     0.041 C 
ATOM      5  O   UNL     1     205.929 202.924 157.852  1.00  0.00    -0.550 OA
ATOM      6  O   UNL     1     206.436 201.457 156.167  1.00  0.00    -0.550 OA
ENDBRANCH   3   4
ENDBRANCH   2   3
ENDBRANCH   1   2
BRANCH   1   7
ATOM      7  C   UNL     1     207.235 206.496 158.167  1.00  0.00     0.000 C 
BRANCH   7   8
ATOM      8  C   UNL     1     205.701 206.498 158.254  1.00  0.00    -0.000 C 
BRANCH   8   9
ATOM      9  C   UNL     1     205.043 207.243 157.078  1.00  0.00    -0.000 C 
BRANCH   9  10
ATOM     10  C   UNL     1     204.074 206.353 156.286  1.00  0.00    -0.003 C 
ATOM     11  C   UNL     1     203.376 205.314 157.163  1.00  0.00     0.004 C 
ENDBRANCH   9  10
ENDBRANCH   8   9
ENDBRANCH   7   8
ENDBRANCH   1   7
TORSDOF 7
ENDMDL
MODEL 5
REMARK VINA RESULT:    -3.523      2.708      3.555
REMARK INTER + INTRA:          -5.691
REMARK INTER:                  -4.854
REMARK INTRA:                  -0.837
REMARK UNBOUND:                -0.727
REMARK SMILES CCCCCCCCC(=O)[O-]
REMARK SMILES IDX 6 1 7 2 8 3 9 4 10 5 11 6 5 7 4 8 3 9 2 10 1 11
REMARK H PARENT
REMARK Flexibility Score: inf
ROOT
ATOM      1  C   UNL     1     205.571 203.468 158.607  1.00  0.00     0.000 C 
ENDROOT
BRANCH   1   2
ATOM      2  C   UNL     1     206.456 204.133 159.672  1.00  0.00     0.006 C 
BRANCH   2   3
ATOM      3  C   UNL     1     206.683 205.625 159.392  1.00  0.00     0.053 C 
BRANCH   3   4
ATOM      4  C   UNL     1     208.131 205.935 159.164  1.00  0.00     0.041 C 
ATOM      5  O   UNL     1     209.015 205.388 159.875  1.00  0.00    -0.550 OA
ATOM      6  O   UNL     1     208.502 206.854 158.190  1.00  0.00    -0.550 OA
ENDBRANCH   3   4
ENDBRANCH   2   3
ENDBRANCH   1   2
BRANCH   1   7
ATOM      7  C   UNL     1     206.364 203.207 157.318  1.00  0.00     0.000 C 
BRANCH   7   8
ATOM      8  C   UNL     1     205.765 203.926 156.100  1.00  0.00    -0.000 C 
BRANCH   8   9
ATOM      9  C   UNL     1     206.596 205.147 155.666  1.00  0.00    -0.000 C 
BRANCH   9  10
ATOM     10  C   UNL     1     205.826 206.468 155.815  1.00  0.00    -0.003 C 
ATOM     11  C   UNL     1     204.416 206.269 156.371  1.00  0.00     0.004 C 
ENDBRANCH   9  10
ENDBRANCH   8   9
ENDBRANCH   7   8
ENDBRANCH   1   7
TORSDOF 7
ENDMDL
MODEL 6
REMARK VINA RESULT:    -3.520      2.577      4.518
REMARK INTER + INTRA:          -5.688
REMARK INTER:                  -4.889
REMARK INTRA:                  -0.798
REMARK UNBOUND:                -0.727
REMARK SMILES CCCCCCCCC(=O)[O-]
REMARK SMILES IDX 6 1 7 2 8 3 9 4 10 5 11 6 5 7 4 8 3 9 2 10 1 11
REMARK H PARENT
REMARK Flexibility Score: inf
ROOT
ATOM      1  C   UNL     1     204.913 206.813 156.123  1.00  0.00     0.000 C 
ENDROOT
BRANCH   1   2
ATOM      2  C   UNL     1     205.904 207.920 156.513  1.00  0.00     0.006 C 
BRANCH   2   3
ATOM      3  C   UNL     1     206.600 207.633 157.850  1.00  0.00     0.053 C 
BRANCH   3   4
ATOM      4  C   UNL     1     208.018 207.191 157.656  1.00  0.00     0.041 C 
ATOM      5  O   UNL     1     208.269 206.109 157.063  1.00  0.00    -0.550 OA
ATOM      6  O   UNL     1     209.062 207.957 158.162  1.00  0.00    -0.550 OA
ENDBRANCH   3   4
ENDBRANCH   2   3
ENDBRANCH   1   2
BRANCH   1   7
ATOM      7  C   UNL     1     204.052 206.399 157.325  1.00  0.00     0.000 C 
BRANCH   7   8
ATOM      8  C   UNL     1     203.998 204.875 157.517  1.00  0.00    -0.000 C 
BRANCH   8   9
ATOM      9  C   UNL     1     205.310 204.181 157.110  1.00  0.00    -0.000 C 
BRANCH   9  10
ATOM     10  C   UNL     1     205.916 203.351 158.252  1.00  0.00    -0.003 C 
ATOM     11  C   UNL     1     206.343 204.209 159.442  1.00  0.00     0.004 C 
ENDBRANCH   9  10
ENDBRANCH   8   9
ENDBRANCH   7   8
ENDBRANCH   1   7
TORSDOF 7
ENDMDL
MODEL 7
REMARK VINA RESULT:    -3.514      2.908      4.102
REMARK INTER + INTRA:          -5.679
REMARK INTER:                  -4.889
REMARK INTRA:                  -0.790
REMARK UNBOUND:                -0.727
REMARK SMILES CCCCCCCCC(=O)[O-]
REMARK SMILES IDX 6 1 7 2 8 3 9 4 10 5 11 6 5 7 4 8 3 9 2 10 1 11
REMARK H PARENT
REMARK Flexibility Score: inf
ROOT
ATOM      1  C   UNL     1     208.181 205.553 159.306  1.00  0.00     0.000 C 
ENDROOT
BRANCH   1   2
ATOM      2  C   UNL     1     208.199 206.608 158.190  1.00  0.00     0.006 C 
BRANCH   2   3
ATOM      3  C   UNL     1     208.245 205.975 156.792  1.00  0.00     0.053 C 
BRANCH   3   4
ATOM      4  C   UNL     1     207.124 206.460 155.925  1.00  0.00     0.041 C 
ATOM      5  O   UNL     1     207.311 206.647 154.694  1.00  0.00    -0.550 OA
ATOM      6  O   UNL     1     205.882 206.737 156.483  1.00  0.00    -0.550 OA
ENDBRANCH   3   4
ENDBRANCH   2   3
ENDBRANCH   1   2
BRANCH   1   7
ATOM      7  C   UNL     1     206.744 205.250 159.752  1.00  0.00     0.000 C 
BRANCH   7   8
ATOM      8  C   UNL     1     206.333 203.796 159.474  1.00  0.00    -0.000 C 
BRANCH   8   9
ATOM      9  C   UNL     1     205.604 203.634 158.128  1.00  0.00    -0.000 C 
BRANCH   9  10
ATOM     10  C   UNL     1     206.297 202.626 157.200  1.00  0.00    -0.003 C 
ATOM     11  C   UNL     1     206.075 202.935 155.720  1.00  0.00     0.004 C 
ENDBRANCH   9  10
ENDBRANCH   8   9
ENDBRANCH   7   8
ENDBRANCH   1   7
TORSDOF 7
ENDMDL
MODEL 8
REMARK VINA RESULT:    -3.484      1.928      2.516
REMARK INTER + INTRA:          -5.637
REMARK INTER:                  -4.767
REMARK INTRA:                  -0.870
REMARK UNBOUND:                -0.727
REMARK SMILES CCCCCCCCC(=O)[O-]
REMARK SMILES IDX 6 1 7 2 8 3 9 4 10 5 11 6 5 7 4 8 3 9 2 10 1 11
REMARK H PARENT
REMARK Flexibility Score: inf
ROOT
ATOM      1  C   UNL     1     206.358 203.808 159.393  1.00  0.00     0.000 C 
ENDROOT
BRANCH   1   2
ATOM      2  C   UNL     1     205.644 203.756 158.033  1.00  0.00     0.006 C 
BRANCH   2   3
ATOM      3  C   UNL     1     206.340 202.808 157.046  1.00  0.00     0.053 C 
BRANCH   3   4
ATOM      4  C   UNL     1     207.123 203.558 156.012  1.00  0.00     0.041 C 
ATOM      5  O   UNL     1     206.541 204.041 155.005  1.00  0.00    -0.550 OA
ATOM      6  O   UNL     1     208.499 203.694 156.143  1.00  0.00    -0.550 OA
ENDBRANCH   3   4
ENDBRANCH   2   3
ENDBRANCH   1   2
BRANCH   1   7
ATOM      7  C   UNL     1     206.731 205.250 159.762  1.00  0.00     0.000 C 
BRANCH   7   8
ATOM      8  C   UNL     1     208.152 205.627 159.316  1.00  0.00    -0.000 C 
BRANCH   8   9
ATOM      9  C   UNL     1     208.159 206.575 158.103  1.00  0.00    -0.000 C 
BRANCH   9  10
ATOM     10  C   UNL     1     206.843 207.354 157.957  1.00  0.00    -0.003 C 
ATOM     11  C   UNL     1     206.228 207.217 156.564  1.00  0.00     0.004 C 
ENDBRANCH   9  10
ENDBRANCH   8   9
ENDBRANCH   7   8
ENDBRANCH   1   7
TORSDOF 7
ENDMDL
MODEL 9
REMARK VINA RESULT:    -3.478      1.838      3.317
REMARK INTER + INTRA:          -5.628
REMARK INTER:                  -4.812
REMARK INTRA:                  -0.816
REMARK UNBOUND:                -0.727
REMARK SMILES CCCCCCCCC(=O)[O-]
REMARK SMILES IDX 6 1 7 2 8 3 9 4 10 5 11 6 5 7 4 8 3 9 2 10 1 11
REMARK H PARENT
REMARK Flexibility Score: inf
ROOT
ATOM      1  C   UNL     1     204.092 206.371 157.396  1.00  0.00     0.000 C 
ENDROOT
BRANCH   1   2
ATOM      2  C   UNL     1     203.926 204.848 157.502  1.00  0.00     0.006 C 
BRANCH   2   3
ATOM      3  C   UNL     1     205.256 204.103 157.326  1.00  0.00     0.053 C 
BRANCH   3   4
ATOM      4  C   UNL     1     205.783 203.589 158.631  1.00  0.00     0.041 C 
ATOM      5  O   UNL     1     206.191 204.392 159.510  1.00  0.00    -0.550 OA
ATOM      6  O   UNL     1     205.854 202.220 158.862  1.00  0.00    -0.550 OA
ENDBRANCH   3   4
ENDBRANCH   2   3
ENDBRANCH   1   2
BRANCH   1   7
ATOM      7  C   UNL     1     204.850 206.753 156.116  1.00  0.00     0.000 C 
BRANCH   7   8
ATOM      8  C   UNL     1     206.041 207.685 156.390  1.00  0.00    -0.000 C 
BRANCH   8   9
ATOM      9  C   UNL     1     206.540 207.596 157.843  1.00  0.00    -0.000 C 
BRANCH   9  10
ATOM     10  C   UNL     1     208.023 207.203 157.933  1.00  0.00    -0.003 C 
ATOM     11  C   UNL     1     208.380 206.035 157.016  1.00  0.00     0.004 C 
ENDBRANCH   9  10
ENDBRANCH   8   9
ENDBRANCH   7   8
ENDBRANCH   1   7
TORSDOF 7
ENDMDL
