MODEL 1
REMARK VINA RESULT:    -4.899      0.000      0.000
REMARK INTER + INTRA:          -6.197
REMARK INTER:                  -6.045
REMARK INTRA:                  -0.152
REMARK UNBOUND:                -0.152
REMARK SMILES CCCCC=CC(C)=O
REMARK SMILES IDX 4 1 3 2 2 3 1 4 5 5 6 6 7 7 9 8 8 9
REMARK H PARENT
REMARK Flexibility Score: inf
ROOT
ATOM      1  C   UNL     1      48.272   1.377  17.099  1.00  0.00     0.027 C 
ENDROOT
BRANCH   1   2
ATOM      2  C   UNL     1      48.323   1.197  18.623  1.00  0.00     0.004 C 
BRANCH   2   3
ATOM      3  C   UNL     1      47.549   2.299  19.362  1.00  0.00    -0.003 C 
ATOM      4  C   UNL     1      46.288   2.691  18.599  1.00  0.00     0.004 C 
ENDBRANCH   2   3
ENDBRANCH   1   2
BRANCH   1   5
ATOM      5  C   UNL     1      49.239   2.420  16.612  1.00  0.00    -0.023 C 
ATOM      6  C   UNL     1      49.282   2.789  15.327  1.00  0.00     0.042 C 
BRANCH   6   7
ATOM      7  C   UNL     1      50.219   3.814  14.831  1.00  0.00     0.152 C 
ATOM      8  O   UNL     1      50.251   4.964  15.349  1.00  0.00    -0.295 OA
ATOM      9  C   UNL     1      51.144   3.487  13.704  1.00  0.00     0.093 C 
ENDBRANCH   6   7
ENDBRANCH   1   5
TORSDOF 4
ENDMDL
MODEL 2
REMARK VINA RESULT:    -4.648      0.644      1.161
REMARK INTER + INTRA:          -5.887
REMARK INTER:                  -5.717
REMARK INTRA:                  -0.170
REMARK UNBOUND:                -0.152
REMARK SMILES CCCCC=CC(C)=O
REMARK SMILES IDX 4 1 3 2 2 3 1 4 5 5 6 6 7 7 9 8 8 9
REMARK H PARENT
REMARK Flexibility Score: inf
ROOT
ATOM      1  C   UNL     1      47.998   1.651  16.934  1.00  0.00     0.027 C 
ENDROOT
BRANCH   1   2
ATOM      2  C   UNL     1      46.647   2.372  17.059  1.00  0.00     0.004 C 
BRANCH   2   3
ATOM      3  C   UNL     1      46.338   2.776  18.509  1.00  0.00    -0.003 C 
ATOM      4  C   UNL     1      47.255   2.050  19.488  1.00  0.00     0.004 C 
ENDBRANCH   2   3
ENDBRANCH   1   2
BRANCH   1   5
ATOM      5  C   UNL     1      49.074   2.542  16.379  1.00  0.00    -0.023 C 
ATOM      6  C   UNL     1      49.058   2.946  15.104  1.00  0.00     0.042 C 
BRANCH   6   7
ATOM      7  C   UNL     1      50.101   3.824  14.542  1.00  0.00     0.152 C 
ATOM      8  O   UNL     1      50.092   5.065  14.769  1.00  0.00    -0.295 OA
ATOM      9  C   UNL     1      51.185   3.238  13.696  1.00  0.00     0.093 C 
ENDBRANCH   6   7
ENDBRANCH   1   5
TORSDOF 4
ENDMDL
MODEL 3
REMARK VINA RESULT:    -4.632      2.702      3.039
REMARK INTER + INTRA:          -5.867
REMARK INTER:                  -5.589
REMARK INTRA:                  -0.278
REMARK UNBOUND:                -0.152
REMARK SMILES CCCCC=CC(C)=O
REMARK SMILES IDX 4 1 3 2 2 3 1 4 5 5 6 6 7 7 9 8 8 9
REMARK H PARENT
REMARK Flexibility Score: inf
ROOT
ATOM      1  C   UNL     1      48.168   1.361  18.432  1.00  0.00     0.027 C 
ENDROOT
BRANCH   1   2
ATOM      2  C   UNL     1      47.208   2.048  19.415  1.00  0.00     0.004 C 
BRANCH   2   3
ATOM      3  C   UNL     1      46.206   2.967  18.700  1.00  0.00    -0.003 C 
ATOM      4  C   UNL     1      46.127   2.641  17.212  1.00  0.00     0.004 C 
ENDBRANCH   2   3
ENDBRANCH   1   2
BRANCH   1   5
ATOM      5  C   UNL     1      49.603   1.733  18.677  1.00  0.00    -0.023 C 
ATOM      6  C   UNL     1      50.074   2.947  18.368  1.00  0.00     0.042 C 
BRANCH   6   7
ATOM      7  C   UNL     1      51.477   3.332  18.606  1.00  0.00     0.152 C 
ATOM      8  O   UNL     1      51.828   4.544  18.580  1.00  0.00    -0.295 OA
ATOM      9  C   UNL     1      52.498   2.276  18.885  1.00  0.00     0.093 C 
ENDBRANCH   6   7
ENDBRANCH   1   5
TORSDOF 4
ENDMDL
MODEL 4
REMARK VINA RESULT:    -4.622      2.783      4.421
REMARK INTER + INTRA:          -5.855
REMARK INTER:                  -5.633
REMARK INTRA:                  -0.222
REMARK UNBOUND:                -0.152
REMARK SMILES CCCCC=CC(C)=O
REMARK SMILES IDX 4 1 3 2 2 3 1 4 5 5 6 6 7 7 9 8 8 9
REMARK H PARENT
REMARK Flexibility Score: inf
ROOT
ATOM      1  C   UNL     1      47.444   1.974  19.394  1.00  0.00     0.027 C 
ENDROOT
BRANCH   1   2
ATOM      2  C   UNL     1      48.613   1.452  18.545  1.00  0.00     0.004 C 
BRANCH   2   3
ATOM      3  C   UNL     1      48.175   1.090  17.118  1.00  0.00    -0.003 C 
ATOM      4  C   UNL     1      48.779   2.049  16.097  1.00  0.00     0.004 C 
ENDBRANCH   2   3
ENDBRANCH   1   2
BRANCH   1   5
ATOM      5  C   UNL     1      47.239   3.455  19.239  1.00  0.00    -0.023 C 
ATOM      6  C   UNL     1      48.102   4.338  19.755  1.00  0.00     0.042 C 
BRANCH   6   7
ATOM      7  C   UNL     1      47.920   5.794  19.609  1.00  0.00     0.152 C 
ATOM      8  O   UNL     1      46.830   6.270  19.188  1.00  0.00    -0.295 OA
ATOM      9  C   UNL     1      49.039   6.718  19.966  1.00  0.00     0.093 C 
ENDBRANCH   6   7
ENDBRANCH   1   5
TORSDOF 4
ENDMDL
MODEL 5
REMARK VINA RESULT:    -4.350      3.383      3.631
REMARK INTER + INTRA:          -5.520
REMARK INTER:                  -5.409
REMARK INTRA:                  -0.110
REMARK UNBOUND:                -0.152
REMARK SMILES CCCCC=CC(C)=O
REMARK SMILES IDX 4 1 3 2 2 3 1 4 5 5 6 6 7 7 9 8 8 9
REMARK H PARENT
REMARK Flexibility Score: inf
ROOT
ATOM      1  C   UNL     1      48.990   2.830  18.964  1.00  0.00     0.027 C 
ENDROOT
BRANCH   1   2
ATOM      2  C   UNL     1      47.778   1.885  18.986  1.00  0.00     0.004 C 
BRANCH   2   3
ATOM      3  C   UNL     1      46.451   2.643  18.826  1.00  0.00    -0.003 C 
ATOM      4  C   UNL     1      46.036   2.721  17.360  1.00  0.00     0.004 C 
ENDBRANCH   2   3
ENDBRANCH   1   2
BRANCH   1   5
ATOM      5  C   UNL     1      50.276   2.105  18.685  1.00  0.00    -0.023 C 
ATOM      6  C   UNL     1      51.465   2.689  18.879  1.00  0.00     0.042 C 
BRANCH   6   7
ATOM      7  C   UNL     1      52.737   1.993  18.616  1.00  0.00     0.152 C 
ATOM      8  O   UNL     1      53.035   0.935  19.236  1.00  0.00    -0.295 OA
ATOM      9  C   UNL     1      53.686   2.544  17.601  1.00  0.00     0.093 C 
ENDBRANCH   6   7
ENDBRANCH   1   5
TORSDOF 4
ENDMDL
MODEL 6
REMARK VINA RESULT:    -4.276      2.139      5.000
REMARK INTER + INTRA:          -5.428
REMARK INTER:                  -5.243
REMARK INTRA:                  -0.185
REMARK UNBOUND:                -0.152
REMARK SMILES CCCCC=CC(C)=O
REMARK SMILES IDX 4 1 3 2 2 3 1 4 5 5 6 6 7 7 9 8 8 9
REMARK H PARENT
REMARK Flexibility Score: inf
ROOT
ATOM      1  C   UNL     1      48.893   1.765  15.369  1.00  0.00     0.027 C 
ENDROOT
BRANCH   1   2
ATOM      2  C   UNL     1      48.898   3.123  14.651  1.00  0.00     0.004 C 
BRANCH   2   3
ATOM      3  C   UNL     1      50.237   3.859  14.816  1.00  0.00    -0.003 C 
ATOM      4  C   UNL     1      51.183   3.543  13.662  1.00  0.00     0.004 C 
ENDBRANCH   2   3
ENDBRANCH   1   2
BRANCH   1   5
ATOM      5  C   UNL     1      48.363   1.860  16.772  1.00  0.00    -0.023 C 
ATOM      6  C   UNL     1      47.192   2.449  17.040  1.00  0.00     0.042 C 
BRANCH   6   7
ATOM      7  C   UNL     1      46.654   2.548  18.409  1.00  0.00     0.152 C 
ATOM      8  O   UNL     1      45.552   3.122  18.630  1.00  0.00    -0.295 OA
ATOM      9  C   UNL     1      47.419   1.957  19.549  1.00  0.00     0.093 C 
ENDBRANCH   6   7
ENDBRANCH   1   5
TORSDOF 4
ENDMDL
MODEL 7
REMARK VINA RESULT:    -4.220      1.984      5.349
REMARK INTER + INTRA:          -5.358
REMARK INTER:                  -5.249
REMARK INTRA:                  -0.110
REMARK UNBOUND:                -0.152
REMARK SMILES CCCCC=CC(C)=O
REMARK SMILES IDX 4 1 3 2 2 3 1 4 5 5 6 6 7 7 9 8 8 9
REMARK H PARENT
REMARK Flexibility Score: inf
ROOT
ATOM      1  C   UNL     1      49.238   2.895  14.761  1.00  0.00     0.027 C 
ENDROOT
BRANCH   1   2
ATOM      2  C   UNL     1      50.233   4.010  14.407  1.00  0.00     0.004 C 
BRANCH   2   3
ATOM      3  C   UNL     1      51.534   3.456  13.806  1.00  0.00    -0.003 C 
ATOM      4  C   UNL     1      51.836   4.102  12.458  1.00  0.00     0.004 C 
ENDBRANCH   2   3
ENDBRANCH   1   2
BRANCH   1   5
ATOM      5  C   UNL     1      49.065   2.731  16.244  1.00  0.00    -0.023 C 
ATOM      6  C   UNL     1      48.539   1.617  16.769  1.00  0.00     0.042 C 
BRANCH   6   7
ATOM      7  C   UNL     1      48.366   1.435  18.221  1.00  0.00     0.152 C 
ATOM      8  O   UNL     1      49.207   0.778  18.895  1.00  0.00    -0.295 OA
ATOM      9  C   UNL     1      47.183   2.038  18.907  1.00  0.00     0.093 C 
ENDBRANCH   6   7
ENDBRANCH   1   5
TORSDOF 4
ENDMDL
MODEL 8
REMARK VINA RESULT:    -4.217      1.197      1.412
REMARK INTER + INTRA:          -5.356
REMARK INTER:                  -5.158
REMARK INTRA:                  -0.197
REMARK UNBOUND:                -0.152
REMARK SMILES CCCCC=CC(C)=O
REMARK SMILES IDX 4 1 3 2 2 3 1 4 5 5 6 6 7 7 9 8 8 9
REMARK H PARENT
REMARK Flexibility Score: inf
ROOT
ATOM      1  C   UNL     1      49.527   2.294  18.626  1.00  0.00     0.027 C 
ENDROOT
BRANCH   1   2
ATOM      2  C   UNL     1      48.301   1.377  18.755  1.00  0.00     0.004 C 
BRANCH   2   3
ATOM      3  C   UNL     1      47.091   2.111  19.352  1.00  0.00    -0.003 C 
ATOM      4  C   UNL     1      46.248   2.762  18.260  1.00  0.00     0.004 C 
ENDBRANCH   2   3
ENDBRANCH   1   2
BRANCH   1   5
ATOM      5  C   UNL     1      49.881   2.580  17.194  1.00  0.00    -0.023 C 
ATOM      6  C   UNL     1      50.603   3.654  16.852  1.00  0.00     0.042 C 
BRANCH   6   7
ATOM      7  C   UNL     1      50.964   3.948  15.453  1.00  0.00     0.152 C 
ATOM      8  O   UNL     1      52.145   4.267  15.145  1.00  0.00    -0.295 OA
ATOM      9  C   UNL     1      49.921   3.865  14.386  1.00  0.00     0.093 C 
ENDBRANCH   6   7
ENDBRANCH   1   5
TORSDOF 4
ENDMDL
MODEL 9
REMARK VINA RESULT:    -3.969      2.831      3.835
REMARK INTER + INTRA:          -5.050
REMARK INTER:                  -4.782
REMARK INTRA:                  -0.268
REMARK UNBOUND:                -0.152
REMARK SMILES CCCCC=CC(C)=O
REMARK SMILES IDX 4 1 3 2 2 3 1 4 5 5 6 6 7 7 9 8 8 9
REMARK H PARENT
REMARK Flexibility Score: inf
ROOT
ATOM      1  C   UNL     1      49.544   1.986  18.050  1.00  0.00     0.027 C 
ENDROOT
BRANCH   1   2
ATOM      2  C   UNL     1      48.180   1.291  18.175  1.00  0.00     0.004 C 
BRANCH   2   3
ATOM      3  C   UNL     1      47.254   2.008  19.169  1.00  0.00    -0.003 C 
ATOM      4  C   UNL     1      46.169   2.794  18.440  1.00  0.00     0.004 C 
ENDBRANCH   2   3
ENDBRANCH   1   2
BRANCH   1   5
ATOM      5  C   UNL     1      49.745   3.047  19.096  1.00  0.00    -0.023 C 
ATOM      6  C   UNL     1      50.282   4.235  18.794  1.00  0.00     0.042 C 
BRANCH   6   7
ATOM      7  C   UNL     1      50.482   5.290  19.805  1.00  0.00     0.152 C 
ATOM      8  O   UNL     1      51.095   6.353  19.516  1.00  0.00    -0.295 OA
ATOM      9  C   UNL     1      49.948   5.099  21.188  1.00  0.00     0.093 C 
ENDBRANCH   6   7
ENDBRANCH   1   5
TORSDOF 4
ENDMDL
