MODEL 1
REMARK VINA RESULT:    -7.089      0.000      0.000
REMARK INTER + INTRA:          -8.684
REMARK INTER:                  -8.539
REMARK INTRA:                  -0.145
REMARK UNBOUND:                -0.145
REMARK SMILES O=c1c(O)c(-c2ccc(O)c(O)c2)oc2cc(O)cc(O)c12
REMARK SMILES IDX 5 1 3 2 2 3 1 4 22 5 20 6 19 7 17 8 16 9 15 10 14 11 6 12
REMARK SMILES IDX 7 13 8 14 9 15 13 16 11 17 10 18 12 20 4 22 21 24 18 26
REMARK H PARENT 10 19 12 21 4 23 21 25 18 27
REMARK Flexibility Score: inf
ROOT
ATOM      1  C   UNL     1      15.445  21.165 -12.548  1.00  0.00     0.180 A 
ATOM      2  C   UNL     1      16.600  21.250 -11.753  1.00  0.00     0.208 A 
ATOM      3  C   UNL     1      17.796  21.701 -12.334  1.00  0.00     0.238 A 
ATOM      4  O   UNL     1      18.843  21.704 -11.634  1.00  0.00    -0.285 OA
ATOM      5  C   UNL     1      17.811  22.113 -13.689  1.00  0.00     0.111 A 
ATOM      6  C   UNL     1      18.956  22.630 -14.369  1.00  0.00     0.134 A 
ATOM      7  C   UNL     1      18.878  22.905 -15.740  1.00  0.00     0.093 A 
ATOM      8  C   UNL     1      17.683  22.746 -16.440  1.00  0.00     0.123 A 
ATOM      9  C   UNL     1      16.544  22.295 -15.774  1.00  0.00     0.094 A 
ATOM     10  C   UNL     1      16.599  21.974 -14.415  1.00  0.00     0.146 A 
ATOM     11  O   UNL     1      15.498  21.527 -13.825  1.00  0.00    -0.452 OA
ENDROOT
BRANCH   1  12
ATOM     12  C   UNL     1      14.151  20.685 -12.011  1.00  0.00     0.025 A 
ATOM     13  C   UNL     1      13.486  21.371 -10.980  1.00  0.00     0.016 A 
ATOM     14  C   UNL     1      12.278  20.886 -10.474  1.00  0.00     0.051 A 
ATOM     15  C   UNL     1      11.725  19.702 -10.980  1.00  0.00     0.157 A 
ATOM     16  C   UNL     1      13.602  19.487 -12.500  1.00  0.00     0.062 A 
ATOM     17  C   UNL     1      12.390  19.000 -11.992  1.00  0.00     0.158 A 
BRANCH  15  18
ATOM     18  O   UNL     1      10.519  19.215 -10.479  1.00  0.00    -0.504 OA
ATOM     19  H   UNL     1       9.832  18.777 -11.082  1.00  0.00     0.293 HD
ENDBRANCH  15  18
BRANCH  17  20
ATOM     20  O   UNL     1      11.842  17.819 -12.488  1.00  0.00    -0.504 OA
ATOM     21  H   UNL     1      12.025  16.924 -12.050  1.00  0.00     0.293 HD
ENDBRANCH  17  20
ENDBRANCH   1  12
BRANCH   2  22
ATOM     22  O   UNL     1      16.548  20.911 -10.398  1.00  0.00    -0.502 OA
ATOM     23  H   UNL     1      17.317  21.088  -9.762  1.00  0.00     0.293 HD
ENDBRANCH   2  22
BRANCH   6  24
ATOM     24  O   UNL     1      20.176  22.911 -13.746  1.00  0.00    -0.507 OA
ATOM     25  H   UNL     1      21.020  22.372 -13.859  1.00  0.00     0.293 HD
ENDBRANCH   6  24
BRANCH   8  26
ATOM     26  O   UNL     1      17.638  23.047 -17.800  1.00  0.00    -0.508 OA
ATOM     27  H   UNL     1      17.431  23.982 -18.129  1.00  0.00     0.293 HD
ENDBRANCH   8  26
TORSDOF 6
ENDMDL
MODEL 2
REMARK VINA RESULT:    -7.041      0.573      1.415
REMARK INTER + INTRA:          -8.626
REMARK INTER:                  -8.437
REMARK INTRA:                  -0.189
REMARK UNBOUND:                -0.145
REMARK SMILES O=c1c(O)c(-c2ccc(O)c(O)c2)oc2cc(O)cc(O)c12
REMARK SMILES IDX 5 1 3 2 2 3 1 4 22 5 20 6 19 7 17 8 16 9 15 10 14 11 6 12
REMARK SMILES IDX 7 13 8 14 9 15 13 16 11 17 10 18 12 20 4 22 21 24 18 26
REMARK H PARENT 10 19 12 21 4 23 21 25 18 27
REMARK Flexibility Score: inf
ROOT
ATOM      1  C   UNL     1      15.486  20.967 -12.683  1.00  0.00     0.180 A 
ATOM      2  C   UNL     1      16.617  21.133 -11.866  1.00  0.00     0.208 A 
ATOM      3  C   UNL     1      17.780  21.693 -12.418  1.00  0.00     0.238 A 
ATOM      4  O   UNL     1      18.811  21.771 -11.700  1.00  0.00    -0.285 OA
ATOM      5  C   UNL     1      17.781  22.131 -13.765  1.00  0.00     0.111 A 
ATOM      6  C   UNL     1      18.890  22.754 -14.416  1.00  0.00     0.134 A 
ATOM      7  C   UNL     1      18.811  23.048 -15.783  1.00  0.00     0.093 A 
ATOM      8  C   UNL     1      17.645  22.803 -16.507  1.00  0.00     0.123 A 
ATOM      9  C   UNL     1      16.537  22.246 -15.868  1.00  0.00     0.094 A 
ATOM     10  C   UNL     1      16.597  21.905 -14.514  1.00  0.00     0.146 A 
ATOM     11  O   UNL     1      15.528  21.356 -13.952  1.00  0.00    -0.452 OA
ENDROOT
BRANCH   1  12
ATOM     12  C   UNL     1      14.228  20.371 -12.177  1.00  0.00     0.025 A 
ATOM     13  C   UNL     1      13.757  19.137 -12.658  1.00  0.00     0.016 A 
ATOM     14  C   UNL     1      12.556  18.606 -12.182  1.00  0.00     0.051 A 
ATOM     15  C   UNL     1      11.801  19.306 -11.232  1.00  0.00     0.157 A 
ATOM     16  C   UNL     1      13.457  21.079 -11.240  1.00  0.00     0.062 A 
ATOM     17  C   UNL     1      12.251  20.546 -10.762  1.00  0.00     0.158 A 
BRANCH  15  18
ATOM     18  O   UNL     1      10.602  18.780 -10.754  1.00  0.00    -0.504 OA
ATOM     19  H   UNL     1      10.460  17.779 -10.667  1.00  0.00     0.293 HD
ENDBRANCH  15  18
BRANCH  17  20
ATOM     20  O   UNL     1      11.495  21.245  -9.823  1.00  0.00    -0.504 OA
ATOM     21  H   UNL     1      10.536  21.515 -10.008  1.00  0.00     0.293 HD
ENDBRANCH  17  20
ENDBRANCH   1  12
BRANCH   2  22
ATOM     22  O   UNL     1      16.571  20.765 -10.518  1.00  0.00    -0.502 OA
ATOM     23  H   UNL     1      16.661  19.804 -10.213  1.00  0.00     0.293 HD
ENDBRANCH   2  22
BRANCH   6  24
ATOM     24  O   UNL     1      20.072  23.125 -13.767  1.00  0.00    -0.507 OA
ATOM     25  H   UNL     1      20.716  23.827 -14.097  1.00  0.00     0.293 HD
ENDBRANCH   6  24
BRANCH   8  26
ATOM     26  O   UNL     1      17.597  23.125 -17.861  1.00  0.00    -0.508 OA
ATOM     27  H   UNL     1      17.419  24.071 -18.176  1.00  0.00     0.293 HD
ENDBRANCH   8  26
TORSDOF 6
ENDMDL
MODEL 3
REMARK VINA RESULT:    -6.716      1.381      6.706
REMARK INTER + INTRA:          -8.235
REMARK INTER:                  -8.264
REMARK INTRA:                   0.029
REMARK UNBOUND:                -0.145
REMARK SMILES O=c1c(O)c(-c2ccc(O)c(O)c2)oc2cc(O)cc(O)c12
REMARK SMILES IDX 5 1 3 2 2 3 1 4 22 5 20 6 19 7 17 8 16 9 15 10 14 11 6 12
REMARK SMILES IDX 7 13 8 14 9 15 13 16 11 17 10 18 12 20 4 22 21 24 18 26
REMARK H PARENT 10 19 12 21 4 23 21 25 18 27
REMARK Flexibility Score: inf
ROOT
ATOM      1  C   UNL     1      15.864  21.459 -12.921  1.00  0.00     0.180 A 
ATOM      2  C   UNL     1      15.810  22.106 -11.675  1.00  0.00     0.208 A 
ATOM      3  C   UNL     1      14.846  21.700 -10.738  1.00  0.00     0.238 A 
ATOM      4  O   UNL     1      14.757  22.333  -9.653  1.00  0.00    -0.285 OA
ATOM      5  C   UNL     1      13.985  20.616 -11.036  1.00  0.00     0.111 A 
ATOM      6  C   UNL     1      13.002  20.091 -10.143  1.00  0.00     0.134 A 
ATOM      7  C   UNL     1      12.134  19.085 -10.587  1.00  0.00     0.093 A 
ATOM      8  C   UNL     1      12.255  18.541 -11.865  1.00  0.00     0.123 A 
ATOM      9  C   UNL     1      13.248  19.008 -12.725  1.00  0.00     0.094 A 
ATOM     10  C   UNL     1      14.104  20.038 -12.327  1.00  0.00     0.146 A 
ATOM     11  O   UNL     1      15.020  20.468 -13.185  1.00  0.00    -0.452 OA
ENDROOT
BRANCH   1  12
ATOM     12  C   UNL     1      16.841  21.841 -13.966  1.00  0.00     0.025 A 
ATOM     13  C   UNL     1      18.206  21.994 -13.672  1.00  0.00     0.016 A 
ATOM     14  C   UNL     1      19.105  22.378 -14.670  1.00  0.00     0.051 A 
ATOM     15  C   UNL     1      18.651  22.628 -15.972  1.00  0.00     0.157 A 
ATOM     16  C   UNL     1      16.388  22.113 -15.269  1.00  0.00     0.062 A 
ATOM     17  C   UNL     1      17.290  22.498 -16.271  1.00  0.00     0.158 A 
BRANCH  15  18
ATOM     18  O   UNL     1      19.545  23.009 -16.970  1.00  0.00    -0.504 OA
ATOM     19  H   UNL     1      19.864  22.354 -17.675  1.00  0.00     0.293 HD
ENDBRANCH  15  18
BRANCH  17  20
ATOM     20  O   UNL     1      16.839  22.754 -17.564  1.00  0.00    -0.504 OA
ATOM     21  H   UNL     1      16.884  22.050 -18.291  1.00  0.00     0.293 HD
ENDBRANCH  17  20
ENDBRANCH   1  12
BRANCH   2  22
ATOM     22  O   UNL     1      16.719  23.123 -11.370  1.00  0.00    -0.502 OA
ATOM     23  H   UNL     1      17.196  23.177 -10.478  1.00  0.00     0.293 HD
ENDBRANCH   2  22
BRANCH   6  24
ATOM     24  O   UNL     1      12.852  20.499  -8.814  1.00  0.00    -0.507 OA
ATOM     25  H   UNL     1      12.652  21.442  -8.518  1.00  0.00     0.293 HD
ENDBRANCH   6  24
BRANCH   8  26
ATOM     26  O   UNL     1      11.385  17.529 -12.266  1.00  0.00    -0.508 OA
ATOM     27  H   UNL     1      10.927  17.551 -13.169  1.00  0.00     0.293 HD
ENDBRANCH   8  26
TORSDOF 6
ENDMDL
MODEL 4
REMARK VINA RESULT:    -6.465      1.320      6.822
REMARK INTER + INTRA:          -7.933
REMARK INTER:                  -7.968
REMARK INTRA:                   0.035
REMARK UNBOUND:                -0.145
REMARK SMILES O=c1c(O)c(-c2ccc(O)c(O)c2)oc2cc(O)cc(O)c12
REMARK SMILES IDX 5 1 3 2 2 3 1 4 22 5 20 6 19 7 17 8 16 9 15 10 14 11 6 12
REMARK SMILES IDX 7 13 8 14 9 15 13 16 11 17 10 18 12 20 4 22 21 24 18 26
REMARK H PARENT 10 19 12 21 4 23 21 25 18 27
REMARK Flexibility Score: inf
ROOT
ATOM      1  C   UNL     1      15.700  21.466 -12.805  1.00  0.00     0.180 A 
ATOM      2  C   UNL     1      15.643  22.073 -11.539  1.00  0.00     0.208 A 
ATOM      3  C   UNL     1      14.709  21.605 -10.601  1.00  0.00     0.238 A 
ATOM      4  O   UNL     1      14.614  22.202  -9.496  1.00  0.00    -0.285 OA
ATOM      5  C   UNL     1      13.883  20.500 -10.919  1.00  0.00     0.111 A 
ATOM      6  C   UNL     1      12.933  19.914 -10.028  1.00  0.00     0.134 A 
ATOM      7  C   UNL     1      12.094  18.891 -10.489  1.00  0.00     0.093 A 
ATOM      8  C   UNL     1      12.215  18.390 -11.785  1.00  0.00     0.123 A 
ATOM      9  C   UNL     1      13.177  18.918 -12.645  1.00  0.00     0.094 A 
ATOM     10  C   UNL     1      14.002  19.965 -12.228  1.00  0.00     0.146 A 
ATOM     11  O   UNL     1      14.889  20.453 -13.086  1.00  0.00    -0.452 OA
ENDROOT
BRANCH   1  12
ATOM     12  C   UNL     1      16.647  21.913 -13.852  1.00  0.00     0.025 A 
ATOM     13  C   UNL     1      16.222  22.153 -15.171  1.00  0.00     0.016 A 
ATOM     14  C   UNL     1      17.138  22.552 -16.147  1.00  0.00     0.051 A 
ATOM     15  C   UNL     1      18.493  22.703 -15.824  1.00  0.00     0.157 A 
ATOM     16  C   UNL     1      18.011  22.046 -13.539  1.00  0.00     0.062 A 
ATOM     17  C   UNL     1      18.931  22.446 -14.519  1.00  0.00     0.158 A 
BRANCH  15  18
ATOM     18  O   UNL     1      19.411  23.101 -16.794  1.00  0.00    -0.504 OA
ATOM     19  H   UNL     1      20.093  22.455 -17.176  1.00  0.00     0.293 HD
ENDBRANCH  15  18
BRANCH  17  20
ATOM     20  O   UNL     1      20.280  22.589 -14.202  1.00  0.00    -0.504 OA
ATOM     21  H   UNL     1      20.887  23.204 -14.731  1.00  0.00     0.293 HD
ENDBRANCH  17  20
ENDBRANCH   1  12
BRANCH   2  22
ATOM     22  O   UNL     1      16.520  23.113 -11.217  1.00  0.00    -0.502 OA
ATOM     23  H   UNL     1      16.413  23.677 -10.383  1.00  0.00     0.293 HD
ENDBRANCH   2  22
BRANCH   6  24
ATOM     24  O   UNL     1      12.789  20.277  -8.686  1.00  0.00    -0.507 OA
ATOM     25  H   UNL     1      12.337  19.715  -7.981  1.00  0.00     0.293 HD
ENDBRANCH   6  24
BRANCH   8  26
ATOM     26  O   UNL     1      11.376  17.359 -12.204  1.00  0.00    -0.508 OA
ATOM     27  H   UNL     1      11.634  16.741 -12.964  1.00  0.00     0.293 HD
ENDBRANCH   8  26
TORSDOF 6
ENDMDL
MODEL 5
REMARK VINA RESULT:    -6.306      1.693      7.540
REMARK INTER + INTRA:          -7.741
REMARK INTER:                  -7.462
REMARK INTRA:                  -0.279
REMARK UNBOUND:                -0.145
REMARK SMILES O=c1c(O)c(-c2ccc(O)c(O)c2)oc2cc(O)cc(O)c12
REMARK SMILES IDX 5 1 3 2 2 3 1 4 22 5 20 6 19 7 17 8 16 9 15 10 14 11 6 12
REMARK SMILES IDX 7 13 8 14 9 15 13 16 11 17 10 18 12 20 4 22 21 24 18 26
REMARK H PARENT 10 19 12 21 4 23 21 25 18 27
REMARK Flexibility Score: inf
ROOT
ATOM      1  C   UNL     1      14.014  20.417 -11.738  1.00  0.00     0.180 A 
ATOM      2  C   UNL     1      13.530  19.174 -12.179  1.00  0.00     0.208 A 
ATOM      3  C   UNL     1      12.316  18.693 -11.662  1.00  0.00     0.238 A 
ATOM      4  O   UNL     1      11.926  17.547 -12.007  1.00  0.00    -0.285 OA
ATOM      5  C   UNL     1      11.574  19.485 -10.753  1.00  0.00     0.111 A 
ATOM      6  C   UNL     1      10.309  19.117 -10.199  1.00  0.00     0.134 A 
ATOM      7  C   UNL     1       9.718  19.932  -9.226  1.00  0.00     0.093 A 
ATOM      8  C   UNL     1      10.311  21.131  -8.834  1.00  0.00     0.123 A 
ATOM      9  C   UNL     1      11.519  21.528  -9.408  1.00  0.00     0.094 A 
ATOM     10  C   UNL     1      12.154  20.717 -10.353  1.00  0.00     0.146 A 
ATOM     11  O   UNL     1      13.312  21.121 -10.858  1.00  0.00    -0.452 OA
ENDROOT
BRANCH   1  12
ATOM     12  C   UNL     1      15.292  20.983 -12.225  1.00  0.00     0.025 A 
ATOM     13  C   UNL     1      16.451  20.971 -11.429  1.00  0.00     0.016 A 
ATOM     14  C   UNL     1      17.639  21.533 -11.902  1.00  0.00     0.051 A 
ATOM     15  C   UNL     1      17.684  22.127 -13.169  1.00  0.00     0.157 A 
ATOM     16  C   UNL     1      15.338  21.600 -13.487  1.00  0.00     0.062 A 
ATOM     17  C   UNL     1      16.531  22.163 -13.962  1.00  0.00     0.158 A 
BRANCH  15  18
ATOM     18  O   UNL     1      18.867  22.688 -13.645  1.00  0.00    -0.504 OA
ATOM     19  H   UNL     1      19.563  22.129 -14.128  1.00  0.00     0.293 HD
ENDBRANCH  15  18
BRANCH  17  20
ATOM     20  O   UNL     1      16.575  22.762 -15.220  1.00  0.00    -0.504 OA
ATOM     21  H   UNL     1      15.798  23.306 -15.577  1.00  0.00     0.293 HD
ENDBRANCH  17  20
ENDBRANCH   1  12
BRANCH   2  22
ATOM     22  O   UNL     1      14.239  18.442 -13.136  1.00  0.00    -0.502 OA
ATOM     23  H   UNL     1      14.874  18.878 -13.794  1.00  0.00     0.293 HD
ENDBRANCH   2  22
BRANCH   6  24
ATOM     24  O   UNL     1       9.585  17.984 -10.584  1.00  0.00    -0.507 OA
ATOM     25  H   UNL     1       8.609  17.982 -10.838  1.00  0.00     0.293 HD
ENDBRANCH   6  24
BRANCH   8  26
ATOM     26  O   UNL     1       9.686  21.926  -7.875  1.00  0.00    -0.508 OA
ATOM     27  H   UNL     1      10.210  22.575  -7.300  1.00  0.00     0.293 HD
ENDBRANCH   8  26
TORSDOF 6
ENDMDL
MODEL 6
REMARK VINA RESULT:    -6.223      1.679      7.251
REMARK INTER + INTRA:          -7.641
REMARK INTER:                  -7.356
REMARK INTRA:                  -0.285
REMARK UNBOUND:                -0.145
REMARK SMILES O=c1c(O)c(-c2ccc(O)c(O)c2)oc2cc(O)cc(O)c12
REMARK SMILES IDX 5 1 3 2 2 3 1 4 22 5 20 6 19 7 17 8 16 9 15 10 14 11 6 12
REMARK SMILES IDX 7 13 8 14 9 15 13 16 11 17 10 18 12 20 4 22 21 24 18 26
REMARK H PARENT 10 19 12 21 4 23 21 25 18 27
REMARK Flexibility Score: inf
ROOT
ATOM      1  C   UNL     1      14.195  20.790 -11.587  1.00  0.00     0.180 A 
ATOM      2  C   UNL     1      13.529  21.563 -10.622  1.00  0.00     0.208 A 
ATOM      3  C   UNL     1      12.342  21.070 -10.054  1.00  0.00     0.238 A 
ATOM      4  O   UNL     1      11.713  21.800  -9.245  1.00  0.00    -0.285 OA
ATOM      5  C   UNL     1      11.867  19.786 -10.417  1.00  0.00     0.111 A 
ATOM      6  C   UNL     1      10.701  19.168  -9.872  1.00  0.00     0.134 A 
ATOM      7  C   UNL     1      10.267  17.939 -10.386  1.00  0.00     0.093 A 
ATOM      8  C   UNL     1      10.991  17.277 -11.376  1.00  0.00     0.123 A 
ATOM      9  C   UNL     1      12.162  17.846 -11.877  1.00  0.00     0.094 A 
ATOM     10  C   UNL     1      12.600  19.089 -11.413  1.00  0.00     0.146 A 
ATOM     11  O   UNL     1      13.707  19.604 -11.932  1.00  0.00    -0.452 OA
ENDROOT
BRANCH   1  12
ATOM     12  C   UNL     1      15.442  21.248 -12.241  1.00  0.00     0.025 A 
ATOM     13  C   UNL     1      16.683  21.174 -11.586  1.00  0.00     0.016 A 
ATOM     14  C   UNL     1      17.843  21.635 -12.216  1.00  0.00     0.051 A 
ATOM     15  C   UNL     1      17.776  22.189 -13.500  1.00  0.00     0.157 A 
ATOM     16  C   UNL     1      15.378  21.825 -13.521  1.00  0.00     0.062 A 
ATOM     17  C   UNL     1      16.541  22.288 -14.153  1.00  0.00     0.158 A 
BRANCH  15  18
ATOM     18  O   UNL     1      18.930  22.649 -14.132  1.00  0.00    -0.504 OA
ATOM     19  H   UNL     1      19.034  22.611 -15.140  1.00  0.00     0.293 HD
ENDBRANCH  15  18
BRANCH  17  20
ATOM     20  O   UNL     1      16.476  22.847 -15.428  1.00  0.00    -0.504 OA
ATOM     21  H   UNL     1      15.593  22.969 -15.909  1.00  0.00     0.293 HD
ENDBRANCH  17  20
ENDBRANCH   1  12
BRANCH   2  22
ATOM     22  O   UNL     1      14.055  22.794 -10.220  1.00  0.00    -0.502 OA
ATOM     23  H   UNL     1      13.873  23.654 -10.723  1.00  0.00     0.293 HD
ENDBRANCH   2  22
BRANCH   6  24
ATOM     24  O   UNL     1       9.952  19.700  -8.818  1.00  0.00    -0.507 OA
ATOM     25  H   UNL     1       9.074  19.329  -8.489  1.00  0.00     0.293 HD
ENDBRANCH   6  24
BRANCH   8  26
ATOM     26  O   UNL     1      10.539  16.047 -11.852  1.00  0.00    -0.508 OA
ATOM     27  H   UNL     1       9.674  15.637 -11.523  1.00  0.00     0.293 HD
ENDBRANCH   8  26
TORSDOF 6
ENDMDL
MODEL 7
REMARK VINA RESULT:    -6.221      1.764      7.321
REMARK INTER + INTRA:          -7.638
REMARK INTER:                  -7.343
REMARK INTRA:                  -0.295
REMARK UNBOUND:                -0.145
REMARK SMILES O=c1c(O)c(-c2ccc(O)c(O)c2)oc2cc(O)cc(O)c12
REMARK SMILES IDX 5 1 3 2 2 3 1 4 22 5 20 6 19 7 17 8 16 9 15 10 14 11 6 12
REMARK SMILES IDX 7 13 8 14 9 15 13 16 11 17 10 18 12 20 4 22 21 24 18 26
REMARK H PARENT 10 19 12 21 4 23 21 25 18 27
REMARK Flexibility Score: inf
ROOT
ATOM      1  C   UNL     1      14.157  20.796 -11.570  1.00  0.00     0.180 A 
ATOM      2  C   UNL     1      13.456  21.564 -10.625  1.00  0.00     0.208 A 
ATOM      3  C   UNL     1      12.275  21.047 -10.067  1.00  0.00     0.238 A 
ATOM      4  O   UNL     1      11.614  21.771  -9.277  1.00  0.00    -0.285 OA
ATOM      5  C   UNL     1      11.841  19.746 -10.418  1.00  0.00     0.111 A 
ATOM      6  C   UNL     1      10.684  19.103  -9.881  1.00  0.00     0.134 A 
ATOM      7  C   UNL     1      10.291  17.856 -10.382  1.00  0.00     0.093 A 
ATOM      8  C   UNL     1      11.047  17.200 -11.353  1.00  0.00     0.123 A 
ATOM      9  C   UNL     1      12.209  17.793 -11.845  1.00  0.00     0.094 A 
ATOM     10  C   UNL     1      12.606  19.054 -11.393  1.00  0.00     0.146 A 
ATOM     11  O   UNL     1      13.706  19.593 -11.904  1.00  0.00    -0.452 OA
ENDROOT
BRANCH   1  12
ATOM     12  C   UNL     1      15.400  21.280 -12.213  1.00  0.00     0.025 A 
ATOM     13  C   UNL     1      15.396  21.792 -13.522  1.00  0.00     0.016 A 
ATOM     14  C   UNL     1      16.586  22.220 -14.116  1.00  0.00     0.051 A 
ATOM     15  C   UNL     1      17.797  22.129 -13.417  1.00  0.00     0.157 A 
ATOM     16  C   UNL     1      16.621  21.171 -11.525  1.00  0.00     0.062 A 
ATOM     17  C   UNL     1      17.815  21.601 -12.121  1.00  0.00     0.158 A 
BRANCH  15  18
ATOM     18  O   UNL     1      18.986  22.556 -14.006  1.00  0.00    -0.504 OA
ATOM     19  H   UNL     1      19.821  21.981 -13.991  1.00  0.00     0.293 HD
ENDBRANCH  15  18
BRANCH  17  20
ATOM     20  O   UNL     1      19.022  21.503 -11.431  1.00  0.00    -0.504 OA
ATOM     21  H   UNL     1      19.412  22.293 -10.930  1.00  0.00     0.293 HD
ENDBRANCH  17  20
ENDBRANCH   1  12
BRANCH   2  22
ATOM     22  O   UNL     1      13.943  22.815 -10.234  1.00  0.00    -0.502 OA
ATOM     23  H   UNL     1      14.863  23.147 -10.496  1.00  0.00     0.293 HD
ENDBRANCH   2  22
BRANCH   6  24
ATOM     24  O   UNL     1       9.906  19.629  -8.845  1.00  0.00    -0.507 OA
ATOM     25  H   UNL     1       8.899  19.676  -8.845  1.00  0.00     0.293 HD
ENDBRANCH   6  24
BRANCH   8  26
ATOM     26  O   UNL     1      10.636  15.951 -11.817  1.00  0.00    -0.508 OA
ATOM     27  H   UNL     1      11.298  15.203 -11.982  1.00  0.00     0.293 HD
ENDBRANCH   8  26
TORSDOF 6
ENDMDL
MODEL 8
REMARK VINA RESULT:    -6.076      1.502      6.659
REMARK INTER + INTRA:          -7.464
REMARK INTER:                  -7.307
REMARK INTRA:                  -0.157
REMARK UNBOUND:                -0.145
REMARK SMILES O=c1c(O)c(-c2ccc(O)c(O)c2)oc2cc(O)cc(O)c12
REMARK SMILES IDX 5 1 3 2 2 3 1 4 22 5 20 6 19 7 17 8 16 9 15 10 14 11 6 12
REMARK SMILES IDX 7 13 8 14 9 15 13 16 11 17 10 18 12 20 4 22 21 24 18 26
REMARK H PARENT 10 19 12 21 4 23 21 25 18 27
REMARK Flexibility Score: inf
ROOT
ATOM      1  C   UNL     1      17.202  21.946 -13.933  1.00  0.00     0.180 A 
ATOM      2  C   UNL     1      17.929  22.426 -12.830  1.00  0.00     0.208 A 
ATOM      3  C   UNL     1      17.449  22.174 -11.535  1.00  0.00     0.238 A 
ATOM      4  O   UNL     1      18.067  22.670 -10.556  1.00  0.00    -0.285 OA
ATOM      5  C   UNL     1      16.279  21.398 -11.355  1.00  0.00     0.111 A 
ATOM      6  C   UNL     1      15.726  21.042 -10.087  1.00  0.00     0.134 A 
ATOM      7  C   UNL     1      14.504  20.360 -10.033  1.00  0.00     0.093 A 
ATOM      8  C   UNL     1      13.848  19.965 -11.198  1.00  0.00     0.123 A 
ATOM      9  C   UNL     1      14.406  20.259 -12.442  1.00  0.00     0.094 A 
ATOM     10  C   UNL     1      15.604  20.972 -12.530  1.00  0.00     0.146 A 
ATOM     11  O   UNL     1      16.089  21.250 -13.733  1.00  0.00    -0.452 OA
ENDROOT
BRANCH   1  12
ATOM     12  C   UNL     1      17.636  22.185 -15.328  1.00  0.00     0.025 A 
ATOM     13  C   UNL     1      16.850  22.933 -16.222  1.00  0.00     0.016 A 
ATOM     14  C   UNL     1      17.270  23.124 -17.541  1.00  0.00     0.051 A 
ATOM     15  C   UNL     1      18.471  22.560 -17.989  1.00  0.00     0.157 A 
ATOM     16  C   UNL     1      18.829  21.603 -15.789  1.00  0.00     0.062 A 
ATOM     17  C   UNL     1      19.251  21.795 -17.112  1.00  0.00     0.158 A 
BRANCH  15  18
ATOM     18  O   UNL     1      18.894  22.749 -19.303  1.00  0.00    -0.504 OA
ATOM     19  H   UNL     1      19.219  21.976 -19.872  1.00  0.00     0.293 HD
ENDBRANCH  15  18
BRANCH  17  20
ATOM     20  O   UNL     1      20.441  21.228 -17.562  1.00  0.00    -0.504 OA
ATOM     21  H   UNL     1      21.224  21.073 -16.938  1.00  0.00     0.293 HD
ENDBRANCH  17  20
ENDBRANCH   1  12
BRANCH   2  22
ATOM     22  O   UNL     1      19.124  23.125 -13.026  1.00  0.00    -0.502 OA
ATOM     23  H   UNL     1      19.154  24.131 -13.140  1.00  0.00     0.293 HD
ENDBRANCH   2  22
BRANCH   6  24
ATOM     24  O   UNL     1      16.343  21.308  -8.861  1.00  0.00    -0.507 OA
ATOM     25  H   UNL     1      16.971  20.682  -8.382  1.00  0.00     0.293 HD
ENDBRANCH   6  24
BRANCH   8  26
ATOM     26  O   UNL     1      12.642  19.272 -11.106  1.00  0.00    -0.508 OA
ATOM     27  H   UNL     1      12.610  18.295 -10.841  1.00  0.00     0.293 HD
ENDBRANCH   8  26
TORSDOF 6
ENDMDL
MODEL 9
REMARK VINA RESULT:    -5.997      3.433      8.091
REMARK INTER + INTRA:          -7.368
REMARK INTER:                  -7.578
REMARK INTRA:                   0.210
REMARK UNBOUND:                -0.145
REMARK SMILES O=c1c(O)c(-c2ccc(O)c(O)c2)oc2cc(O)cc(O)c12
REMARK SMILES IDX 5 1 3 2 2 3 1 4 22 5 20 6 19 7 17 8 16 9 15 10 14 11 6 12
REMARK SMILES IDX 7 13 8 14 9 15 13 16 11 17 10 18 12 20 4 22 21 24 18 26
REMARK H PARENT 10 19 12 21 4 23 21 25 18 27
REMARK Flexibility Score: inf
ROOT
ATOM      1  C   UNL     1      20.072  22.260 -16.368  1.00  0.00     0.180 A 
ATOM      2  C   UNL     1      20.934  21.887 -15.324  1.00  0.00     0.208 A 
ATOM      3  C   UNL     1      20.430  21.820 -14.014  1.00  0.00     0.238 A 
ATOM      4  O   UNL     1      21.226  21.557 -13.075  1.00  0.00    -0.285 OA
ATOM      5  C   UNL     1      19.058  22.073 -13.774  1.00  0.00     0.111 A 
ATOM      6  C   UNL     1      18.429  21.990 -12.494  1.00  0.00     0.134 A 
ATOM      7  C   UNL     1      17.087  22.366 -12.359  1.00  0.00     0.093 A 
ATOM      8  C   UNL     1      16.334  22.759 -13.465  1.00  0.00     0.123 A 
ATOM      9  C   UNL     1      16.923  22.790 -14.728  1.00  0.00     0.094 A 
ATOM     10  C   UNL     1      18.270  22.458 -14.890  1.00  0.00     0.146 A 
ATOM     11  O   UNL     1      18.797  22.524 -16.106  1.00  0.00    -0.452 OA
ENDROOT
BRANCH   1  12
ATOM     12  C   UNL     1      20.533  22.367 -17.771  1.00  0.00     0.025 A 
ATOM     13  C   UNL     1      21.841  22.776 -18.084  1.00  0.00     0.016 A 
ATOM     14  C   UNL     1      22.245  22.892 -19.416  1.00  0.00     0.051 A 
ATOM     15  C   UNL     1      21.345  22.616 -20.454  1.00  0.00     0.157 A 
ATOM     16  C   UNL     1      19.628  22.112 -18.817  1.00  0.00     0.062 A 
ATOM     17  C   UNL     1      20.034  22.229 -20.154  1.00  0.00     0.158 A 
BRANCH  15  18
ATOM     18  O   UNL     1      21.745  22.730 -21.784  1.00  0.00    -0.504 OA
ATOM     19  H   UNL     1      22.498  22.165 -22.162  1.00  0.00     0.293 HD
ENDBRANCH  15  18
BRANCH  17  20
ATOM     20  O   UNL     1      19.139  21.963 -21.188  1.00  0.00    -0.504 OA
ATOM     21  H   UNL     1      18.161  22.221 -21.122  1.00  0.00     0.293 HD
ENDBRANCH  17  20
ENDBRANCH   1  12
BRANCH   2  22
ATOM     22  O   UNL     1      22.268  21.567 -15.593  1.00  0.00    -0.502 OA
ATOM     23  H   UNL     1      22.533  20.758 -16.142  1.00  0.00     0.293 HD
ENDBRANCH   2  22
BRANCH   6  24
ATOM     24  O   UNL     1      19.063  21.525 -11.338  1.00  0.00    -0.507 OA
ATOM     25  H   UNL     1      18.636  20.932 -10.643  1.00  0.00     0.293 HD
ENDBRANCH   6  24
BRANCH   8  26
ATOM     26  O   UNL     1      14.995  23.109 -13.296  1.00  0.00    -0.508 OA
ATOM     27  H   UNL     1      14.541  23.777 -13.907  1.00  0.00     0.293 HD
ENDBRANCH   8  26
TORSDOF 6
ENDMDL
