MODEL 1
REMARK VINA RESULT:    -3.286      0.000      0.000
REMARK INTER + INTRA:          -3.694
REMARK INTER:                  -3.670
REMARK INTRA:                  -0.024
REMARK UNBOUND:                -0.024
REMARK SMILES CCCC(=O)[O-]
REMARK SMILES IDX 3 1 4 2 5 3 6 4 2 5 1 6
REMARK H PARENT
REMARK Flexibility Score: inf
ROOT
ATOM      1  C   UNL     1      10.494  -9.030  12.129  1.00  0.00     0.052 C 
ENDROOT
BRANCH   1   2
ATOM      2  C   UNL     1       9.409  -9.199  11.113  1.00  0.00     0.041 C 
ATOM      3  O   UNL     1       9.472  -8.591  10.012  1.00  0.00    -0.550 OA
ATOM      4  O   UNL     1       8.304  -9.989  11.401  1.00  0.00    -0.550 OA
ENDBRANCH   1   2
BRANCH   1   5
ATOM      5  C   UNL     1      11.025 -10.394  12.578  1.00  0.00     0.003 C 
ATOM      6  C   UNL     1      11.193 -10.448  14.094  1.00  0.00     0.004 C 
ENDBRANCH   1   5
TORSDOF 2
ENDMDL
MODEL 2
REMARK VINA RESULT:    -3.203      2.121      2.797
REMARK INTER + INTRA:          -3.601
REMARK INTER:                  -3.594
REMARK INTRA:                  -0.007
REMARK UNBOUND:                -0.024
REMARK SMILES CCCC(=O)[O-]
REMARK SMILES IDX 3 1 4 2 5 3 6 4 2 5 1 6
REMARK H PARENT
REMARK Flexibility Score: inf
ROOT
ATOM      1  C   UNL     1       9.086 -10.438  11.836  1.00  0.00     0.052 C 
ENDROOT
BRANCH   1   2
ATOM      2  C   UNL     1       9.808  -9.184  11.458  1.00  0.00     0.041 C 
ATOM      3  O   UNL     1      10.611  -8.647  12.266  1.00  0.00    -0.550 OA
ATOM      4  O   UNL     1       9.557  -8.579  10.233  1.00  0.00    -0.550 OA
ENDBRANCH   1   2
BRANCH   1   5
ATOM      5  C   UNL     1       7.584 -10.173  11.969  1.00  0.00     0.003 C 
ATOM      6  C   UNL     1       6.978 -10.990  13.106  1.00  0.00     0.004 C 
ENDBRANCH   1   5
TORSDOF 2
ENDMDL
MODEL 3
REMARK VINA RESULT:    -2.994      2.240      2.717
REMARK INTER + INTRA:          -3.368
REMARK INTER:                  -3.341
REMARK INTRA:                  -0.027
REMARK UNBOUND:                -0.024
REMARK SMILES CCCC(=O)[O-]
REMARK SMILES IDX 3 1 4 2 5 3 6 4 2 5 1 6
REMARK H PARENT
REMARK Flexibility Score: inf
ROOT
ATOM      1  C   UNL     1       8.534  -9.893  11.520  1.00  0.00     0.052 C 
ENDROOT
BRANCH   1   2
ATOM      2  C   UNL     1       7.354 -10.579  12.132  1.00  0.00     0.041 C 
ATOM      3  O   UNL     1       7.429 -11.048  13.298  1.00  0.00    -0.550 OA
ATOM      4  O   UNL     1       6.188 -10.744  11.396  1.00  0.00    -0.550 OA
ENDBRANCH   1   2
BRANCH   1   5
ATOM      5  C   UNL     1       9.828 -10.337  12.207  1.00  0.00     0.003 C 
ATOM      6  C   UNL     1      10.749  -9.148  12.468  1.00  0.00     0.004 C 
ENDBRANCH   1   5
TORSDOF 2
ENDMDL
MODEL 4
REMARK VINA RESULT:    -2.614      2.990      3.246
REMARK INTER + INTRA:          -2.943
REMARK INTER:                  -2.924
REMARK INTRA:                  -0.019
REMARK UNBOUND:                -0.024
REMARK SMILES CCCC(=O)[O-]
REMARK SMILES IDX 3 1 4 2 5 3 6 4 2 5 1 6
REMARK H PARENT
REMARK Flexibility Score: inf
ROOT
ATOM      1  C   UNL     1       7.142 -10.337  12.275  1.00  0.00     0.052 C 
ENDROOT
BRANCH   1   2
ATOM      2  C   UNL     1       8.492 -10.013  11.717  1.00  0.00     0.041 C 
ATOM      3  O   UNL     1       8.595  -9.424  10.609  1.00  0.00    -0.550 OA
ATOM      4  O   UNL     1       9.638 -10.406  12.397  1.00  0.00    -0.550 OA
ENDBRANCH   1   2
BRANCH   1   5
ATOM      5  C   UNL     1       7.276 -11.170  13.552  1.00  0.00     0.003 C 
ATOM      6  C   UNL     1       6.268 -12.316  13.571  1.00  0.00     0.004 C 
ENDBRANCH   1   5
TORSDOF 2
ENDMDL
MODEL 5
REMARK VINA RESULT:    -2.499      3.907      4.773
REMARK INTER + INTRA:          -2.815
REMARK INTER:                  -2.809
REMARK INTRA:                  -0.006
REMARK UNBOUND:                -0.024
REMARK SMILES CCCC(=O)[O-]
REMARK SMILES IDX 3 1 4 2 5 3 6 4 2 5 1 6
REMARK H PARENT
REMARK Flexibility Score: inf
ROOT
ATOM      1  C   UNL     1      10.893 -10.913  14.631  1.00  0.00     0.052 C 
ENDROOT
BRANCH   1   2
ATOM      2  C   UNL     1      11.854 -10.622  15.740  1.00  0.00     0.041 C 
ATOM      3  O   UNL     1      11.644  -9.659  16.524  1.00  0.00    -0.550 OA
ATOM      4  O   UNL     1      13.007 -11.384  15.879  1.00  0.00    -0.550 OA
ENDBRANCH   1   2
BRANCH   1   5
ATOM      5  C   UNL     1      11.331 -10.209  13.345  1.00  0.00     0.003 C 
ATOM      6  C   UNL     1      10.199 -10.176  12.322  1.00  0.00     0.004 C 
ENDBRANCH   1   5
TORSDOF 2
ENDMDL
MODEL 6
REMARK VINA RESULT:    -2.312      7.344      7.970
REMARK INTER + INTRA:          -2.607
REMARK INTER:                  -2.597
REMARK INTRA:                  -0.010
REMARK UNBOUND:                -0.024
REMARK SMILES CCCC(=O)[O-]
REMARK SMILES IDX 3 1 4 2 5 3 6 4 2 5 1 6
REMARK H PARENT
REMARK Flexibility Score: inf
ROOT
ATOM      1  C   UNL     1      12.632 -16.454   8.786  1.00  0.00     0.052 C 
ENDROOT
BRANCH   1   2
ATOM      2  C   UNL     1      11.271 -16.965   9.137  1.00  0.00     0.041 C 
ATOM      3  O   UNL     1      10.453 -16.225   9.745  1.00  0.00    -0.550 OA
ATOM      4  O   UNL     1      10.921 -18.276   8.837  1.00  0.00    -0.550 OA
ENDBRANCH   1   2
BRANCH   1   5
ATOM      5  C   UNL     1      12.564 -14.978   8.389  1.00  0.00     0.003 C 
ATOM      6  C   UNL     1      13.946 -14.439   8.030  1.00  0.00     0.004 C 
ENDBRANCH   1   5
TORSDOF 2
ENDMDL
MODEL 7
REMARK VINA RESULT:    -2.300      4.497      5.591
REMARK INTER + INTRA:          -2.593
REMARK INTER:                  -2.567
REMARK INTRA:                  -0.026
REMARK UNBOUND:                -0.024
REMARK SMILES CCCC(=O)[O-]
REMARK SMILES IDX 3 1 4 2 5 3 6 4 2 5 1 6
REMARK H PARENT
REMARK Flexibility Score: inf
ROOT
ATOM      1  C   UNL     1      11.969 -10.238  16.627  1.00  0.00     0.052 C 
ENDROOT
BRANCH   1   2
ATOM      2  C   UNL     1      11.347 -11.431  15.974  1.00  0.00     0.041 C 
ATOM      3  O   UNL     1      11.608 -12.590  16.392  1.00  0.00    -0.550 OA
ATOM      4  O   UNL     1      10.517 -11.267  14.873  1.00  0.00    -0.550 OA
ENDBRANCH   1   2
BRANCH   1   5
ATOM      5  C   UNL     1      13.391 -10.562  17.092  1.00  0.00     0.003 C 
ATOM      6  C   UNL     1      13.680  -9.942  18.456  1.00  0.00     0.004 C 
ENDBRANCH   1   5
TORSDOF 2
ENDMDL
MODEL 8
REMARK VINA RESULT:    -2.295      7.806      8.123
REMARK INTER + INTRA:          -2.588
REMARK INTER:                  -2.551
REMARK INTRA:                  -0.037
REMARK UNBOUND:                -0.024
REMARK SMILES CCCC(=O)[O-]
REMARK SMILES IDX 3 1 4 2 5 3 6 4 2 5 1 6
REMARK H PARENT
REMARK Flexibility Score: inf
ROOT
ATOM      1  C   UNL     1      10.795  -3.530  16.229  1.00  0.00     0.052 C 
ENDROOT
BRANCH   1   2
ATOM      2  C   UNL     1      10.103  -2.541  15.345  1.00  0.00     0.041 C 
ATOM      3  O   UNL     1      10.587  -1.390  15.182  1.00  0.00    -0.550 OA
ATOM      4  O   UNL     1       8.899  -2.873  14.739  1.00  0.00    -0.550 OA
ENDBRANCH   1   2
BRANCH   1   5
ATOM      5  C   UNL     1      11.695  -2.811  17.236  1.00  0.00     0.003 C 
ATOM      6  C   UNL     1      13.144  -3.274  17.110  1.00  0.00     0.004 C 
ENDBRANCH   1   5
TORSDOF 2
ENDMDL
MODEL 9
REMARK VINA RESULT:    -2.186      4.966      6.150
REMARK INTER + INTRA:          -2.465
REMARK INTER:                  -2.438
REMARK INTRA:                  -0.027
REMARK UNBOUND:                -0.024
REMARK SMILES CCCC(=O)[O-]
REMARK SMILES IDX 3 1 4 2 5 3 6 4 2 5 1 6
REMARK H PARENT
REMARK Flexibility Score: inf
ROOT
ATOM      1  C   UNL     1      12.735 -11.018  15.989  1.00  0.00     0.052 C 
ENDROOT
BRANCH   1   2
ATOM      2  C   UNL     1      13.011 -12.340  16.632  1.00  0.00     0.041 C 
ATOM      3  O   UNL     1      14.141 -12.577  17.133  1.00  0.00    -0.550 OA
ATOM      4  O   UNL     1      12.035 -13.328  16.634  1.00  0.00    -0.550 OA
ENDBRANCH   1   2
BRANCH   1   5
ATOM      5  C   UNL     1      11.285 -10.949  15.504  1.00  0.00     0.003 C 
ATOM      6  C   UNL     1      11.211 -10.507  14.046  1.00  0.00     0.004 C 
ENDBRANCH   1   5
TORSDOF 2
ENDMDL
