MODEL 1
REMARK VINA RESULT:    -2.857      0.000      0.000
REMARK INTER + INTRA:          -3.233
REMARK INTER:                  -3.191
REMARK INTRA:                  -0.042
REMARK UNBOUND:                -0.042
REMARK SMILES CCCC(=O)[O-]
REMARK SMILES IDX 3 1 4 2 5 3 6 4 2 5 1 6
REMARK H PARENT
REMARK Flexibility Score: inf
ROOT
ATOM      1  C   UNL     1       5.781   3.493  48.221  1.00  0.00     0.052 C 
ENDROOT
BRANCH   1   2
ATOM      2  C   UNL     1       6.767   4.454  48.811  1.00  0.00     0.041 C 
ATOM      3  O   UNL     1       7.289   5.348  48.092  1.00  0.00    -0.550 OA
ATOM      4  O   UNL     1       7.136   4.341  50.145  1.00  0.00    -0.550 OA
ENDBRANCH   1   2
BRANCH   1   5
ATOM      5  C   UNL     1       6.478   2.305  47.547  1.00  0.00     0.003 C 
ATOM      6  C   UNL     1       6.841   1.201  48.541  1.00  0.00     0.004 C 
ENDBRANCH   1   5
TORSDOF 2
ENDMDL
MODEL 2
REMARK VINA RESULT:    -2.835      0.523      1.369
REMARK INTER + INTRA:          -3.209
REMARK INTER:                  -3.172
REMARK INTRA:                  -0.037
REMARK UNBOUND:                -0.042
REMARK SMILES CCCC(=O)[O-]
REMARK SMILES IDX 3 1 4 2 5 3 6 4 2 5 1 6
REMARK H PARENT
REMARK Flexibility Score: inf
ROOT
ATOM      1  C   UNL     1       5.669   3.211  47.880  1.00  0.00     0.052 C 
ENDROOT
BRANCH   1   2
ATOM      2  C   UNL     1       6.353   4.240  48.728  1.00  0.00     0.041 C 
ATOM      3  O   UNL     1       6.138   4.283  49.969  1.00  0.00    -0.550 OA
ATOM      4  O   UNL     1       7.200   5.173  48.144  1.00  0.00    -0.550 OA
ENDBRANCH   1   2
BRANCH   1   5
ATOM      5  C   UNL     1       6.602   2.040  47.544  1.00  0.00     0.003 C 
ATOM      6  C   UNL     1       6.785   1.084  48.723  1.00  0.00     0.004 C 
ENDBRANCH   1   5
TORSDOF 2
ENDMDL
MODEL 3
REMARK VINA RESULT:    -2.734      1.606      2.148
REMARK INTER + INTRA:          -3.096
REMARK INTER:                  -3.035
REMARK INTRA:                  -0.061
REMARK UNBOUND:                -0.042
REMARK SMILES CCCC(=O)[O-]
REMARK SMILES IDX 3 1 4 2 5 3 6 4 2 5 1 6
REMARK H PARENT
REMARK Flexibility Score: inf
ROOT
ATOM      1  C   UNL     1       6.742   1.900  47.704  1.00  0.00     0.052 C 
ENDROOT
BRANCH   1   2
ATOM      2  C   UNL     1       6.047   3.195  47.998  1.00  0.00     0.041 C 
ATOM      3  O   UNL     1       4.790   3.237  48.068  1.00  0.00    -0.550 OA
ATOM      4  O   UNL     1       6.785   4.360  48.160  1.00  0.00    -0.550 OA
ENDBRANCH   1   2
BRANCH   1   5
ATOM      5  C   UNL     1       6.486   0.856  48.798  1.00  0.00     0.003 C 
ATOM      6  C   UNL     1       6.843   1.374  50.192  1.00  0.00     0.004 C 
ENDBRANCH   1   5
TORSDOF 2
ENDMDL
MODEL 4
REMARK VINA RESULT:    -2.726      2.422      3.472
REMARK INTER + INTRA:          -3.087
REMARK INTER:                  -3.055
REMARK INTRA:                  -0.032
REMARK UNBOUND:                -0.042
REMARK SMILES CCCC(=O)[O-]
REMARK SMILES IDX 3 1 4 2 5 3 6 4 2 5 1 6
REMARK H PARENT
REMARK Flexibility Score: inf
ROOT
ATOM      1  C   UNL     1       6.729   1.811  47.817  1.00  0.00     0.052 C 
ENDROOT
BRANCH   1   2
ATOM      2  C   UNL     1       6.528   0.938  49.017  1.00  0.00     0.041 C 
ATOM      3  O   UNL     1       7.010   1.272  50.132  1.00  0.00    -0.550 OA
ATOM      4  O   UNL     1       5.838  -0.262  48.898  1.00  0.00    -0.550 OA
ENDBRANCH   1   2
BRANCH   1   5
ATOM      5  C   UNL     1       5.837   3.058  47.864  1.00  0.00     0.003 C 
ATOM      6  C   UNL     1       6.584   4.290  48.375  1.00  0.00     0.004 C 
ENDBRANCH   1   5
TORSDOF 2
ENDMDL
MODEL 5
REMARK VINA RESULT:    -2.715      2.210      3.060
REMARK INTER + INTRA:          -3.075
REMARK INTER:                  -3.031
REMARK INTRA:                  -0.044
REMARK UNBOUND:                -0.042
REMARK SMILES CCCC(=O)[O-]
REMARK SMILES IDX 3 1 4 2 5 3 6 4 2 5 1 6
REMARK H PARENT
REMARK Flexibility Score: inf
ROOT
ATOM      1  C   UNL     1       5.656   3.140  47.963  1.00  0.00     0.052 C 
ENDROOT
BRANCH   1   2
ATOM      2  C   UNL     1       6.630   2.050  47.635  1.00  0.00     0.041 C 
ATOM      3  O   UNL     1       7.096   1.947  46.469  1.00  0.00    -0.550 OA
ATOM      4  O   UNL     1       6.997   1.128  48.606  1.00  0.00    -0.550 OA
ENDBRANCH   1   2
BRANCH   1   5
ATOM      5  C   UNL     1       6.217   4.108  49.013  1.00  0.00     0.003 C 
ATOM      6  C   UNL     1       7.033   5.238  48.386  1.00  0.00     0.004 C 
ENDBRANCH   1   5
TORSDOF 2
ENDMDL
MODEL 6
REMARK VINA RESULT:    -2.471      3.147      3.996
REMARK INTER + INTRA:          -2.803
REMARK INTER:                  -2.754
REMARK INTRA:                  -0.049
REMARK UNBOUND:                -0.042
REMARK SMILES CCCC(=O)[O-]
REMARK SMILES IDX 3 1 4 2 5 3 6 4 2 5 1 6
REMARK H PARENT
REMARK Flexibility Score: inf
ROOT
ATOM      1  C   UNL     1       6.735   1.133  49.123  1.00  0.00     0.052 C 
ENDROOT
BRANCH   1   2
ATOM      2  C   UNL     1       5.568   0.228  49.377  1.00  0.00     0.041 C 
ATOM      3  O   UNL     1       5.526  -0.915  48.850  1.00  0.00    -0.550 OA
ATOM      4  O   UNL     1       4.511   0.661  50.167  1.00  0.00    -0.550 OA
ENDBRANCH   1   2
BRANCH   1   5
ATOM      5  C   UNL     1       6.631   1.826  47.758  1.00  0.00     0.003 C 
ATOM      6  C   UNL     1       5.740   3.067  47.801  1.00  0.00     0.004 C 
ENDBRANCH   1   5
TORSDOF 2
ENDMDL
MODEL 7
REMARK VINA RESULT:    -2.430      2.176      3.366
REMARK INTER + INTRA:          -2.756
REMARK INTER:                  -2.750
REMARK INTRA:                  -0.006
REMARK UNBOUND:                -0.042
REMARK SMILES CCCC(=O)[O-]
REMARK SMILES IDX 3 1 4 2 5 3 6 4 2 5 1 6
REMARK H PARENT
REMARK Flexibility Score: inf
ROOT
ATOM      1  C   UNL     1       6.760   3.965  49.037  1.00  0.00     0.052 C 
ENDROOT
BRANCH   1   2
ATOM      2  C   UNL     1       5.994   3.141  48.048  1.00  0.00     0.041 C 
ATOM      3  O   UNL     1       4.734   3.168  48.042  1.00  0.00    -0.550 OA
ATOM      4  O   UNL     1       6.669   2.316  47.157  1.00  0.00    -0.550 OA
ENDBRANCH   1   2
BRANCH   1   5
ATOM      5  C   UNL     1       7.086   5.359  48.485  1.00  0.00     0.003 C 
ATOM      6  C   UNL     1       7.371   6.373  49.592  1.00  0.00     0.004 C 
ENDBRANCH   1   5
TORSDOF 2
ENDMDL
MODEL 8
REMARK VINA RESULT:    -2.362      2.044      2.483
REMARK INTER + INTRA:          -2.681
REMARK INTER:                  -2.665
REMARK INTRA:                  -0.015
REMARK UNBOUND:                -0.042
REMARK SMILES CCCC(=O)[O-]
REMARK SMILES IDX 3 1 4 2 5 3 6 4 2 5 1 6
REMARK H PARENT
REMARK Flexibility Score: inf
ROOT
ATOM      1  C   UNL     1       5.953   3.934  49.989  1.00  0.00     0.052 C 
ENDROOT
BRANCH   1   2
ATOM      2  C   UNL     1       6.265   4.066  48.530  1.00  0.00     0.041 C 
ATOM      3  O   UNL     1       7.074   4.947  48.132  1.00  0.00    -0.550 OA
ATOM      4  O   UNL     1       5.637   3.241  47.606  1.00  0.00    -0.550 OA
ENDBRANCH   1   2
BRANCH   1   5
ATOM      5  C   UNL     1       7.220   3.700  50.822  1.00  0.00     0.003 C 
ATOM      6  C   UNL     1       7.258   2.305  51.446  1.00  0.00     0.004 C 
ENDBRANCH   1   5
TORSDOF 2
ENDMDL
MODEL 9
REMARK VINA RESULT:    -2.343     14.984     15.689
REMARK INTER + INTRA:          -2.659
REMARK INTER:                  -2.623
REMARK INTRA:                  -0.036
REMARK UNBOUND:                -0.042
REMARK SMILES CCCC(=O)[O-]
REMARK SMILES IDX 3 1 4 2 5 3 6 4 2 5 1 6
REMARK H PARENT
REMARK Flexibility Score: inf
ROOT
ATOM      1  C   UNL     1       7.836  -5.140  35.768  1.00  0.00     0.052 C 
ENDROOT
BRANCH   1   2
ATOM      2  C   UNL     1       9.194  -5.422  35.200  1.00  0.00     0.041 C 
ATOM      3  O   UNL     1       9.884  -6.375  35.650  1.00  0.00    -0.550 OA
ATOM      4  O   UNL     1       9.711  -4.611  34.198  1.00  0.00    -0.550 OA
ENDBRANCH   1   2
BRANCH   1   5
ATOM      5  C   UNL     1       7.909  -4.753  37.250  1.00  0.00     0.003 C 
ATOM      6  C   UNL     1       7.173  -5.746  38.149  1.00  0.00     0.004 C 
ENDBRANCH   1   5
TORSDOF 2
ENDMDL
