MODEL 1
REMARK VINA RESULT:     2.989      0.000      0.000
REMARK INTER + INTRA:           3.301
REMARK INTER:                   3.600
REMARK INTRA:                  -0.299
REMARK UNBOUND:                -0.299
REMARK SMILES O=c1c(O)c(-c2ccc(O)cc2O)oc2cc(O)cc(O)c12
REMARK SMILES IDX 5 1 3 2 2 3 1 4 22 5 20 6 19 7 17 8 16 9 15 10 14 11 6 12
REMARK SMILES IDX 8 13 7 14 9 15 11 16 12 17 10 18 13 20 4 22 21 24 18 26
REMARK H PARENT 10 19 13 21 4 23 21 25 18 27
REMARK Flexibility Score: inf
ROOT
ATOM      1  C   UNL     1      14.954   5.105  14.743  1.00  0.00     0.184 A 
ATOM      2  C   UNL     1      14.519   6.439  14.783  1.00  0.00     0.208 A 
ATOM      3  C   UNL     1      13.607   6.828  15.777  1.00  0.00     0.238 A 
ATOM      4  O   UNL     1      13.263   8.036  15.843  1.00  0.00    -0.285 OA
ATOM      5  C   UNL     1      13.130   5.872  16.707  1.00  0.00     0.111 A 
ATOM      6  C   UNL     1      12.174   6.144  17.731  1.00  0.00     0.134 A 
ATOM      7  C   UNL     1      11.871   5.154  18.675  1.00  0.00     0.093 A 
ATOM      8  C   UNL     1      12.443   3.882  18.593  1.00  0.00     0.123 A 
ATOM      9  C   UNL     1      13.332   3.589  17.561  1.00  0.00     0.094 A 
ATOM     10  C   UNL     1      13.681   4.566  16.626  1.00  0.00     0.146 A 
ATOM     11  O   UNL     1      14.541   4.247  15.666  1.00  0.00    -0.451 OA
ENDROOT
BRANCH   1  12
ATOM     12  C   UNL     1      15.900   4.628  13.712  1.00  0.00     0.063 A 
ATOM     13  C   UNL     1      18.128   3.837  13.145  1.00  0.00     0.047 A 
ATOM     14  C   UNL     1      17.210   4.297  14.092  1.00  0.00     0.020 A 
ATOM     15  C   UNL     1      17.745   3.689  11.809  1.00  0.00     0.119 A 
ATOM     16  C   UNL     1      16.434   3.994  11.424  1.00  0.00     0.093 A 
ATOM     17  C   UNL     1      15.504   4.451  12.370  1.00  0.00     0.130 A 
BRANCH  15  18
ATOM     18  O   UNL     1      18.673   3.233  10.875  1.00  0.00    -0.508 OA
ATOM     19  H   UNL     1      19.225   2.399  11.042  1.00  0.00     0.293 HD
ENDBRANCH  15  18
BRANCH  17  20
ATOM     20  O   UNL     1      14.188   4.704  11.983  1.00  0.00    -0.507 OA
ATOM     21  H   UNL     1      13.837   5.649  11.879  1.00  0.00     0.293 HD
ENDBRANCH  17  20
ENDBRANCH   1  12
BRANCH   2  22
ATOM     22  O   UNL     1      15.021   7.366  13.865  1.00  0.00    -0.502 OA
ATOM     23  H   UNL     1      14.419   7.982  13.333  1.00  0.00     0.293 HD
ENDBRANCH   2  22
BRANCH   6  24
ATOM     24  O   UNL     1      11.478   7.351  17.848  1.00  0.00    -0.507 OA
ATOM     25  H   UNL     1      11.877   8.263  17.685  1.00  0.00     0.293 HD
ENDBRANCH   6  24
BRANCH   8  26
ATOM     26  O   UNL     1      12.125   2.899  19.527  1.00  0.00    -0.508 OA
ATOM     27  H   UNL     1      11.572   2.087  19.275  1.00  0.00     0.293 HD
ENDBRANCH   8  26
TORSDOF 6
ENDMDL
MODEL 2
REMARK VINA RESULT:     3.441      1.461      3.164
REMARK INTER + INTRA:           3.846
REMARK INTER:                   4.250
REMARK INTRA:                  -0.404
REMARK UNBOUND:                -0.299
REMARK SMILES O=c1c(O)c(-c2ccc(O)cc2O)oc2cc(O)cc(O)c12
REMARK SMILES IDX 5 1 3 2 2 3 1 4 22 5 20 6 19 7 17 8 16 9 15 10 14 11 6 12
REMARK SMILES IDX 8 13 7 14 9 15 11 16 12 17 10 18 13 20 4 22 21 24 18 26
REMARK H PARENT 10 19 13 21 4 23 21 25 18 27
REMARK Flexibility Score: inf
ROOT
ATOM      1  C   UNL     1      15.492   4.941  14.342  1.00  0.00     0.184 A 
ATOM      2  C   UNL     1      14.957   4.150  15.371  1.00  0.00     0.208 A 
ATOM      3  C   UNL     1      13.999   4.710  16.231  1.00  0.00     0.238 A 
ATOM      4  O   UNL     1      13.482   3.981  17.117  1.00  0.00    -0.285 OA
ATOM      5  C   UNL     1      13.601   6.059  16.059  1.00  0.00     0.111 A 
ATOM      6  C   UNL     1      12.668   6.742  16.895  1.00  0.00     0.134 A 
ATOM      7  C   UNL     1      12.252   8.035  16.554  1.00  0.00     0.093 A 
ATOM      8  C   UNL     1      12.785   8.693  15.443  1.00  0.00     0.123 A 
ATOM      9  C   UNL     1      13.741   8.057  14.654  1.00  0.00     0.094 A 
ATOM     10  C   UNL     1      14.148   6.753  14.948  1.00  0.00     0.146 A 
ATOM     11  O   UNL     1      15.054   6.180  14.164  1.00  0.00    -0.451 OA
ENDROOT
BRANCH   1  12
ATOM     12  C   UNL     1      16.516   4.417  13.414  1.00  0.00     0.063 A 
ATOM     13  C   UNL     1      18.788   3.629  13.058  1.00  0.00     0.047 A 
ATOM     14  C   UNL     1      17.799   4.131  13.907  1.00  0.00     0.020 A 
ATOM     15  C   UNL     1      18.505   3.394  11.710  1.00  0.00     0.119 A 
ATOM     16  C   UNL     1      17.223   3.655  11.213  1.00  0.00     0.093 A 
ATOM     17  C   UNL     1      16.222   4.153  12.060  1.00  0.00     0.130 A 
BRANCH  15  18
ATOM     18  O   UNL     1      19.504   2.898  10.875  1.00  0.00    -0.508 OA
ATOM     19  H   UNL     1      20.379   3.393  10.744  1.00  0.00     0.293 HD
ENDBRANCH  15  18
BRANCH  17  20
ATOM     20  O   UNL     1      14.934   4.362  11.564  1.00  0.00    -0.507 OA
ATOM     21  H   UNL     1      14.292   5.010  12.007  1.00  0.00     0.293 HD
ENDBRANCH  17  20
ENDBRANCH   1  12
BRANCH   2  22
ATOM     22  O   UNL     1      15.352   2.817  15.506  1.00  0.00    -0.502 OA
ATOM     23  H   UNL     1      14.714   2.044  15.360  1.00  0.00     0.293 HD
ENDBRANCH   2  22
BRANCH   6  24
ATOM     24  O   UNL     1      12.145   6.210  18.077  1.00  0.00    -0.507 OA
ATOM     25  H   UNL     1      12.044   6.720  18.943  1.00  0.00     0.293 HD
ENDBRANCH   6  24
BRANCH   8  26
ATOM     26  O   UNL     1      12.377   9.986  15.120  1.00  0.00    -0.508 OA
ATOM     27  H   UNL     1      12.396  10.325  14.165  1.00  0.00     0.293 HD
ENDBRANCH   8  26
TORSDOF 6
ENDMDL
MODEL 3
REMARK VINA RESULT:     3.844      0.721      1.500
REMARK INTER + INTRA:           4.332
REMARK INTER:                   4.729
REMARK INTRA:                  -0.396
REMARK UNBOUND:                -0.299
REMARK SMILES O=c1c(O)c(-c2ccc(O)cc2O)oc2cc(O)cc(O)c12
REMARK SMILES IDX 5 1 3 2 2 3 1 4 22 5 20 6 19 7 17 8 16 9 15 10 14 11 6 12
REMARK SMILES IDX 8 13 7 14 9 15 11 16 12 17 10 18 13 20 4 22 21 24 18 26
REMARK H PARENT 10 19 13 21 4 23 21 25 18 27
REMARK Flexibility Score: inf
ROOT
ATOM      1  C   UNL     1      15.088   5.015  14.791  1.00  0.00     0.184 A 
ATOM      2  C   UNL     1      14.631   6.343  14.791  1.00  0.00     0.208 A 
ATOM      3  C   UNL     1      13.686   6.737  15.750  1.00  0.00     0.238 A 
ATOM      4  O   UNL     1      13.321   7.941  15.781  1.00  0.00    -0.285 OA
ATOM      5  C   UNL     1      13.197   5.793  16.686  1.00  0.00     0.111 A 
ATOM      6  C   UNL     1      12.208   6.070  17.677  1.00  0.00     0.134 A 
ATOM      7  C   UNL     1      11.895   5.096  18.633  1.00  0.00     0.093 A 
ATOM      8  C   UNL     1      12.488   3.832  18.594  1.00  0.00     0.123 A 
ATOM      9  C   UNL     1      13.411   3.531  17.594  1.00  0.00     0.094 A 
ATOM     10  C   UNL     1      13.770   4.495  16.649  1.00  0.00     0.146 A 
ATOM     11  O   UNL     1      14.662   4.169  15.720  1.00  0.00    -0.451 OA
ENDROOT
BRANCH   1  12
ATOM     12  C   UNL     1      16.070   4.532  13.797  1.00  0.00     0.063 A 
ATOM     13  C   UNL     1      16.599   4.017  11.481  1.00  0.00     0.047 A 
ATOM     14  C   UNL     1      15.694   4.464  12.446  1.00  0.00     0.020 A 
ATOM     15  C   UNL     1      17.895   3.647  11.850  1.00  0.00     0.119 A 
ATOM     16  C   UNL     1      18.287   3.734  13.192  1.00  0.00     0.093 A 
ATOM     17  C   UNL     1      17.387   4.186  14.166  1.00  0.00     0.130 A 
BRANCH  15  18
ATOM     18  O   UNL     1      18.786   3.200  10.876  1.00  0.00    -0.508 OA
ATOM     19  H   UNL     1      18.769   2.242  10.544  1.00  0.00     0.293 HD
ENDBRANCH  15  18
BRANCH  17  20
ATOM     20  O   UNL     1      17.805   4.315  15.492  1.00  0.00    -0.507 OA
ATOM     21  H   UNL     1      17.543   3.639  16.200  1.00  0.00     0.293 HD
ENDBRANCH  17  20
ENDBRANCH   1  12
BRANCH   2  22
ATOM     22  O   UNL     1      15.145   7.258  13.868  1.00  0.00    -0.502 OA
ATOM     23  H   UNL     1      15.969   7.815  14.057  1.00  0.00     0.293 HD
ENDBRANCH   2  22
BRANCH   6  24
ATOM     24  O   UNL     1      11.491   7.268  17.749  1.00  0.00    -0.507 OA
ATOM     25  H   UNL     1      11.890   8.186  17.621  1.00  0.00     0.293 HD
ENDBRANCH   6  24
BRANCH   8  26
ATOM     26  O   UNL     1      12.158   2.863  19.539  1.00  0.00    -0.508 OA
ATOM     27  H   UNL     1      11.295   2.336  19.479  1.00  0.00     0.293 HD
ENDBRANCH   8  26
TORSDOF 6
ENDMDL
