MODEL 1
REMARK VINA RESULT:    -4.438      0.000      0.000
REMARK INTER + INTRA:          -4.567
REMARK INTER:                  -4.567
REMARK INTRA:                   0.000
REMARK UNBOUND:                 0.000
REMARK SMILES Nc1ncnc2nc[nH]c12
REMARK SMILES IDX 8 1 7 2 6 3 5 4 4 5 3 6 2 7 10 8 9 9 1 11
REMARK H PARENT 9 10 1 12 1 13
REMARK Flexibility Score: inf
ROOT
ATOM      1  C   UNL     1      -3.379 -29.381  -2.775  1.00  0.00     0.199 A 
ATOM      2  N   UNL     1      -4.154 -30.492  -2.911  1.00  0.00    -0.217 NA
ATOM      3  C   UNL     1      -4.003 -30.786  -4.213  1.00  0.00     0.182 A 
ATOM      4  N   UNL     1      -4.573 -31.820  -4.879  1.00  0.00    -0.215 NA
ATOM      5  C   UNL     1      -4.297 -31.958  -6.212  1.00  0.00     0.226 A 
ATOM      6  N   UNL     1      -3.466 -31.071  -6.847  1.00  0.00    -0.217 NA
ATOM      7  C   UNL     1      -2.891 -30.028  -6.176  1.00  0.00     0.152 A 
ATOM      8  C   UNL     1      -3.181 -29.901  -4.821  1.00  0.00     0.127 A 
ATOM      9  N   UNL     1      -2.770 -28.996  -3.924  1.00  0.00    -0.340 N 
ATOM     10  H   UNL     1      -2.133 -28.181  -4.064  1.00  0.00     0.168 HD
ENDROOT
BRANCH   7  11
ATOM     11  N   UNL     1      -2.029 -29.117  -6.859  1.00  0.00    -0.382 N 
ATOM     12  H   UNL     1      -0.993 -29.241  -6.854  1.00  0.00     0.158 HD
ATOM     13  H   UNL     1      -2.432 -28.306  -7.379  1.00  0.00     0.158 HD
ENDBRANCH   7  11
TORSDOF 1
ENDMDL
MODEL 2
REMARK VINA RESULT:    -4.176      8.601      9.842
REMARK INTER + INTRA:          -4.298
REMARK INTER:                  -4.298
REMARK INTRA:                   0.000
REMARK UNBOUND:                 0.000
REMARK SMILES Nc1ncnc2nc[nH]c12
REMARK SMILES IDX 8 1 7 2 6 3 5 4 4 5 3 6 2 7 10 8 9 9 1 11
REMARK H PARENT 9 10 1 12 1 13
REMARK Flexibility Score: inf
ROOT
ATOM      1  C   UNL     1       4.885 -24.138  -1.455  1.00  0.00     0.199 A 
ATOM      2  N   UNL     1       4.531 -25.381  -1.029  1.00  0.00    -0.217 NA
ATOM      3  C   UNL     1       3.239 -25.213  -0.701  1.00  0.00     0.182 A 
ATOM      4  N   UNL     1       2.400 -26.158  -0.212  1.00  0.00    -0.215 NA
ATOM      5  C   UNL     1       1.110 -25.794   0.064  1.00  0.00     0.226 A 
ATOM      6  N   UNL     1       0.688 -24.507  -0.152  1.00  0.00    -0.217 NA
ATOM      7  C   UNL     1       1.533 -23.553  -0.644  1.00  0.00     0.152 A 
ATOM      8  C   UNL     1       2.842 -23.939  -0.920  1.00  0.00     0.127 A 
ATOM      9  N   UNL     1       3.874 -23.234  -1.401  1.00  0.00    -0.340 N 
ATOM     10  H   UNL     1       3.907 -22.227  -1.674  1.00  0.00     0.168 HD
ENDROOT
BRANCH   7  11
ATOM     11  N   UNL     1       1.071 -22.219  -0.861  1.00  0.00    -0.382 N 
ATOM     12  H   UNL     1       0.242 -22.022  -1.462  1.00  0.00     0.158 HD
ATOM     13  H   UNL     1       1.565 -21.416  -0.412  1.00  0.00     0.158 HD
ENDBRANCH   7  11
TORSDOF 1
ENDMDL
MODEL 3
REMARK VINA RESULT:    -4.171      1.092      3.018
REMARK INTER + INTRA:          -4.293
REMARK INTER:                  -4.293
REMARK INTRA:                   0.000
REMARK UNBOUND:                 0.000
REMARK SMILES Nc1ncnc2nc[nH]c12
REMARK SMILES IDX 8 1 7 2 6 3 5 4 4 5 3 6 2 7 10 8 9 9 1 11
REMARK H PARENT 9 10 1 12 1 13
REMARK Flexibility Score: inf
ROOT
ATOM      1  C   UNL     1      -2.268 -30.619  -6.691  1.00  0.00     0.199 A 
ATOM      2  N   UNL     1      -3.522 -31.148  -6.719  1.00  0.00    -0.217 NA
ATOM      3  C   UNL     1      -4.024 -30.754  -5.538  1.00  0.00     0.182 A 
ATOM      4  N   UNL     1      -5.263 -31.020  -5.057  1.00  0.00    -0.215 NA
ATOM      5  C   UNL     1      -5.596 -30.529  -3.824  1.00  0.00     0.226 A 
ATOM      6  N   UNL     1      -4.693 -29.790  -3.102  1.00  0.00    -0.217 NA
ATOM      7  C   UNL     1      -3.444 -29.522  -3.585  1.00  0.00     0.152 A 
ATOM      8  C   UNL     1      -3.121 -30.028  -4.841  1.00  0.00     0.127 A 
ATOM      9  N   UNL     1      -1.993 -29.928  -5.556  1.00  0.00    -0.340 N 
ATOM     10  H   UNL     1      -1.105 -29.438  -5.310  1.00  0.00     0.168 HD
ENDROOT
BRANCH   7  11
ATOM     11  N   UNL     1      -2.521 -28.751  -2.815  1.00  0.00    -0.382 N 
ATOM     12  H   UNL     1      -2.072 -27.893  -3.204  1.00  0.00     0.158 HD
ATOM     13  H   UNL     1      -2.283 -29.041  -1.840  1.00  0.00     0.158 HD
ENDBRANCH   7  11
TORSDOF 1
ENDMDL
MODEL 4
REMARK VINA RESULT:    -4.148      9.403     10.120
REMARK INTER + INTRA:          -4.270
REMARK INTER:                  -4.270
REMARK INTRA:                   0.000
REMARK UNBOUND:                 0.000
REMARK SMILES Nc1ncnc2nc[nH]c12
REMARK SMILES IDX 8 1 7 2 6 3 5 4 4 5 3 6 2 7 10 8 9 9 1 11
REMARK H PARENT 9 10 1 12 1 13
REMARK Flexibility Score: inf
ROOT
ATOM      1  C   UNL     1       0.985 -23.010  -0.753  1.00  0.00     0.199 A 
ATOM      2  N   UNL     1       1.054 -24.227  -0.148  1.00  0.00    -0.217 NA
ATOM      3  C   UNL     1       2.330 -24.583  -0.368  1.00  0.00     0.182 A 
ATOM      4  N   UNL     1       2.930 -25.731   0.032  1.00  0.00    -0.215 NA
ATOM      5  C   UNL     1       4.246 -25.917  -0.289  1.00  0.00     0.226 A 
ATOM      6  N   UNL     1       4.932 -24.962  -0.996  1.00  0.00    -0.217 NA
ATOM      7  C   UNL     1       4.329 -23.805  -1.401  1.00  0.00     0.152 A 
ATOM      8  C   UNL     1       2.989 -23.631  -1.067  1.00  0.00     0.127 A 
ATOM      9  N   UNL     1       2.152 -22.617  -1.323  1.00  0.00    -0.340 N 
ATOM     10  H   UNL     1       2.340 -21.730  -1.840  1.00  0.00     0.168 HD
ENDROOT
BRANCH   7  11
ATOM     11  N   UNL     1       5.063 -22.825  -2.137  1.00  0.00    -0.382 N 
ATOM     12  H   UNL     1       5.652 -22.112  -1.654  1.00  0.00     0.158 HD
ATOM     13  H   UNL     1       5.018 -22.814  -3.180  1.00  0.00     0.158 HD
ENDBRANCH   7  11
TORSDOF 1
ENDMDL
MODEL 5
REMARK VINA RESULT:    -3.932      1.603      3.226
REMARK INTER + INTRA:          -4.047
REMARK INTER:                  -4.047
REMARK INTRA:                   0.000
REMARK UNBOUND:                 0.000
REMARK SMILES Nc1ncnc2nc[nH]c12
REMARK SMILES IDX 8 1 7 2 6 3 5 4 4 5 3 6 2 7 10 8 9 9 1 11
REMARK H PARENT 9 10 1 12 1 13
REMARK Flexibility Score: inf
ROOT
ATOM      1  C   UNL     1      -2.432 -30.239  -6.237  1.00  0.00     0.199 A 
ATOM      2  N   UNL     1      -3.310 -29.588  -5.426  1.00  0.00    -0.217 NA
ATOM      3  C   UNL     1      -4.261 -30.516  -5.233  1.00  0.00     0.182 A 
ATOM      4  N   UNL     1      -5.385 -30.379  -4.487  1.00  0.00    -0.215 NA
ATOM      5  C   UNL     1      -6.241 -31.443  -4.409  1.00  0.00     0.226 A 
ATOM      6  N   UNL     1      -5.961 -32.612  -5.071  1.00  0.00    -0.217 NA
ATOM      7  C   UNL     1      -4.829 -32.751  -5.823  1.00  0.00     0.152 A 
ATOM      8  C   UNL     1      -3.968 -31.660  -5.892  1.00  0.00     0.127 A 
ATOM      9  N   UNL     1      -2.806 -31.507  -6.540  1.00  0.00    -0.340 N 
ATOM     10  H   UNL     1      -2.298 -32.194  -7.140  1.00  0.00     0.168 HD
ENDROOT
BRANCH   7  11
ATOM     11  N   UNL     1      -4.559 -33.978  -6.503  1.00  0.00    -0.382 N 
ATOM     12  H   UNL     1      -5.251 -34.398  -7.161  1.00  0.00     0.158 HD
ATOM     13  H   UNL     1      -3.653 -34.474  -6.348  1.00  0.00     0.158 HD
ENDBRANCH   7  11
TORSDOF 1
ENDMDL
MODEL 6
REMARK VINA RESULT:    -3.875      1.584      3.086
REMARK INTER + INTRA:          -3.988
REMARK INTER:                  -3.988
REMARK INTRA:                   0.000
REMARK UNBOUND:                 0.000
REMARK SMILES Nc1ncnc2nc[nH]c12
REMARK SMILES IDX 8 1 7 2 6 3 5 4 4 5 3 6 2 7 10 8 9 9 1 11
REMARK H PARENT 9 10 1 12 1 13
REMARK Flexibility Score: inf
ROOT
ATOM      1  C   UNL     1      -1.811 -30.352  -6.747  1.00  0.00     0.199 A 
ATOM      2  N   UNL     1      -1.543 -30.701  -5.460  1.00  0.00    -0.217 NA
ATOM      3  C   UNL     1      -2.768 -30.729  -4.910  1.00  0.00     0.182 A 
ATOM      4  N   UNL     1      -3.070 -31.025  -3.623  1.00  0.00    -0.215 NA
ATOM      5  C   UNL     1      -4.385 -31.002  -3.247  1.00  0.00     0.226 A 
ATOM      6  N   UNL     1      -5.363 -30.686  -4.155  1.00  0.00    -0.217 NA
ATOM      7  C   UNL     1      -5.060 -30.387  -5.454  1.00  0.00     0.152 A 
ATOM      8  C   UNL     1      -3.718 -30.415  -5.820  1.00  0.00     0.127 A 
ATOM      9  N   UNL     1      -3.132 -30.171  -6.999  1.00  0.00    -0.340 N 
ATOM     10  H   UNL     1      -3.575 -29.903  -7.906  1.00  0.00     0.168 HD
ENDROOT
BRANCH   7  11
ATOM     11  N   UNL     1      -6.096 -30.060  -6.381  1.00  0.00    -0.382 N 
ATOM     12  H   UNL     1      -6.962 -29.563  -6.077  1.00  0.00     0.158 HD
ATOM     13  H   UNL     1      -5.996 -30.319  -7.388  1.00  0.00     0.158 HD
ENDBRANCH   7  11
TORSDOF 1
ENDMDL
MODEL 7
REMARK VINA RESULT:    -3.839      1.522      2.512
REMARK INTER + INTRA:          -3.951
REMARK INTER:                  -3.951
REMARK INTRA:                   0.000
REMARK UNBOUND:                 0.000
REMARK SMILES Nc1ncnc2nc[nH]c12
REMARK SMILES IDX 8 1 7 2 6 3 5 4 4 5 3 6 2 7 10 8 9 9 1 11
REMARK H PARENT 9 10 1 12 1 13
REMARK Flexibility Score: inf
ROOT
ATOM      1  C   UNL     1      -6.694 -30.663  -3.935  1.00  0.00     0.199 A 
ATOM      2  N   UNL     1      -6.464 -31.308  -5.111  1.00  0.00    -0.217 NA
ATOM      3  C   UNL     1      -5.180 -31.004  -5.357  1.00  0.00     0.182 A 
ATOM      4  N   UNL     1      -4.445 -31.401  -6.424  1.00  0.00    -0.215 NA
ATOM      5  C   UNL     1      -3.143 -30.986  -6.501  1.00  0.00     0.226 A 
ATOM      6  N   UNL     1      -2.607 -30.191  -5.520  1.00  0.00    -0.217 NA
ATOM      7  C   UNL     1      -3.346 -29.790  -4.444  1.00  0.00     0.152 A 
ATOM      8  C   UNL     1      -4.669 -30.219  -4.380  1.00  0.00     0.127 A 
ATOM      9  N   UNL     1      -5.616 -29.989  -3.462  1.00  0.00    -0.340 N 
ATOM     10  H   UNL     1      -5.552 -29.425  -2.586  1.00  0.00     0.168 HD
ENDROOT
BRANCH   7  11
ATOM     11  N   UNL     1      -2.766 -28.961  -3.436  1.00  0.00    -0.382 N 
ATOM     12  H   UNL     1      -3.144 -28.011  -3.229  1.00  0.00     0.158 HD
ATOM     13  H   UNL     1      -1.946 -29.302  -2.888  1.00  0.00     0.158 HD
ENDBRANCH   7  11
TORSDOF 1
ENDMDL
MODEL 8
REMARK VINA RESULT:    -3.827      1.575      2.533
REMARK INTER + INTRA:          -3.939
REMARK INTER:                  -3.939
REMARK INTRA:                   0.000
REMARK UNBOUND:                 0.000
REMARK SMILES Nc1ncnc2nc[nH]c12
REMARK SMILES IDX 8 1 7 2 6 3 5 4 4 5 3 6 2 7 10 8 9 9 1 11
REMARK H PARENT 9 10 1 12 1 13
REMARK Flexibility Score: inf
ROOT
ATOM      1  C   UNL     1      -6.478 -30.787  -5.517  1.00  0.00     0.199 A 
ATOM      2  N   UNL     1      -6.003 -31.098  -4.280  1.00  0.00    -0.217 NA
ATOM      3  C   UNL     1      -4.688 -30.865  -4.412  1.00  0.00     0.182 A 
ATOM      4  N   UNL     1      -3.739 -31.020  -3.457  1.00  0.00    -0.215 NA
ATOM      5  C   UNL     1      -2.442 -30.730  -3.783  1.00  0.00     0.226 A 
ATOM      6  N   UNL     1      -2.122 -30.294  -5.043  1.00  0.00    -0.217 NA
ATOM      7  C   UNL     1      -3.077 -30.137  -6.007  1.00  0.00     0.152 A 
ATOM      8  C   UNL     1      -4.391 -30.437  -5.660  1.00  0.00     0.127 A 
ATOM      9  N   UNL     1      -5.517 -30.379  -6.383  1.00  0.00    -0.340 N 
ATOM     10  H   UNL     1      -5.640 -30.090  -7.379  1.00  0.00     0.168 HD
ENDROOT
BRANCH   7  11
ATOM     11  N   UNL     1      -2.719 -29.682  -7.313  1.00  0.00    -0.382 N 
ATOM     12  H   UNL     1      -1.793 -29.914  -7.734  1.00  0.00     0.158 HD
ATOM     13  H   UNL     1      -3.390 -29.106  -7.868  1.00  0.00     0.158 HD
ENDBRANCH   7  11
TORSDOF 1
ENDMDL
MODEL 9
REMARK VINA RESULT:    -3.746      9.434     10.337
REMARK INTER + INTRA:          -3.856
REMARK INTER:                  -3.856
REMARK INTRA:                   0.000
REMARK UNBOUND:                 0.000
REMARK SMILES Nc1ncnc2nc[nH]c12
REMARK SMILES IDX 8 1 7 2 6 3 5 4 4 5 3 6 2 7 10 8 9 9 1 11
REMARK H PARENT 9 10 1 12 1 13
REMARK Flexibility Score: inf
ROOT
ATOM      1  C   UNL     1       4.744 -23.566  -1.960  1.00  0.00     0.199 A 
ATOM      2  N   UNL     1       3.513 -23.273  -1.457  1.00  0.00    -0.217 NA
ATOM      3  C   UNL     1       3.245 -24.356  -0.711  1.00  0.00     0.182 A 
ATOM      4  N   UNL     1       2.124 -24.578   0.018  1.00  0.00    -0.215 NA
ATOM      5  C   UNL     1       2.031 -25.750   0.718  1.00  0.00     0.226 A 
ATOM      6  N   UNL     1       3.050 -26.667   0.678  1.00  0.00    -0.217 NA
ATOM      7  C   UNL     1       4.180 -26.445  -0.056  1.00  0.00     0.152 A 
ATOM      8  C   UNL     1       4.259 -25.249  -0.763  1.00  0.00     0.127 A 
ATOM      9  N   UNL     1       5.227 -24.767  -1.553  1.00  0.00    -0.340 N 
ATOM     10  H   UNL     1       6.141 -25.202  -1.806  1.00  0.00     0.168 HD
ENDROOT
BRANCH   7  11
ATOM     11  N   UNL     1       5.228 -27.416  -0.083  1.00  0.00    -0.382 N 
ATOM     12  H   UNL     1       5.575 -27.816  -0.982  1.00  0.00     0.158 HD
ATOM     13  H   UNL     1       5.664 -27.739   0.809  1.00  0.00     0.158 HD
ENDBRANCH   7  11
TORSDOF 1
ENDMDL
