MODEL 1
REMARK VINA RESULT:    20.217      0.000      0.000
REMARK INTER + INTRA:          22.580
REMARK INTER:                  22.580
REMARK INTRA:                   0.000
REMARK UNBOUND:                 0.000
REMARK SMILES Oc1cc(O)c2c(c1)CCc1cc(O)c(O)cc1-2
REMARK SMILES IDX 10 1 9 2 7 3 6 4 18 5 17 6 15 7 13 8 12 9 11 10 4 11 3 12
REMARK SMILES IDX 2 13 8 14 14 15 5 17 1 19 16 21
REMARK H PARENT 14 16 5 18 1 20 16 22
REMARK Flexibility Score: inf
ROOT
ATOM      1  C   UNL     1      32.695  23.995  31.757  1.00  0.00     0.041 C 
ATOM      2  C   UNL     1      31.579  22.944  31.771  1.00  0.00     0.041 C 
ATOM      3  C   UNL     1      30.810  22.969  30.473  1.00  0.00    -0.032 A 
ATOM      4  C   UNL     1      31.484  23.234  29.256  1.00  0.00     0.027 A 
ATOM      5  C   UNL     1      32.965  23.452  29.304  1.00  0.00    -0.007 A 
ATOM      6  C   UNL     1      33.805  23.201  28.200  1.00  0.00     0.059 A 
ATOM      7  C   UNL     1      35.186  23.422  28.285  1.00  0.00     0.158 A 
ATOM      8  C   UNL     1      35.750  23.873  29.487  1.00  0.00     0.157 A 
ATOM      9  C   UNL     1      34.936  24.068  30.605  1.00  0.00     0.054 A 
ATOM     10  C   UNL     1      33.556  23.828  30.531  1.00  0.00    -0.036 A 
ATOM     11  C   UNL     1      30.719  23.353  28.068  1.00  0.00     0.127 A 
ATOM     12  C   UNL     1      29.344  23.082  28.093  1.00  0.00     0.093 A 
ATOM     13  C   UNL     1      28.705  22.744  29.289  1.00  0.00     0.119 A 
ATOM     14  C   UNL     1      29.435  22.695  30.475  1.00  0.00     0.050 A 
ENDROOT
BRANCH   8  15
ATOM     15  O   UNL     1      37.119  24.118  29.596  1.00  0.00    -0.504 OA
ATOM     16  H   UNL     1      37.525  25.014  29.360  1.00  0.00     0.293 HD
ENDBRANCH   8  15
BRANCH  11  17
ATOM     17  O   UNL     1      31.302  23.778  26.876  1.00  0.00    -0.507 OA
ATOM     18  H   UNL     1      31.858  23.155  26.301  1.00  0.00     0.293 HD
ENDBRANCH  11  17
BRANCH  13  19
ATOM     19  O   UNL     1      27.339  22.467  29.310  1.00  0.00    -0.508 OA
ATOM     20  H   UNL     1      26.807  22.355  28.455  1.00  0.00     0.293 HD
ENDBRANCH  13  19
BRANCH   7  21
ATOM     21  O   UNL     1      36.002  23.188  27.178  1.00  0.00    -0.504 OA
ATOM     22  H   UNL     1      35.986  23.797  26.367  1.00  0.00     0.293 HD
ENDBRANCH   7  21
TORSDOF 4
ENDMDL
MODEL 2
REMARK VINA RESULT:    21.964     16.567     16.998
REMARK INTER + INTRA:          24.532
REMARK INTER:                  24.532
REMARK INTRA:                   0.000
REMARK UNBOUND:                 0.000
REMARK SMILES Oc1cc(O)c2c(c1)CCc1cc(O)c(O)cc1-2
REMARK SMILES IDX 10 1 9 2 7 3 6 4 18 5 17 6 15 7 13 8 12 9 11 10 4 11 3 12
REMARK SMILES IDX 2 13 8 14 14 15 5 17 1 19 16 21
REMARK H PARENT 14 16 5 18 1 20 16 22
REMARK Flexibility Score: inf
ROOT
ATOM      1  C   UNL     1      37.125  12.112  41.200  1.00  0.00     0.041 C 
ATOM      2  C   UNL     1      36.312  11.713  39.963  1.00  0.00     0.041 C 
ATOM      3  C   UNL     1      34.918  11.290  40.358  1.00  0.00    -0.032 A 
ATOM      4  C   UNL     1      34.258  11.940  41.429  1.00  0.00     0.027 A 
ATOM      5  C   UNL     1      34.971  13.062  42.120  1.00  0.00    -0.007 A 
ATOM      6  C   UNL     1      34.288  14.095  42.793  1.00  0.00     0.059 A 
ATOM      7  C   UNL     1      34.994  15.124  43.430  1.00  0.00     0.158 A 
ATOM      8  C   UNL     1      36.395  15.148  43.379  1.00  0.00     0.157 A 
ATOM      9  C   UNL     1      37.080  14.163  42.665  1.00  0.00     0.054 A 
ATOM     10  C   UNL     1      36.378  13.142  42.008  1.00  0.00    -0.036 A 
ATOM     11  C   UNL     1      32.993  11.452  41.844  1.00  0.00     0.127 A 
ATOM     12  C   UNL     1      32.363  10.434  41.114  1.00  0.00     0.093 A 
ATOM     13  C   UNL     1      32.993   9.855  40.009  1.00  0.00     0.119 A 
ATOM     14  C   UNL     1      34.269  10.277  39.639  1.00  0.00     0.050 A 
ENDROOT
BRANCH   8  15
ATOM     15  O   UNL     1      37.125  16.151  44.018  1.00  0.00    -0.504 OA
ATOM     16  H   UNL     1      37.478  16.959  43.520  1.00  0.00     0.293 HD
ENDBRANCH   8  15
BRANCH  11  17
ATOM     17  O   UNL     1      32.375  11.940  42.994  1.00  0.00    -0.507 OA
ATOM     18  H   UNL     1      31.664  12.661  42.955  1.00  0.00     0.293 HD
ENDBRANCH  11  17
BRANCH  13  19
ATOM     19  O   UNL     1      32.364   8.848  39.280  1.00  0.00    -0.508 OA
ATOM     20  H   UNL     1      32.439   7.874  39.548  1.00  0.00     0.293 HD
ENDBRANCH  13  19
BRANCH   7  21
ATOM     21  O   UNL     1      34.305  16.129  44.109  1.00  0.00    -0.504 OA
ATOM     22  H   UNL     1      34.558  16.405  45.051  1.00  0.00     0.293 HD
ENDBRANCH   7  21
TORSDOF 4
ENDMDL
