MODEL 1
REMARK VINA RESULT:    -5.022      0.000      0.000
REMARK INTER + INTRA:          -7.023
REMARK INTER:                  -6.783
REMARK INTRA:                  -0.240
REMARK UNBOUND:                -0.240
REMARK SMILES CCCCCCCC(=O)[O-]
REMARK SMILES IDX 5 1 6 2 7 3 8 4 9 5 10 6 4 7 3 8 2 9 1 10
REMARK H PARENT
REMARK Flexibility Score: inf
ROOT
ATOM      1  C   UNL     1      19.987 -29.477  11.819  1.00  0.00     0.000 C 
ENDROOT
BRANCH   1   2
ATOM      2  C   UNL     1      20.109 -29.014  10.360  1.00  0.00     0.006 C 
BRANCH   2   3
ATOM      3  C   UNL     1      18.888 -29.411   9.521  1.00  0.00     0.053 C 
BRANCH   3   4
ATOM      4  C   UNL     1      18.518 -28.343   8.536  1.00  0.00     0.041 C 
ATOM      5  O   UNL     1      17.348 -28.284   8.078  1.00  0.00    -0.550 OA
ATOM      6  O   UNL     1      19.457 -27.395   8.152  1.00  0.00    -0.550 OA
ENDBRANCH   3   4
ENDBRANCH   2   3
ENDBRANCH   1   2
BRANCH   1   7
ATOM      7  C   UNL     1      18.561 -29.949  12.129  1.00  0.00     0.000 C 
BRANCH   7   8
ATOM      8  C   UNL     1      18.356 -30.128  13.639  1.00  0.00    -0.000 C 
BRANCH   8   9
ATOM      9  C   UNL     1      17.177 -31.066  13.926  1.00  0.00    -0.003 C 
ATOM     10  C   UNL     1      15.988 -30.746  13.025  1.00  0.00     0.004 C 
ENDBRANCH   8   9
ENDBRANCH   7   8
ENDBRANCH   1   7
TORSDOF 6
ENDMDL
MODEL 2
REMARK VINA RESULT:    -5.015      7.947      8.755
REMARK INTER + INTRA:          -7.013
REMARK INTER:                  -6.525
REMARK INTRA:                  -0.488
REMARK UNBOUND:                -0.240
REMARK SMILES CCCCCCCC(=O)[O-]
REMARK SMILES IDX 5 1 6 2 7 3 8 4 9 5 10 6 4 7 3 8 2 9 1 10
REMARK H PARENT
REMARK Flexibility Score: inf
ROOT
ATOM      1  C   UNL     1       9.949 -24.922   9.327  1.00  0.00     0.000 C 
ENDROOT
BRANCH   1   2
ATOM      2  C   UNL     1      11.459 -25.204   9.290  1.00  0.00     0.006 C 
BRANCH   2   3
ATOM      3  C   UNL     1      11.812 -26.357   8.343  1.00  0.00     0.053 C 
BRANCH   3   4
ATOM      4  C   UNL     1      11.278 -26.127   6.962  1.00  0.00     0.041 C 
ATOM      5  O   UNL     1      10.365 -26.863   6.505  1.00  0.00    -0.550 OA
ATOM      6  O   UNL     1      11.765 -25.077   6.193  1.00  0.00    -0.550 OA
ENDBRANCH   3   4
ENDBRANCH   2   3
ENDBRANCH   1   2
BRANCH   1   7
ATOM      7  C   UNL     1       9.327 -25.433  10.632  1.00  0.00     0.000 C 
BRANCH   7   8
ATOM      8  C   UNL     1      10.357 -25.441  11.768  1.00  0.00    -0.000 C 
BRANCH   8   9
ATOM      9  C   UNL     1      10.234 -26.715  12.613  1.00  0.00    -0.003 C 
ATOM     10  C   UNL     1      10.457 -27.963  11.764  1.00  0.00     0.004 C 
ENDBRANCH   8   9
ENDBRANCH   7   8
ENDBRANCH   1   7
TORSDOF 6
ENDMDL
MODEL 3
REMARK VINA RESULT:    -5.001      2.992      5.255
REMARK INTER + INTRA:          -6.995
REMARK INTER:                  -6.730
REMARK INTRA:                  -0.265
REMARK UNBOUND:                -0.240
REMARK SMILES CCCCCCCC(=O)[O-]
REMARK SMILES IDX 5 1 6 2 7 3 8 4 9 5 10 6 4 7 3 8 2 9 1 10
REMARK H PARENT
REMARK Flexibility Score: inf
ROOT
ATOM      1  C   UNL     1      20.049 -29.656  11.358  1.00  0.00     0.000 C 
ENDROOT
BRANCH   1   2
ATOM      2  C   UNL     1      18.607 -29.756  11.878  1.00  0.00     0.006 C 
BRANCH   2   3
ATOM      3  C   UNL     1      18.550 -30.149  13.359  1.00  0.00     0.053 C 
BRANCH   3   4
ATOM      4  C   UNL     1      17.268 -30.847  13.700  1.00  0.00     0.041 C 
ATOM      5  O   UNL     1      17.237 -31.694  14.631  1.00  0.00    -0.550 OA
ATOM      6  O   UNL     1      16.102 -30.536  13.012  1.00  0.00    -0.550 OA
ENDBRANCH   3   4
ENDBRANCH   2   3
ENDBRANCH   1   2
BRANCH   1   7
ATOM      7  C   UNL     1      20.073 -29.265   9.875  1.00  0.00     0.000 C 
BRANCH   7   8
ATOM      8  C   UNL     1      18.658 -29.255   9.285  1.00  0.00    -0.000 C 
BRANCH   8   9
ATOM      9  C   UNL     1      18.475 -28.084   8.312  1.00  0.00    -0.003 C 
ATOM     10  C   UNL     1      19.823 -27.555   7.829  1.00  0.00     0.004 C 
ENDBRANCH   8   9
ENDBRANCH   7   8
ENDBRANCH   1   7
TORSDOF 6
ENDMDL
MODEL 4
REMARK VINA RESULT:    -4.986      8.502     10.215
REMARK INTER + INTRA:          -6.974
REMARK INTER:                  -6.617
REMARK INTRA:                  -0.357
REMARK UNBOUND:                -0.240
REMARK SMILES CCCCCCCC(=O)[O-]
REMARK SMILES IDX 5 1 6 2 7 3 8 4 9 5 10 6 4 7 3 8 2 9 1 10
REMARK H PARENT
REMARK Flexibility Score: inf
ROOT
ATOM      1  C   UNL     1       9.594 -25.221   9.190  1.00  0.00     0.000 C 
ENDROOT
BRANCH   1   2
ATOM      2  C   UNL     1       9.303 -25.358  10.692  1.00  0.00     0.006 C 
BRANCH   2   3
ATOM      3  C   UNL     1      10.525 -25.847  11.479  1.00  0.00     0.053 C 
BRANCH   3   4
ATOM      4  C   UNL     1      10.371 -27.272  11.917  1.00  0.00     0.041 C 
ATOM      5  O   UNL     1       9.803 -27.541  13.007  1.00  0.00    -0.550 OA
ATOM      6  O   UNL     1      10.826 -28.303  11.104  1.00  0.00    -0.550 OA
ENDBRANCH   3   4
ENDBRANCH   2   3
ENDBRANCH   1   2
BRANCH   1   7
ATOM      7  C   UNL     1       9.033 -26.417   8.411  1.00  0.00     0.000 C 
BRANCH   7   8
ATOM      8  C   UNL     1       9.764 -26.595   7.074  1.00  0.00    -0.000 C 
BRANCH   8   9
ATOM      9  C   UNL     1      11.233 -26.171   7.190  1.00  0.00    -0.003 C 
ATOM     10  C   UNL     1      11.642 -25.279   6.021  1.00  0.00     0.004 C 
ENDBRANCH   8   9
ENDBRANCH   7   8
ENDBRANCH   1   7
TORSDOF 6
ENDMDL
MODEL 5
REMARK VINA RESULT:    -4.958      8.262      9.692
REMARK INTER + INTRA:          -6.937
REMARK INTER:                  -6.582
REMARK INTRA:                  -0.356
REMARK UNBOUND:                -0.240
REMARK SMILES CCCCCCCC(=O)[O-]
REMARK SMILES IDX 5 1 6 2 7 3 8 4 9 5 10 6 4 7 3 8 2 9 1 10
REMARK H PARENT
REMARK Flexibility Score: inf
ROOT
ATOM      1  C   UNL     1      11.909 -25.193   9.618  1.00  0.00     0.000 C 
ENDROOT
BRANCH   1   2
ATOM      2  C   UNL     1      10.595 -25.248  10.411  1.00  0.00     0.006 C 
BRANCH   2   3
ATOM      3  C   UNL     1      10.814 -25.664  11.871  1.00  0.00     0.053 C 
BRANCH   3   4
ATOM      4  C   UNL     1      10.393 -27.082  12.115  1.00  0.00     0.041 C 
ATOM      5  O   UNL     1       9.848 -27.400  13.204  1.00  0.00    -0.550 OA
ATOM      6  O   UNL     1      10.570 -28.041  11.127  1.00  0.00    -0.550 OA
ENDBRANCH   3   4
ENDBRANCH   2   3
ENDBRANCH   1   2
BRANCH   1   7
ATOM      7  C   UNL     1      11.850 -26.112   8.392  1.00  0.00     0.000 C 
BRANCH   7   8
ATOM      8  C   UNL     1      10.853 -25.583   7.354  1.00  0.00    -0.000 C 
BRANCH   8   9
ATOM      9  C   UNL     1       9.881 -26.684   6.914  1.00  0.00    -0.003 C 
ATOM     10  C   UNL     1       8.639 -26.709   7.801  1.00  0.00     0.004 C 
ENDBRANCH   8   9
ENDBRANCH   7   8
ENDBRANCH   1   7
TORSDOF 6
ENDMDL
MODEL 6
REMARK VINA RESULT:    -4.917      7.926      9.016
REMARK INTER + INTRA:          -6.881
REMARK INTER:                  -6.546
REMARK INTRA:                  -0.335
REMARK UNBOUND:                -0.240
REMARK SMILES CCCCCCCC(=O)[O-]
REMARK SMILES IDX 5 1 6 2 7 3 8 4 9 5 10 6 4 7 3 8 2 9 1 10
REMARK H PARENT
REMARK Flexibility Score: inf
ROOT
ATOM      1  C   UNL     1       9.189 -25.322  10.710  1.00  0.00     0.000 C 
ENDROOT
BRANCH   1   2
ATOM      2  C   UNL     1       9.500 -25.034   9.234  1.00  0.00     0.006 C 
BRANCH   2   3
ATOM      3  C   UNL     1       9.267 -26.259   8.342  1.00  0.00     0.053 C 
BRANCH   3   4
ATOM      4  C   UNL     1      10.468 -26.572   7.501  1.00  0.00     0.041 C 
ATOM      5  O   UNL     1      10.324 -26.949   6.309  1.00  0.00    -0.550 OA
ATOM      6  O   UNL     1      11.744 -26.413   8.024  1.00  0.00    -0.550 OA
ENDBRANCH   3   4
ENDBRANCH   2   3
ENDBRANCH   1   2
BRANCH   1   7
ATOM      7  C   UNL     1      10.462 -25.703  11.476  1.00  0.00     0.000 C 
BRANCH   7   8
ATOM      8  C   UNL     1      10.124 -26.457  12.767  1.00  0.00    -0.000 C 
BRANCH   8   9
ATOM      9  C   UNL     1      10.345 -27.965  12.597  1.00  0.00    -0.003 C 
ATOM     10  C   UNL     1      10.798 -28.298  11.178  1.00  0.00     0.004 C 
ENDBRANCH   8   9
ENDBRANCH   7   8
ENDBRANCH   1   7
TORSDOF 6
ENDMDL
MODEL 7
REMARK VINA RESULT:    -4.617     17.749     19.896
REMARK INTER + INTRA:          -6.477
REMARK INTER:                  -6.212
REMARK INTRA:                  -0.264
REMARK UNBOUND:                -0.240
REMARK SMILES CCCCCCCC(=O)[O-]
REMARK SMILES IDX 5 1 6 2 7 3 8 4 9 5 10 6 4 7 3 8 2 9 1 10
REMARK H PARENT
REMARK Flexibility Score: inf
ROOT
ATOM      1  C   UNL     1       3.439 -28.984  25.609  1.00  0.00     0.000 C 
ENDROOT
BRANCH   1   2
ATOM      2  C   UNL     1       4.909 -29.320  25.903  1.00  0.00     0.006 C 
BRANCH   2   3
ATOM      3  C   UNL     1       5.655 -29.802  24.653  1.00  0.00     0.053 C 
BRANCH   3   4
ATOM      4  C   UNL     1       7.112 -29.453  24.706  1.00  0.00     0.041 C 
ATOM      5  O   UNL     1       7.656 -29.173  25.806  1.00  0.00    -0.550 OA
ATOM      6  O   UNL     1       7.874 -29.470  23.545  1.00  0.00    -0.550 OA
ENDBRANCH   3   4
ENDBRANCH   2   3
ENDBRANCH   1   2
BRANCH   1   7
ATOM      7  C   UNL     1       3.059 -29.383  24.178  1.00  0.00     0.000 C 
BRANCH   7   8
ATOM      8  C   UNL     1       2.032 -28.409  23.588  1.00  0.00    -0.000 C 
BRANCH   8   9
ATOM      9  C   UNL     1       0.909 -29.164  22.867  1.00  0.00    -0.003 C 
ATOM     10  C   UNL     1       0.803 -30.602  23.367  1.00  0.00     0.004 C 
ENDBRANCH   8   9
ENDBRANCH   7   8
ENDBRANCH   1   7
TORSDOF 6
ENDMDL
MODEL 8
REMARK VINA RESULT:    -4.514     17.568     19.765
REMARK INTER + INTRA:          -6.337
REMARK INTER:                  -6.092
REMARK INTRA:                  -0.245
REMARK UNBOUND:                -0.240
REMARK SMILES CCCCCCCC(=O)[O-]
REMARK SMILES IDX 5 1 6 2 7 3 8 4 9 5 10 6 4 7 3 8 2 9 1 10
REMARK H PARENT
REMARK Flexibility Score: inf
ROOT
ATOM      1  C   UNL     1       3.532 -29.031  25.352  1.00  0.00     0.000 C 
ENDROOT
BRANCH   1   2
ATOM      2  C   UNL     1       5.019 -29.400  25.454  1.00  0.00     0.006 C 
BRANCH   2   3
ATOM      3  C   UNL     1       5.542 -30.060  24.173  1.00  0.00     0.053 C 
BRANCH   3   4
ATOM      4  C   UNL     1       7.032 -30.224  24.199  1.00  0.00     0.041 C 
ATOM      5  O   UNL     1       7.585 -31.099  23.484  1.00  0.00    -0.550 OA
ATOM      6  O   UNL     1       7.810 -29.386  24.988  1.00  0.00    -0.550 OA
ENDBRANCH   3   4
ENDBRANCH   2   3
ENDBRANCH   1   2
BRANCH   1   7
ATOM      7  C   UNL     1       2.969 -29.391  23.972  1.00  0.00     0.000 C 
BRANCH   7   8
ATOM      8  C   UNL     1       1.777 -28.496  23.612  1.00  0.00    -0.000 C 
BRANCH   8   9
ATOM      9  C   UNL     1       0.736 -29.268  22.793  1.00  0.00    -0.003 C 
ATOM     10  C   UNL     1       0.510 -30.664  23.367  1.00  0.00     0.004 C 
ENDBRANCH   8   9
ENDBRANCH   7   8
ENDBRANCH   1   7
TORSDOF 6
ENDMDL
MODEL 9
REMARK VINA RESULT:    -4.435     18.919     19.547
REMARK INTER + INTRA:          -6.230
REMARK INTER:                  -6.008
REMARK INTRA:                  -0.222
REMARK UNBOUND:                -0.240
REMARK SMILES CCCCCCCC(=O)[O-]
REMARK SMILES IDX 5 1 6 2 7 3 8 4 9 5 10 6 4 7 3 8 2 9 1 10
REMARK H PARENT
REMARK Flexibility Score: inf
ROOT
ATOM      1  C   UNL     1       1.226 -23.584  14.896  1.00  0.00     0.000 C 
ENDROOT
BRANCH   1   2
ATOM      2  C   UNL     1       0.869 -22.339  14.071  1.00  0.00     0.006 C 
BRANCH   2   3
ATOM      3  C   UNL     1       1.678 -21.108  14.497  1.00  0.00     0.053 C 
BRANCH   3   4
ATOM      4  C   UNL     1       0.833 -19.870  14.530  1.00  0.00     0.041 C 
ATOM      5  O   UNL     1       0.595 -19.238  13.468  1.00  0.00    -0.550 OA
ATOM      6  O   UNL     1       0.281 -19.437  15.728  1.00  0.00    -0.550 OA
ENDBRANCH   3   4
ENDBRANCH   2   3
ENDBRANCH   1   2
BRANCH   1   7
ATOM      7  C   UNL     1       0.309 -23.715  16.118  1.00  0.00     0.000 C 
BRANCH   7   8
ATOM      8  C   UNL     1       1.112 -24.087  17.371  1.00  0.00    -0.000 C 
BRANCH   8   9
ATOM      9  C   UNL     1       1.463 -25.579  17.376  1.00  0.00    -0.003 C 
ATOM     10  C   UNL     1       0.267 -26.428  16.954  1.00  0.00     0.004 C 
ENDBRANCH   8   9
ENDBRANCH   7   8
ENDBRANCH   1   7
TORSDOF 6
ENDMDL
