MODEL 1
REMARK VINA RESULT:    -4.860      0.000      0.000
REMARK INTER + INTRA:          -5.003
REMARK INTER:                  -5.003
REMARK INTRA:                   0.000
REMARK UNBOUND:                 0.000
REMARK SMILES Oc1ccc2[nH]ccc2c1
REMARK SMILES IDX 3 1 4 2 5 3 9 4 8 5 7 6 6 7 10 8 2 9 1 11
REMARK H PARENT 6 10 1 12
REMARK Flexibility Score: inf
ROOT
ATOM      1  C   UNL     1       9.297 -28.817  18.521  1.00  0.00     0.048 A 
ATOM      2  C   UNL     1       9.993 -28.413  17.366  1.00  0.00     0.030 A 
ATOM      3  C   UNL     1       9.632 -28.996  16.153  1.00  0.00     0.046 A 
ATOM      4  C   UNL     1       8.635 -29.931  16.071  1.00  0.00     0.003 A 
ATOM      5  C   UNL     1       8.527 -30.304  14.749  1.00  0.00     0.028 A 
ATOM      6  C   UNL     1       9.490 -29.554  14.081  1.00  0.00     0.083 A 
ATOM      7  N   UNL     1      10.162 -28.757  14.942  1.00  0.00    -0.361 N 
ATOM      8  C   UNL     1       7.927 -30.353  17.194  1.00  0.00     0.056 A 
ATOM      9  C   UNL     1       8.267 -29.784  18.439  1.00  0.00     0.116 A 
ATOM     10  H   UNL     1      10.934 -28.093  14.710  1.00  0.00     0.166 HD
ENDROOT
BRANCH   9  11
ATOM     11  O   UNL     1       7.594 -30.165  19.597  1.00  0.00    -0.508 OA
ATOM     12  H   UNL     1       6.795 -30.789  19.563  1.00  0.00     0.293 HD
ENDBRANCH   9  11
TORSDOF 1
ENDMDL
MODEL 2
REMARK VINA RESULT:    -4.849      1.725      2.380
REMARK INTER + INTRA:          -4.991
REMARK INTER:                  -4.991
REMARK INTRA:                   0.000
REMARK UNBOUND:                 0.000
REMARK SMILES Oc1ccc2[nH]ccc2c1
REMARK SMILES IDX 3 1 4 2 5 3 9 4 8 5 7 6 6 7 10 8 2 9 1 11
REMARK H PARENT 6 10 1 12
REMARK Flexibility Score: inf
ROOT
ATOM      1  C   UNL     1       6.581 -29.814  18.037  1.00  0.00     0.048 A 
ATOM      2  C   UNL     1       6.022 -29.895  16.748  1.00  0.00     0.030 A 
ATOM      3  C   UNL     1       6.890 -29.853  15.659  1.00  0.00     0.046 A 
ATOM      4  C   UNL     1       8.245 -29.736  15.822  1.00  0.00     0.003 A 
ATOM      5  C   UNL     1       8.811 -29.723  14.566  1.00  0.00     0.028 A 
ATOM      6  C   UNL     1       7.741 -29.836  13.684  1.00  0.00     0.083 A 
ATOM      7  N   UNL     1       6.571 -29.914  14.356  1.00  0.00    -0.361 N 
ATOM      8  C   UNL     1       8.830 -29.654  17.083  1.00  0.00     0.056 A 
ATOM      9  C   UNL     1       7.980 -29.693  18.208  1.00  0.00     0.116 A 
ATOM     10  H   UNL     1       5.616 -30.005  13.943  1.00  0.00     0.166 HD
ENDROOT
BRANCH   9  11
ATOM     11  O   UNL     1       8.507 -29.615  19.495  1.00  0.00    -0.508 OA
ATOM     12  H   UNL     1       8.249 -28.866  20.128  1.00  0.00     0.293 HD
ENDBRANCH   9  11
TORSDOF 1
ENDMDL
MODEL 3
REMARK VINA RESULT:    -4.448      1.621      2.190
REMARK INTER + INTRA:          -4.578
REMARK INTER:                  -4.578
REMARK INTRA:                   0.000
REMARK UNBOUND:                 0.000
REMARK SMILES Oc1ccc2[nH]ccc2c1
REMARK SMILES IDX 3 1 4 2 5 3 9 4 8 5 7 6 6 7 10 8 2 9 1 11
REMARK H PARENT 6 10 1 12
REMARK Flexibility Score: inf
ROOT
ATOM      1  C   UNL     1       9.585 -28.910  17.449  1.00  0.00     0.048 A 
ATOM      2  C   UNL     1       9.162 -29.102  16.120  1.00  0.00     0.030 A 
ATOM      3  C   UNL     1       7.936 -29.731  15.914  1.00  0.00     0.046 A 
ATOM      4  C   UNL     1       7.157 -30.153  16.958  1.00  0.00     0.003 A 
ATOM      5  C   UNL     1       6.025 -30.728  16.423  1.00  0.00     0.028 A 
ATOM      6  C   UNL     1       6.181 -30.621  15.044  1.00  0.00     0.083 A 
ATOM      7  N   UNL     1       7.349 -30.012  14.738  1.00  0.00    -0.361 N 
ATOM      8  C   UNL     1       7.546 -29.978  18.284  1.00  0.00     0.056 A 
ATOM      9  C   UNL     1       8.783 -29.345  18.530  1.00  0.00     0.116 A 
ATOM     10  H   UNL     1       7.716 -29.803  13.783  1.00  0.00     0.166 HD
ENDROOT
BRANCH   9  11
ATOM     11  O   UNL     1       9.225 -29.142  19.835  1.00  0.00    -0.508 OA
ATOM     12  H   UNL     1       9.696 -29.874  20.354  1.00  0.00     0.293 HD
ENDBRANCH   9  11
TORSDOF 1
ENDMDL
MODEL 4
REMARK VINA RESULT:    -4.441      1.113      1.394
REMARK INTER + INTRA:          -4.570
REMARK INTER:                  -4.570
REMARK INTRA:                   0.000
REMARK UNBOUND:                 0.000
REMARK SMILES Oc1ccc2[nH]ccc2c1
REMARK SMILES IDX 3 1 4 2 5 3 9 4 8 5 7 6 6 7 10 8 2 9 1 11
REMARK H PARENT 6 10 1 12
REMARK Flexibility Score: inf
ROOT
ATOM      1  C   UNL     1       8.817 -29.048  17.947  1.00  0.00     0.048 A 
ATOM      2  C   UNL     1       9.985 -28.473  17.411  1.00  0.00     0.030 A 
ATOM      3  C   UNL     1      10.269 -28.710  16.068  1.00  0.00     0.046 A 
ATOM      4  C   UNL     1       9.447 -29.474  15.282  1.00  0.00     0.003 A 
ATOM      5  C   UNL     1      10.003 -29.513  14.022  1.00  0.00     0.028 A 
ATOM      6  C   UNL     1      11.163 -28.750  14.112  1.00  0.00     0.083 A 
ATOM      7  N   UNL     1      11.321 -28.263  15.363  1.00  0.00    -0.361 N 
ATOM      8  C   UNL     1       8.284 -30.056  15.780  1.00  0.00     0.056 A 
ATOM      9  C   UNL     1       7.967 -29.837  17.137  1.00  0.00     0.116 A 
ATOM     10  H   UNL     1      12.102 -27.661  15.708  1.00  0.00     0.166 HD
ENDROOT
BRANCH   9  11
ATOM     11  O   UNL     1       6.817 -30.392  17.692  1.00  0.00    -0.508 OA
ATOM     12  H   UNL     1       6.269 -29.893  18.384  1.00  0.00     0.293 HD
ENDBRANCH   9  11
TORSDOF 1
ENDMDL
MODEL 5
REMARK VINA RESULT:    -4.439      2.590      3.343
REMARK INTER + INTRA:          -4.569
REMARK INTER:                  -4.569
REMARK INTRA:                   0.000
REMARK UNBOUND:                 0.000
REMARK SMILES Oc1ccc2[nH]ccc2c1
REMARK SMILES IDX 3 1 4 2 5 3 9 4 8 5 7 6 6 7 10 8 2 9 1 11
REMARK H PARENT 6 10 1 12
REMARK Flexibility Score: inf
ROOT
ATOM      1  C   UNL     1      10.326 -28.104  17.553  1.00  0.00     0.048 A 
ATOM      2  C   UNL     1       9.322 -28.556  18.429  1.00  0.00     0.030 A 
ATOM      3  C   UNL     1       8.311 -29.357  17.901  1.00  0.00     0.046 A 
ATOM      4  C   UNL     1       8.283 -29.701  16.576  1.00  0.00     0.003 A 
ATOM      5  C   UNL     1       7.170 -30.489  16.378  1.00  0.00     0.028 A 
ATOM      6  C   UNL     1       6.566 -30.583  17.627  1.00  0.00     0.083 A 
ATOM      7  N   UNL     1       7.266 -29.891  18.554  1.00  0.00    -0.361 N 
ATOM      8  C   UNL     1       9.262 -29.271  15.682  1.00  0.00     0.056 A 
ATOM      9  C   UNL     1      10.300 -28.458  16.184  1.00  0.00     0.116 A 
ATOM     10  H   UNL     1       7.038 -29.793  19.568  1.00  0.00     0.166 HD
ENDROOT
BRANCH   9  11
ATOM     11  O   UNL     1      11.306 -27.997  15.338  1.00  0.00    -0.508 OA
ATOM     12  H   UNL     1      11.572 -27.019  15.316  1.00  0.00     0.293 HD
ENDBRANCH   9  11
TORSDOF 1
ENDMDL
MODEL 6
REMARK VINA RESULT:    -4.350      2.595      3.933
REMARK INTER + INTRA:          -4.477
REMARK INTER:                  -4.477
REMARK INTRA:                   0.000
REMARK UNBOUND:                 0.000
REMARK SMILES Oc1ccc2[nH]ccc2c1
REMARK SMILES IDX 3 1 4 2 5 3 9 4 8 5 7 6 6 7 10 8 2 9 1 11
REMARK H PARENT 6 10 1 12
REMARK Flexibility Score: inf
ROOT
ATOM      1  C   UNL     1       6.505 -30.825  16.000  1.00  0.00     0.048 A 
ATOM      2  C   UNL     1       6.662 -30.721  17.395  1.00  0.00     0.030 A 
ATOM      3  C   UNL     1       7.754 -30.001  17.874  1.00  0.00     0.046 A 
ATOM      4  C   UNL     1       8.653 -29.408  17.029  1.00  0.00     0.003 A 
ATOM      5  C   UNL     1       9.601 -28.782  17.809  1.00  0.00     0.028 A 
ATOM      6  C   UNL     1       9.217 -29.036  19.121  1.00  0.00     0.083 A 
ATOM      7  N   UNL     1       8.089 -29.781  19.157  1.00  0.00    -0.361 N 
ATOM      8  C   UNL     1       8.527 -29.490  15.644  1.00  0.00     0.056 A 
ATOM      9  C   UNL     1       7.432 -30.213  15.125  1.00  0.00     0.116 A 
ATOM     10  H   UNL     1       7.584 -30.114  20.008  1.00  0.00     0.166 HD
ENDROOT
BRANCH   9  11
ATOM     11  O   UNL     1       7.253 -30.330  13.748  1.00  0.00    -0.508 OA
ATOM     12  H   UNL     1       7.356 -29.532  13.132  1.00  0.00     0.293 HD
ENDBRANCH   9  11
TORSDOF 1
ENDMDL
MODEL 7
REMARK VINA RESULT:    -4.223      3.111      4.518
REMARK INTER + INTRA:          -4.346
REMARK INTER:                  -4.346
REMARK INTRA:                   0.000
REMARK UNBOUND:                 0.000
REMARK SMILES Oc1ccc2[nH]ccc2c1
REMARK SMILES IDX 3 1 4 2 5 3 9 4 8 5 7 6 6 7 10 8 2 9 1 11
REMARK H PARENT 6 10 1 12
REMARK Flexibility Score: inf
ROOT
ATOM      1  C   UNL     1       8.384 -29.660  12.709  1.00  0.00     0.048 A 
ATOM      2  C   UNL     1       7.120 -29.909  13.275  1.00  0.00     0.030 A 
ATOM      3  C   UNL     1       7.030 -29.961  14.665  1.00  0.00     0.046 A 
ATOM      4  C   UNL     1       8.125 -29.777  15.465  1.00  0.00     0.003 A 
ATOM      5  C   UNL     1       7.704 -29.888  16.773  1.00  0.00     0.028 A 
ATOM      6  C   UNL     1       6.338 -30.140  16.693  1.00  0.00     0.083 A 
ATOM      7  N   UNL     1       5.931 -30.184  15.405  1.00  0.00    -0.361 N 
ATOM      8  C   UNL     1       9.390 -29.528  14.937  1.00  0.00     0.056 A 
ATOM      9  C   UNL     1       9.518 -29.470  13.533  1.00  0.00     0.116 A 
ATOM     10  H   UNL     1       4.961 -30.356  15.059  1.00  0.00     0.166 HD
ENDROOT
BRANCH   9  11
ATOM     11  O   UNL     1      10.757 -29.224  12.947  1.00  0.00    -0.508 OA
ATOM     12  H   UNL     1      11.607 -29.635  13.316  1.00  0.00     0.293 HD
ENDBRANCH   9  11
TORSDOF 1
ENDMDL
MODEL 8
REMARK VINA RESULT:    -4.211      2.558      3.966
REMARK INTER + INTRA:          -4.334
REMARK INTER:                  -4.334
REMARK INTRA:                   0.000
REMARK UNBOUND:                 0.000
REMARK SMILES Oc1ccc2[nH]ccc2c1
REMARK SMILES IDX 3 1 4 2 5 3 9 4 8 5 7 6 6 7 10 8 2 9 1 11
REMARK H PARENT 6 10 1 12
REMARK Flexibility Score: inf
ROOT
ATOM      1  C   UNL     1       9.768 -29.481  14.659  1.00  0.00     0.048 A 
ATOM      2  C   UNL     1       8.696 -30.152  15.277  1.00  0.00     0.030 A 
ATOM      3  C   UNL     1       8.474 -29.913  16.632  1.00  0.00     0.046 A 
ATOM      4  C   UNL     1       9.263 -29.055  17.351  1.00  0.00     0.003 A 
ATOM      5  C   UNL     1       8.785 -29.041  18.643  1.00  0.00     0.028 A 
ATOM      6  C   UNL     1       7.702 -29.914  18.639  1.00  0.00     0.083 A 
ATOM      7  N   UNL     1       7.516 -30.444  17.409  1.00  0.00    -0.361 N 
ATOM      8  C   UNL     1      10.331 -28.375  16.770  1.00  0.00     0.056 A 
ATOM      9  C   UNL     1      10.585 -28.595  15.399  1.00  0.00     0.116 A 
ATOM     10  H   UNL     1       6.778 -31.126  17.125  1.00  0.00     0.166 HD
ENDROOT
BRANCH   9  11
ATOM     11  O   UNL     1      11.638 -27.943  14.763  1.00  0.00    -0.508 OA
ATOM     12  H   UNL     1      11.952 -28.221  13.840  1.00  0.00     0.293 HD
ENDBRANCH   9  11
TORSDOF 1
ENDMDL
MODEL 9
REMARK VINA RESULT:    -4.046      2.909      4.011
REMARK INTER + INTRA:          -4.165
REMARK INTER:                  -4.165
REMARK INTRA:                   0.000
REMARK UNBOUND:                 0.000
REMARK SMILES Oc1ccc2[nH]ccc2c1
REMARK SMILES IDX 3 1 4 2 5 3 9 4 8 5 7 6 6 7 10 8 2 9 1 11
REMARK H PARENT 6 10 1 12
REMARK Flexibility Score: inf
ROOT
ATOM      1  C   UNL     1       9.279 -29.559  14.237  1.00  0.00     0.048 A 
ATOM      2  C   UNL     1       9.318 -29.318  15.623  1.00  0.00     0.030 A 
ATOM      3  C   UNL     1       8.142 -29.503  16.348  1.00  0.00     0.046 A 
ATOM      4  C   UNL     1       6.980 -29.906  15.745  1.00  0.00     0.003 A 
ATOM      5  C   UNL     1       6.016 -29.993  16.726  1.00  0.00     0.028 A 
ATOM      6  C   UNL     1       6.662 -29.628  17.903  1.00  0.00     0.083 A 
ATOM      7  N   UNL     1       7.960 -29.331  17.667  1.00  0.00    -0.361 N 
ATOM      8  C   UNL     1       6.907 -30.153  14.376  1.00  0.00     0.056 A 
ATOM      9  C   UNL     1       8.080 -29.975  13.612  1.00  0.00     0.116 A 
ATOM     10  H   UNL     1       8.672 -29.029  18.369  1.00  0.00     0.166 HD
ENDROOT
BRANCH   9  11
ATOM     11  O   UNL     1       8.069 -30.207  12.239  1.00  0.00    -0.508 OA
ATOM     12  H   UNL     1       8.063 -29.442  11.573  1.00  0.00     0.293 HD
ENDBRANCH   9  11
TORSDOF 1
ENDMDL
