MODEL 1
REMARK VINA RESULT:    -3.852      0.000      0.000
REMARK INTER + INTRA:          -4.465
REMARK INTER:                  -4.415
REMARK INTRA:                  -0.050
REMARK UNBOUND:                -0.050
REMARK SMILES CC(C)[C@H]([NH3+])C(=O)[O-]
REMARK SMILES IDX 4 1 5 2 6 6 7 7 8 8 2 9 1 10 3 11
REMARK H PARENT 5 3 5 4 5 5
REMARK Flexibility Score: inf
ROOT
ATOM      1  C   UNL     1     -22.126   9.940  20.506  1.00  0.00     0.230 C 
ENDROOT
BRANCH   1   2
ATOM      2  N   UNL     1     -22.465  11.066  19.624  1.00  0.00    -0.350 N 
ATOM      3  H   UNL     1     -23.126  11.715  20.110  1.00  0.00     0.345 HD
ATOM      4  H   UNL     1     -21.596  11.602  19.394  1.00  0.00     0.345 HD
ATOM      5  H   UNL     1     -22.899  10.737  18.733  1.00  0.00     0.345 HD
ENDBRANCH   1   2
BRANCH   1   6
ATOM      6  C   UNL     1     -23.205   9.731  21.542  1.00  0.00     0.099 C 
ATOM      7  O   UNL     1     -23.786  10.723  22.055  1.00  0.00    -0.544 OA
ATOM      8  O   UNL     1     -23.587   8.448  21.917  1.00  0.00    -0.544 OA
ENDBRANCH   1   6
BRANCH   1   9
ATOM      9  C   UNL     1     -20.711  10.109  21.138  1.00  0.00     0.047 C 
ATOM     10  C   UNL     1     -20.042   8.777  21.518  1.00  0.00     0.014 C 
ATOM     11  C   UNL     1     -19.784  10.922  20.223  1.00  0.00     0.014 C 
ENDBRANCH   1   9
TORSDOF 3
ENDMDL
MODEL 2
REMARK VINA RESULT:    -3.779      1.873      2.379
REMARK INTER + INTRA:          -4.381
REMARK INTER:                  -4.315
REMARK INTRA:                  -0.066
REMARK UNBOUND:                -0.050
REMARK SMILES CC(C)[C@H]([NH3+])C(=O)[O-]
REMARK SMILES IDX 4 1 5 2 6 6 7 7 8 8 2 9 1 10 3 11
REMARK H PARENT 5 3 5 4 5 5
REMARK Flexibility Score: inf
ROOT
ATOM      1  C   UNL     1     -21.505   9.224  21.410  1.00  0.00     0.230 C 
ENDROOT
BRANCH   1   2
ATOM      2  N   UNL     1     -20.291   8.469  21.751  1.00  0.00    -0.350 N 
ATOM      3  H   UNL     1     -20.394   7.472  21.456  1.00  0.00     0.345 HD
ATOM      4  H   UNL     1     -19.473   8.875  21.239  1.00  0.00     0.345 HD
ATOM      5  H   UNL     1     -20.093   8.506  22.776  1.00  0.00     0.345 HD
ENDBRANCH   1   2
BRANCH   1   6
ATOM      6  C   UNL     1     -22.682   8.292  21.239  1.00  0.00     0.099 C 
ATOM      7  O   UNL     1     -23.727   8.466  21.919  1.00  0.00    -0.544 OA
ATOM      8  O   UNL     1     -22.635   7.256  20.314  1.00  0.00    -0.544 OA
ENDBRANCH   1   6
BRANCH   1   9
ATOM      9  C   UNL     1     -21.284  10.145  20.172  1.00  0.00     0.047 C 
ATOM     10  C   UNL     1     -22.441  11.125  19.916  1.00  0.00     0.014 C 
ATOM     11  C   UNL     1     -19.958  10.913  20.277  1.00  0.00     0.014 C 
ENDBRANCH   1   9
TORSDOF 3
ENDMDL
MODEL 3
REMARK VINA RESULT:    -3.765     11.898     12.751
REMARK INTER + INTRA:          -4.366
REMARK INTER:                  -4.308
REMARK INTRA:                  -0.057
REMARK UNBOUND:                -0.050
REMARK SMILES CC(C)[C@H]([NH3+])C(=O)[O-]
REMARK SMILES IDX 4 1 5 2 6 6 7 7 8 8 2 9 1 10 3 11
REMARK H PARENT 5 3 5 4 5 5
REMARK Flexibility Score: inf
ROOT
ATOM      1  C   UNL     1     -13.197   3.624  27.853  1.00  0.00     0.230 C 
ENDROOT
BRANCH   1   2
ATOM      2  N   UNL     1     -14.272   3.218  28.770  1.00  0.00    -0.350 N 
ATOM      3  H   UNL     1     -14.458   3.978  29.462  1.00  0.00     0.345 HD
ATOM      4  H   UNL     1     -15.151   3.055  28.225  1.00  0.00     0.345 HD
ATOM      5  H   UNL     1     -14.029   2.340  29.279  1.00  0.00     0.345 HD
ENDBRANCH   1   2
BRANCH   1   6
ATOM      6  C   UNL     1     -12.468   4.834  28.389  1.00  0.00     0.099 C 
ATOM      7  O   UNL     1     -13.046   5.951  28.427  1.00  0.00    -0.544 OA
ATOM      8  O   UNL     1     -11.169   4.721  28.871  1.00  0.00    -0.544 OA
ENDBRANCH   1   6
BRANCH   1   9
ATOM      9  C   UNL     1     -13.726   3.836  26.402  1.00  0.00     0.047 C 
ATOM     10  C   UNL     1     -12.647   3.658  25.320  1.00  0.00     0.014 C 
ATOM     11  C   UNL     1     -14.924   2.923  26.105  1.00  0.00     0.014 C 
ENDBRANCH   1   9
TORSDOF 3
ENDMDL
MODEL 4
REMARK VINA RESULT:    -3.674     11.787     12.451
REMARK INTER + INTRA:          -4.261
REMARK INTER:                  -4.212
REMARK INTRA:                  -0.049
REMARK UNBOUND:                -0.050
REMARK SMILES CC(C)[C@H]([NH3+])C(=O)[O-]
REMARK SMILES IDX 4 1 5 2 6 6 7 7 8 8 2 9 1 10 3 11
REMARK H PARENT 5 3 5 4 5 5
REMARK Flexibility Score: inf
ROOT
ATOM      1  C   UNL     1     -13.773   3.957  27.690  1.00  0.00     0.230 C 
ENDROOT
BRANCH   1   2
ATOM      2  N   UNL     1     -13.385   2.812  28.526  1.00  0.00    -0.350 N 
ATOM      3  H   UNL     1     -12.346   2.692  28.509  1.00  0.00     0.345 HD
ATOM      4  H   UNL     1     -13.673   2.990  29.516  1.00  0.00     0.345 HD
ATOM      5  H   UNL     1     -13.839   1.929  28.201  1.00  0.00     0.345 HD
ENDBRANCH   1   2
BRANCH   1   6
ATOM      6  C   UNL     1     -13.932   3.535  26.248  1.00  0.00     0.099 C 
ATOM      7  O   UNL     1     -15.036   3.087  25.841  1.00  0.00    -0.544 OA
ATOM      8  O   UNL     1     -12.875   3.662  25.353  1.00  0.00    -0.544 OA
ENDBRANCH   1   6
BRANCH   1   9
ATOM      9  C   UNL     1     -12.791   5.155  27.860  1.00  0.00     0.047 C 
ATOM     10  C   UNL     1     -13.431   6.388  28.521  1.00  0.00     0.014 C 
ATOM     11  C   UNL     1     -11.531   4.739  28.633  1.00  0.00     0.014 C 
ENDBRANCH   1   9
TORSDOF 3
ENDMDL
MODEL 5
REMARK VINA RESULT:    -3.629      2.330      2.659
REMARK INTER + INTRA:          -4.210
REMARK INTER:                  -4.189
REMARK INTRA:                  -0.021
REMARK UNBOUND:                -0.050
REMARK SMILES CC(C)[C@H]([NH3+])C(=O)[O-]
REMARK SMILES IDX 4 1 5 2 6 6 7 7 8 8 2 9 1 10 3 11
REMARK H PARENT 5 3 5 4 5 5
REMARK Flexibility Score: inf
ROOT
ATOM      1  C   UNL     1     -20.969   8.762  21.126  1.00  0.00     0.230 C 
ENDROOT
BRANCH   1   2
ATOM      2  N   UNL     1     -22.222   9.477  21.407  1.00  0.00    -0.350 N 
ATOM      3  H   UNL     1     -22.097  10.109  22.230  1.00  0.00     0.345 HD
ATOM      4  H   UNL     1     -22.479  10.068  20.582  1.00  0.00     0.345 HD
ATOM      5  H   UNL     1     -23.007   8.814  21.598  1.00  0.00     0.345 HD
ENDBRANCH   1   2
BRANCH   1   6
ATOM      6  C   UNL     1     -20.971   7.404  21.790  1.00  0.00     0.099 C 
ATOM      7  O   UNL     1     -21.347   7.289  22.986  1.00  0.00    -0.544 OA
ATOM      8  O   UNL     1     -20.587   6.271  21.083  1.00  0.00    -0.544 OA
ENDBRANCH   1   6
BRANCH   1   9
ATOM      9  C   UNL     1     -19.721   9.614  21.506  1.00  0.00     0.047 C 
ATOM     10  C   UNL     1     -18.428   8.792  21.637  1.00  0.00     0.014 C 
ATOM     11  C   UNL     1     -19.511  10.770  20.516  1.00  0.00     0.014 C 
ENDBRANCH   1   9
TORSDOF 3
ENDMDL
MODEL 6
REMARK VINA RESULT:    -3.627      3.360      4.037
REMARK INTER + INTRA:          -4.207
REMARK INTER:                  -4.161
REMARK INTRA:                  -0.046
REMARK UNBOUND:                -0.050
REMARK SMILES CC(C)[C@H]([NH3+])C(=O)[O-]
REMARK SMILES IDX 4 1 5 2 6 6 7 7 8 8 2 9 1 10 3 11
REMARK H PARENT 5 3 5 4 5 5
REMARK Flexibility Score: inf
ROOT
ATOM      1  C   UNL     1     -19.855   7.802  22.296  1.00  0.00     0.230 C 
ENDROOT
BRANCH   1   2
ATOM      2  N   UNL     1     -19.123   7.134  23.382  1.00  0.00    -0.350 N 
ATOM      3  H   UNL     1     -19.504   7.432  24.308  1.00  0.00     0.345 HD
ATOM      4  H   UNL     1     -19.248   6.098  23.299  1.00  0.00     0.345 HD
ATOM      5  H   UNL     1     -18.102   7.350  23.344  1.00  0.00     0.345 HD
ENDBRANCH   1   2
BRANCH   1   6
ATOM      6  C   UNL     1     -20.545   6.787  21.415  1.00  0.00     0.099 C 
ATOM      7  O   UNL     1     -21.683   7.038  20.938  1.00  0.00    -0.544 OA
ATOM      8  O   UNL     1     -19.923   5.585  21.100  1.00  0.00    -0.544 OA
ENDBRANCH   1   6
BRANCH   1   9
ATOM      9  C   UNL     1     -18.936   8.770  21.491  1.00  0.00     0.047 C 
ATOM     10  C   UNL     1     -19.619  10.093  21.106  1.00  0.00     0.014 C 
ATOM     11  C   UNL     1     -17.627   9.053  22.244  1.00  0.00     0.014 C 
ENDBRANCH   1   9
TORSDOF 3
ENDMDL
MODEL 7
REMARK VINA RESULT:    -3.560      3.525      4.485
REMARK INTER + INTRA:          -4.130
REMARK INTER:                  -4.071
REMARK INTRA:                  -0.059
REMARK UNBOUND:                -0.050
REMARK SMILES CC(C)[C@H]([NH3+])C(=O)[O-]
REMARK SMILES IDX 4 1 5 2 6 6 7 7 8 8 2 9 1 10 3 11
REMARK H PARENT 5 3 5 4 5 5
REMARK Flexibility Score: inf
ROOT
ATOM      1  C   UNL     1     -18.750   8.148  21.860  1.00  0.00     0.230 C 
ENDROOT
BRANCH   1   2
ATOM      2  N   UNL     1     -17.995   8.329  23.108  1.00  0.00    -0.350 N 
ATOM      3  H   UNL     1     -18.647   8.561  23.891  1.00  0.00     0.345 HD
ATOM      4  H   UNL     1     -17.504   7.436  23.350  1.00  0.00     0.345 HD
ATOM      5  H   UNL     1     -17.281   9.086  23.017  1.00  0.00     0.345 HD
ENDBRANCH   1   2
BRANCH   1   6
ATOM      6  C   UNL     1     -19.498   9.412  21.503  1.00  0.00     0.099 C 
ATOM      7  O   UNL     1     -20.696   9.348  21.123  1.00  0.00    -0.544 OA
ATOM      8  O   UNL     1     -18.883  10.654  21.616  1.00  0.00    -0.544 OA
ENDBRANCH   1   6
BRANCH   1   9
ATOM      9  C   UNL     1     -19.679   6.899  21.923  1.00  0.00     0.047 C 
ATOM     10  C   UNL     1     -19.081   5.650  21.254  1.00  0.00     0.014 C 
ATOM     11  C   UNL     1     -20.085   6.577  23.369  1.00  0.00     0.014 C 
ENDBRANCH   1   9
TORSDOF 3
ENDMDL
MODEL 8
REMARK VINA RESULT:    -3.530     11.674     12.267
REMARK INTER + INTRA:          -4.096
REMARK INTER:                  -4.053
REMARK INTRA:                  -0.043
REMARK UNBOUND:                -0.050
REMARK SMILES CC(C)[C@H]([NH3+])C(=O)[O-]
REMARK SMILES IDX 4 1 5 2 6 6 7 7 8 8 2 9 1 10 3 11
REMARK H PARENT 5 3 5 4 5 5
REMARK Flexibility Score: inf
ROOT
ATOM      1  C   UNL     1     -14.014   3.670  25.958  1.00  0.00     0.230 C 
ENDROOT
BRANCH   1   2
ATOM      2  N   UNL     1     -15.371   3.105  25.959  1.00  0.00    -0.350 N 
ATOM      3  H   UNL     1     -15.874   3.383  26.832  1.00  0.00     0.345 HD
ATOM      4  H   UNL     1     -15.907   3.483  25.143  1.00  0.00     0.345 HD
ATOM      5  H   UNL     1     -15.352   2.063  25.890  1.00  0.00     0.345 HD
ENDBRANCH   1   2
BRANCH   1   6
ATOM      6  C   UNL     1     -13.134   2.940  24.969  1.00  0.00     0.099 C 
ATOM      7  O   UNL     1     -13.409   1.758  24.635  1.00  0.00    -0.544 OA
ATOM      8  O   UNL     1     -12.035   3.572  24.399  1.00  0.00    -0.544 OA
ENDBRANCH   1   6
BRANCH   1   9
ATOM      9  C   UNL     1     -13.404   3.707  27.391  1.00  0.00     0.047 C 
ATOM     10  C   UNL     1     -13.317   5.123  27.988  1.00  0.00     0.014 C 
ATOM     11  C   UNL     1     -14.166   2.779  28.348  1.00  0.00     0.014 C 
ENDBRANCH   1   9
TORSDOF 3
ENDMDL
MODEL 9
REMARK VINA RESULT:    -3.426      2.034      2.528
REMARK INTER + INTRA:          -3.977
REMARK INTER:                  -3.911
REMARK INTRA:                  -0.066
REMARK UNBOUND:                -0.050
REMARK SMILES CC(C)[C@H]([NH3+])C(=O)[O-]
REMARK SMILES IDX 4 1 5 2 6 6 7 7 8 8 2 9 1 10 3 11
REMARK H PARENT 5 3 5 4 5 5
REMARK Flexibility Score: inf
ROOT
ATOM      1  C   UNL     1     -23.221   9.121  21.696  1.00  0.00     0.230 C 
ENDROOT
BRANCH   1   2
ATOM      2  N   UNL     1     -23.935   7.845  21.844  1.00  0.00    -0.350 N 
ATOM      3  H   UNL     1     -24.797   7.846  21.253  1.00  0.00     0.345 HD
ATOM      4  H   UNL     1     -23.321   7.062  21.517  1.00  0.00     0.345 HD
ATOM      5  H   UNL     1     -24.199   7.667  22.838  1.00  0.00     0.345 HD
ENDBRANCH   1   2
BRANCH   1   6
ATOM      6  C   UNL     1     -24.061  10.115  20.928  1.00  0.00     0.099 C 
ATOM      7  O   UNL     1     -24.673  11.028  21.542  1.00  0.00    -0.544 OA
ATOM      8  O   UNL     1     -24.142  10.052  19.542  1.00  0.00    -0.544 OA
ENDBRANCH   1   6
BRANCH   1   9
ATOM      9  C   UNL     1     -21.807   8.922  21.072  1.00  0.00     0.047 C 
ATOM     10  C   UNL     1     -20.956  10.203  21.047  1.00  0.00     0.014 C 
ATOM     11  C   UNL     1     -21.038   7.794  21.778  1.00  0.00     0.014 C 
ENDBRANCH   1   9
TORSDOF 3
ENDMDL
