MODEL 1
REMARK VINA RESULT:    -4.014      0.000      0.000
REMARK INTER + INTRA:          -5.126
REMARK INTER:                  -4.953
REMARK INTRA:                  -0.172
REMARK UNBOUND:                -0.172
REMARK SMILES CCCCCC(=O)[O-]
REMARK SMILES IDX 4 1 5 2 6 3 7 4 8 5 3 6 2 7 1 8
REMARK H PARENT
REMARK Flexibility Score: inf
ROOT
ATOM      1  C   UNL     1     -15.576  30.767   1.263  1.00  0.00     0.006 C 
ENDROOT
BRANCH   1   2
ATOM      2  C   UNL     1     -16.247  29.393   1.377  1.00  0.00     0.053 C 
BRANCH   2   3
ATOM      3  C   UNL     1     -16.551  28.810   0.030  1.00  0.00     0.041 C 
ATOM      4  O   UNL     1     -16.008  27.734  -0.332  1.00  0.00    -0.550 OA
ATOM      5  O   UNL     1     -17.459  29.440  -0.811  1.00  0.00    -0.550 OA
ENDBRANCH   2   3
ENDBRANCH   1   2
BRANCH   1   6
ATOM      6  C   UNL     1     -16.568  31.919   1.481  1.00  0.00     0.000 C 
BRANCH   6   7
ATOM      7  C   UNL     1     -16.384  33.010   0.421  1.00  0.00    -0.003 C 
ATOM      8  C   UNL     1     -17.503  32.967  -0.616  1.00  0.00     0.004 C 
ENDBRANCH   6   7
ENDBRANCH   1   6
TORSDOF 4
ENDMDL
MODEL 2
REMARK VINA RESULT:    -3.965      1.624      3.313
REMARK INTER + INTRA:          -5.065
REMARK INTER:                  -4.950
REMARK INTRA:                  -0.115
REMARK UNBOUND:                -0.172
REMARK SMILES CCCCCC(=O)[O-]
REMARK SMILES IDX 4 1 5 2 6 3 7 4 8 5 3 6 2 7 1 8
REMARK H PARENT
REMARK Flexibility Score: inf
ROOT
ATOM      1  C   UNL     1     -16.802  32.673  -0.272  1.00  0.00     0.006 C 
ENDROOT
BRANCH   1   2
ATOM      2  C   UNL     1     -18.174  32.398  -0.900  1.00  0.00     0.053 C 
BRANCH   2   3
ATOM      3  C   UNL     1     -18.160  31.160  -1.744  1.00  0.00     0.041 C 
ATOM      4  O   UNL     1     -18.183  31.248  -2.999  1.00  0.00    -0.550 OA
ATOM      5  O   UNL     1     -18.087  29.909  -1.143  1.00  0.00    -0.550 OA
ENDBRANCH   2   3
ENDBRANCH   1   2
BRANCH   1   6
ATOM      6  C   UNL     1     -16.703  32.140   1.166  1.00  0.00     0.000 C 
BRANCH   6   7
ATOM      7  C   UNL     1     -15.791  30.910   1.234  1.00  0.00    -0.003 C 
ATOM      8  C   UNL     1     -15.770  30.317   2.640  1.00  0.00     0.004 C 
ENDBRANCH   6   7
ENDBRANCH   1   6
TORSDOF 4
ENDMDL
MODEL 3
REMARK VINA RESULT:    -3.958      2.163      4.118
REMARK INTER + INTRA:          -5.056
REMARK INTER:                  -4.962
REMARK INTRA:                  -0.094
REMARK UNBOUND:                -0.172
REMARK SMILES CCCCCC(=O)[O-]
REMARK SMILES IDX 4 1 5 2 6 3 7 4 8 5 3 6 2 7 1 8
REMARK H PARENT
REMARK Flexibility Score: inf
ROOT
ATOM      1  C   UNL     1     -16.256  29.648   0.797  1.00  0.00     0.006 C 
ENDROOT
BRANCH   1   2
ATOM      2  C   UNL     1     -15.863  30.945   1.514  1.00  0.00     0.053 C 
BRANCH   2   3
ATOM      3  C   UNL     1     -16.551  32.137   0.922  1.00  0.00     0.041 C 
ATOM      4  O   UNL     1     -17.542  31.985   0.161  1.00  0.00    -0.550 OA
ATOM      5  O   UNL     1     -16.117  33.419   1.238  1.00  0.00    -0.550 OA
ENDBRANCH   2   3
ENDBRANCH   1   2
BRANCH   1   6
ATOM      6  C   UNL     1     -16.301  28.446   1.752  1.00  0.00     0.000 C 
BRANCH   6   7
ATOM      7  C   UNL     1     -16.708  27.169   1.009  1.00  0.00    -0.003 C 
ATOM      8  C   UNL     1     -17.356  27.495  -0.334  1.00  0.00     0.004 C 
ENDBRANCH   6   7
ENDBRANCH   1   6
TORSDOF 4
ENDMDL
MODEL 4
REMARK VINA RESULT:    -3.947      3.126      4.743
REMARK INTER + INTRA:          -5.042
REMARK INTER:                  -4.967
REMARK INTRA:                  -0.076
REMARK UNBOUND:                -0.172
REMARK SMILES CCCCCC(=O)[O-]
REMARK SMILES IDX 4 1 5 2 6 3 7 4 8 5 3 6 2 7 1 8
REMARK H PARENT
REMARK Flexibility Score: inf
ROOT
ATOM      1  C   UNL     1     -17.595  28.091  -0.448  1.00  0.00     0.006 C 
ENDROOT
BRANCH   1   2
ATOM      2  C   UNL     1     -17.528  29.592  -0.753  1.00  0.00     0.053 C 
BRANCH   2   3
ATOM      3  C   UNL     1     -18.588  30.008  -1.728  1.00  0.00     0.041 C 
ATOM      4  O   UNL     1     -19.768  29.590  -1.599  1.00  0.00    -0.550 OA
ATOM      5  O   UNL     1     -18.277  30.885  -2.760  1.00  0.00    -0.550 OA
ENDBRANCH   2   3
ENDBRANCH   1   2
BRANCH   1   6
ATOM      6  C   UNL     1     -16.252  27.540   0.055  1.00  0.00     0.000 C 
BRANCH   6   7
ATOM      7  C   UNL     1     -16.456  26.263   0.878  1.00  0.00    -0.003 C 
ATOM      8  C   UNL     1     -17.565  25.397   0.287  1.00  0.00     0.004 C 
ENDBRANCH   6   7
ENDBRANCH   1   6
TORSDOF 4
ENDMDL
MODEL 5
REMARK VINA RESULT:    -3.930      2.559      2.855
REMARK INTER + INTRA:          -5.022
REMARK INTER:                  -4.930
REMARK INTRA:                  -0.092
REMARK UNBOUND:                -0.172
REMARK SMILES CCCCCC(=O)[O-]
REMARK SMILES IDX 4 1 5 2 6 3 7 4 8 5 3 6 2 7 1 8
REMARK H PARENT
REMARK Flexibility Score: inf
ROOT
ATOM      1  C   UNL     1     -16.302  30.897   0.884  1.00  0.00     0.006 C 
ENDROOT
BRANCH   1   2
ATOM      2  C   UNL     1     -15.218  30.321   1.803  1.00  0.00     0.053 C 
BRANCH   2   3
ATOM      3  C   UNL     1     -15.739  30.070   3.186  1.00  0.00     0.041 C 
ATOM      4  O   UNL     1     -15.477  30.874   4.118  1.00  0.00    -0.550 OA
ATOM      5  O   UNL     1     -16.541  28.964   3.436  1.00  0.00    -0.550 OA
ENDBRANCH   2   3
ENDBRANCH   1   2
BRANCH   1   6
ATOM      6  C   UNL     1     -16.589  32.377   1.180  1.00  0.00     0.000 C 
BRANCH   6   7
ATOM      7  C   UNL     1     -16.761  33.174  -0.118  1.00  0.00    -0.003 C 
ATOM      8  C   UNL     1     -17.957  32.669  -0.920  1.00  0.00     0.004 C 
ENDBRANCH   6   7
ENDBRANCH   1   6
TORSDOF 4
ENDMDL
MODEL 6
REMARK VINA RESULT:    -3.889      2.787      4.602
REMARK INTER + INTRA:          -4.970
REMARK INTER:                  -4.853
REMARK INTRA:                  -0.118
REMARK UNBOUND:                -0.172
REMARK SMILES CCCCCC(=O)[O-]
REMARK SMILES IDX 4 1 5 2 6 3 7 4 8 5 3 6 2 7 1 8
REMARK H PARENT
REMARK Flexibility Score: inf
ROOT
ATOM      1  C   UNL     1     -16.213  28.770   0.185  1.00  0.00     0.006 C 
ENDROOT
BRANCH   1   2
ATOM      2  C   UNL     1     -16.193  28.986   1.704  1.00  0.00     0.053 C 
BRANCH   2   3
ATOM      3  C   UNL     1     -15.509  30.267   2.072  1.00  0.00     0.041 C 
ATOM      4  O   UNL     1     -14.848  30.349   3.140  1.00  0.00    -0.550 OA
ATOM      5  O   UNL     1     -15.575  31.361   1.218  1.00  0.00    -0.550 OA
ENDBRANCH   2   3
ENDBRANCH   1   2
BRANCH   1   6
ATOM      6  C   UNL     1     -16.607  27.333  -0.192  1.00  0.00     0.000 C 
BRANCH   6   7
ATOM      7  C   UNL     1     -16.768  26.462   1.059  1.00  0.00    -0.003 C 
ATOM      8  C   UNL     1     -18.006  25.575   0.957  1.00  0.00     0.004 C 
ENDBRANCH   6   7
ENDBRANCH   1   6
TORSDOF 4
ENDMDL
MODEL 7
REMARK VINA RESULT:    -3.887      3.245      4.456
REMARK INTER + INTRA:          -4.969
REMARK INTER:                  -4.889
REMARK INTRA:                  -0.080
REMARK UNBOUND:                -0.172
REMARK SMILES CCCCCC(=O)[O-]
REMARK SMILES IDX 4 1 5 2 6 3 7 4 8 5 3 6 2 7 1 8
REMARK H PARENT
REMARK Flexibility Score: inf
ROOT
ATOM      1  C   UNL     1     -16.491  26.151   0.889  1.00  0.00     0.006 C 
ENDROOT
BRANCH   1   2
ATOM      2  C   UNL     1     -17.614  26.004  -0.145  1.00  0.00     0.053 C 
BRANCH   2   3
ATOM      3  C   UNL     1     -18.477  24.812   0.139  1.00  0.00     0.041 C 
ATOM      4  O   UNL     1     -18.101  23.661  -0.203  1.00  0.00    -0.550 OA
ATOM      5  O   UNL     1     -19.682  24.971   0.812  1.00  0.00    -0.550 OA
ENDBRANCH   2   3
ENDBRANCH   1   2
BRANCH   1   6
ATOM      6  C   UNL     1     -16.477  27.544   1.538  1.00  0.00     0.000 C 
BRANCH   6   7
ATOM      7  C   UNL     1     -16.371  28.643   0.476  1.00  0.00    -0.003 C 
ATOM      8  C   UNL     1     -15.919  29.964   1.093  1.00  0.00     0.004 C 
ENDBRANCH   6   7
ENDBRANCH   1   6
TORSDOF 4
ENDMDL
MODEL 8
REMARK VINA RESULT:    -3.865      2.745      4.515
REMARK INTER + INTRA:          -4.942
REMARK INTER:                  -4.731
REMARK INTRA:                  -0.211
REMARK UNBOUND:                -0.172
REMARK SMILES CCCCCC(=O)[O-]
REMARK SMILES IDX 4 1 5 2 6 3 7 4 8 5 3 6 2 7 1 8
REMARK H PARENT
REMARK Flexibility Score: inf
ROOT
ATOM      1  C   UNL     1     -16.028  28.655   0.087  1.00  0.00     0.006 C 
ENDROOT
BRANCH   1   2
ATOM      2  C   UNL     1     -16.211  29.923   0.930  1.00  0.00     0.053 C 
BRANCH   2   3
ATOM      3  C   UNL     1     -15.772  29.716   2.347  1.00  0.00     0.041 C 
ATOM      4  O   UNL     1     -14.813  30.380   2.818  1.00  0.00    -0.550 OA
ATOM      5  O   UNL     1     -16.446  28.811   3.158  1.00  0.00    -0.550 OA
ENDBRANCH   2   3
ENDBRANCH   1   2
BRANCH   1   6
ATOM      6  C   UNL     1     -17.367  27.984  -0.253  1.00  0.00     0.000 C 
BRANCH   6   7
ATOM      7  C   UNL     1     -17.292  26.469  -0.037  1.00  0.00    -0.003 C 
ATOM      8  C   UNL     1     -16.165  26.104   0.925  1.00  0.00     0.004 C 
ENDBRANCH   6   7
ENDBRANCH   1   6
TORSDOF 4
ENDMDL
MODEL 9
REMARK VINA RESULT:    -3.806      3.372      5.636
REMARK INTER + INTRA:          -4.868
REMARK INTER:                  -4.702
REMARK INTRA:                  -0.166
REMARK UNBOUND:                -0.172
REMARK SMILES CCCCCC(=O)[O-]
REMARK SMILES IDX 4 1 5 2 6 3 7 4 8 5 3 6 2 7 1 8
REMARK H PARENT
REMARK Flexibility Score: inf
ROOT
ATOM      1  C   UNL     1     -17.354  26.161   1.285  1.00  0.00     0.006 C 
ENDROOT
BRANCH   1   2
ATOM      2  C   UNL     1     -16.533  26.773   0.143  1.00  0.00     0.053 C 
BRANCH   2   3
ATOM      3  C   UNL     1     -16.937  28.189  -0.134  1.00  0.00     0.041 C 
ATOM      4  O   UNL     1     -16.267  29.144   0.340  1.00  0.00    -0.550 OA
ATOM      5  O   UNL     1     -18.035  28.454  -0.943  1.00  0.00    -0.550 OA
ENDBRANCH   2   3
ENDBRANCH   1   2
BRANCH   1   6
ATOM      6  C   UNL     1     -18.455  25.221   0.770  1.00  0.00     0.000 C 
BRANCH   6   7
ATOM      7  C   UNL     1     -18.070  24.616  -0.585  1.00  0.00    -0.003 C 
ATOM      8  C   UNL     1     -18.936  23.402  -0.912  1.00  0.00     0.004 C 
ENDBRANCH   6   7
ENDBRANCH   1   6
TORSDOF 4
ENDMDL
