MODEL 1
REMARK VINA RESULT:    -3.425      0.000      0.000
REMARK INTER + INTRA:          -4.063
REMARK INTER:                  -4.026
REMARK INTRA:                  -0.038
REMARK UNBOUND:                -0.038
REMARK SMILES O=C([O-])CCC(=O)[O-]
REMARK SMILES IDX 4 1 2 2 1 3 3 4 5 5 6 6 7 7 8 8
REMARK H PARENT
REMARK Flexibility Score: inf
ROOT
ATOM      1  C   UNL     1       9.441   1.532   8.956  1.00  0.00     0.059 C 
ENDROOT
BRANCH   1   2
ATOM      2  C   UNL     1       8.641   0.297   8.680  1.00  0.00     0.042 C 
ATOM      3  O   UNL     1       7.674   0.335   7.875  1.00  0.00    -0.550 OA
ATOM      4  O   UNL     1       8.987  -0.907   9.281  1.00  0.00    -0.550 OA
ENDBRANCH   1   2
BRANCH   1   5
ATOM      5  C   UNL     1      10.383   1.339  10.149  1.00  0.00     0.059 C 
BRANCH   5   6
ATOM      6  C   UNL     1      10.894   2.648  10.667  1.00  0.00     0.042 C 
ATOM      7  O   UNL     1      10.577   3.724  10.094  1.00  0.00    -0.550 OA
ATOM      8  O   UNL     1      11.754   2.677  11.757  1.00  0.00    -0.550 OA
ENDBRANCH   5   6
ENDBRANCH   1   5
TORSDOF 3
ENDMDL
MODEL 2
REMARK VINA RESULT:    -3.369      0.262      4.297
REMARK INTER + INTRA:          -3.997
REMARK INTER:                  -3.956
REMARK INTRA:                  -0.041
REMARK UNBOUND:                -0.038
REMARK SMILES O=C([O-])CCC(=O)[O-]
REMARK SMILES IDX 4 1 2 2 1 3 3 4 5 5 6 6 7 7 8 8
REMARK H PARENT
REMARK Flexibility Score: inf
ROOT
ATOM      1  C   UNL     1      10.362   1.222  10.068  1.00  0.00     0.059 C 
ENDROOT
BRANCH   1   2
ATOM      2  C   UNL     1      10.769   2.566  10.589  1.00  0.00     0.042 C 
ATOM      3  O   UNL     1      10.253   3.612  10.116  1.00  0.00    -0.550 OA
ATOM      4  O   UNL     1      11.688   2.662  11.627  1.00  0.00    -0.550 OA
ENDBRANCH   1   2
BRANCH   1   5
ATOM      5  C   UNL     1       9.268   1.337   9.002  1.00  0.00     0.059 C 
BRANCH   5   6
ATOM      6  C   UNL     1       8.563   0.033   8.790  1.00  0.00     0.042 C 
ATOM      7  O   UNL     1       8.938  -0.998   9.409  1.00  0.00    -0.550 OA
ATOM      8  O   UNL     1       7.519  -0.053   7.879  1.00  0.00    -0.550 OA
ENDBRANCH   5   6
ENDBRANCH   1   5
TORSDOF 3
ENDMDL
MODEL 3
REMARK VINA RESULT:    -3.365      0.127      4.136
REMARK INTER + INTRA:          -3.992
REMARK INTER:                  -3.955
REMARK INTRA:                  -0.038
REMARK UNBOUND:                -0.038
REMARK SMILES O=C([O-])CCC(=O)[O-]
REMARK SMILES IDX 4 1 2 2 1 3 3 4 5 5 6 6 7 7 8 8
REMARK H PARENT
REMARK Flexibility Score: inf
ROOT
ATOM      1  C   UNL     1      10.375   1.246  10.112  1.00  0.00     0.059 C 
ENDROOT
BRANCH   1   2
ATOM      2  C   UNL     1      10.959   2.529  10.621  1.00  0.00     0.042 C 
ATOM      3  O   UNL     1      10.601   3.629  10.125  1.00  0.00    -0.550 OA
ATOM      4  O   UNL     1      11.869   2.512  11.670  1.00  0.00    -0.550 OA
ENDBRANCH   1   2
BRANCH   1   5
ATOM      5  C   UNL     1       9.351   1.495   9.000  1.00  0.00     0.059 C 
BRANCH   5   6
ATOM      6  C   UNL     1       8.566   0.258   8.686  1.00  0.00     0.042 C 
ATOM      7  O   UNL     1       7.602   0.308   7.878  1.00  0.00    -0.550 OA
ATOM      8  O   UNL     1       8.874  -0.940   9.316  1.00  0.00    -0.550 OA
ENDBRANCH   5   6
ENDBRANCH   1   5
TORSDOF 3
ENDMDL
MODEL 4
REMARK VINA RESULT:    -3.300      1.399      1.878
REMARK INTER + INTRA:          -3.916
REMARK INTER:                  -3.885
REMARK INTRA:                  -0.031
REMARK UNBOUND:                -0.038
REMARK SMILES O=C([O-])CCC(=O)[O-]
REMARK SMILES IDX 4 1 2 2 1 3 3 4 5 5 6 6 7 7 8 8
REMARK H PARENT
REMARK Flexibility Score: inf
ROOT
ATOM      1  C   UNL     1       9.006   0.169   9.154  1.00  0.00     0.059 C 
ENDROOT
BRANCH   1   2
ATOM      2  C   UNL     1       8.457  -1.184   9.488  1.00  0.00     0.042 C 
ATOM      3  O   UNL     1       7.224  -1.336   9.690  1.00  0.00    -0.550 OA
ATOM      4  O   UNL     1       9.302  -2.287   9.536  1.00  0.00    -0.550 OA
ENDBRANCH   1   2
BRANCH   1   5
ATOM      5  C   UNL     1      10.120   0.580  10.121  1.00  0.00     0.059 C 
BRANCH   5   6
ATOM      6  C   UNL     1      10.355   2.059  10.096  1.00  0.00     0.042 C 
ATOM      7  O   UNL     1      11.099   2.598  10.957  1.00  0.00    -0.550 OA
ATOM      8  O   UNL     1       9.719   2.848   9.147  1.00  0.00    -0.550 OA
ENDBRANCH   5   6
ENDBRANCH   1   5
TORSDOF 3
ENDMDL
MODEL 5
REMARK VINA RESULT:    -3.154      1.238      2.114
REMARK INTER + INTRA:          -3.745
REMARK INTER:                  -3.712
REMARK INTRA:                  -0.034
REMARK UNBOUND:                -0.038
REMARK SMILES O=C([O-])CCC(=O)[O-]
REMARK SMILES IDX 4 1 2 2 1 3 3 4 5 5 6 6 7 7 8 8
REMARK H PARENT
REMARK Flexibility Score: inf
ROOT
ATOM      1  C   UNL     1       9.227  -0.311   9.731  1.00  0.00     0.059 C 
ENDROOT
BRANCH   1   2
ATOM      2  C   UNL     1       8.455  -1.218   8.824  1.00  0.00     0.042 C 
ATOM      3  O   UNL     1       8.822  -2.411   8.658  1.00  0.00    -0.550 OA
ATOM      4  O   UNL     1       7.305  -0.759   8.193  1.00  0.00    -0.550 OA
ENDBRANCH   1   2
BRANCH   1   5
ATOM      5  C   UNL     1       9.400   1.084   9.121  1.00  0.00     0.059 C 
BRANCH   5   6
ATOM      6  C   UNL     1      10.301   1.943   9.954  1.00  0.00     0.042 C 
ATOM      7  O   UNL     1      11.122   1.416  10.750  1.00  0.00    -0.550 OA
ATOM      8  O   UNL     1      10.204   3.326   9.881  1.00  0.00    -0.550 OA
ENDBRANCH   5   6
ENDBRANCH   1   5
TORSDOF 3
ENDMDL
MODEL 6
REMARK VINA RESULT:    -3.127      2.414      4.881
REMARK INTER + INTRA:          -3.714
REMARK INTER:                  -3.683
REMARK INTRA:                  -0.030
REMARK UNBOUND:                -0.038
REMARK SMILES O=C([O-])CCC(=O)[O-]
REMARK SMILES IDX 4 1 2 2 1 3 3 4 5 5 6 6 7 7 8 8
REMARK H PARENT
REMARK Flexibility Score: inf
ROOT
ATOM      1  C   UNL     1       9.236  -0.739   9.776  1.00  0.00     0.059 C 
ENDROOT
BRANCH   1   2
ATOM      2  C   UNL     1       9.110   0.626   9.173  1.00  0.00     0.042 C 
ATOM      3  O   UNL     1       9.928   1.532   9.480  1.00  0.00    -0.550 OA
ATOM      4  O   UNL     1       8.113   0.887   8.241  1.00  0.00    -0.550 OA
ENDBRANCH   1   2
BRANCH   1   5
ATOM      5  C   UNL     1       8.768  -1.829   8.806  1.00  0.00     0.059 C 
BRANCH   5   6
ATOM      6  C   UNL     1       9.108  -3.199   9.309  1.00  0.00     0.042 C 
ATOM      7  O   UNL     1       8.835  -3.525  10.494  1.00  0.00    -0.550 OA
ATOM      8  O   UNL     1       9.764  -4.100   8.481  1.00  0.00    -0.550 OA
ENDBRANCH   5   6
ENDBRANCH   1   5
TORSDOF 3
ENDMDL
MODEL 7
REMARK VINA RESULT:    -3.093      3.520      5.957
REMARK INTER + INTRA:          -3.673
REMARK INTER:                  -3.642
REMARK INTRA:                  -0.031
REMARK UNBOUND:                -0.038
REMARK SMILES O=C([O-])CCC(=O)[O-]
REMARK SMILES IDX 4 1 2 2 1 3 3 4 5 5 6 6 7 7 8 8
REMARK H PARENT
REMARK Flexibility Score: inf
ROOT
ATOM      1  C   UNL     1       9.024  -2.476   9.628  1.00  0.00     0.059 C 
ENDROOT
BRANCH   1   2
ATOM      2  C   UNL     1       8.892  -1.046   9.202  1.00  0.00     0.042 C 
ATOM      3  O   UNL     1       9.292  -0.121   9.955  1.00  0.00    -0.550 OA
ATOM      4  O   UNL     1       8.362  -0.737   7.955  1.00  0.00    -0.550 OA
ENDBRANCH   1   2
BRANCH   1   5
ATOM      5  C   UNL     1       9.070  -3.422   8.424  1.00  0.00     0.059 C 
BRANCH   5   6
ATOM      6  C   UNL     1       9.429  -4.818   8.831  1.00  0.00     0.042 C 
ATOM      7  O   UNL     1       8.827  -5.374   9.787  1.00  0.00    -0.550 OA
ATOM      8  O   UNL     1      10.457  -5.489   8.183  1.00  0.00    -0.550 OA
ENDBRANCH   5   6
ENDBRANCH   1   5
TORSDOF 3
ENDMDL
MODEL 8
REMARK VINA RESULT:    -3.063      3.745      5.168
REMARK INTER + INTRA:          -3.637
REMARK INTER:                  -3.608
REMARK INTRA:                  -0.030
REMARK UNBOUND:                -0.038
REMARK SMILES O=C([O-])CCC(=O)[O-]
REMARK SMILES IDX 4 1 2 2 1 3 3 4 5 5 6 6 7 7 8 8
REMARK H PARENT
REMARK Flexibility Score: inf
ROOT
ATOM      1  C   UNL     1       9.277  -3.658   8.428  1.00  0.00     0.059 C 
ENDROOT
BRANCH   1   2
ATOM      2  C   UNL     1       9.411  -5.104   8.793  1.00  0.00     0.042 C 
ATOM      3  O   UNL     1      10.389  -5.776   8.372  1.00  0.00    -0.550 OA
ATOM      4  O   UNL     1       8.478  -5.700   9.633  1.00  0.00    -0.550 OA
ENDBRANCH   1   2
BRANCH   1   5
ATOM      5  C   UNL     1       8.971  -2.792   9.654  1.00  0.00     0.059 C 
BRANCH   5   6
ATOM      6  C   UNL     1       8.916  -1.337   9.303  1.00  0.00     0.042 C 
ATOM      7  O   UNL     1       8.234  -0.947   8.318  1.00  0.00    -0.550 OA
ATOM      8  O   UNL     1       9.651  -0.416  10.037  1.00  0.00    -0.550 OA
ENDBRANCH   5   6
ENDBRANCH   1   5
TORSDOF 3
ENDMDL
