MODEL 1
REMARK VINA RESULT:    -3.939      0.000      0.000
REMARK INTER + INTRA:          -4.912
REMARK INTER:                  -4.861
REMARK INTRA:                  -0.051
REMARK UNBOUND:                -0.051
REMARK SMILES CCCCCC(C)=O
REMARK SMILES IDX 4 1 3 2 2 3 1 4 5 5 6 6 8 7 7 8
REMARK H PARENT
REMARK Flexibility Score: inf
ROOT
ATOM      1  C   UNL     1      25.918  57.350  -8.984  1.00  0.00     0.008 C 
ENDROOT
BRANCH   1   2
ATOM      2  C   UNL     1      26.077  58.824  -9.398  1.00  0.00     0.000 C 
BRANCH   2   3
ATOM      3  C   UNL     1      27.269  59.046 -10.341  1.00  0.00    -0.003 C 
ATOM      4  C   UNL     1      27.862  60.450 -10.224  1.00  0.00     0.004 C 
ENDBRANCH   2   3
ENDBRANCH   1   2
BRANCH   1   5
ATOM      5  C   UNL     1      24.474  57.014  -8.589  1.00  0.00     0.075 C 
BRANCH   5   6
ATOM      6  C   UNL     1      24.370  55.668  -7.923  1.00  0.00     0.129 C 
ATOM      7  O   UNL     1      25.357  54.952  -7.843  1.00  0.00    -0.300 OA
ATOM      8  C   UNL     1      23.057  55.188  -7.382  1.00  0.00     0.087 C 
ENDBRANCH   5   6
ENDBRANCH   1   5
TORSDOF 4
ENDMDL
MODEL 2
REMARK VINA RESULT:    -3.792      2.206      5.004
REMARK INTER + INTRA:          -4.730
REMARK INTER:                  -4.637
REMARK INTRA:                  -0.093
REMARK UNBOUND:                -0.051
REMARK SMILES CCCCCC(C)=O
REMARK SMILES IDX 4 1 3 2 2 3 1 4 5 5 6 6 8 7 7 8
REMARK H PARENT
REMARK Flexibility Score: inf
ROOT
ATOM      1  C   UNL     1      25.847  56.891  -8.932  1.00  0.00     0.008 C 
ENDROOT
BRANCH   1   2
ATOM      2  C   UNL     1      25.088  56.113  -7.843  1.00  0.00     0.000 C 
BRANCH   2   3
ATOM      3  C   UNL     1      23.686  55.681  -8.297  1.00  0.00    -0.003 C 
ATOM      4  C   UNL     1      22.869  55.046  -7.172  1.00  0.00     0.004 C 
ENDBRANCH   2   3
ENDBRANCH   1   2
BRANCH   1   5
ATOM      5  C   UNL     1      25.373  58.347  -9.038  1.00  0.00     0.075 C 
BRANCH   5   6
ATOM      6  C   UNL     1      26.453  59.256  -9.559  1.00  0.00     0.129 C 
ATOM      7  O   UNL     1      26.568  60.386  -9.105  1.00  0.00    -0.300 OA
ATOM      8  C   UNL     1      27.373  58.796 -10.649  1.00  0.00     0.087 C 
ENDBRANCH   5   6
ENDBRANCH   1   5
TORSDOF 4
ENDMDL
MODEL 3
REMARK VINA RESULT:    -3.691     16.570     17.644
REMARK INTER + INTRA:          -4.605
REMARK INTER:                  -4.313
REMARK INTRA:                  -0.292
REMARK UNBOUND:                -0.051
REMARK SMILES CCCCCC(C)=O
REMARK SMILES IDX 4 1 3 2 2 3 1 4 5 5 6 6 8 7 7 8
REMARK H PARENT
REMARK Flexibility Score: inf
ROOT
ATOM      1  C   UNL     1      19.571  45.158  -0.104  1.00  0.00     0.008 C 
ENDROOT
BRANCH   1   2
ATOM      2  C   UNL     1      19.875  44.826   1.368  1.00  0.00     0.000 C 
BRANCH   2   3
ATOM      3  C   UNL     1      20.275  43.357   1.571  1.00  0.00    -0.003 C 
ATOM      4  C   UNL     1      21.020  42.776   0.369  1.00  0.00     0.004 C 
ENDBRANCH   2   3
ENDBRANCH   1   2
BRANCH   1   5
ATOM      5  C   UNL     1      18.114  45.597  -0.308  1.00  0.00     0.075 C 
BRANCH   5   6
ATOM      6  C   UNL     1      17.140  44.526   0.103  1.00  0.00     0.129 C 
ATOM      7  O   UNL     1      17.157  43.440  -0.459  1.00  0.00    -0.300 OA
ATOM      8  C   UNL     1      16.130  44.790   1.178  1.00  0.00     0.087 C 
ENDBRANCH   5   6
ENDBRANCH   1   5
TORSDOF 4
ENDMDL
MODEL 4
REMARK VINA RESULT:    -3.668      2.877      5.447
REMARK INTER + INTRA:          -4.577
REMARK INTER:                  -4.492
REMARK INTRA:                  -0.085
REMARK UNBOUND:                -0.051
REMARK SMILES CCCCCC(C)=O
REMARK SMILES IDX 4 1 3 2 2 3 1 4 5 5 6 6 8 7 7 8
REMARK H PARENT
REMARK Flexibility Score: inf
ROOT
ATOM      1  C   UNL     1      26.586  58.432  -9.711  1.00  0.00     0.008 C 
ENDROOT
BRANCH   1   2
ATOM      2  C   UNL     1      25.377  57.927  -8.903  1.00  0.00     0.000 C 
BRANCH   2   3
ATOM      3  C   UNL     1      25.597  56.519  -8.331  1.00  0.00    -0.003 C 
ATOM      4  C   UNL     1      24.302  55.712  -8.231  1.00  0.00     0.004 C 
ENDBRANCH   2   3
ENDBRANCH   1   2
BRANCH   1   5
ATOM      5  C   UNL     1      26.751  59.955  -9.611  1.00  0.00     0.075 C 
BRANCH   5   6
ATOM      6  C   UNL     1      27.988  60.435 -10.321  1.00  0.00     0.129 C 
ATOM      7  O   UNL     1      28.193  61.635 -10.441  1.00  0.00    -0.300 OA
ATOM      8  C   UNL     1      28.958  59.454 -10.906  1.00  0.00     0.087 C 
ENDBRANCH   5   6
ENDBRANCH   1   5
TORSDOF 4
ENDMDL
MODEL 5
REMARK VINA RESULT:    -3.611     16.468     18.153
REMARK INTER + INTRA:          -4.507
REMARK INTER:                  -4.249
REMARK INTRA:                  -0.258
REMARK UNBOUND:                -0.051
REMARK SMILES CCCCCC(C)=O
REMARK SMILES IDX 4 1 3 2 2 3 1 4 5 5 6 6 8 7 7 8
REMARK H PARENT
REMARK Flexibility Score: inf
ROOT
ATOM      1  C   UNL     1      17.166  43.960   1.181  1.00  0.00     0.008 C 
ENDROOT
BRANCH   1   2
ATOM      2  C   UNL     1      16.003  44.745   1.812  1.00  0.00     0.000 C 
BRANCH   2   3
ATOM      3  C   UNL     1      15.189  45.530   0.772  1.00  0.00    -0.003 C 
ATOM      4  C   UNL     1      15.930  45.698  -0.554  1.00  0.00     0.004 C 
ENDBRANCH   2   3
ENDBRANCH   1   2
BRANCH   1   5
ATOM      5  C   UNL     1      18.454  44.071   2.009  1.00  0.00     0.075 C 
BRANCH   5   6
ATOM      6  C   UNL     1      19.660  44.322   1.145  1.00  0.00     0.129 C 
ATOM      7  O   UNL     1      20.730  43.800   1.428  1.00  0.00    -0.300 OA
ATOM      8  C   UNL     1      19.567  45.226  -0.046  1.00  0.00     0.087 C 
ENDBRANCH   5   6
ENDBRANCH   1   5
TORSDOF 4
ENDMDL
MODEL 6
REMARK VINA RESULT:    -3.601     16.859     17.908
REMARK INTER + INTRA:          -4.495
REMARK INTER:                  -4.237
REMARK INTRA:                  -0.258
REMARK UNBOUND:                -0.051
REMARK SMILES CCCCCC(C)=O
REMARK SMILES IDX 4 1 3 2 2 3 1 4 5 5 6 6 8 7 7 8
REMARK H PARENT
REMARK Flexibility Score: inf
ROOT
ATOM      1  C   UNL     1      17.965  44.410  -0.174  1.00  0.00     0.008 C 
ENDROOT
BRANCH   1   2
ATOM      2  C   UNL     1      17.050  45.634  -0.357  1.00  0.00     0.000 C 
BRANCH   2   3
ATOM      3  C   UNL     1      15.661  45.429   0.266  1.00  0.00    -0.003 C 
ATOM      4  C   UNL     1      15.727  44.899   1.699  1.00  0.00     0.004 C 
ENDBRANCH   2   3
ENDBRANCH   1   2
BRANCH   1   5
ATOM      5  C   UNL     1      19.420  44.813   0.099  1.00  0.00     0.075 C 
BRANCH   5   6
ATOM      6  C   UNL     1      19.978  44.123   1.315  1.00  0.00     0.129 C 
ATOM      7  O   UNL     1      21.030  43.504   1.234  1.00  0.00    -0.300 OA
ATOM      8  C   UNL     1      19.241  44.168   2.619  1.00  0.00     0.087 C 
ENDBRANCH   5   6
ENDBRANCH   1   5
TORSDOF 4
ENDMDL
MODEL 7
REMARK VINA RESULT:    -3.523     16.773     18.155
REMARK INTER + INTRA:          -4.398
REMARK INTER:                  -4.147
REMARK INTRA:                  -0.251
REMARK UNBOUND:                -0.051
REMARK SMILES CCCCCC(C)=O
REMARK SMILES IDX 4 1 3 2 2 3 1 4 5 5 6 6 8 7 7 8
REMARK H PARENT
REMARK Flexibility Score: inf
ROOT
ATOM      1  C   UNL     1      17.366  43.968   1.265  1.00  0.00     0.008 C 
ENDROOT
BRANCH   1   2
ATOM      2  C   UNL     1      18.610  44.039   2.168  1.00  0.00     0.000 C 
BRANCH   2   3
ATOM      3  C   UNL     1      19.876  44.441   1.397  1.00  0.00    -0.003 C 
ATOM      4  C   UNL     1      19.565  45.135   0.071  1.00  0.00     0.004 C 
ENDBRANCH   2   3
ENDBRANCH   1   2
BRANCH   1   5
ATOM      5  C   UNL     1      16.188  44.765   1.842  1.00  0.00     0.075 C 
BRANCH   5   6
ATOM      6  C   UNL     1      15.414  45.483   0.770  1.00  0.00     0.129 C 
ATOM      7  O   UNL     1      14.303  45.930   1.017  1.00  0.00    -0.300 OA
ATOM      8  C   UNL     1      15.984  45.633  -0.608  1.00  0.00     0.087 C 
ENDBRANCH   5   6
ENDBRANCH   1   5
TORSDOF 4
ENDMDL
MODEL 8
REMARK VINA RESULT:    -3.416      6.530      7.706
REMARK INTER + INTRA:          -4.266
REMARK INTER:                  -3.983
REMARK INTRA:                  -0.283
REMARK UNBOUND:                -0.051
REMARK SMILES CCCCCC(C)=O
REMARK SMILES IDX 4 1 3 2 2 3 1 4 5 5 6 6 8 7 7 8
REMARK H PARENT
REMARK Flexibility Score: inf
ROOT
ATOM      1  C   UNL     1      30.275  57.527 -13.228  1.00  0.00     0.008 C 
ENDROOT
BRANCH   1   2
ATOM      2  C   UNL     1      31.485  56.800 -13.840  1.00  0.00     0.000 C 
BRANCH   2   3
ATOM      3  C   UNL     1      32.717  57.709 -13.966  1.00  0.00    -0.003 C 
ATOM      4  C   UNL     1      34.006  57.024 -13.513  1.00  0.00     0.004 C 
ENDBRANCH   2   3
ENDBRANCH   1   2
BRANCH   1   5
ATOM      5  C   UNL     1      30.497  59.043 -13.139  1.00  0.00     0.075 C 
BRANCH   5   6
ATOM      6  C   UNL     1      30.341  59.554 -11.732  1.00  0.00     0.129 C 
ATOM      7  O   UNL     1      29.373  60.241 -11.439  1.00  0.00    -0.300 OA
ATOM      8  C   UNL     1      31.378  59.250 -10.694  1.00  0.00     0.087 C 
ENDBRANCH   5   6
ENDBRANCH   1   5
TORSDOF 4
ENDMDL
MODEL 9
REMARK VINA RESULT:    -3.351      4.573      6.423
REMARK INTER + INTRA:          -4.186
REMARK INTER:                  -4.013
REMARK INTRA:                  -0.173
REMARK UNBOUND:                -0.051
REMARK SMILES CCCCCC(C)=O
REMARK SMILES IDX 4 1 3 2 2 3 1 4 5 5 6 6 8 7 7 8
REMARK H PARENT
REMARK Flexibility Score: inf
ROOT
ATOM      1  C   UNL     1      30.414  59.220 -12.573  1.00  0.00     0.008 C 
ENDROOT
BRANCH   1   2
ATOM      2  C   UNL     1      30.009  57.827 -13.086  1.00  0.00     0.000 C 
BRANCH   2   3
ATOM      3  C   UNL     1      31.221  56.967 -13.475  1.00  0.00    -0.003 C 
ATOM      4  C   UNL     1      32.420  57.802 -13.922  1.00  0.00     0.004 C 
ENDBRANCH   2   3
ENDBRANCH   1   2
BRANCH   1   5
ATOM      5  C   UNL     1      30.077  59.409 -11.088  1.00  0.00     0.075 C 
BRANCH   5   6
ATOM      6  C   UNL     1      28.687  59.950 -10.889  1.00  0.00     0.129 C 
ATOM      7  O   UNL     1      28.467  61.140 -11.063  1.00  0.00    -0.300 OA
ATOM      8  C   UNL     1      27.575  59.045 -10.453  1.00  0.00     0.087 C 
ENDBRANCH   5   6
ENDBRANCH   1   5
TORSDOF 4
ENDMDL
