MODEL 1
REMARK VINA RESULT:    -4.299      0.000      0.000
REMARK INTER + INTRA:          -4.929
REMARK INTER:                  -4.676
REMARK INTRA:                  -0.253
REMARK UNBOUND:                -0.253
REMARK SMILES O=C([O-])c1ccccc1O
REMARK SMILES IDX 4 1 9 2 5 3 8 4 6 5 7 6 2 7 1 8 3 9 10 10
REMARK H PARENT 10 11
REMARK Flexibility Score: inf
ROOT
ATOM      1  C   UNL     1    -108.300 -14.825  53.081  1.00  0.00     0.039 A 
ATOM      2  C   UNL     1    -108.050 -14.042  54.238  1.00  0.00     0.124 A 
ATOM      3  C   UNL     1    -107.443 -14.693  51.971  1.00  0.00     0.014 A 
ATOM      4  C   UNL     1    -107.000 -13.114  54.232  1.00  0.00     0.047 A 
ATOM      5  C   UNL     1    -106.389 -13.777  51.991  1.00  0.00     0.001 A 
ATOM      6  C   UNL     1    -106.174 -12.982  53.115  1.00  0.00     0.004 A 
ENDROOT
BRANCH   1   7
ATOM      7  C   UNL     1    -109.447 -15.755  52.974  1.00  0.00     0.075 C 
ATOM      8  O   UNL     1    -109.316 -16.883  52.433  1.00  0.00    -0.545 OA
ATOM      9  O   UNL     1    -110.672 -15.415  53.538  1.00  0.00    -0.545 OA
ENDBRANCH   1   7
BRANCH   2  10
ATOM     10  O   UNL     1    -108.789 -14.177  55.415  1.00  0.00    -0.507 OA
ATOM     11  H   UNL     1    -108.383 -14.444  56.301  1.00  0.00     0.293 HD
ENDBRANCH   2  10
TORSDOF 2
ENDMDL
MODEL 2
REMARK VINA RESULT:    -4.251      1.612      2.655
REMARK INTER + INTRA:          -4.877
REMARK INTER:                  -4.640
REMARK INTRA:                  -0.237
REMARK UNBOUND:                -0.253
REMARK SMILES O=C([O-])c1ccccc1O
REMARK SMILES IDX 4 1 9 2 5 3 8 4 6 5 7 6 2 7 1 8 3 9 10 10
REMARK H PARENT 10 11
REMARK Flexibility Score: inf
ROOT
ATOM      1  C   UNL     1    -108.361 -13.750  53.822  1.00  0.00     0.039 A 
ATOM      2  C   UNL     1    -107.127 -13.065  53.679  1.00  0.00     0.124 A 
ATOM      3  C   UNL     1    -108.643 -14.833  52.967  1.00  0.00     0.014 A 
ATOM      4  C   UNL     1    -106.244 -13.436  52.656  1.00  0.00     0.047 A 
ATOM      5  C   UNL     1    -107.742 -15.202  51.966  1.00  0.00     0.001 A 
ATOM      6  C   UNL     1    -106.550 -14.498  51.804  1.00  0.00     0.004 A 
ENDROOT
BRANCH   1   7
ATOM      7  C   UNL     1    -109.387 -13.355  54.814  1.00  0.00     0.075 C 
ATOM      8  O   UNL     1    -109.421 -12.187  55.279  1.00  0.00    -0.545 OA
ATOM      9  O   UNL     1    -110.373 -14.260  55.192  1.00  0.00    -0.545 OA
ENDBRANCH   1   7
BRANCH   2  10
ATOM     10  O   UNL     1    -106.725 -12.044  54.543  1.00  0.00    -0.507 OA
ATOM     11  H   UNL     1    -106.712 -11.067  54.285  1.00  0.00     0.293 HD
ENDBRANCH   2  10
TORSDOF 2
ENDMDL
MODEL 3
REMARK VINA RESULT:    -4.184      2.281      3.269
REMARK INTER + INTRA:          -4.804
REMARK INTER:                  -4.552
REMARK INTRA:                  -0.252
REMARK UNBOUND:                -0.253
REMARK SMILES O=C([O-])c1ccccc1O
REMARK SMILES IDX 4 1 9 2 5 3 8 4 6 5 7 6 2 7 1 8 3 9 10 10
REMARK H PARENT 10 11
REMARK Flexibility Score: inf
ROOT
ATOM      1  C   UNL     1    -107.756 -14.310  52.886  1.00  0.00     0.039 A 
ATOM      2  C   UNL     1    -107.815 -13.565  54.092  1.00  0.00     0.124 A 
ATOM      3  C   UNL     1    -108.737 -15.289  52.642  1.00  0.00     0.014 A 
ATOM      4  C   UNL     1    -108.805 -13.859  55.039  1.00  0.00     0.047 A 
ATOM      5  C   UNL     1    -109.730 -15.555  53.588  1.00  0.00     0.001 A 
ATOM      6  C   UNL     1    -109.757 -14.848  54.789  1.00  0.00     0.004 A 
ENDROOT
BRANCH   1   7
ATOM      7  C   UNL     1    -106.684 -14.126  51.882  1.00  0.00     0.075 C 
ATOM      8  O   UNL     1    -106.182 -15.113  51.283  1.00  0.00    -0.545 OA
ATOM      9  O   UNL     1    -106.266 -12.845  51.538  1.00  0.00    -0.545 OA
ENDBRANCH   1   7
BRANCH   2  10
ATOM     10  O   UNL     1    -106.942 -12.512  54.373  1.00  0.00    -0.507 OA
ATOM     11  H   UNL     1    -105.965 -12.512  54.111  1.00  0.00     0.293 HD
ENDBRANCH   2  10
TORSDOF 2
ENDMDL
MODEL 4
REMARK VINA RESULT:    -4.122      1.123      2.453
REMARK INTER + INTRA:          -4.737
REMARK INTER:                  -4.484
REMARK INTRA:                  -0.253
REMARK UNBOUND:                -0.253
REMARK SMILES O=C([O-])c1ccccc1O
REMARK SMILES IDX 4 1 9 2 5 3 8 4 6 5 7 6 2 7 1 8 3 9 10 10
REMARK H PARENT 10 11
REMARK Flexibility Score: inf
ROOT
ATOM      1  C   UNL     1    -108.526 -14.422  53.870  1.00  0.00     0.039 A 
ATOM      2  C   UNL     1    -108.073 -14.814  52.584  1.00  0.00     0.124 A 
ATOM      3  C   UNL     1    -107.809 -13.434  54.573  1.00  0.00     0.014 A 
ATOM      4  C   UNL     1    -106.893 -14.261  52.067  1.00  0.00     0.047 A 
ATOM      5  C   UNL     1    -106.647 -12.879  54.033  1.00  0.00     0.001 A 
ATOM      6  C   UNL     1    -106.184 -13.299  52.787  1.00  0.00     0.004 A 
ENDROOT
BRANCH   1   7
ATOM      7  C   UNL     1    -109.706 -15.030  54.525  1.00  0.00     0.075 C 
ATOM      8  O   UNL     1    -110.524 -14.324  55.168  1.00  0.00    -0.545 OA
ATOM      9  O   UNL     1    -109.959 -16.389  54.375  1.00  0.00    -0.545 OA
ENDBRANCH   1   7
BRANCH   2  10
ATOM     10  O   UNL     1    -108.773 -15.714  51.778  1.00  0.00    -0.507 OA
ATOM     11  H   UNL     1    -109.652 -16.135  52.046  1.00  0.00     0.293 HD
ENDBRANCH   2  10
TORSDOF 2
ENDMDL
MODEL 5
REMARK VINA RESULT:    -3.945      1.941      3.528
REMARK INTER + INTRA:          -4.544
REMARK INTER:                  -4.306
REMARK INTRA:                  -0.238
REMARK UNBOUND:                -0.253
REMARK SMILES O=C([O-])c1ccccc1O
REMARK SMILES IDX 4 1 9 2 5 3 8 4 6 5 7 6 2 7 1 8 3 9 10 10
REMARK H PARENT 10 11
REMARK Flexibility Score: inf
ROOT
ATOM      1  C   UNL     1    -108.111 -14.367  53.266  1.00  0.00     0.039 A 
ATOM      2  C   UNL     1    -109.120 -14.352  54.263  1.00  0.00     0.124 A 
ATOM      3  C   UNL     1    -108.180 -15.331  52.242  1.00  0.00     0.014 A 
ATOM      4  C   UNL     1    -110.125 -15.328  54.247  1.00  0.00     0.047 A 
ATOM      5  C   UNL     1    -109.201 -16.285  52.229  1.00  0.00     0.001 A 
ATOM      6  C   UNL     1    -110.165 -16.289  53.236  1.00  0.00     0.004 A 
ENDROOT
BRANCH   1   7
ATOM      7  C   UNL     1    -106.964 -13.431  53.271  1.00  0.00     0.075 C 
ATOM      8  O   UNL     1    -106.586 -12.878  54.336  1.00  0.00    -0.545 OA
ATOM      9  O   UNL     1    -106.245 -13.207  52.102  1.00  0.00    -0.545 OA
ENDBRANCH   1   7
BRANCH   2  10
ATOM     10  O   UNL     1    -109.183 -13.374  55.259  1.00  0.00    -0.507 OA
ATOM     11  H   UNL     1    -109.246 -12.384  55.066  1.00  0.00     0.293 HD
ENDBRANCH   2  10
TORSDOF 2
ENDMDL
MODEL 6
REMARK VINA RESULT:    -3.831      2.105      3.825
REMARK INTER + INTRA:          -4.420
REMARK INTER:                  -4.175
REMARK INTRA:                  -0.245
REMARK UNBOUND:                -0.253
REMARK SMILES O=C([O-])c1ccccc1O
REMARK SMILES IDX 4 1 9 2 5 3 8 4 6 5 7 6 2 7 1 8 3 9 10 10
REMARK H PARENT 10 11
REMARK Flexibility Score: inf
ROOT
ATOM      1  C   UNL     1    -108.471 -14.431  53.787  1.00  0.00     0.039 A 
ATOM      2  C   UNL     1    -107.937 -14.852  52.541  1.00  0.00     0.124 A 
ATOM      3  C   UNL     1    -109.498 -15.191  54.379  1.00  0.00     0.014 A 
ATOM      4  C   UNL     1    -108.482 -15.972  51.898  1.00  0.00     0.047 A 
ATOM      5  C   UNL     1    -110.014 -16.316  53.733  1.00  0.00     0.001 A 
ATOM      6  C   UNL     1    -109.514 -16.700  52.490  1.00  0.00     0.004 A 
ENDROOT
BRANCH   1   7
ATOM      7  C   UNL     1    -108.016 -13.205  54.480  1.00  0.00     0.075 C 
ATOM      8  O   UNL     1    -106.811 -12.848  54.439  1.00  0.00    -0.545 OA
ATOM      9  O   UNL     1    -108.939 -12.393  55.131  1.00  0.00    -0.545 OA
ENDBRANCH   1   7
BRANCH   2  10
ATOM     10  O   UNL     1    -106.855 -14.216  51.929  1.00  0.00    -0.507 OA
ATOM     11  H   UNL     1    -106.108 -14.711  51.463  1.00  0.00     0.293 HD
ENDBRANCH   2  10
TORSDOF 2
ENDMDL
MODEL 7
REMARK VINA RESULT:    -3.807     13.268     14.120
REMARK INTER + INTRA:          -4.394
REMARK INTER:                  -4.141
REMARK INTRA:                  -0.252
REMARK UNBOUND:                -0.253
REMARK SMILES O=C([O-])c1ccccc1O
REMARK SMILES IDX 4 1 9 2 5 3 8 4 6 5 7 6 2 7 1 8 3 9 10 10
REMARK H PARENT 10 11
REMARK Flexibility Score: inf
ROOT
ATOM      1  C   UNL     1    -102.436  -3.258  47.238  1.00  0.00     0.039 A 
ATOM      2  C   UNL     1    -102.084  -3.004  48.589  1.00  0.00     0.124 A 
ATOM      3  C   UNL     1    -101.516  -2.933  46.222  1.00  0.00     0.014 A 
ATOM      4  C   UNL     1    -100.863  -2.382  48.881  1.00  0.00     0.047 A 
ATOM      5  C   UNL     1    -100.294  -2.332  46.534  1.00  0.00     0.001 A 
ATOM      6  C   UNL     1     -99.973  -2.048  47.860  1.00  0.00     0.004 A 
ENDROOT
BRANCH   1   7
ATOM      7  C   UNL     1    -103.747  -3.821  46.842  1.00  0.00     0.075 C 
ATOM      8  O   UNL     1    -103.836  -4.652  45.902  1.00  0.00    -0.545 OA
ATOM      9  O   UNL     1    -104.891  -3.486  47.558  1.00  0.00    -0.545 OA
ENDBRANCH   1   7
BRANCH   2  10
ATOM     10  O   UNL     1    -102.893  -3.381  49.664  1.00  0.00    -0.507 OA
ATOM     11  H   UNL     1    -103.791  -2.961  49.860  1.00  0.00     0.293 HD
ENDBRANCH   2  10
TORSDOF 2
ENDMDL
MODEL 8
REMARK VINA RESULT:    -3.800     12.589     13.914
REMARK INTER + INTRA:          -4.386
REMARK INTER:                  -4.168
REMARK INTRA:                  -0.219
REMARK UNBOUND:                -0.253
REMARK SMILES O=C([O-])c1ccccc1O
REMARK SMILES IDX 4 1 9 2 5 3 8 4 6 5 7 6 2 7 1 8 3 9 10 10
REMARK H PARENT 10 11
REMARK Flexibility Score: inf
ROOT
ATOM      1  C   UNL     1    -102.712  -3.148  48.417  1.00  0.00     0.039 A 
ATOM      2  C   UNL     1    -102.868  -3.354  47.021  1.00  0.00     0.124 A 
ATOM      3  C   UNL     1    -101.469  -2.702  48.904  1.00  0.00     0.014 A 
ATOM      4  C   UNL     1    -101.772  -3.173  46.168  1.00  0.00     0.047 A 
ATOM      5  C   UNL     1    -100.392  -2.506  48.036  1.00  0.00     0.001 A 
ATOM      6  C   UNL     1    -100.541  -2.751  46.672  1.00  0.00     0.004 A 
ENDROOT
BRANCH   1   7
ATOM      7  C   UNL     1    -103.794  -3.412  49.392  1.00  0.00     0.075 C 
ATOM      8  O   UNL     1    -104.357  -4.536  49.444  1.00  0.00    -0.545 OA
ATOM      9  O   UNL     1    -104.153  -2.435  50.313  1.00  0.00    -0.545 OA
ENDBRANCH   1   7
BRANCH   2  10
ATOM     10  O   UNL     1    -104.090  -3.703  46.441  1.00  0.00    -0.507 OA
ATOM     11  H   UNL     1    -104.684  -4.440  46.793  1.00  0.00     0.293 HD
ENDBRANCH   2  10
TORSDOF 2
ENDMDL
MODEL 9
REMARK VINA RESULT:    -3.741     14.576     15.651
REMARK INTER + INTRA:          -4.322
REMARK INTER:                  -4.104
REMARK INTRA:                  -0.219
REMARK UNBOUND:                -0.253
REMARK SMILES O=C([O-])c1ccccc1O
REMARK SMILES IDX 4 1 9 2 5 3 8 4 6 5 7 6 2 7 1 8 3 9 10 10
REMARK H PARENT 10 11
REMARK Flexibility Score: inf
ROOT
ATOM      1  C   UNL     1    -101.054  -2.770  46.348  1.00  0.00     0.039 A 
ATOM      2  C   UNL     1    -100.383  -2.398  47.541  1.00  0.00     0.124 A 
ATOM      3  C   UNL     1    -102.355  -3.302  46.436  1.00  0.00     0.014 A 
ATOM      4  C   UNL     1    -100.997  -2.623  48.780  1.00  0.00     0.047 A 
ATOM      5  C   UNL     1    -102.960  -3.500  47.679  1.00  0.00     0.001 A 
ATOM      6  C   UNL     1    -102.278  -3.171  48.849  1.00  0.00     0.004 A 
ENDROOT
BRANCH   1   7
ATOM      7  C   UNL     1    -100.433  -2.654  45.009  1.00  0.00     0.075 C 
ATOM      8  O   UNL     1    -100.068  -1.537  44.560  1.00  0.00    -0.545 OA
ATOM      9  O   UNL     1    -100.184  -3.797  44.258  1.00  0.00    -0.545 OA
ENDBRANCH   1   7
BRANCH   2  10
ATOM     10  O   UNL     1     -99.132  -1.776  47.542  1.00  0.00    -0.507 OA
ATOM     11  H   UNL     1     -99.003  -0.782  47.675  1.00  0.00     0.293 HD
ENDBRANCH   2  10
TORSDOF 2
ENDMDL
