MODEL 1
REMARK VINA RESULT:    -3.528      0.000      0.000
REMARK INTER + INTRA:          -8.798
REMARK INTER:                  -6.519
REMARK INTRA:                  -2.279
REMARK UNBOUND:                -2.279
REMARK SMILES CCCCCCCCCCCCCCCCO
REMARK SMILES IDX 9 1 8 2 7 3 6 4 5 5 4 6 3 7 2 8 1 9 10 10 11 11 12 12 13 13
REMARK SMILES IDX 14 14 15 15 16 16 17 17
REMARK H PARENT 17 18
REMARK Flexibility Score: inf
ROOT
ATOM      1  C   UNL     1     130.434 145.743 122.945  1.00  0.00     0.000 C 
ENDROOT
BRANCH   1   2
ATOM      2  C   UNL     1     129.119 146.376 122.452  1.00  0.00    -0.000 C 
BRANCH   2   3
ATOM      3  C   UNL     1     127.880 145.467 122.559  1.00  0.00    -0.000 C 
BRANCH   3   4
ATOM      4  C   UNL     1     127.330 144.962 121.211  1.00  0.00    -0.000 C 
BRANCH   4   5
ATOM      5  C   UNL     1     127.691 145.885 120.035  1.00  0.00    -0.000 C 
BRANCH   5   6
ATOM      6  C   UNL     1     128.449 145.150 118.918  1.00  0.00    -0.000 C 
BRANCH   6   7
ATOM      7  C   UNL     1     128.668 143.663 119.233  1.00  0.00    -0.000 C 
BRANCH   7   8
ATOM      8  C   UNL     1     130.159 143.352 119.399  1.00  0.00    -0.003 C 
ATOM      9  C   UNL     1     130.455 142.793 120.788  1.00  0.00     0.004 C 
ENDBRANCH   7   8
ENDBRANCH   6   7
ENDBRANCH   5   6
ENDBRANCH   4   5
ENDBRANCH   3   4
ENDBRANCH   2   3
ENDBRANCH   1   2
BRANCH   1  10
ATOM     10  C   UNL     1     131.679 146.208 122.161  1.00  0.00     0.000 C 
BRANCH  10  11
ATOM     11  C   UNL     1     131.352 146.571 120.703  1.00  0.00     0.000 C 
BRANCH  11  12
ATOM     12  C   UNL     1     132.570 146.443 119.773  1.00  0.00     0.000 C 
BRANCH  12  13
ATOM     13  C   UNL     1     133.396 145.177 120.049  1.00  0.00     0.000 C 
BRANCH  13  14
ATOM     14  C   UNL     1     134.788 145.218 119.395  1.00  0.00     0.002 C 
BRANCH  14  15
ATOM     15  C   UNL     1     135.364 146.644 119.258  1.00  0.00     0.028 C 
BRANCH  15  16
ATOM     16  C   UNL     1     136.422 146.951 120.325  1.00  0.00     0.156 C 
BRANCH  16  17
ATOM     17  O   UNL     1     135.811 147.125 121.575  1.00  0.00    -0.396 OA
ATOM     18  H   UNL     1     136.202 146.443 122.179  1.00  0.00     0.210 HD
ENDBRANCH  16  17
ENDBRANCH  15  16
ENDBRANCH  14  15
ENDBRANCH  13  14
ENDBRANCH  12  13
ENDBRANCH  11  12
ENDBRANCH  10  11
ENDBRANCH   1  10
TORSDOF 15
ENDMDL
MODEL 2
REMARK VINA RESULT:    -3.525      1.012      2.857
REMARK INTER + INTRA:          -8.792
REMARK INTER:                  -6.550
REMARK INTRA:                  -2.242
REMARK UNBOUND:                -2.279
REMARK SMILES CCCCCCCCCCCCCCCCO
REMARK SMILES IDX 9 1 8 2 7 3 6 4 5 5 4 6 3 7 2 8 1 9 10 10 11 11 12 12 13 13
REMARK SMILES IDX 14 14 15 15 16 16 17 17
REMARK H PARENT 17 18
REMARK Flexibility Score: inf
ROOT
ATOM      1  C   UNL     1     129.912 143.738 119.626  1.00  0.00     0.000 C 
ENDROOT
BRANCH   1   2
ATOM      2  C   UNL     1     128.589 142.960 119.755  1.00  0.00    -0.000 C 
BRANCH   2   3
ATOM      3  C   UNL     1     127.317 143.826 119.685  1.00  0.00    -0.000 C 
BRANCH   3   4
ATOM      4  C   UNL     1     127.535 145.254 119.148  1.00  0.00    -0.000 C 
BRANCH   4   5
ATOM      5  C   UNL     1     127.135 146.340 120.162  1.00  0.00    -0.000 C 
BRANCH   5   6
ATOM      6  C   UNL     1     127.102 145.816 121.606  1.00  0.00    -0.000 C 
BRANCH   6   7
ATOM      7  C   UNL     1     128.213 146.421 122.478  1.00  0.00    -0.000 C 
BRANCH   7   8
ATOM      8  C   UNL     1     128.525 145.515 123.675  1.00  0.00    -0.003 C 
ATOM      9  C   UNL     1     128.265 144.049 123.340  1.00  0.00     0.004 C 
ENDBRANCH   7   8
ENDBRANCH   6   7
ENDBRANCH   5   6
ENDBRANCH   4   5
ENDBRANCH   3   4
ENDBRANCH   2   3
ENDBRANCH   1   2
BRANCH   1  10
ATOM     10  C   UNL     1     130.810 143.646 120.879  1.00  0.00     0.000 C 
BRANCH  10  11
ATOM     11  C   UNL     1     131.438 145.000 121.249  1.00  0.00     0.000 C 
BRANCH  11  12
ATOM     12  C   UNL     1     131.089 146.110 120.245  1.00  0.00     0.000 C 
BRANCH  12  13
ATOM     13  C   UNL     1     132.333 146.821 119.691  1.00  0.00     0.000 C 
BRANCH  13  14
ATOM     14  C   UNL     1     133.593 145.940 119.734  1.00  0.00     0.002 C 
BRANCH  14  15
ATOM     15  C   UNL     1     134.755 146.482 118.873  1.00  0.00     0.028 C 
BRANCH  15  16
ATOM     16  C   UNL     1     135.993 146.823 119.711  1.00  0.00     0.156 C 
BRANCH  16  17
ATOM     17  O   UNL     1     135.625 147.053 121.044  1.00  0.00    -0.396 OA
ATOM     18  H   UNL     1     136.254 146.531 121.607  1.00  0.00     0.210 HD
ENDBRANCH  16  17
ENDBRANCH  15  16
ENDBRANCH  14  15
ENDBRANCH  13  14
ENDBRANCH  12  13
ENDBRANCH  11  12
ENDBRANCH  10  11
ENDBRANCH   1  10
TORSDOF 15
ENDMDL
MODEL 3
REMARK VINA RESULT:    -3.396      1.879      3.211
REMARK INTER + INTRA:          -8.554
REMARK INTER:                  -6.745
REMARK INTRA:                  -1.809
REMARK UNBOUND:                -2.279
REMARK SMILES CCCCCCCCCCCCCCCCO
REMARK SMILES IDX 9 1 8 2 7 3 6 4 5 5 4 6 3 7 2 8 1 9 10 10 11 11 12 12 13 13
REMARK SMILES IDX 14 14 15 15 16 16 17 17
REMARK H PARENT 17 18
REMARK Flexibility Score: inf
ROOT
ATOM      1  C   UNL     1     131.108 144.583 120.315  1.00  0.00     0.000 C 
ENDROOT
BRANCH   1   2
ATOM      2  C   UNL     1     129.937 143.582 120.276  1.00  0.00    -0.000 C 
BRANCH   2   3
ATOM      3  C   UNL     1     128.981 143.748 119.079  1.00  0.00    -0.000 C 
BRANCH   3   4
ATOM      4  C   UNL     1     127.536 144.129 119.454  1.00  0.00    -0.000 C 
BRANCH   4   5
ATOM      5  C   UNL     1     127.202 145.595 119.130  1.00  0.00    -0.000 C 
BRANCH   5   6
ATOM      6  C   UNL     1     126.875 146.418 120.387  1.00  0.00    -0.000 C 
BRANCH   6   7
ATOM      7  C   UNL     1     127.251 145.687 121.685  1.00  0.00    -0.000 C 
BRANCH   7   8
ATOM      8  C   UNL     1     127.851 146.659 122.707  1.00  0.00    -0.003 C 
ATOM      9  C   UNL     1     129.253 146.225 123.125  1.00  0.00     0.004 C 
ENDBRANCH   7   8
ENDBRANCH   6   7
ENDBRANCH   5   6
ENDBRANCH   4   5
ENDBRANCH   3   4
ENDBRANCH   2   3
ENDBRANCH   1   2
BRANCH   1  10
ATOM     10  C   UNL     1     130.757 145.972 119.741  1.00  0.00     0.000 C 
BRANCH  10  11
ATOM     11  C   UNL     1     131.847 147.017 120.030  1.00  0.00     0.000 C 
BRANCH  11  12
ATOM     12  C   UNL     1     133.236 146.387 120.221  1.00  0.00     0.000 C 
BRANCH  12  13
ATOM     13  C   UNL     1     134.218 146.766 119.100  1.00  0.00     0.000 C 
BRANCH  13  14
ATOM     14  C   UNL     1     134.770 145.541 118.351  1.00  0.00     0.002 C 
BRANCH  14  15
ATOM     15  C   UNL     1     134.641 144.223 119.144  1.00  0.00     0.028 C 
BRANCH  15  16
ATOM     16  C   UNL     1     135.944 143.414 119.147  1.00  0.00     0.156 C 
BRANCH  16  17
ATOM     17  O   UNL     1     135.910 142.442 118.137  1.00  0.00    -0.396 OA
ATOM     18  H   UNL     1     135.035 142.536 117.681  1.00  0.00     0.210 HD
ENDBRANCH  16  17
ENDBRANCH  15  16
ENDBRANCH  14  15
ENDBRANCH  13  14
ENDBRANCH  12  13
ENDBRANCH  11  12
ENDBRANCH  10  11
ENDBRANCH   1  10
TORSDOF 15
ENDMDL
MODEL 4
REMARK VINA RESULT:    -3.365      3.169      6.034
REMARK INTER + INTRA:          -8.497
REMARK INTER:                  -6.247
REMARK INTRA:                  -2.250
REMARK UNBOUND:                -2.279
REMARK SMILES CCCCCCCCCCCCCCCCO
REMARK SMILES IDX 9 1 8 2 7 3 6 4 5 5 4 6 3 7 2 8 1 9 10 10 11 11 12 12 13 13
REMARK SMILES IDX 14 14 15 15 16 16 17 17
REMARK H PARENT 17 18
REMARK Flexibility Score: inf
ROOT
ATOM      1  C   UNL     1     127.865 146.366 120.176  1.00  0.00     0.000 C 
ENDROOT
BRANCH   1   2
ATOM      2  C   UNL     1     126.909 146.268 121.380  1.00  0.00    -0.000 C 
BRANCH   2   3
ATOM      3  C   UNL     1     127.579 145.877 122.711  1.00  0.00    -0.000 C 
BRANCH   3   4
ATOM      4  C   UNL     1     129.029 146.374 122.876  1.00  0.00    -0.000 C 
BRANCH   4   5
ATOM      5  C   UNL     1     130.021 145.235 123.168  1.00  0.00    -0.000 C 
BRANCH   5   6
ATOM      6  C   UNL     1     131.179 145.188 122.159  1.00  0.00    -0.000 C 
BRANCH   6   7
ATOM      7  C   UNL     1     131.196 146.406 121.223  1.00  0.00    -0.000 C 
BRANCH   7   8
ATOM      8  C   UNL     1     132.319 146.285 120.186  1.00  0.00    -0.003 C 
ATOM      9  C   UNL     1     132.515 144.836 119.751  1.00  0.00     0.004 C 
ENDBRANCH   7   8
ENDBRANCH   6   7
ENDBRANCH   5   6
ENDBRANCH   4   5
ENDBRANCH   3   4
ENDBRANCH   2   3
ENDBRANCH   1   2
BRANCH   1  10
ATOM     10  C   UNL     1     127.300 145.737 118.884  1.00  0.00     0.000 C 
BRANCH  10  11
ATOM     11  C   UNL     1     127.693 144.258 118.732  1.00  0.00     0.000 C 
BRANCH  11  12
ATOM     12  C   UNL     1     128.961 143.898 119.522  1.00  0.00     0.000 C 
BRANCH  12  13
ATOM     13  C   UNL     1     128.704 142.836 120.603  1.00  0.00     0.000 C 
BRANCH  13  14
ATOM     14  C   UNL     1     127.208 142.540 120.806  1.00  0.00     0.002 C 
BRANCH  14  15
ATOM     15  C   UNL     1     126.876 141.033 120.841  1.00  0.00     0.028 C 
BRANCH  15  16
ATOM     16  C   UNL     1     128.029 140.194 121.403  1.00  0.00     0.156 C 
BRANCH  16  17
ATOM     17  O   UNL     1     127.627 139.547 122.581  1.00  0.00    -0.396 OA
ATOM     18  H   UNL     1     127.251 138.670 122.308  1.00  0.00     0.210 HD
ENDBRANCH  16  17
ENDBRANCH  15  16
ENDBRANCH  14  15
ENDBRANCH  13  14
ENDBRANCH  12  13
ENDBRANCH  11  12
ENDBRANCH  10  11
ENDBRANCH   1  10
TORSDOF 15
ENDMDL
MODEL 5
REMARK VINA RESULT:    -3.302      3.229      6.537
REMARK INTER + INTRA:          -8.380
REMARK INTER:                  -7.039
REMARK INTRA:                  -1.341
REMARK UNBOUND:                -2.279
REMARK SMILES CCCCCCCCCCCCCCCCO
REMARK SMILES IDX 9 1 8 2 7 3 6 4 5 5 4 6 3 7 2 8 1 9 10 10 11 11 12 12 13 13
REMARK SMILES IDX 14 14 15 15 16 16 17 17
REMARK H PARENT 17 18
REMARK Flexibility Score: inf
ROOT
ATOM      1  C   UNL     1     130.584 145.811 121.002  1.00  0.00     0.000 C 
ENDROOT
BRANCH   1   2
ATOM      2  C   UNL     1     131.800 146.754 121.075  1.00  0.00    -0.000 C 
BRANCH   2   3
ATOM      3  C   UNL     1     132.632 146.843 119.781  1.00  0.00    -0.000 C 
BRANCH   3   4
ATOM      4  C   UNL     1     134.084 146.346 119.911  1.00  0.00    -0.000 C 
BRANCH   4   5
ATOM      5  C   UNL     1     134.782 146.179 118.551  1.00  0.00    -0.000 C 
BRANCH   5   6
ATOM      6  C   UNL     1     135.065 144.707 118.209  1.00  0.00    -0.000 C 
BRANCH   6   7
ATOM      7  C   UNL     1     134.341 143.733 119.150  1.00  0.00    -0.000 C 
BRANCH   7   8
ATOM      8  C   UNL     1     133.206 143.007 118.419  1.00  0.00    -0.003 C 
ATOM      9  C   UNL     1     131.931 142.993 119.256  1.00  0.00     0.004 C 
ENDBRANCH   7   8
ENDBRANCH   6   7
ENDBRANCH   5   6
ENDBRANCH   4   5
ENDBRANCH   3   4
ENDBRANCH   2   3
ENDBRANCH   1   2
BRANCH   1  10
ATOM     10  C   UNL     1     129.701 146.031 119.755  1.00  0.00     0.000 C 
BRANCH  10  11
ATOM     11  C   UNL     1     128.207 146.127 120.105  1.00  0.00     0.000 C 
BRANCH  11  12
ATOM     12  C   UNL     1     127.318 145.342 119.127  1.00  0.00     0.000 C 
BRANCH  12  13
ATOM     13  C   UNL     1     127.647 143.841 119.102  1.00  0.00     0.000 C 
BRANCH  13  14
ATOM     14  C   UNL     1     127.234 143.118 120.396  1.00  0.00     0.002 C 
BRANCH  14  15
ATOM     15  C   UNL     1     127.901 141.737 120.572  1.00  0.00     0.028 C 
BRANCH  15  16
ATOM     16  C   UNL     1     126.876 140.614 120.766  1.00  0.00     0.156 C 
BRANCH  16  17
ATOM     17  O   UNL     1     127.132 139.927 121.961  1.00  0.00    -0.396 OA
ATOM     18  H   UNL     1     127.584 140.570 122.567  1.00  0.00     0.210 HD
ENDBRANCH  16  17
ENDBRANCH  15  16
ENDBRANCH  14  15
ENDBRANCH  13  14
ENDBRANCH  12  13
ENDBRANCH  11  12
ENDBRANCH  10  11
ENDBRANCH   1  10
TORSDOF 15
ENDMDL
MODEL 6
REMARK VINA RESULT:    -3.293      1.786      3.335
REMARK INTER + INTRA:          -8.363
REMARK INTER:                  -6.240
REMARK INTRA:                  -2.123
REMARK UNBOUND:                -2.279
REMARK SMILES CCCCCCCCCCCCCCCCO
REMARK SMILES IDX 9 1 8 2 7 3 6 4 5 5 4 6 3 7 2 8 1 9 10 10 11 11 12 12 13 13
REMARK SMILES IDX 14 14 15 15 16 16 17 17
REMARK H PARENT 17 18
REMARK Flexibility Score: inf
ROOT
ATOM      1  C   UNL     1     127.133 146.395 120.858  1.00  0.00     0.000 C 
ENDROOT
BRANCH   1   2
ATOM      2  C   UNL     1     127.239 146.164 122.377  1.00  0.00    -0.000 C 
BRANCH   2   3
ATOM      3  C   UNL     1     128.618 146.477 122.987  1.00  0.00    -0.000 C 
BRANCH   3   4
ATOM      4  C   UNL     1     129.477 145.240 123.314  1.00  0.00    -0.000 C 
BRANCH   4   5
ATOM      5  C   UNL     1     128.657 143.939 123.359  1.00  0.00    -0.000 C 
BRANCH   5   6
ATOM      6  C   UNL     1     129.083 142.935 122.275  1.00  0.00    -0.000 C 
BRANCH   6   7
ATOM      7  C   UNL     1     127.913 142.074 121.777  1.00  0.00    -0.000 C 
BRANCH   7   8
ATOM      8  C   UNL     1     128.364 141.136 120.651  1.00  0.00    -0.003 C 
ATOM      9  C   UNL     1     127.305 140.078 120.356  1.00  0.00     0.004 C 
ENDBRANCH   7   8
ENDBRANCH   6   7
ENDBRANCH   5   6
ENDBRANCH   4   5
ENDBRANCH   3   4
ENDBRANCH   2   3
ENDBRANCH   1   2
BRANCH   1  10
ATOM     10  C   UNL     1     127.076 145.091 120.034  1.00  0.00     0.000 C 
BRANCH  10  11
ATOM     11  C   UNL     1     128.379 144.830 119.260  1.00  0.00     0.000 C 
BRANCH  11  12
ATOM     12  C   UNL     1     129.377 145.992 119.372  1.00  0.00     0.000 C 
BRANCH  12  13
ATOM     13  C   UNL     1     130.772 145.534 119.828  1.00  0.00     0.000 C 
BRANCH  13  14
ATOM     14  C   UNL     1     131.597 146.669 120.458  1.00  0.00     0.002 C 
BRANCH  14  15
ATOM     15  C   UNL     1     133.118 146.409 120.441  1.00  0.00     0.028 C 
BRANCH  15  16
ATOM     16  C   UNL     1     133.701 146.266 121.853  1.00  0.00     0.156 C 
BRANCH  16  17
ATOM     17  O   UNL     1     134.805 147.117 122.008  1.00  0.00    -0.396 OA
ATOM     18  H   UNL     1     134.490 147.895 122.538  1.00  0.00     0.210 HD
ENDBRANCH  16  17
ENDBRANCH  15  16
ENDBRANCH  14  15
ENDBRANCH  13  14
ENDBRANCH  12  13
ENDBRANCH  11  12
ENDBRANCH  10  11
ENDBRANCH   1  10
TORSDOF 15
ENDMDL
MODEL 7
REMARK VINA RESULT:    -3.285      1.452      5.253
REMARK INTER + INTRA:          -8.350
REMARK INTER:                  -6.753
REMARK INTRA:                  -1.597
REMARK UNBOUND:                -2.279
REMARK SMILES CCCCCCCCCCCCCCCCO
REMARK SMILES IDX 9 1 8 2 7 3 6 4 5 5 4 6 3 7 2 8 1 9 10 10 11 11 12 12 13 13
REMARK SMILES IDX 14 14 15 15 16 16 17 17
REMARK H PARENT 17 18
REMARK Flexibility Score: inf
ROOT
ATOM      1  C   UNL     1     128.327 144.642 118.838  1.00  0.00     0.000 C 
ENDROOT
BRANCH   1   2
ATOM      2  C   UNL     1     129.425 143.970 119.684  1.00  0.00    -0.000 C 
BRANCH   2   3
ATOM      3  C   UNL     1     130.762 144.732 119.737  1.00  0.00    -0.000 C 
BRANCH   3   4
ATOM      4  C   UNL     1     130.632 146.267 119.740  1.00  0.00    -0.000 C 
BRANCH   4   5
ATOM      5  C   UNL     1     131.994 146.982 119.711  1.00  0.00    -0.000 C 
BRANCH   5   6
ATOM      6  C   UNL     1     133.160 146.046 120.066  1.00  0.00    -0.000 C 
BRANCH   6   7
ATOM      7  C   UNL     1     134.471 146.449 119.375  1.00  0.00    -0.000 C 
BRANCH   7   8
ATOM      8  C   UNL     1     134.897 145.393 118.349  1.00  0.00    -0.003 C 
ATOM      9  C   UNL     1     134.343 144.018 118.708  1.00  0.00     0.004 C 
ENDBRANCH   7   8
ENDBRANCH   6   7
ENDBRANCH   5   6
ENDBRANCH   4   5
ENDBRANCH   3   4
ENDBRANCH   2   3
ENDBRANCH   1   2
BRANCH   1  10
ATOM     10  C   UNL     1     127.203 145.285 119.678  1.00  0.00     0.000 C 
BRANCH  10  11
ATOM     11  C   UNL     1     127.279 144.888 121.162  1.00  0.00     0.000 C 
BRANCH  11  12
ATOM     12  C   UNL     1     127.434 146.101 122.092  1.00  0.00     0.000 C 
BRANCH  12  13
ATOM     13  C   UNL     1     127.969 145.719 123.481  1.00  0.00     0.000 C 
BRANCH  13  14
ATOM     14  C   UNL     1     129.139 146.609 123.935  1.00  0.00     0.002 C 
BRANCH  14  15
ATOM     15  C   UNL     1     130.512 146.142 123.406  1.00  0.00     0.028 C 
BRANCH  15  16
ATOM     16  C   UNL     1     131.668 146.586 124.310  1.00  0.00     0.156 C 
BRANCH  16  17
ATOM     17  O   UNL     1     132.780 146.939 123.532  1.00  0.00    -0.396 OA
ATOM     18  H   UNL     1     132.846 147.929 123.564  1.00  0.00     0.210 HD
ENDBRANCH  16  17
ENDBRANCH  15  16
ENDBRANCH  14  15
ENDBRANCH  13  14
ENDBRANCH  12  13
ENDBRANCH  11  12
ENDBRANCH  10  11
ENDBRANCH   1  10
TORSDOF 15
ENDMDL
MODEL 8
REMARK VINA RESULT:    -3.227      2.749      6.201
REMARK INTER + INTRA:          -8.241
REMARK INTER:                  -6.722
REMARK INTRA:                  -1.518
REMARK UNBOUND:                -2.279
REMARK SMILES CCCCCCCCCCCCCCCCO
REMARK SMILES IDX 9 1 8 2 7 3 6 4 5 5 4 6 3 7 2 8 1 9 10 10 11 11 12 12 13 13
REMARK SMILES IDX 14 14 15 15 16 16 17 17
REMARK H PARENT 17 18
REMARK Flexibility Score: inf
ROOT
ATOM      1  C   UNL     1     128.330 145.024 118.921  1.00  0.00     0.000 C 
ENDROOT
BRANCH   1   2
ATOM      2  C   UNL     1     129.123 143.905 119.621  1.00  0.00    -0.000 C 
BRANCH   2   3
ATOM      3  C   UNL     1     130.637 144.160 119.744  1.00  0.00    -0.000 C 
BRANCH   3   4
ATOM      4  C   UNL     1     131.051 145.032 120.945  1.00  0.00    -0.000 C 
BRANCH   4   5
ATOM      5  C   UNL     1     130.979 146.538 120.643  1.00  0.00    -0.000 C 
BRANCH   5   6
ATOM      6  C   UNL     1     132.079 146.999 119.673  1.00  0.00    -0.000 C 
BRANCH   6   7
ATOM      7  C   UNL     1     133.472 146.496 120.079  1.00  0.00    -0.000 C 
BRANCH   7   8
ATOM      8  C   UNL     1     134.398 146.405 118.861  1.00  0.00    -0.003 C 
ATOM      9  C   UNL     1     134.802 144.961 118.582  1.00  0.00     0.004 C 
ENDBRANCH   7   8
ENDBRANCH   6   7
ENDBRANCH   5   6
ENDBRANCH   4   5
ENDBRANCH   3   4
ENDBRANCH   2   3
ENDBRANCH   1   2
BRANCH   1  10
ATOM     10  C   UNL     1     127.097 145.502 119.717  1.00  0.00     0.000 C 
BRANCH  10  11
ATOM     11  C   UNL     1     127.191 145.149 121.211  1.00  0.00     0.000 C 
BRANCH  11  12
ATOM     12  C   UNL     1     127.587 146.354 122.080  1.00  0.00     0.000 C 
BRANCH  12  13
ATOM     13  C   UNL     1     127.187 146.179 123.553  1.00  0.00     0.000 C 
BRANCH  13  14
ATOM     14  C   UNL     1     128.395 145.938 124.475  1.00  0.00     0.002 C 
BRANCH  14  15
ATOM     15  C   UNL     1     128.949 144.499 124.403  1.00  0.00     0.028 C 
BRANCH  15  16
ATOM     16  C   UNL     1     128.058 143.493 125.143  1.00  0.00     0.156 C 
BRANCH  16  17
ATOM     17  O   UNL     1     127.472 142.604 124.231  1.00  0.00    -0.396 OA
ATOM     18  H   UNL     1     128.194 142.313 123.615  1.00  0.00     0.210 HD
ENDBRANCH  16  17
ENDBRANCH  15  16
ENDBRANCH  14  15
ENDBRANCH  13  14
ENDBRANCH  12  13
ENDBRANCH  11  12
ENDBRANCH  10  11
ENDBRANCH   1  10
TORSDOF 15
ENDMDL
MODEL 9
REMARK VINA RESULT:    -3.202      2.472      5.941
REMARK INTER + INTRA:          -8.196
REMARK INTER:                  -6.076
REMARK INTRA:                  -2.120
REMARK UNBOUND:                -2.279
REMARK SMILES CCCCCCCCCCCCCCCCO
REMARK SMILES IDX 9 1 8 2 7 3 6 4 5 5 4 6 3 7 2 8 1 9 10 10 11 11 12 12 13 13
REMARK SMILES IDX 14 14 15 15 16 16 17 17
REMARK H PARENT 17 18
REMARK Flexibility Score: inf
ROOT
ATOM      1  C   UNL     1     130.542 143.994 120.422  1.00  0.00     0.000 C 
ENDROOT
BRANCH   1   2
ATOM      2  C   UNL     1     131.099 145.395 120.106  1.00  0.00    -0.000 C 
BRANCH   2   3
ATOM      3  C   UNL     1     131.818 146.088 121.279  1.00  0.00    -0.000 C 
BRANCH   3   4
ATOM      4  C   UNL     1     133.221 146.630 120.948  1.00  0.00    -0.000 C 
BRANCH   4   5
ATOM      5  C   UNL     1     133.677 146.277 119.522  1.00  0.00    -0.000 C 
BRANCH   5   6
ATOM      6  C   UNL     1     134.815 145.244 119.504  1.00  0.00    -0.000 C 
BRANCH   6   7
ATOM      7  C   UNL     1     134.788 144.358 118.250  1.00  0.00    -0.000 C 
BRANCH   7   8
ATOM      8  C   UNL     1     133.764 143.227 118.399  1.00  0.00    -0.003 C 
ATOM      9  C   UNL     1     133.881 142.552 119.762  1.00  0.00     0.004 C 
ENDBRANCH   7   8
ENDBRANCH   6   7
ENDBRANCH   5   6
ENDBRANCH   4   5
ENDBRANCH   3   4
ENDBRANCH   2   3
ENDBRANCH   1   2
BRANCH   1  10
ATOM     10  C   UNL     1     129.644 143.417 119.307  1.00  0.00     0.000 C 
BRANCH  10  11
ATOM     11  C   UNL     1     128.148 143.638 119.586  1.00  0.00     0.000 C 
BRANCH  11  12
ATOM     12  C   UNL     1     127.585 144.870 118.859  1.00  0.00     0.000 C 
BRANCH  12  13
ATOM     13  C   UNL     1     127.398 146.076 119.793  1.00  0.00     0.000 C 
BRANCH  13  14
ATOM     14  C   UNL     1     127.082 145.666 121.241  1.00  0.00     0.002 C 
BRANCH  14  15
ATOM     15  C   UNL     1     128.084 146.224 122.274  1.00  0.00     0.028 C 
BRANCH  15  16
ATOM     16  C   UNL     1     128.524 145.165 123.292  1.00  0.00     0.156 C 
BRANCH  16  17
ATOM     17  O   UNL     1     127.741 144.010 123.156  1.00  0.00    -0.396 OA
ATOM     18  H   UNL     1     128.310 143.247 123.437  1.00  0.00     0.210 HD
ENDBRANCH  16  17
ENDBRANCH  15  16
ENDBRANCH  14  15
ENDBRANCH  13  14
ENDBRANCH  12  13
ENDBRANCH  11  12
ENDBRANCH  10  11
ENDBRANCH   1  10
TORSDOF 15
ENDMDL
