MODEL 1
REMARK VINA RESULT:    -3.220      0.000      0.000
REMARK INTER + INTRA:          -4.872
REMARK INTER:                  -4.349
REMARK INTRA:                  -0.523
REMARK UNBOUND:                -0.523
REMARK SMILES CCCCCCCC(=O)[O-]
REMARK SMILES IDX 5 1 6 2 7 3 8 4 9 5 10 6 4 7 3 8 2 9 1 10
REMARK H PARENT
REMARK Flexibility Score: inf
ROOT
ATOM      1  C   UNL     1      15.358   0.158 -12.038  1.00  0.00     0.000 C 
ENDROOT
BRANCH   1   2
ATOM      2  C   UNL     1      13.913  -0.242 -12.373  1.00  0.00     0.006 C 
BRANCH   2   3
ATOM      3  C   UNL     1      13.847  -1.359 -13.423  1.00  0.00     0.053 C 
BRANCH   3   4
ATOM      4  C   UNL     1      13.404  -0.842 -14.757  1.00  0.00     0.041 C 
ATOM      5  O   UNL     1      14.200  -0.187 -15.480  1.00  0.00    -0.550 OA
ATOM      6  O   UNL     1      12.100  -1.054 -15.186  1.00  0.00    -0.550 OA
ENDBRANCH   3   4
ENDBRANCH   2   3
ENDBRANCH   1   2
BRANCH   1   7
ATOM      7  C   UNL     1      16.316  -1.026 -12.244  1.00  0.00     0.000 C 
BRANCH   7   8
ATOM      8  C   UNL     1      17.470  -0.694 -13.203  1.00  0.00    -0.000 C 
BRANCH   8   9
ATOM      9  C   UNL     1      17.242   0.617 -13.971  1.00  0.00    -0.003 C 
ATOM     10  C   UNL     1      17.661   0.478 -15.432  1.00  0.00     0.004 C 
ENDBRANCH   8   9
ENDBRANCH   7   8
ENDBRANCH   1   7
TORSDOF 6
ENDMDL
MODEL 2
REMARK VINA RESULT:    -3.191     18.531     19.583
REMARK INTER + INTRA:          -4.834
REMARK INTER:                  -4.291
REMARK INTRA:                  -0.542
REMARK UNBOUND:                -0.523
REMARK SMILES CCCCCCCC(=O)[O-]
REMARK SMILES IDX 5 1 6 2 7 3 8 4 9 5 10 6 4 7 3 8 2 9 1 10
REMARK H PARENT
REMARK Flexibility Score: inf
ROOT
ATOM      1  C   UNL     1      28.689  13.472 -17.207  1.00  0.00     0.000 C 
ENDROOT
BRANCH   1   2
ATOM      2  C   UNL     1      29.437  13.214 -15.890  1.00  0.00     0.006 C 
BRANCH   2   3
ATOM      3  C   UNL     1      28.777  12.111 -15.053  1.00  0.00     0.053 C 
BRANCH   3   4
ATOM      4  C   UNL     1      29.785  11.138 -14.522  1.00  0.00     0.041 C 
ATOM      5  O   UNL     1      31.016  11.357 -14.670  1.00  0.00    -0.550 OA
ATOM      6  O   UNL     1      29.363   9.972 -13.895  1.00  0.00    -0.550 OA
ENDBRANCH   3   4
ENDBRANCH   2   3
ENDBRANCH   1   2
BRANCH   1   7
ATOM      7  C   UNL     1      29.610  13.242 -18.415  1.00  0.00     0.000 C 
BRANCH   7   8
ATOM      8  C   UNL     1      30.794  12.319 -18.090  1.00  0.00    -0.000 C 
BRANCH   8   9
ATOM      9  C   UNL     1      30.733  10.987 -18.853  1.00  0.00    -0.003 C 
ATOM     10  C   UNL     1      30.551   9.813 -17.896  1.00  0.00     0.004 C 
ENDBRANCH   8   9
ENDBRANCH   7   8
ENDBRANCH   1   7
TORSDOF 6
ENDMDL
MODEL 3
REMARK VINA RESULT:    -3.191     18.755     19.721
REMARK INTER + INTRA:          -4.833
REMARK INTER:                  -4.389
REMARK INTRA:                  -0.444
REMARK UNBOUND:                -0.523
REMARK SMILES CCCCCCCC(=O)[O-]
REMARK SMILES IDX 5 1 6 2 7 3 8 4 9 5 10 6 4 7 3 8 2 9 1 10
REMARK H PARENT
REMARK Flexibility Score: inf
ROOT
ATOM      1  C   UNL     1      29.616  13.155 -18.363  1.00  0.00     0.000 C 
ENDROOT
BRANCH   1   2
ATOM      2  C   UNL     1      30.766  12.207 -17.992  1.00  0.00     0.006 C 
BRANCH   2   3
ATOM      3  C   UNL     1      30.802  10.958 -18.883  1.00  0.00     0.053 C 
BRANCH   3   4
ATOM      4  C   UNL     1      30.606   9.704 -18.090  1.00  0.00     0.041 C 
ATOM      5  O   UNL     1      30.420   8.605 -18.676  1.00  0.00    -0.550 OA
ATOM      6  O   UNL     1      30.595   9.754 -16.702  1.00  0.00    -0.550 OA
ENDBRANCH   3   4
ENDBRANCH   2   3
ENDBRANCH   1   2
BRANCH   1   7
ATOM      7  C   UNL     1      28.876  13.637 -17.106  1.00  0.00     0.000 C 
BRANCH   7   8
ATOM      8  C   UNL     1      28.450  12.480 -16.188  1.00  0.00    -0.000 C 
BRANCH   8   9
ATOM      9  C   UNL     1      28.769  12.749 -14.710  1.00  0.00    -0.003 C 
ATOM     10  C   UNL     1      29.836  13.831 -14.566  1.00  0.00     0.004 C 
ENDBRANCH   8   9
ENDBRANCH   7   8
ENDBRANCH   1   7
TORSDOF 6
ENDMDL
MODEL 4
REMARK VINA RESULT:    -3.159     18.954     19.973
REMARK INTER + INTRA:          -4.790
REMARK INTER:                  -4.356
REMARK INTRA:                  -0.434
REMARK UNBOUND:                -0.523
REMARK SMILES CCCCCCCC(=O)[O-]
REMARK SMILES IDX 5 1 6 2 7 3 8 4 9 5 10 6 4 7 3 8 2 9 1 10
REMARK H PARENT
REMARK Flexibility Score: inf
ROOT
ATOM      1  C   UNL     1      28.416  12.518 -16.002  1.00  0.00     0.000 C 
ENDROOT
BRANCH   1   2
ATOM      2  C   UNL     1      29.315  11.980 -14.878  1.00  0.00     0.006 C 
BRANCH   2   3
ATOM      3  C   UNL     1      29.967  13.106 -14.066  1.00  0.00     0.053 C 
BRANCH   3   4
ATOM      4  C   UNL     1      28.972  13.813 -13.198  1.00  0.00     0.041 C 
ATOM      5  O   UNL     1      28.443  13.217 -12.224  1.00  0.00    -0.550 OA
ATOM      6  O   UNL     1      28.604  15.121 -13.488  1.00  0.00    -0.550 OA
ENDBRANCH   3   4
ENDBRANCH   2   3
ENDBRANCH   1   2
BRANCH   1   7
ATOM      7  C   UNL     1      29.139  13.608 -16.808  1.00  0.00     0.000 C 
BRANCH   7   8
ATOM      8  C   UNL     1      29.566  13.127 -18.203  1.00  0.00    -0.000 C 
BRANCH   8   9
ATOM      9  C   UNL     1      30.909  12.381 -18.187  1.00  0.00    -0.003 C 
ATOM     10  C   UNL     1      30.772  10.990 -18.799  1.00  0.00     0.004 C 
ENDBRANCH   8   9
ENDBRANCH   7   8
ENDBRANCH   1   7
TORSDOF 6
ENDMDL
MODEL 5
REMARK VINA RESULT:    -3.157     18.791     19.541
REMARK INTER + INTRA:          -4.788
REMARK INTER:                  -4.338
REMARK INTRA:                  -0.450
REMARK UNBOUND:                -0.523
REMARK SMILES CCCCCCCC(=O)[O-]
REMARK SMILES IDX 5 1 6 2 7 3 8 4 9 5 10 6 4 7 3 8 2 9 1 10
REMARK H PARENT
REMARK Flexibility Score: inf
ROOT
ATOM      1  C   UNL     1      29.297  11.087 -15.021  1.00  0.00     0.000 C 
ENDROOT
BRANCH   1   2
ATOM      2  C   UNL     1      28.835  12.542 -15.197  1.00  0.00     0.006 C 
BRANCH   2   3
ATOM      3  C   UNL     1      28.413  12.847 -16.640  1.00  0.00     0.053 C 
BRANCH   3   4
ATOM      4  C   UNL     1      29.118  14.052 -17.182  1.00  0.00     0.041 C 
ATOM      5  O   UNL     1      29.334  14.158 -18.418  1.00  0.00    -0.550 OA
ATOM      6  O   UNL     1      29.566  15.043 -16.318  1.00  0.00    -0.550 OA
ENDBRANCH   3   4
ENDBRANCH   2   3
ENDBRANCH   1   2
BRANCH   1   7
ATOM      7  C   UNL     1      30.364  10.721 -16.064  1.00  0.00     0.000 C 
BRANCH   7   8
ATOM      8  C   UNL     1      29.970   9.501 -16.912  1.00  0.00    -0.000 C 
BRANCH   8   9
ATOM      9  C   UNL     1      30.607   9.521 -18.309  1.00  0.00    -0.003 C 
ATOM     10  C   UNL     1      30.791  10.951 -18.809  1.00  0.00     0.004 C 
ENDBRANCH   8   9
ENDBRANCH   7   8
ENDBRANCH   1   7
TORSDOF 6
ENDMDL
MODEL 6
REMARK VINA RESULT:    -3.131     18.371     20.137
REMARK INTER + INTRA:          -4.752
REMARK INTER:                  -4.514
REMARK INTRA:                  -0.239
REMARK UNBOUND:                -0.523
REMARK SMILES CCCCCCCC(=O)[O-]
REMARK SMILES IDX 5 1 6 2 7 3 8 4 9 5 10 6 4 7 3 8 2 9 1 10
REMARK H PARENT
REMARK Flexibility Score: inf
ROOT
ATOM      1  C   UNL     1      28.264  15.026 -13.103  1.00  0.00     0.000 C 
ENDROOT
BRANCH   1   2
ATOM      2  C   UNL     1      29.238  15.358 -14.243  1.00  0.00     0.006 C 
BRANCH   2   3
ATOM      3  C   UNL     1      29.423  14.183 -15.212  1.00  0.00     0.053 C 
BRANCH   3   4
ATOM      4  C   UNL     1      29.586  14.649 -16.626  1.00  0.00     0.041 C 
ATOM      5  O   UNL     1      30.381  15.587 -16.896  1.00  0.00    -0.550 OA
ATOM      6  O   UNL     1      28.833  14.070 -17.640  1.00  0.00    -0.550 OA
ENDBRANCH   3   4
ENDBRANCH   2   3
ENDBRANCH   1   2
BRANCH   1   7
ATOM      7  C   UNL     1      28.134  13.506 -12.919  1.00  0.00     0.000 C 
BRANCH   7   8
ATOM      8  C   UNL     1      27.394  13.127 -11.627  1.00  0.00    -0.000 C 
BRANCH   8   9
ATOM      9  C   UNL     1      25.903  13.494 -11.669  1.00  0.00    -0.003 C 
ATOM     10  C   UNL     1      25.475  14.199 -10.386  1.00  0.00     0.004 C 
ENDBRANCH   8   9
ENDBRANCH   7   8
ENDBRANCH   1   7
TORSDOF 6
ENDMDL
MODEL 7
REMARK VINA RESULT:    -3.118     19.041     20.695
REMARK INTER + INTRA:          -4.734
REMARK INTER:                  -4.368
REMARK INTRA:                  -0.366
REMARK UNBOUND:                -0.523
REMARK SMILES CCCCCCCC(=O)[O-]
REMARK SMILES IDX 5 1 6 2 7 3 8 4 9 5 10 6 4 7 3 8 2 9 1 10
REMARK H PARENT
REMARK Flexibility Score: inf
ROOT
ATOM      1  C   UNL     1      29.599  13.267 -18.385  1.00  0.00     0.000 C 
ENDROOT
BRANCH   1   2
ATOM      2  C   UNL     1      29.318  14.280 -17.265  1.00  0.00     0.006 C 
BRANCH   2   3
ATOM      3  C   UNL     1      29.836  13.799 -15.903  1.00  0.00     0.053 C 
BRANCH   3   4
ATOM      4  C   UNL     1      29.957  14.927 -14.925  1.00  0.00     0.041 C 
ATOM      5  O   UNL     1      29.117  15.052 -13.995  1.00  0.00    -0.550 OA
ATOM      6  O   UNL     1      30.977  15.860 -15.062  1.00  0.00    -0.550 OA
ENDBRANCH   3   4
ENDBRANCH   2   3
ENDBRANCH   1   2
BRANCH   1   7
ATOM      7  C   UNL     1      30.711  12.289 -17.974  1.00  0.00     0.000 C 
BRANCH   7   8
ATOM      8  C   UNL     1      30.701  10.997 -18.806  1.00  0.00    -0.000 C 
BRANCH   8   9
ATOM      9  C   UNL     1      30.619   9.734 -17.937  1.00  0.00    -0.003 C 
ATOM     10  C   UNL     1      29.957  10.033 -16.595  1.00  0.00     0.004 C 
ENDBRANCH   8   9
ENDBRANCH   7   8
ENDBRANCH   1   7
TORSDOF 6
ENDMDL
MODEL 8
REMARK VINA RESULT:    -3.110     18.651     19.950
REMARK INTER + INTRA:          -4.723
REMARK INTER:                  -4.155
REMARK INTRA:                  -0.568
REMARK UNBOUND:                -0.523
REMARK SMILES CCCCCCCC(=O)[O-]
REMARK SMILES IDX 5 1 6 2 7 3 8 4 9 5 10 6 4 7 3 8 2 9 1 10
REMARK H PARENT
REMARK Flexibility Score: inf
ROOT
ATOM      1  C   UNL     1      28.847  11.717 -15.926  1.00  0.00     0.000 C 
ENDROOT
BRANCH   1   2
ATOM      2  C   UNL     1      29.393  11.672 -14.491  1.00  0.00     0.006 C 
BRANCH   2   3
ATOM      3  C   UNL     1      29.888  13.044 -14.014  1.00  0.00     0.053 C 
BRANCH   3   4
ATOM      4  C   UNL     1      28.751  13.943 -13.634  1.00  0.00     0.041 C 
ATOM      5  O   UNL     1      27.701  13.460 -13.135  1.00  0.00    -0.550 OA
ATOM      6  O   UNL     1      28.840  15.310 -13.861  1.00  0.00    -0.550 OA
ENDBRANCH   3   4
ENDBRANCH   2   3
ENDBRANCH   1   2
BRANCH   1   7
ATOM      7  C   UNL     1      29.976  11.518 -16.949  1.00  0.00     0.000 C 
BRANCH   7   8
ATOM      8  C   UNL     1      30.106  12.697 -17.925  1.00  0.00    -0.000 C 
BRANCH   8   9
ATOM      9  C   UNL     1      29.073  13.802 -17.659  1.00  0.00    -0.003 C 
ATOM     10  C   UNL     1      29.757  15.124 -17.322  1.00  0.00     0.004 C 
ENDBRANCH   8   9
ENDBRANCH   7   8
ENDBRANCH   1   7
TORSDOF 6
ENDMDL
MODEL 9
REMARK VINA RESULT:    -3.068     19.098     20.662
REMARK INTER + INTRA:          -4.667
REMARK INTER:                  -4.127
REMARK INTRA:                  -0.539
REMARK UNBOUND:                -0.523
REMARK SMILES CCCCCCCC(=O)[O-]
REMARK SMILES IDX 5 1 6 2 7 3 8 4 9 5 10 6 4 7 3 8 2 9 1 10
REMARK H PARENT
REMARK Flexibility Score: inf
ROOT
ATOM      1  C   UNL     1      29.182  13.670 -17.770  1.00  0.00     0.000 C 
ENDROOT
BRANCH   1   2
ATOM      2  C   UNL     1      30.414  12.794 -18.050  1.00  0.00     0.006 C 
BRANCH   2   3
ATOM      3  C   UNL     1      30.274  11.386 -17.456  1.00  0.00     0.053 C 
BRANCH   3   4
ATOM      4  C   UNL     1      30.094  11.426 -15.970  1.00  0.00     0.041 C 
ATOM      5  O   UNL     1      29.001  11.076 -15.453  1.00  0.00    -0.550 OA
ATOM      6  O   UNL     1      31.125  11.882 -15.157  1.00  0.00    -0.550 OA
ENDBRANCH   3   4
ENDBRANCH   2   3
ENDBRANCH   1   2
BRANCH   1   7
ATOM      7  C   UNL     1      29.598  15.111 -17.441  1.00  0.00     0.000 C 
BRANCH   7   8
ATOM      8  C   UNL     1      30.618  15.187 -16.293  1.00  0.00    -0.000 C 
BRANCH   8   9
ATOM      9  C   UNL     1      30.028  15.804 -15.017  1.00  0.00    -0.003 C 
ATOM     10  C   UNL     1      29.263  14.763 -14.206  1.00  0.00     0.004 C 
ENDBRANCH   8   9
ENDBRANCH   7   8
ENDBRANCH   1   7
TORSDOF 6
ENDMDL
