MODEL 1
REMARK VINA RESULT:    -2.971      0.000      0.000
REMARK INTER + INTRA:          -4.288
REMARK INTER:                  -3.839
REMARK INTRA:                  -0.449
REMARK UNBOUND:                -0.449
REMARK SMILES CCCCCCC(C)=O
REMARK SMILES IDX 4 1 3 2 2 3 1 4 5 5 6 6 7 7 9 8 8 9
REMARK H PARENT
REMARK Flexibility Score: inf
ROOT
ATOM      1  C   UNL     1       6.602   1.583   6.742  1.00  0.00     0.000 C 
ENDROOT
BRANCH   1   2
ATOM      2  C   UNL     1       7.798   0.794   6.189  1.00  0.00    -0.000 C 
BRANCH   2   3
ATOM      3  C   UNL     1       8.373   1.416   4.908  1.00  0.00    -0.003 C 
ATOM      4  C   UNL     1       9.859   1.726   5.067  1.00  0.00     0.004 C 
ENDBRANCH   2   3
ENDBRANCH   1   2
BRANCH   1   5
ATOM      5  C   UNL     1       7.010   2.947   7.325  1.00  0.00     0.008 C 
BRANCH   5   6
ATOM      6  C   UNL     1       5.914   4.005   7.137  1.00  0.00     0.075 C 
BRANCH   6   7
ATOM      7  C   UNL     1       5.847   4.495   5.712  1.00  0.00     0.129 C 
ATOM      8  O   UNL     1       4.760   4.610   5.167  1.00  0.00    -0.300 OA
ATOM      9  C   UNL     1       7.089   4.839   4.946  1.00  0.00     0.087 C 
ENDBRANCH   6   7
ENDBRANCH   5   6
ENDBRANCH   1   5
TORSDOF 5
ENDMDL
MODEL 2
REMARK VINA RESULT:    -2.916      1.216      2.504
REMARK INTER + INTRA:          -4.218
REMARK INTER:                  -3.697
REMARK INTRA:                  -0.520
REMARK UNBOUND:                -0.449
REMARK SMILES CCCCCCC(C)=O
REMARK SMILES IDX 4 1 3 2 2 3 1 4 5 5 6 6 7 7 9 8 8 9
REMARK H PARENT
REMARK Flexibility Score: inf
ROOT
ATOM      1  C   UNL     1       7.379   1.934   5.416  1.00  0.00     0.000 C 
ENDROOT
BRANCH   1   2
ATOM      2  C   UNL     1       7.671   0.969   6.575  1.00  0.00    -0.000 C 
BRANCH   2   3
ATOM      3  C   UNL     1       7.213   1.523   7.932  1.00  0.00    -0.003 C 
ATOM      4  C   UNL     1       5.695   1.446   8.074  1.00  0.00     0.004 C 
ENDBRANCH   2   3
ENDBRANCH   1   2
BRANCH   1   5
ATOM      5  C   UNL     1       7.949   3.342   5.658  1.00  0.00     0.008 C 
BRANCH   5   6
ATOM      6  C   UNL     1       7.096   4.431   4.992  1.00  0.00     0.075 C 
BRANCH   6   7
ATOM      7  C   UNL     1       5.802   4.659   5.730  1.00  0.00     0.129 C 
ATOM      8  O   UNL     1       4.742   4.536   5.136  1.00  0.00    -0.300 OA
ATOM      9  C   UNL     1       5.787   5.041   7.180  1.00  0.00     0.087 C 
ENDBRANCH   6   7
ENDBRANCH   5   6
ENDBRANCH   1   5
TORSDOF 5
ENDMDL
MODEL 3
REMARK VINA RESULT:    -2.811     12.498     13.785
REMARK INTER + INTRA:          -4.081
REMARK INTER:                  -3.805
REMARK INTRA:                  -0.277
REMARK UNBOUND:                -0.449
REMARK SMILES CCCCCCC(C)=O
REMARK SMILES IDX 4 1 3 2 2 3 1 4 5 5 6 6 7 7 9 8 8 9
REMARK H PARENT
REMARK Flexibility Score: inf
ROOT
ATOM      1  C   UNL     1       5.094  -6.518  -5.031  1.00  0.00     0.000 C 
ENDROOT
BRANCH   1   2
ATOM      2  C   UNL     1       3.908  -6.627  -6.001  1.00  0.00    -0.000 C 
BRANCH   2   3
ATOM      3  C   UNL     1       3.630  -5.312  -6.743  1.00  0.00    -0.003 C 
ATOM      4  C   UNL     1       2.261  -5.340  -7.417  1.00  0.00     0.004 C 
ENDBRANCH   2   3
ENDBRANCH   1   2
BRANCH   1   5
ATOM      5  C   UNL     1       5.756  -5.130  -5.058  1.00  0.00     0.008 C 
BRANCH   5   6
ATOM      6  C   UNL     1       6.136  -4.645  -3.652  1.00  0.00     0.075 C 
BRANCH   6   7
ATOM      7  C   UNL     1       6.204  -3.140  -3.577  1.00  0.00     0.129 C 
ATOM      8  O   UNL     1       6.835  -2.611  -2.675  1.00  0.00    -0.300 OA
ATOM      9  C   UNL     1       5.505  -2.277  -4.584  1.00  0.00     0.087 C 
ENDBRANCH   6   7
ENDBRANCH   5   6
ENDBRANCH   1   5
TORSDOF 5
ENDMDL
MODEL 4
REMARK VINA RESULT:    -2.795     14.728     15.195
REMARK INTER + INTRA:          -4.060
REMARK INTER:                  -3.857
REMARK INTRA:                  -0.204
REMARK UNBOUND:                -0.449
REMARK SMILES CCCCCCC(C)=O
REMARK SMILES IDX 4 1 3 2 2 3 1 4 5 5 6 6 7 7 9 8 8 9
REMARK H PARENT
REMARK Flexibility Score: inf
ROOT
ATOM      1  C   UNL     1       2.670  -5.180  -7.239  1.00  0.00     0.000 C 
ENDROOT
BRANCH   1   2
ATOM      2  C   UNL     1       4.102  -5.010  -6.710  1.00  0.00    -0.000 C 
BRANCH   2   3
ATOM      3  C   UNL     1       4.512  -6.134  -5.747  1.00  0.00    -0.003 C 
ATOM      4  C   UNL     1       3.604  -7.351  -5.902  1.00  0.00     0.004 C 
ENDBRANCH   2   3
ENDBRANCH   1   2
BRANCH   1   5
ATOM      5  C   UNL     1       1.892  -3.854  -7.280  1.00  0.00     0.008 C 
BRANCH   5   6
ATOM      6  C   UNL     1       2.822  -2.637  -7.188  1.00  0.00     0.075 C 
BRANCH   6   7
ATOM      7  C   UNL     1       2.078  -1.344  -7.411  1.00  0.00     0.129 C 
ATOM      8  O   UNL     1       1.093  -1.094  -6.732  1.00  0.00    -0.300 OA
ATOM      9  C   UNL     1       2.516  -0.361  -8.454  1.00  0.00     0.087 C 
ENDBRANCH   6   7
ENDBRANCH   5   6
ENDBRANCH   1   5
TORSDOF 5
ENDMDL
MODEL 5
REMARK VINA RESULT:    -2.786     13.875     14.955
REMARK INTER + INTRA:          -4.050
REMARK INTER:                  -3.697
REMARK INTRA:                  -0.353
REMARK UNBOUND:                -0.449
REMARK SMILES CCCCCCC(C)=O
REMARK SMILES IDX 4 1 3 2 2 3 1 4 5 5 6 6 7 7 9 8 8 9
REMARK H PARENT
REMARK Flexibility Score: inf
ROOT
ATOM      1  C   UNL     1       3.658  -6.742  -6.297  1.00  0.00     0.000 C 
ENDROOT
BRANCH   1   2
ATOM      2  C   UNL     1       4.721  -6.627  -5.194  1.00  0.00    -0.000 C 
BRANCH   2   3
ATOM      3  C   UNL     1       5.431  -5.265  -5.198  1.00  0.00    -0.003 C 
ATOM      4  C   UNL     1       6.046  -4.961  -3.835  1.00  0.00     0.004 C 
ENDBRANCH   2   3
ENDBRANCH   1   2
BRANCH   1   5
ATOM      5  C   UNL     1       3.632  -5.516  -7.226  1.00  0.00     0.008 C 
BRANCH   5   6
ATOM      6  C   UNL     1       2.228  -4.905  -7.335  1.00  0.00     0.075 C 
BRANCH   6   7
ATOM      7  C   UNL     1       2.263  -3.401  -7.248  1.00  0.00     0.129 C 
ATOM      8  O   UNL     1       1.214  -2.773  -7.268  1.00  0.00    -0.300 OA
ATOM      9  C   UNL     1       3.559  -2.654  -7.144  1.00  0.00     0.087 C 
ENDBRANCH   6   7
ENDBRANCH   5   6
ENDBRANCH   1   5
TORSDOF 5
ENDMDL
MODEL 6
REMARK VINA RESULT:    -2.750     15.223     16.230
REMARK INTER + INTRA:          -4.002
REMARK INTER:                  -3.541
REMARK INTRA:                  -0.461
REMARK UNBOUND:                -0.449
REMARK SMILES CCCCCCC(C)=O
REMARK SMILES IDX 4 1 3 2 2 3 1 4 5 5 6 6 7 7 9 8 8 9
REMARK H PARENT
REMARK Flexibility Score: inf
ROOT
ATOM      1  C   UNL     1       1.760   0.028  -8.569  1.00  0.00     0.000 C 
ENDROOT
BRANCH   1   2
ATOM      2  C   UNL     1       0.643  -0.495  -9.485  1.00  0.00    -0.000 C 
BRANCH   2   3
ATOM      3  C   UNL     1      -0.551  -1.055  -8.698  1.00  0.00    -0.003 C 
ATOM      4  C   UNL     1      -1.058  -2.354  -9.318  1.00  0.00     0.004 C 
ENDBRANCH   2   3
ENDBRANCH   1   2
BRANCH   1   5
ATOM      5  C   UNL     1       1.708  -0.587  -7.160  1.00  0.00     0.008 C 
BRANCH   5   6
ATOM      6  C   UNL     1       2.889  -1.533  -6.900  1.00  0.00     0.075 C 
BRANCH   6   7
ATOM      7  C   UNL     1       2.553  -2.959  -7.254  1.00  0.00     0.129 C 
ATOM      8  O   UNL     1       1.436  -3.391  -7.013  1.00  0.00    -0.300 OA
ATOM      9  C   UNL     1       3.565  -3.865  -7.891  1.00  0.00     0.087 C 
ENDBRANCH   6   7
ENDBRANCH   5   6
ENDBRANCH   1   5
TORSDOF 5
ENDMDL
MODEL 7
REMARK VINA RESULT:    -2.710     10.230     11.584
REMARK INTER + INTRA:          -3.951
REMARK INTER:                  -3.645
REMARK INTRA:                  -0.305
REMARK UNBOUND:                -0.449
REMARK SMILES CCCCCCC(C)=O
REMARK SMILES IDX 4 1 3 2 2 3 1 4 5 5 6 6 7 7 9 8 8 9
REMARK H PARENT
REMARK Flexibility Score: inf
ROOT
ATOM      1  C   UNL     1       0.418   9.532  -2.676  1.00  0.00     0.000 C 
ENDROOT
BRANCH   1   2
ATOM      2  C   UNL     1       1.895   9.832  -2.379  1.00  0.00    -0.000 C 
BRANCH   2   3
ATOM      3  C   UNL     1       2.478   8.913  -1.296  1.00  0.00    -0.003 C 
ATOM      4  C   UNL     1       3.259   9.713  -0.257  1.00  0.00     0.004 C 
ENDBRANCH   2   3
ENDBRANCH   1   2
BRANCH   1   5
ATOM      5  C   UNL     1      -0.375   9.152  -1.414  1.00  0.00     0.008 C 
BRANCH   5   6
ATOM      6  C   UNL     1      -1.118   7.819  -1.580  1.00  0.00     0.075 C 
BRANCH   6   7
ATOM      7  C   UNL     1      -1.229   7.073  -0.274  1.00  0.00     0.129 C 
ATOM      8  O   UNL     1      -1.452   5.872  -0.286  1.00  0.00    -0.300 OA
ATOM      9  C   UNL     1      -1.077   7.776   1.042  1.00  0.00     0.087 C 
ENDBRANCH   6   7
ENDBRANCH   5   6
ENDBRANCH   1   5
TORSDOF 5
ENDMDL
MODEL 8
REMARK VINA RESULT:    -2.652     14.492     15.635
REMARK INTER + INTRA:          -3.876
REMARK INTER:                  -3.540
REMARK INTRA:                  -0.336
REMARK UNBOUND:                -0.449
REMARK SMILES CCCCCCC(C)=O
REMARK SMILES IDX 4 1 3 2 2 3 1 4 5 5 6 6 7 7 9 8 8 9
REMARK H PARENT
REMARK Flexibility Score: inf
ROOT
ATOM      1  C   UNL     1       5.083  -5.273  -5.617  1.00  0.00     0.000 C 
ENDROOT
BRANCH   1   2
ATOM      2  C   UNL     1       4.800  -6.702  -5.132  1.00  0.00    -0.000 C 
BRANCH   2   3
ATOM      3  C   UNL     1       3.626  -7.356  -5.875  1.00  0.00    -0.003 C 
ATOM      4  C   UNL     1       3.487  -8.828  -5.498  1.00  0.00     0.004 C 
ENDBRANCH   2   3
ENDBRANCH   1   2
BRANCH   1   5
ATOM      5  C   UNL     1       4.549  -5.011  -7.036  1.00  0.00     0.008 C 
BRANCH   5   6
ATOM      6  C   UNL     1       3.698  -3.736  -7.105  1.00  0.00     0.075 C 
BRANCH   6   7
ATOM      7  C   UNL     1       2.253  -4.042  -7.410  1.00  0.00     0.129 C 
ATOM      8  O   UNL     1       1.380  -3.293  -7.000  1.00  0.00    -0.300 OA
ATOM      9  C   UNL     1       1.863  -5.254  -8.202  1.00  0.00     0.087 C 
ENDBRANCH   6   7
ENDBRANCH   5   6
ENDBRANCH   1   5
TORSDOF 5
ENDMDL
MODEL 9
REMARK VINA RESULT:    -2.626     12.372     13.934
REMARK INTER + INTRA:          -3.843
REMARK INTER:                  -3.530
REMARK INTRA:                  -0.313
REMARK UNBOUND:                -0.449
REMARK SMILES CCCCCCC(C)=O
REMARK SMILES IDX 4 1 3 2 2 3 1 4 5 5 6 6 7 7 9 8 8 9
REMARK H PARENT
REMARK Flexibility Score: inf
ROOT
ATOM      1  C   UNL     1      -6.558   5.417   0.992  1.00  0.00     0.000 C 
ENDROOT
BRANCH   1   2
ATOM      2  C   UNL     1      -6.819   4.389  -0.119  1.00  0.00    -0.000 C 
BRANCH   2   3
ATOM      3  C   UNL     1      -7.507   3.119   0.402  1.00  0.00    -0.003 C 
ATOM      4  C   UNL     1      -6.820   1.863  -0.129  1.00  0.00     0.004 C 
ENDBRANCH   2   3
ENDBRANCH   1   2
BRANCH   1   5
ATOM      5  C   UNL     1      -5.059   5.634   1.258  1.00  0.00     0.008 C 
BRANCH   5   6
ATOM      6  C   UNL     1      -4.185   5.069   0.131  1.00  0.00     0.075 C 
BRANCH   6   7
ATOM      7  C   UNL     1      -3.062   6.008  -0.233  1.00  0.00     0.129 C 
ATOM      8  O   UNL     1      -1.913   5.594  -0.244  1.00  0.00    -0.300 OA
ATOM      9  C   UNL     1      -3.326   7.443  -0.576  1.00  0.00     0.087 C 
ENDBRANCH   6   7
ENDBRANCH   5   6
ENDBRANCH   1   5
TORSDOF 5
ENDMDL
