MODEL 1
REMARK VINA RESULT:    -3.375      0.000      0.000
REMARK INTER + INTRA:          -4.767
REMARK INTER:                  -4.757
REMARK INTRA:                  -0.010
REMARK UNBOUND:                -0.010
REMARK SMILES CC1=CCC(=C(C)C)C(=O)CC(C)=CCC1
REMARK SMILES IDX 12 1 14 2 13 3 15 4 16 5 2 6 1 7 3 8 11 10 9 11 10 12 5 13
REMARK SMILES IDX 6 14 7 15 8 16 4 17
REMARK H PARENT
REMARK Flexibility Score: 60.00
ROOT
ATOM      1  C   UNL     1      15.164  26.072  25.590  1.00  0.00    -0.070 C 
ATOM      2  C   UNL     1      13.868  25.940  25.227  1.00  0.00    -0.027 C 
ATOM      3  C   UNL     1      15.753  25.037  26.514  1.00  0.00     0.039 C 
ENDROOT
BRANCH   2   4
ATOM      4  C   UNL     1      13.166  26.793  24.202  1.00  0.00     0.032 C 
BRANCH   4   5
ATOM      5  C   UNL     1      12.556  28.026  24.878  1.00  0.00     0.034 C 
BRANCH   5   6
ATOM      6  C   UNL     1      12.867  29.309  24.135  1.00  0.00    -0.077 C 
ATOM      7  C   UNL     1      12.226  29.539  22.790  1.00  0.00     0.039 C 
ATOM      8  C   UNL     1      13.749  30.239  24.580  1.00  0.00    -0.023 CG0
ATOM      9  G   UNL     1      14.471  30.261  25.916  1.00  0.00     0.000 G0
ENDBRANCH   5   6
ENDBRANCH   4   5
ENDBRANCH   2   4
BRANCH   1  10
ATOM     10  C   UNL     1      16.046  27.216  25.130  1.00  0.00     0.111 C 
BRANCH  10  11
ATOM     11  C   UNL     1      16.163  28.294  26.180  1.00  0.00     0.163 C 
ATOM     12  O   UNL     1      16.467  27.928  27.348  1.00  0.00    -0.294 OA
BRANCH  11  13
ATOM     13  C   UNL     1      15.919  29.751  25.912  1.00  0.00    -0.002 C 
ATOM     14  C   UNL     1      16.967  30.628  25.829  1.00  0.00    -0.069 C 
ATOM     15  C   UNL     1      18.395  30.144  25.716  1.00  0.00     0.039 C 
ATOM     16  C   UNL     1      16.757  32.125  25.794  1.00  0.00     0.039 C 
BRANCH  13  17
ATOM     17  C   UNL     1      14.476  30.244  25.920  1.00  0.00     0.066 CG0
ATOM     18  G   UNL     1      13.755  30.250  24.583  1.00  0.00     0.000 G0
ENDBRANCH  13  17
ENDBRANCH  11  13
ENDBRANCH  10  11
ENDBRANCH   1  10
TORSDOF 0
ENDMDL
MODEL 2
REMARK VINA RESULT:    -3.071      3.232      5.476
REMARK INTER + INTRA:          -4.338
REMARK INTER:                  -4.238
REMARK INTRA:                  -0.100
REMARK UNBOUND:                -0.010
REMARK SMILES CC1=CCC(=C(C)C)C(=O)CC(C)=CCC1
REMARK SMILES IDX 12 1 14 2 13 3 15 4 16 5 2 6 1 7 3 8 11 10 9 11 10 12 5 13
REMARK SMILES IDX 6 14 7 15 8 16 4 17
REMARK H PARENT
REMARK Flexibility Score: 60.00
ROOT
ATOM      1  C   UNL     1      10.122  29.683  23.485  1.00  0.00    -0.070 C 
ATOM      2  C   UNL     1      11.047  29.025  22.749  1.00  0.00    -0.027 C 
ATOM      3  C   UNL     1       9.472  30.903  22.884  1.00  0.00     0.039 C 
ENDROOT
BRANCH   2   4
ATOM      4  C   UNL     1      11.682  27.713  23.130  1.00  0.00     0.032 C 
BRANCH   4   5
ATOM      5  C   UNL     1      13.115  27.950  23.621  1.00  0.00     0.034 C 
BRANCH   5   6
ATOM      6  C   UNL     1      13.408  27.235  24.925  1.00  0.00    -0.077 C 
ATOM      7  C   UNL     1      13.852  25.794  24.875  1.00  0.00     0.039 C 
ATOM      8  C   UNL     1      13.227  27.797  26.146  1.00  0.00    -0.023 CG0
ATOM      9  G   UNL     1      12.846  29.234  26.453  1.00  0.00     0.000 G0
ENDBRANCH   5   6
ENDBRANCH   4   5
ENDBRANCH   2   4
BRANCH   1  10
ATOM     10  C   UNL     1       9.722  29.265  24.886  1.00  0.00     0.111 C 
BRANCH  10  11
ATOM     11  C   UNL     1      10.445  30.067  25.941  1.00  0.00     0.163 C 
ATOM     12  O   UNL     1      10.234  31.310  25.962  1.00  0.00    -0.294 OA
BRANCH  11  13
ATOM     13  C   UNL     1      11.401  29.472  26.933  1.00  0.00    -0.002 C 
ATOM     14  C   UNL     1      11.031  29.304  28.241  1.00  0.00    -0.069 C 
ATOM     15  C   UNL     1       9.590  29.434  28.677  1.00  0.00     0.039 C 
ATOM     16  C   UNL     1      12.029  28.929  29.313  1.00  0.00     0.039 C 
BRANCH  13  17
ATOM     17  C   UNL     1      12.839  29.237  26.483  1.00  0.00     0.066 CG0
ATOM     18  G   UNL     1      13.216  27.806  26.141  1.00  0.00     0.000 G0
ENDBRANCH  13  17
ENDBRANCH  11  13
ENDBRANCH  10  11
ENDBRANCH   1  10
TORSDOF 0
ENDMDL
MODEL 3
REMARK VINA RESULT:    -3.070      6.502      8.004
REMARK INTER + INTRA:          -4.337
REMARK INTER:                  -4.283
REMARK INTRA:                  -0.053
REMARK UNBOUND:                -0.010
REMARK SMILES CC1=CCC(=C(C)C)C(=O)CC(C)=CCC1
REMARK SMILES IDX 12 1 14 2 13 3 15 4 16 5 2 6 1 7 3 8 11 10 9 11 10 12 5 13
REMARK SMILES IDX 6 14 7 15 8 16 4 17
REMARK H PARENT
REMARK Flexibility Score: 60.00
ROOT
ATOM      1  C   UNL     1      13.455  26.111  29.371  1.00  0.00    -0.070 C 
ATOM      2  C   UNL     1      12.223  25.750  29.798  1.00  0.00    -0.027 C 
ATOM      3  C   UNL     1      13.789  25.915  27.915  1.00  0.00     0.039 C 
ENDROOT
BRANCH   2   4
ATOM      4  C   UNL     1      11.674  26.011  31.177  1.00  0.00     0.032 C 
BRANCH   4   5
ATOM      5  C   UNL     1      12.106  24.891  32.130  1.00  0.00     0.034 C 
BRANCH   5   6
ATOM      6  C   UNL     1      12.618  25.420  33.454  1.00  0.00    -0.077 C 
ATOM      7  C   UNL     1      11.657  26.147  34.363  1.00  0.00     0.039 C 
ATOM      8  C   UNL     1      13.915  25.340  33.844  1.00  0.00    -0.023 CG0
ATOM      9  G   UNL     1      15.047  24.614  33.138  1.00  0.00     0.000 G0
ENDBRANCH   5   6
ENDBRANCH   4   5
ENDBRANCH   2   4
BRANCH   1  10
ATOM     10  C   UNL     1      14.519  26.681  30.288  1.00  0.00     0.111 C 
BRANCH  10  11
ATOM     11  C   UNL     1      15.477  25.619  30.769  1.00  0.00     0.163 C 
ATOM     12  O   UNL     1      15.902  24.797  29.912  1.00  0.00    -0.294 OA
BRANCH  11  13
ATOM     13  C   UNL     1      15.924  25.481  32.195  1.00  0.00    -0.002 C 
ATOM     14  C   UNL     1      17.139  25.971  32.594  1.00  0.00    -0.069 C 
ATOM     15  C   UNL     1      17.942  26.903  31.716  1.00  0.00     0.039 C 
ATOM     16  C   UNL     1      17.724  25.652  33.951  1.00  0.00     0.039 C 
BRANCH  13  17
ATOM     17  C   UNL     1      15.073  24.627  33.128  1.00  0.00     0.066 CG0
ATOM     18  G   UNL     1      13.931  25.332  33.840  1.00  0.00     0.000 G0
ENDBRANCH  13  17
ENDBRANCH  11  13
ENDBRANCH  10  11
ENDBRANCH   1  10
TORSDOF 0
ENDMDL
MODEL 4
REMARK VINA RESULT:    -3.001      2.915      4.588
REMARK INTER + INTRA:          -4.239
REMARK INTER:                  -4.230
REMARK INTRA:                  -0.009
REMARK UNBOUND:                -0.010
REMARK SMILES CC1=CCC(=C(C)C)C(=O)CC(C)=CCC1
REMARK SMILES IDX 12 1 14 2 13 3 15 4 16 5 2 6 1 7 3 8 11 10 9 11 10 12 5 13
REMARK SMILES IDX 6 14 7 15 8 16 4 17
REMARK H PARENT
REMARK Flexibility Score: 60.00
ROOT
ATOM      1  C   UNL     1      12.046  28.482  24.182  1.00  0.00    -0.070 C 
ATOM      2  C   UNL     1      11.336  29.077  25.168  1.00  0.00    -0.027 C 
ATOM      3  C   UNL     1      11.341  28.172  22.886  1.00  0.00     0.039 C 
ENDROOT
BRANCH   2   4
ATOM      4  C   UNL     1      11.914  29.589  26.462  1.00  0.00     0.032 C 
BRANCH   4   5
ATOM      5  C   UNL     1      11.459  28.698  27.624  1.00  0.00     0.034 C 
BRANCH   5   6
ATOM      6  C   UNL     1      12.538  28.513  28.671  1.00  0.00    -0.077 C 
ATOM      7  C   UNL     1      12.631  29.511  29.799  1.00  0.00     0.039 C 
ATOM      8  C   UNL     1      13.478  27.536  28.617  1.00  0.00    -0.023 CG0
ATOM      9  G   UNL     1      13.560  26.390  27.623  1.00  0.00     0.000 G0
ENDBRANCH   5   6
ENDBRANCH   4   5
ENDBRANCH   2   4
BRANCH   1  10
ATOM     10  C   UNL     1      13.505  28.096  24.323  1.00  0.00     0.111 C 
BRANCH  10  11
ATOM     11  C   UNL     1      13.673  26.786  25.054  1.00  0.00     0.163 C 
ATOM     12  O   UNL     1      13.152  25.764  24.529  1.00  0.00    -0.294 OA
BRANCH  11  13
ATOM     13  C   UNL     1      14.398  26.646  26.360  1.00  0.00    -0.002 C 
ATOM     14  C   UNL     1      15.766  26.587  26.395  1.00  0.00    -0.069 C 
ATOM     15  C   UNL     1      16.602  26.942  25.186  1.00  0.00     0.039 C 
ATOM     16  C   UNL     1      16.520  26.216  27.651  1.00  0.00     0.039 C 
BRANCH  13  17
ATOM     17  C   UNL     1      13.566  26.388  27.612  1.00  0.00     0.066 CG0
ATOM     18  G   UNL     1      13.477  27.527  28.612  1.00  0.00     0.000 G0
ENDBRANCH  13  17
ENDBRANCH  11  13
ENDBRANCH  10  11
ENDBRANCH   1  10
TORSDOF 0
ENDMDL
MODEL 5
REMARK VINA RESULT:    -2.920      5.750      7.236
REMARK INTER + INTRA:          -4.125
REMARK INTER:                  -4.305
REMARK INTRA:                   0.180
REMARK UNBOUND:                -0.010
REMARK SMILES CC1=CCC(=C(C)C)C(=O)CC(C)=CCC1
REMARK SMILES IDX 12 1 14 2 13 3 15 4 16 5 2 6 1 7 3 8 11 10 9 11 10 12 5 13
REMARK SMILES IDX 6 14 7 15 8 16 4 17
REMARK H PARENT
REMARK Flexibility Score: 60.00
ROOT
ATOM      1  C   UNL     1      16.682  23.961  32.340  1.00  0.00    -0.070 C 
ATOM      2  C   UNL     1      15.447  23.694  32.826  1.00  0.00    -0.027 C 
ATOM      3  C   UNL     1      17.318  22.949  31.422  1.00  0.00     0.039 C 
ENDROOT
BRANCH   2   4
ATOM      4  C   UNL     1      14.609  24.654  33.631  1.00  0.00     0.032 C 
BRANCH   4   5
ATOM      5  C   UNL     1      13.359  25.047  32.836  1.00  0.00     0.034 C 
BRANCH   5   6
ATOM      6  C   UNL     1      13.368  26.505  32.423  1.00  0.00    -0.077 C 
ATOM      7  C   UNL     1      12.582  27.495  33.246  1.00  0.00     0.039 C 
ATOM      8  C   UNL     1      13.990  26.966  31.309  1.00  0.00    -0.023 CG0
ATOM      9  G   UNL     1      14.883  26.185  30.361  1.00  0.00     0.000 G0
ENDBRANCH   5   6
ENDBRANCH   4   5
ENDBRANCH   2   4
BRANCH   1  10
ATOM     10  C   UNL     1      17.462  25.213  32.690  1.00  0.00     0.111 C 
BRANCH  10  11
ATOM     11  C   UNL     1      16.936  26.426  31.962  1.00  0.00     0.163 C 
ATOM     12  O   UNL     1      16.932  27.518  32.594  1.00  0.00    -0.294 OA
BRANCH  11  13
ATOM     13  C   UNL     1      16.408  26.394  30.558  1.00  0.00    -0.002 C 
ATOM     14  C   UNL     1      17.222  26.700  29.501  1.00  0.00    -0.069 C 
ATOM     15  C   UNL     1      18.722  26.799  29.662  1.00  0.00     0.039 C 
ATOM     16  C   UNL     1      16.678  26.906  28.105  1.00  0.00     0.039 C 
BRANCH  13  17
ATOM     17  C   UNL     1      14.908  26.193  30.367  1.00  0.00     0.066 CG0
ATOM     18  G   UNL     1      13.996  26.965  31.305  1.00  0.00     0.000 G0
ENDBRANCH  13  17
ENDBRANCH  11  13
ENDBRANCH  10  11
ENDBRANCH   1  10
TORSDOF 0
ENDMDL
MODEL 6
REMARK VINA RESULT:    -2.894      4.971      6.831
REMARK INTER + INTRA:          -4.089
REMARK INTER:                  -3.942
REMARK INTRA:                  -0.147
REMARK UNBOUND:                -0.010
REMARK SMILES CC1=CCC(=C(C)C)C(=O)CC(C)=CCC1
REMARK SMILES IDX 12 1 14 2 13 3 15 4 16 5 2 6 1 7 3 8 11 10 9 11 10 12 5 13
REMARK SMILES IDX 6 14 7 15 8 16 4 17
REMARK H PARENT
REMARK Flexibility Score: 60.00
ROOT
ATOM      1  C   UNL     1      12.834  25.216  32.426  1.00  0.00    -0.070 C 
ATOM      2  C   UNL     1      14.161  24.968  32.510  1.00  0.00    -0.027 C 
ATOM      3  C   UNL     1      11.891  24.292  33.153  1.00  0.00     0.039 C 
ENDROOT
BRANCH   2   4
ATOM      4  C   UNL     1      15.245  25.867  31.972  1.00  0.00     0.032 C 
BRANCH   4   5
ATOM      5  C   UNL     1      15.736  25.340  30.619  1.00  0.00     0.034 C 
BRANCH   5   6
ATOM      6  C   UNL     1      15.975  26.450  29.616  1.00  0.00    -0.077 C 
ATOM      7  C   UNL     1      17.253  27.246  29.708  1.00  0.00     0.039 C 
ATOM      8  C   UNL     1      15.070  26.819  28.676  1.00  0.00    -0.023 CG0
ATOM      9  G   UNL     1      13.749  26.143  28.350  1.00  0.00     0.000 G0
ENDBRANCH   5   6
ENDBRANCH   4   5
ENDBRANCH   2   4
BRANCH   1  10
ATOM     10  C   UNL     1      12.250  26.361  31.622  1.00  0.00     0.111 C 
BRANCH  10  11
ATOM     11  C   UNL     1      11.972  25.963  30.193  1.00  0.00     0.163 C 
ATOM     12  O   UNL     1      11.260  24.938  30.011  1.00  0.00    -0.294 OA
BRANCH  11  13
ATOM     13  C   UNL     1      12.507  26.701  29.001  1.00  0.00    -0.002 C 
ATOM     14  C   UNL     1      11.800  27.735  28.448  1.00  0.00    -0.069 C 
ATOM     15  C   UNL     1      10.622  28.358  29.162  1.00  0.00     0.039 C 
ATOM     16  C   UNL     1      12.185  28.347  27.120  1.00  0.00     0.039 C 
BRANCH  13  17
ATOM     17  C   UNL     1      13.756  26.148  28.324  1.00  0.00     0.066 CG0
ATOM     18  G   UNL     1      15.071  26.820  28.677  1.00  0.00     0.000 G0
ENDBRANCH  13  17
ENDBRANCH  11  13
ENDBRANCH  10  11
ENDBRANCH   1  10
TORSDOF 0
ENDMDL
MODEL 7
REMARK VINA RESULT:    -2.884      3.244      4.313
REMARK INTER + INTRA:          -4.074
REMARK INTER:                  -3.930
REMARK INTRA:                  -0.144
REMARK UNBOUND:                -0.010
REMARK SMILES CC1=CCC(=C(C)C)C(=O)CC(C)=CCC1
REMARK SMILES IDX 12 1 14 2 13 3 15 4 16 5 2 6 1 7 3 8 11 10 9 11 10 12 5 13
REMARK SMILES IDX 6 14 7 15 8 16 4 17
REMARK H PARENT
REMARK Flexibility Score: 60.00
ROOT
ATOM      1  C   UNL     1      12.040  26.426  30.049  1.00  0.00    -0.070 C 
ATOM      2  C   UNL     1      11.168  27.455  29.948  1.00  0.00    -0.027 C 
ATOM      3  C   UNL     1      12.402  25.933  31.427  1.00  0.00     0.039 C 
ENDROOT
BRANCH   2   4
ATOM      4  C   UNL     1      10.587  27.972  28.657  1.00  0.00     0.032 C 
BRANCH   4   5
ATOM      5  C   UNL     1      11.370  29.204  28.190  1.00  0.00     0.034 C 
BRANCH   5   6
ATOM      6  C   UNL     1      11.680  29.168  26.707  1.00  0.00    -0.077 C 
ATOM      7  C   UNL     1      10.586  29.526  25.731  1.00  0.00     0.039 C 
ATOM      8  C   UNL     1      12.870  28.762  26.198  1.00  0.00    -0.023 CG0
ATOM      9  G   UNL     1      14.131  28.410  26.969  1.00  0.00     0.000 G0
ENDBRANCH   5   6
ENDBRANCH   4   5
ENDBRANCH   2   4
BRANCH   1  10
ATOM     10  C   UNL     1      12.685  25.759  28.850  1.00  0.00     0.111 C 
BRANCH  10  11
ATOM     11  C   UNL     1      14.041  26.346  28.541  1.00  0.00     0.163 C 
ATOM     12  O   UNL     1      14.889  26.356  29.475  1.00  0.00    -0.294 OA
BRANCH  11  13
ATOM     13  C   UNL     1      14.416  26.925  27.208  1.00  0.00    -0.002 C 
ATOM     14  C   UNL     1      15.129  26.186  26.303  1.00  0.00    -0.069 C 
ATOM     15  C   UNL     1      15.318  24.696  26.475  1.00  0.00     0.039 C 
ATOM     16  C   UNL     1      15.724  26.802  25.057  1.00  0.00     0.039 C 
BRANCH  13  17
ATOM     17  C   UNL     1      14.141  28.407  26.975  1.00  0.00     0.066 CG0
ATOM     18  G   UNL     1      12.884  28.747  26.194  1.00  0.00     0.000 G0
ENDBRANCH  13  17
ENDBRANCH  11  13
ENDBRANCH  10  11
ENDBRANCH   1  10
TORSDOF 0
ENDMDL
MODEL 8
REMARK VINA RESULT:    -2.815      2.689      4.808
REMARK INTER + INTRA:          -3.978
REMARK INTER:                  -4.178
REMARK INTRA:                   0.200
REMARK UNBOUND:                -0.010
REMARK SMILES CC1=CCC(=C(C)C)C(=O)CC(C)=CCC1
REMARK SMILES IDX 12 1 14 2 13 3 15 4 16 5 2 6 1 7 3 8 11 10 9 11 10 12 5 13
REMARK SMILES IDX 6 14 7 15 8 16 4 17
REMARK H PARENT
REMARK Flexibility Score: 60.00
ROOT
ATOM      1  C   UNL     1      13.662  27.159  24.640  1.00  0.00    -0.070 C 
ATOM      2  C   UNL     1      14.174  25.937  24.913  1.00  0.00    -0.027 C 
ATOM      3  C   UNL     1      12.370  27.232  23.867  1.00  0.00     0.039 C 
ENDROOT
BRANCH   2   4
ATOM      4  C   UNL     1      15.368  25.677  25.795  1.00  0.00     0.032 C 
BRANCH   4   5
ATOM      5  C   UNL     1      14.902  25.238  27.187  1.00  0.00     0.034 C 
BRANCH   5   6
ATOM      6  C   UNL     1      15.144  26.299  28.242  1.00  0.00    -0.077 C 
ATOM      7  C   UNL     1      16.495  26.360  28.909  1.00  0.00     0.039 C 
ATOM      8  C   UNL     1      14.188  27.159  28.675  1.00  0.00    -0.023 CG0
ATOM      9  G   UNL     1      12.783  27.329  28.124  1.00  0.00     0.000 G0
ENDBRANCH   5   6
ENDBRANCH   4   5
ENDBRANCH   2   4
BRANCH   1  10
ATOM     10  C   UNL     1      14.332  28.454  25.054  1.00  0.00     0.111 C 
BRANCH  10  11
ATOM     11  C   UNL     1      13.822  28.953  26.384  1.00  0.00     0.163 C 
ATOM     12  O   UNL     1      14.490  29.859  26.952  1.00  0.00    -0.294 OA
BRANCH  11  13
ATOM     13  C   UNL     1      12.594  28.419  27.061  1.00  0.00    -0.002 C 
ATOM     14  C   UNL     1      11.375  29.009  26.859  1.00  0.00    -0.069 C 
ATOM     15  C   UNL     1      11.159  30.016  25.753  1.00  0.00     0.039 C 
ATOM     16  C   UNL     1      10.165  28.654  27.693  1.00  0.00     0.039 C 
BRANCH  13  17
ATOM     17  C   UNL     1      12.778  27.328  28.110  1.00  0.00     0.066 CG0
ATOM     18  G   UNL     1      14.178  27.159  28.674  1.00  0.00     0.000 G0
ENDBRANCH  13  17
ENDBRANCH  11  13
ENDBRANCH  10  11
ENDBRANCH   1  10
TORSDOF 0
ENDMDL
MODEL 9
REMARK VINA RESULT:    -2.743      2.625      4.222
REMARK INTER + INTRA:          -3.876
REMARK INTER:                  -3.719
REMARK INTRA:                  -0.157
REMARK UNBOUND:                -0.010
REMARK SMILES CC1=CCC(=C(C)C)C(=O)CC(C)=CCC1
REMARK SMILES IDX 12 1 14 2 13 3 15 4 16 5 2 6 1 7 3 8 11 10 9 11 10 12 5 13
REMARK SMILES IDX 6 14 7 15 8 16 4 17
REMARK H PARENT
REMARK Flexibility Score: 60.00
ROOT
ATOM      1  C   UNL     1      14.850  26.216  26.842  1.00  0.00    -0.070 C 
ATOM      2  C   UNL     1      14.555  26.410  28.148  1.00  0.00    -0.027 C 
ATOM      3  C   UNL     1      16.260  25.820  26.483  1.00  0.00     0.039 C 
ENDROOT
BRANCH   2   4
ATOM      4  C   UNL     1      13.173  26.662  28.695  1.00  0.00     0.032 C 
BRANCH   4   5
ATOM      5  C   UNL     1      12.937  28.170  28.838  1.00  0.00     0.034 C 
BRANCH   5   6
ATOM      6  C   UNL     1      11.550  28.585  28.392  1.00  0.00    -0.077 C 
ATOM      7  C   UNL     1      10.378  28.274  29.290  1.00  0.00     0.039 C 
ATOM      8  C   UNL     1      11.288  29.162  27.192  1.00  0.00    -0.023 CG0
ATOM      9  G   UNL     1      12.293  29.621  26.151  1.00  0.00     0.000 G0
ENDBRANCH   5   6
ENDBRANCH   4   5
ENDBRANCH   2   4
BRANCH   1  10
ATOM     10  C   UNL     1      13.842  26.397  25.725  1.00  0.00     0.111 C 
BRANCH  10  11
ATOM     11  C   UNL     1      13.853  27.804  25.178  1.00  0.00     0.163 C 
ATOM     12  O   UNL     1      14.973  28.285  24.852  1.00  0.00    -0.294 OA
BRANCH  11  13
ATOM     13  C   UNL     1      12.624  28.651  25.025  1.00  0.00    -0.002 C 
ATOM     14  C   UNL     1      11.926  28.659  23.847  1.00  0.00    -0.069 C 
ATOM     15  C   UNL     1      12.180  27.627  22.772  1.00  0.00     0.039 C 
ATOM     16  C   UNL     1      10.829  29.662  23.574  1.00  0.00     0.039 C 
BRANCH  13  17
ATOM     17  C   UNL     1      12.290  29.629  26.147  1.00  0.00     0.066 CG0
ATOM     18  G   UNL     1      11.289  29.153  27.184  1.00  0.00     0.000 G0
ENDBRANCH  13  17
ENDBRANCH  11  13
ENDBRANCH  10  11
ENDBRANCH   1  10
TORSDOF 0
ENDMDL
