MODEL 1
REMARK VINA RESULT:    -3.551      0.000      0.000
REMARK INTER + INTRA:          -6.437
REMARK INTER:                  -5.419
REMARK INTRA:                  -1.018
REMARK UNBOUND:                -1.018
REMARK SMILES CCCCCCCCCCC(=O)[O-]
REMARK SMILES IDX 7 1 8 2 9 3 10 4 11 5 12 6 13 7 6 8 5 9 4 10 3 11 2 12 1 13
REMARK H PARENT
REMARK Flexibility Score: inf
ROOT
ATOM      1  C   UNL     1     184.528 183.141 199.076  1.00  0.00     0.000 C 
ENDROOT
BRANCH   1   2
ATOM      2  C   UNL     1     185.059 183.913 200.304  1.00  0.00     0.000 C 
BRANCH   2   3
ATOM      3  C   UNL     1     185.351 185.397 200.020  1.00  0.00     0.006 C 
BRANCH   3   4
ATOM      4  C   UNL     1     184.589 185.933 198.802  1.00  0.00     0.053 C 
BRANCH   4   5
ATOM      5  C   UNL     1     185.377 187.009 198.125  1.00  0.00     0.041 C 
ATOM      6  O   UNL     1     185.642 186.925 196.897  1.00  0.00    -0.550 OA
ATOM      7  O   UNL     1     185.779 188.130 198.840  1.00  0.00    -0.550 OA
ENDBRANCH   4   5
ENDBRANCH   3   4
ENDBRANCH   2   3
ENDBRANCH   1   2
BRANCH   1   8
ATOM      8  C   UNL     1     183.302 182.282 199.417  1.00  0.00     0.000 C 
BRANCH   8   9
ATOM      9  C   UNL     1     183.416 181.696 200.832  1.00  0.00    -0.000 C 
BRANCH   9  10
ATOM     10  C   UNL     1     182.138 181.890 201.668  1.00  0.00    -0.000 C 
BRANCH  10  11
ATOM     11  C   UNL     1     181.175 182.971 201.143  1.00  0.00    -0.000 C 
BRANCH  11  12
ATOM     12  C   UNL     1     180.993 184.138 202.125  1.00  0.00    -0.003 C 
ATOM     13  C   UNL     1     181.926 185.296 201.780  1.00  0.00     0.004 C 
ENDBRANCH  11  12
ENDBRANCH  10  11
ENDBRANCH   9  10
ENDBRANCH   8   9
ENDBRANCH   1   8
TORSDOF 9
ENDMDL
MODEL 2
REMARK VINA RESULT:    -3.499      1.204      1.699
REMARK INTER + INTRA:          -6.358
REMARK INTER:                  -5.499
REMARK INTRA:                  -0.859
REMARK UNBOUND:                -1.018
REMARK SMILES CCCCCCCCCCC(=O)[O-]
REMARK SMILES IDX 7 1 8 2 9 3 10 4 11 5 12 6 13 7 6 8 5 9 4 10 3 11 2 12 1 13
REMARK H PARENT
REMARK Flexibility Score: inf
ROOT
ATOM      1  C   UNL     1     184.490 184.117 198.463  1.00  0.00     0.000 C 
ENDROOT
BRANCH   1   2
ATOM      2  C   UNL     1     183.873 185.048 199.528  1.00  0.00     0.000 C 
BRANCH   2   3
ATOM      3  C   UNL     1     183.764 186.515 199.077  1.00  0.00     0.006 C 
BRANCH   3   4
ATOM      4  C   UNL     1     184.951 187.370 199.535  1.00  0.00     0.053 C 
BRANCH   4   5
ATOM      5  C   UNL     1     185.893 187.609 198.397  1.00  0.00     0.041 C 
ATOM      6  O   UNL     1     185.560 187.296 197.223  1.00  0.00    -0.550 OA
ATOM      7  O   UNL     1     187.118 188.220 198.625  1.00  0.00    -0.550 OA
ENDBRANCH   4   5
ENDBRANCH   3   4
ENDBRANCH   2   3
ENDBRANCH   1   2
BRANCH   1   8
ATOM      8  C   UNL     1     184.365 182.635 198.844  1.00  0.00     0.000 C 
BRANCH   8   9
ATOM      9  C   UNL     1     184.473 182.446 200.364  1.00  0.00    -0.000 C 
BRANCH   9  10
ATOM     10  C   UNL     1     183.427 181.464 200.924  1.00  0.00    -0.000 C 
BRANCH  10  11
ATOM     11  C   UNL     1     182.552 182.024 202.060  1.00  0.00    -0.000 C 
BRANCH  11  12
ATOM     12  C   UNL     1     181.484 183.010 201.562  1.00  0.00    -0.003 C 
ATOM     13  C   UNL     1     180.798 182.486 200.303  1.00  0.00     0.004 C 
ENDBRANCH  11  12
ENDBRANCH  10  11
ENDBRANCH   9  10
ENDBRANCH   8   9
ENDBRANCH   1   8
TORSDOF 9
ENDMDL
MODEL 3
REMARK VINA RESULT:    -3.459      1.301      3.126
REMARK INTER + INTRA:          -6.296
REMARK INTER:                  -5.168
REMARK INTRA:                  -1.128
REMARK UNBOUND:                -1.018
REMARK SMILES CCCCCCCCCCC(=O)[O-]
REMARK SMILES IDX 7 1 8 2 9 3 10 4 11 5 12 6 13 7 6 8 5 9 4 10 3 11 2 12 1 13
REMARK H PARENT
REMARK Flexibility Score: inf
ROOT
ATOM      1  C   UNL     1     181.138 184.705 201.041  1.00  0.00     0.000 C 
ENDROOT
BRANCH   1   2
ATOM      2  C   UNL     1     182.328 185.681 201.155  1.00  0.00     0.000 C 
BRANCH   2   3
ATOM      3  C   UNL     1     182.262 186.853 200.160  1.00  0.00     0.006 C 
BRANCH   3   4
ATOM      4  C   UNL     1     183.386 186.814 199.118  1.00  0.00     0.053 C 
BRANCH   4   5
ATOM      5  C   UNL     1     184.620 187.467 199.657  1.00  0.00     0.041 C 
ATOM      6  O   UNL     1     185.756 187.120 199.238  1.00  0.00    -0.550 OA
ATOM      7  O   UNL     1     184.514 188.494 200.586  1.00  0.00    -0.550 OA
ENDBRANCH   4   5
ENDBRANCH   3   4
ENDBRANCH   2   3
ENDBRANCH   1   2
BRANCH   1   8
ATOM      8  C   UNL     1     181.488 183.299 201.551  1.00  0.00     0.000 C 
BRANCH   8   9
ATOM      9  C   UNL     1     181.775 182.345 200.382  1.00  0.00    -0.000 C 
BRANCH   9  10
ATOM     10  C   UNL     1     183.261 181.959 200.272  1.00  0.00    -0.000 C 
BRANCH  10  11
ATOM     11  C   UNL     1     183.926 182.309 198.929  1.00  0.00    -0.000 C 
BRANCH  11  12
ATOM     12  C   UNL     1     184.864 183.522 199.023  1.00  0.00    -0.003 C 
ATOM     13  C   UNL     1     185.475 183.636 200.418  1.00  0.00     0.004 C 
ENDBRANCH  11  12
ENDBRANCH  10  11
ENDBRANCH   9  10
ENDBRANCH   8   9
ENDBRANCH   1   8
TORSDOF 9
ENDMDL
MODEL 4
REMARK VINA RESULT:    -3.451      3.030      4.508
REMARK INTER + INTRA:          -6.285
REMARK INTER:                  -5.428
REMARK INTRA:                  -0.856
REMARK UNBOUND:                -1.018
REMARK SMILES CCCCCCCCCCC(=O)[O-]
REMARK SMILES IDX 7 1 8 2 9 3 10 4 11 5 12 6 13 7 6 8 5 9 4 10 3 11 2 12 1 13
REMARK H PARENT
REMARK Flexibility Score: inf
ROOT
ATOM      1  C   UNL     1     184.702 185.852 199.421  1.00  0.00     0.000 C 
ENDROOT
BRANCH   1   2
ATOM      2  C   UNL     1     183.506 186.435 200.204  1.00  0.00     0.000 C 
BRANCH   2   3
ATOM      3  C   UNL     1     182.511 185.369 200.693  1.00  0.00     0.006 C 
BRANCH   3   4
ATOM      4  C   UNL     1     181.922 185.689 202.072  1.00  0.00     0.053 C 
BRANCH   4   5
ATOM      5  C   UNL     1     180.439 185.867 201.978  1.00  0.00     0.041 C 
ATOM      6  O   UNL     1     179.935 187.020 202.020  1.00  0.00    -0.550 OA
ATOM      7  O   UNL     1     179.617 184.762 201.797  1.00  0.00    -0.550 OA
ENDBRANCH   4   5
ENDBRANCH   3   4
ENDBRANCH   2   3
ENDBRANCH   1   2
BRANCH   1   8
ATOM      8  C   UNL     1     184.268 184.774 198.416  1.00  0.00     0.000 C 
BRANCH   8   9
ATOM      9  C   UNL     1     184.969 183.439 198.704  1.00  0.00    -0.000 C 
BRANCH   9  10
ATOM     10  C   UNL     1     183.998 182.336 199.163  1.00  0.00    -0.000 C 
BRANCH  10  11
ATOM     11  C   UNL     1     184.070 181.989 200.661  1.00  0.00    -0.000 C 
BRANCH  11  12
ATOM     12  C   UNL     1     182.942 181.047 201.111  1.00  0.00    -0.003 C 
ATOM     13  C   UNL     1     181.839 181.817 201.831  1.00  0.00     0.004 C 
ENDBRANCH  11  12
ENDBRANCH  10  11
ENDBRANCH   9  10
ENDBRANCH   8   9
ENDBRANCH   1   8
TORSDOF 9
ENDMDL
MODEL 5
REMARK VINA RESULT:    -3.450     14.116     15.693
REMARK INTER + INTRA:          -6.283
REMARK INTER:                  -5.714
REMARK INTRA:                  -0.569
REMARK UNBOUND:                -1.018
REMARK SMILES CCCCCCCCCCC(=O)[O-]
REMARK SMILES IDX 7 1 8 2 9 3 10 4 11 5 12 6 13 7 6 8 5 9 4 10 3 11 2 12 1 13
REMARK H PARENT
REMARK Flexibility Score: inf
ROOT
ATOM      1  C   UNL     1     183.685 196.115 190.529  1.00  0.00     0.000 C 
ENDROOT
BRANCH   1   2
ATOM      2  C   UNL     1     182.428 196.147 191.425  1.00  0.00     0.000 C 
BRANCH   2   3
ATOM      3  C   UNL     1     182.636 196.897 192.752  1.00  0.00     0.006 C 
BRANCH   3   4
ATOM      4  C   UNL     1     181.372 197.620 193.233  1.00  0.00     0.053 C 
BRANCH   4   5
ATOM      5  C   UNL     1     180.479 196.674 193.973  1.00  0.00     0.041 C 
ATOM      6  O   UNL     1     180.974 195.795 194.727  1.00  0.00    -0.550 OA
ATOM      7  O   UNL     1     179.100 196.794 193.868  1.00  0.00    -0.550 OA
ENDBRANCH   4   5
ENDBRANCH   3   4
ENDBRANCH   2   3
ENDBRANCH   1   2
BRANCH   1   8
ATOM      8  C   UNL     1     184.872 196.852 191.167  1.00  0.00     0.000 C 
BRANCH   8   9
ATOM      9  C   UNL     1     185.857 197.341 190.095  1.00  0.00    -0.000 C 
BRANCH   9  10
ATOM     10  C   UNL     1     185.849 196.468 188.828  1.00  0.00    -0.000 C 
BRANCH  10  11
ATOM     11  C   UNL     1     187.127 195.639 188.601  1.00  0.00    -0.000 C 
BRANCH  11  12
ATOM     12  C   UNL     1     187.392 194.628 189.726  1.00  0.00    -0.003 C 
ATOM     13  C   UNL     1     188.884 194.524 190.031  1.00  0.00     0.004 C 
ENDBRANCH  11  12
ENDBRANCH  10  11
ENDBRANCH   9  10
ENDBRANCH   8   9
ENDBRANCH   1   8
TORSDOF 9
ENDMDL
MODEL 6
REMARK VINA RESULT:    -3.411      2.060      4.257
REMARK INTER + INTRA:          -6.223
REMARK INTER:                  -5.142
REMARK INTRA:                  -1.081
REMARK UNBOUND:                -1.018
REMARK SMILES CCCCCCCCCCC(=O)[O-]
REMARK SMILES IDX 7 1 8 2 9 3 10 4 11 5 12 6 13 7 6 8 5 9 4 10 3 11 2 12 1 13
REMARK H PARENT
REMARK Flexibility Score: inf
ROOT
ATOM      1  C   UNL     1     181.187 183.621 201.995  1.00  0.00     0.000 C 
ENDROOT
BRANCH   1   2
ATOM      2  C   UNL     1     181.507 182.664 200.826  1.00  0.00     0.000 C 
BRANCH   2   3
ATOM      3  C   UNL     1     182.782 183.041 200.051  1.00  0.00     0.006 C 
BRANCH   3   4
ATOM      4  C   UNL     1     184.045 182.984 200.918  1.00  0.00     0.053 C 
BRANCH   4   5
ATOM      5  C   UNL     1     185.223 183.510 200.159  1.00  0.00     0.041 C 
ATOM      6  O   UNL     1     185.219 183.505 198.900  1.00  0.00    -0.550 OA
ATOM      7  O   UNL     1     186.304 184.052 200.842  1.00  0.00    -0.550 OA
ENDBRANCH   4   5
ENDBRANCH   3   4
ENDBRANCH   2   3
ENDBRANCH   1   2
BRANCH   1   8
ATOM      8  C   UNL     1     180.017 184.562 201.672  1.00  0.00     0.000 C 
BRANCH   8   9
ATOM      9  C   UNL     1     180.373 186.018 202.001  1.00  0.00    -0.000 C 
BRANCH   9  10
ATOM     10  C   UNL     1     181.864 186.336 201.785  1.00  0.00    -0.000 C 
BRANCH  10  11
ATOM     11  C   UNL     1     182.244 186.724 200.344  1.00  0.00    -0.000 C 
BRANCH  11  12
ATOM     12  C   UNL     1     183.760 186.855 200.139  1.00  0.00    -0.003 C 
ATOM     13  C   UNL     1     184.108 186.955 198.656  1.00  0.00     0.004 C 
ENDBRANCH  11  12
ENDBRANCH  10  11
ENDBRANCH   9  10
ENDBRANCH   8   9
ENDBRANCH   1   8
TORSDOF 9
ENDMDL
MODEL 7
REMARK VINA RESULT:    -3.390      1.179      3.017
REMARK INTER + INTRA:          -6.192
REMARK INTER:                  -5.252
REMARK INTRA:                  -0.940
REMARK UNBOUND:                -1.018
REMARK SMILES CCCCCCCCCCC(=O)[O-]
REMARK SMILES IDX 7 1 8 2 9 3 10 4 11 5 12 6 13 7 6 8 5 9 4 10 3 11 2 12 1 13
REMARK H PARENT
REMARK Flexibility Score: inf
ROOT
ATOM      1  C   UNL     1     182.249 185.688 201.677  1.00  0.00     0.000 C 
ENDROOT
BRANCH   1   2
ATOM      2  C   UNL     1     181.677 186.423 200.445  1.00  0.00     0.000 C 
BRANCH   2   3
ATOM      3  C   UNL     1     182.757 187.000 199.514  1.00  0.00     0.006 C 
BRANCH   3   4
ATOM      4  C   UNL     1     183.868 185.992 199.193  1.00  0.00     0.053 C 
BRANCH   4   5
ATOM      5  C   UNL     1     185.163 186.703 198.952  1.00  0.00     0.041 C 
ATOM      6  O   UNL     1     185.873 187.074 199.923  1.00  0.00    -0.550 OA
ATOM      7  O   UNL     1     185.609 186.912 197.653  1.00  0.00    -0.550 OA
ENDBRANCH   4   5
ENDBRANCH   3   4
ENDBRANCH   2   3
ENDBRANCH   1   2
BRANCH   1   8
ATOM      8  C   UNL     1     181.356 184.522 202.124  1.00  0.00     0.000 C 
BRANCH   8   9
ATOM      9  C   UNL     1     181.411 183.367 201.115  1.00  0.00    -0.000 C 
BRANCH   9  10
ATOM     10  C   UNL     1     181.879 182.041 201.742  1.00  0.00    -0.000 C 
BRANCH  10  11
ATOM     11  C   UNL     1     183.204 181.489 201.185  1.00  0.00    -0.000 C 
BRANCH  11  12
ATOM     12  C   UNL     1     184.161 182.593 200.713  1.00  0.00    -0.003 C 
ATOM     13  C   UNL     1     185.082 183.041 201.844  1.00  0.00     0.004 C 
ENDBRANCH  11  12
ENDBRANCH  10  11
ENDBRANCH   9  10
ENDBRANCH   8   9
ENDBRANCH   1   8
TORSDOF 9
ENDMDL
MODEL 8
REMARK VINA RESULT:    -3.388      3.830      5.305
REMARK INTER + INTRA:          -6.189
REMARK INTER:                  -5.304
REMARK INTRA:                  -0.885
REMARK UNBOUND:                -1.018
REMARK SMILES CCCCCCCCCCC(=O)[O-]
REMARK SMILES IDX 7 1 8 2 9 3 10 4 11 5 12 6 13 7 6 8 5 9 4 10 3 11 2 12 1 13
REMARK H PARENT
REMARK Flexibility Score: inf
ROOT
ATOM      1  C   UNL     1     183.551 182.667 199.630  1.00  0.00     0.000 C 
ENDROOT
BRANCH   1   2
ATOM      2  C   UNL     1     184.104 182.320 201.030  1.00  0.00     0.000 C 
BRANCH   2   3
ATOM      3  C   UNL     1     183.376 181.146 201.706  1.00  0.00     0.006 C 
BRANCH   3   4
ATOM      4  C   UNL     1     181.850 181.256 201.611  1.00  0.00     0.053 C 
BRANCH   4   5
ATOM      5  C   UNL     1     181.305 180.187 200.717  1.00  0.00     0.041 C 
ATOM      6  O   UNL     1     181.628 178.983 200.897  1.00  0.00    -0.550 OA
ATOM      7  O   UNL     1     180.401 180.514 199.714  1.00  0.00    -0.550 OA
ENDBRANCH   4   5
ENDBRANCH   3   4
ENDBRANCH   2   3
ENDBRANCH   1   2
BRANCH   1   8
ATOM      8  C   UNL     1     183.904 184.100 199.205  1.00  0.00     0.000 C 
BRANCH   8   9
ATOM      9  C   UNL     1     183.974 185.034 200.422  1.00  0.00    -0.000 C 
BRANCH   9  10
ATOM     10  C   UNL     1     182.654 185.783 200.681  1.00  0.00    -0.000 C 
BRANCH  10  11
ATOM     11  C   UNL     1     181.828 185.254 201.868  1.00  0.00    -0.000 C 
BRANCH  11  12
ATOM     12  C   UNL     1     180.532 184.554 201.429  1.00  0.00    -0.003 C 
ATOM     13  C   UNL     1     179.372 185.543 201.356  1.00  0.00     0.004 C 
ENDBRANCH  11  12
ENDBRANCH  10  11
ENDBRANCH   9  10
ENDBRANCH   8   9
ENDBRANCH   1   8
TORSDOF 9
ENDMDL
MODEL 9
REMARK VINA RESULT:    -3.372      1.908      2.811
REMARK INTER + INTRA:          -6.164
REMARK INTER:                  -5.182
REMARK INTRA:                  -0.982
REMARK UNBOUND:                -1.018
REMARK SMILES CCCCCCCCCCC(=O)[O-]
REMARK SMILES IDX 7 1 8 2 9 3 10 4 11 5 12 6 13 7 6 8 5 9 4 10 3 11 2 12 1 13
REMARK H PARENT
REMARK Flexibility Score: inf
ROOT
ATOM      1  C   UNL     1     184.510 184.488 198.375  1.00  0.00     0.000 C 
ENDROOT
BRANCH   1   2
ATOM      2  C   UNL     1     184.471 185.715 199.312  1.00  0.00     0.000 C 
BRANCH   2   3
ATOM      3  C   UNL     1     183.046 186.180 199.660  1.00  0.00     0.006 C 
BRANCH   3   4
ATOM      4  C   UNL     1     182.769 187.625 199.231  1.00  0.00     0.053 C 
BRANCH   4   5
ATOM      5  C   UNL     1     183.392 188.585 200.195  1.00  0.00     0.041 C 
ATOM      6  O   UNL     1     184.347 189.320 199.830  1.00  0.00    -0.550 OA
ATOM      7  O   UNL     1     182.886 188.702 201.483  1.00  0.00    -0.550 OA
ENDBRANCH   4   5
ENDBRANCH   3   4
ENDBRANCH   2   3
ENDBRANCH   1   2
BRANCH   1   8
ATOM      8  C   UNL     1     184.953 183.213 199.107  1.00  0.00     0.000 C 
BRANCH   8   9
ATOM      9  C   UNL     1     185.591 183.549 200.462  1.00  0.00    -0.000 C 
BRANCH   9  10
ATOM     10  C   UNL     1     184.956 182.778 201.634  1.00  0.00    -0.000 C 
BRANCH  10  11
ATOM     11  C   UNL     1     183.798 181.840 201.244  1.00  0.00    -0.000 C 
BRANCH  11  12
ATOM     12  C   UNL     1     182.443 182.299 201.803  1.00  0.00    -0.003 C 
ATOM     13  C   UNL     1     181.607 182.984 200.725  1.00  0.00     0.004 C 
ENDBRANCH  11  12
ENDBRANCH  10  11
ENDBRANCH   9  10
ENDBRANCH   8   9
ENDBRANCH   1   8
TORSDOF 9
ENDMDL
