MODEL 1
REMARK VINA RESULT:    -4.608      0.000      0.000
REMARK INTER + INTRA:          -4.972
REMARK INTER:                  -4.877
REMARK INTRA:                  -0.094
REMARK UNBOUND:                -0.094
REMARK SMILES C=C(C)[C@@H]1CC=C(C)C(=O)C1
REMARK SMILES IDX 8 1 7 2 6 3 5 4 4 5 11 6 9 7 10 8 2 9 1 10 3 11
REMARK H PARENT
REMARK Flexibility Score: inf
ROOT
ATOM      1  C   UNL     1       7.538 -21.677  22.351  1.00  0.00     0.048 C 
ATOM      2  C   UNL     1       7.436 -20.189  22.551  1.00  0.00    -0.012 C 
ATOM      3  C   UNL     1       7.803 -19.354  21.563  1.00  0.00    -0.019 C 
ATOM      4  C   UNL     1       7.704 -17.859  21.704  1.00  0.00     0.036 C 
ATOM      5  C   UNL     1       7.945 -17.422  23.162  1.00  0.00     0.025 C 
ATOM      6  C   UNL     1       6.981 -18.162  24.108  1.00  0.00     0.089 C 
ATOM      7  C   UNL     1       7.051 -19.646  23.878  1.00  0.00     0.158 C 
ATOM      8  O   UNL     1       6.740 -20.428  24.817  1.00  0.00    -0.295 OA
ENDROOT
BRANCH   5   9
ATOM      9  C   UNL     1       7.839 -15.911  23.321  1.00  0.00    -0.077 C 
ATOM     10  C   UNL     1       6.961 -15.191  22.600  1.00  0.00     0.008 C 
ATOM     11  C   UNL     1       8.729 -15.189  24.300  1.00  0.00     0.039 C 
ENDBRANCH   5   9
TORSDOF 1
ENDMDL
MODEL 2
REMARK VINA RESULT:    -4.565     12.301     12.904
REMARK INTER + INTRA:          -4.926
REMARK INTER:                  -4.830
REMARK INTRA:                  -0.096
REMARK UNBOUND:                -0.094
REMARK SMILES C=C(C)[C@@H]1CC=C(C)C(=O)C1
REMARK SMILES IDX 8 1 7 2 6 3 5 4 4 5 11 6 9 7 10 8 2 9 1 10 3 11
REMARK H PARENT
REMARK Flexibility Score: inf
ROOT
ATOM      1  C   UNL     1      20.172 -26.256  24.496  1.00  0.00     0.048 C 
ATOM      2  C   UNL     1      19.691 -24.837  24.357  1.00  0.00    -0.012 C 
ATOM      3  C   UNL     1      18.612 -24.567  23.601  1.00  0.00    -0.019 C 
ATOM      4  C   UNL     1      18.078 -23.169  23.443  1.00  0.00     0.036 C 
ATOM      5  C   UNL     1      19.216 -22.131  23.497  1.00  0.00     0.025 C 
ATOM      6  C   UNL     1      20.033 -22.300  24.791  1.00  0.00     0.089 C 
ATOM      7  C   UNL     1      20.478 -23.728  24.952  1.00  0.00     0.158 C 
ATOM      8  O   UNL     1      21.510 -23.977  25.633  1.00  0.00    -0.295 OA
ENDROOT
BRANCH   5   9
ATOM      9  C   UNL     1      18.689 -20.710  23.347  1.00  0.00    -0.077 C 
ATOM     10  C   UNL     1      17.391 -20.421  23.545  1.00  0.00     0.008 C 
ATOM     11  C   UNL     1      19.626 -19.591  22.969  1.00  0.00     0.039 C 
ENDBRANCH   5   9
TORSDOF 1
ENDMDL
MODEL 3
REMARK VINA RESULT:    -4.519      2.072      5.048
REMARK INTER + INTRA:          -4.878
REMARK INTER:                  -4.782
REMARK INTRA:                  -0.095
REMARK UNBOUND:                -0.094
REMARK SMILES C=C(C)[C@@H]1CC=C(C)C(=O)C1
REMARK SMILES IDX 8 1 7 2 6 3 5 4 4 5 11 6 9 7 10 8 2 9 1 10 3 11
REMARK H PARENT
REMARK Flexibility Score: inf
ROOT
ATOM      1  C   UNL     1       6.974 -17.406  23.957  1.00  0.00     0.048 C 
ATOM      2  C   UNL     1       7.390 -18.678  23.270  1.00  0.00    -0.012 C 
ATOM      3  C   UNL     1       6.821 -19.845  23.619  1.00  0.00    -0.019 C 
ATOM      4  C   UNL     1       7.187 -21.143  22.951  1.00  0.00     0.036 C 
ATOM      5  C   UNL     1       8.666 -21.148  22.520  1.00  0.00     0.025 C 
ATOM      6  C   UNL     1       8.967 -19.928  21.629  1.00  0.00     0.089 C 
ATOM      7  C   UNL     1       8.512 -18.660  22.297  1.00  0.00     0.158 C 
ATOM      8  O   UNL     1       9.070 -17.571  21.994  1.00  0.00    -0.295 OA
ENDROOT
BRANCH   5   9
ATOM      9  C   UNL     1       9.048 -22.452  21.834  1.00  0.00    -0.077 C 
ATOM     10  C   UNL     1       8.116 -23.261  21.300  1.00  0.00     0.008 C 
ATOM     11  C   UNL     1      10.496 -22.863  21.743  1.00  0.00     0.039 C 
ENDBRANCH   5   9
TORSDOF 1
ENDMDL
MODEL 4
REMARK VINA RESULT:    -4.508      1.853      2.625
REMARK INTER + INTRA:          -4.866
REMARK INTER:                  -4.773
REMARK INTRA:                  -0.093
REMARK UNBOUND:                -0.094
REMARK SMILES C=C(C)[C@@H]1CC=C(C)C(=O)C1
REMARK SMILES IDX 8 1 7 2 6 3 5 4 4 5 11 6 9 7 10 8 2 9 1 10 3 11
REMARK H PARENT
REMARK Flexibility Score: inf
ROOT
ATOM      1  C   UNL     1       8.304 -22.837  21.753  1.00  0.00     0.048 C 
ATOM      2  C   UNL     1       8.132 -21.550  22.513  1.00  0.00    -0.012 C 
ATOM      3  C   UNL     1       6.897 -21.113  22.818  1.00  0.00    -0.019 C 
ATOM      4  C   UNL     1       6.669 -19.842  23.591  1.00  0.00     0.036 C 
ATOM      5  C   UNL     1       7.761 -18.800  23.281  1.00  0.00     0.025 C 
ATOM      6  C   UNL     1       9.158 -19.397  23.539  1.00  0.00     0.089 C 
ATOM      7  C   UNL     1       9.315 -20.705  22.815  1.00  0.00     0.158 C 
ATOM      8  O   UNL     1      10.471 -21.097  22.498  1.00  0.00    -0.295 OA
ENDROOT
BRANCH   5   9
ATOM      9  C   UNL     1       7.548 -17.512  24.065  1.00  0.00    -0.077 C 
ATOM     10  C   UNL     1       7.741 -17.461  25.394  1.00  0.00     0.008 C 
ATOM     11  C   UNL     1       7.110 -16.257  23.352  1.00  0.00     0.039 C 
ENDBRANCH   5   9
TORSDOF 1
ENDMDL
MODEL 5
REMARK VINA RESULT:    -4.497      9.898     10.775
REMARK INTER + INTRA:          -4.854
REMARK INTER:                  -4.756
REMARK INTRA:                  -0.097
REMARK UNBOUND:                -0.094
REMARK SMILES C=C(C)[C@@H]1CC=C(C)C(=O)C1
REMARK SMILES IDX 8 1 7 2 6 3 5 4 4 5 11 6 9 7 10 8 2 9 1 10 3 11
REMARK H PARENT
REMARK Flexibility Score: inf
ROOT
ATOM      1  C   UNL     1      19.714 -19.431  22.836  1.00  0.00     0.048 C 
ATOM      2  C   UNL     1      18.505 -20.258  23.181  1.00  0.00    -0.012 C 
ATOM      3  C   UNL     1      17.275 -19.791  22.906  1.00  0.00    -0.019 C 
ATOM      4  C   UNL     1      16.033 -20.584  23.214  1.00  0.00     0.036 C 
ATOM      5  C   UNL     1      16.226 -21.451  24.474  1.00  0.00     0.025 C 
ATOM      6  C   UNL     1      17.469 -22.348  24.321  1.00  0.00     0.089 C 
ATOM      7  C   UNL     1      18.668 -21.527  23.933  1.00  0.00     0.158 C 
ATOM      8  O   UNL     1      19.820 -21.949  24.223  1.00  0.00    -0.295 OA
ENDROOT
BRANCH   5   9
ATOM      9  C   UNL     1      14.980 -22.266  24.792  1.00  0.00    -0.077 C 
ATOM     10  C   UNL     1      15.013 -23.278  25.677  1.00  0.00     0.008 C 
ATOM     11  C   UNL     1      13.674 -21.948  24.110  1.00  0.00     0.039 C 
ENDBRANCH   5   9
TORSDOF 1
ENDMDL
MODEL 6
REMARK VINA RESULT:    -4.482      2.044      3.903
REMARK INTER + INTRA:          -4.839
REMARK INTER:                  -4.743
REMARK INTRA:                  -0.096
REMARK UNBOUND:                -0.094
REMARK SMILES C=C(C)[C@@H]1CC=C(C)C(=O)C1
REMARK SMILES IDX 8 1 7 2 6 3 5 4 4 5 11 6 9 7 10 8 2 9 1 10 3 11
REMARK H PARENT
REMARK Flexibility Score: inf
ROOT
ATOM      1  C   UNL     1       6.847 -19.631  26.191  1.00  0.00     0.048 C 
ATOM      2  C   UNL     1       6.961 -19.644  24.691  1.00  0.00    -0.012 C 
ATOM      3  C   UNL     1       6.797 -20.797  24.018  1.00  0.00    -0.019 C 
ATOM      4  C   UNL     1       6.882 -20.863  22.517  1.00  0.00     0.036 C 
ATOM      5  C   UNL     1       7.887 -19.830  21.971  1.00  0.00     0.025 C 
ATOM      6  C   UNL     1       7.528 -18.419  22.474  1.00  0.00     0.089 C 
ATOM      7  C   UNL     1       7.373 -18.414  23.969  1.00  0.00     0.158 C 
ATOM      8  O   UNL     1       7.561 -17.341  24.603  1.00  0.00    -0.295 OA
ENDROOT
BRANCH   5   9
ATOM      9  C   UNL     1       7.976 -19.880  20.452  1.00  0.00    -0.077 C 
ATOM     10  C   UNL     1       7.500 -18.880  19.690  1.00  0.00     0.008 C 
ATOM     11  C   UNL     1       8.606 -21.068  19.770  1.00  0.00     0.039 C 
ENDBRANCH   5   9
TORSDOF 1
ENDMDL
MODEL 7
REMARK VINA RESULT:    -4.477      1.445      2.677
REMARK INTER + INTRA:          -4.833
REMARK INTER:                  -4.737
REMARK INTRA:                  -0.096
REMARK UNBOUND:                -0.094
REMARK SMILES C=C(C)[C@@H]1CC=C(C)C(=O)C1
REMARK SMILES IDX 8 1 7 2 6 3 5 4 4 5 11 6 9 7 10 8 2 9 1 10 3 11
REMARK H PARENT
REMARK Flexibility Score: inf
ROOT
ATOM      1  C   UNL     1       6.677 -20.444  26.677  1.00  0.00     0.048 C 
ATOM      2  C   UNL     1       7.066 -19.503  25.571  1.00  0.00    -0.012 C 
ATOM      3  C   UNL     1       7.382 -18.227  25.858  1.00  0.00    -0.019 C 
ATOM      4  C   UNL     1       7.797 -17.249  24.792  1.00  0.00     0.036 C 
ATOM      5  C   UNL     1       7.085 -17.547  23.458  1.00  0.00     0.025 C 
ATOM      6  C   UNL     1       7.331 -19.008  23.036  1.00  0.00     0.089 C 
ATOM      7  C   UNL     1       6.982 -19.947  24.157  1.00  0.00     0.158 C 
ATOM      8  O   UNL     1       6.652 -21.133  23.885  1.00  0.00    -0.295 OA
ENDROOT
BRANCH   5   9
ATOM      9  C   UNL     1       7.502 -16.570  22.367  1.00  0.00    -0.077 C 
ATOM     10  C   UNL     1       8.234 -16.969  21.312  1.00  0.00     0.008 C 
ATOM     11  C   UNL     1       7.097 -15.120  22.455  1.00  0.00     0.039 C 
ENDBRANCH   5   9
TORSDOF 1
ENDMDL
MODEL 8
REMARK VINA RESULT:    -4.385      2.269      3.624
REMARK INTER + INTRA:          -4.736
REMARK INTER:                  -4.642
REMARK INTRA:                  -0.094
REMARK UNBOUND:                -0.094
REMARK SMILES C=C(C)[C@@H]1CC=C(C)C(=O)C1
REMARK SMILES IDX 8 1 7 2 6 3 5 4 4 5 11 6 9 7 10 8 2 9 1 10 3 11
REMARK H PARENT
REMARK Flexibility Score: inf
ROOT
ATOM      1  C   UNL     1       7.461 -16.155  19.228  1.00  0.00     0.048 C 
ATOM      2  C   UNL     1       7.381 -16.495  20.691  1.00  0.00    -0.012 C 
ATOM      3  C   UNL     1       7.022 -15.550  21.578  1.00  0.00    -0.019 C 
ATOM      4  C   UNL     1       6.907 -15.840  23.050  1.00  0.00     0.036 C 
ATOM      5  C   UNL     1       7.930 -16.907  23.487  1.00  0.00     0.025 C 
ATOM      6  C   UNL     1       7.776 -18.177  22.628  1.00  0.00     0.089 C 
ATOM      7  C   UNL     1       7.814 -17.833  21.165  1.00  0.00     0.158 C 
ATOM      8  O   UNL     1       8.184 -18.709  20.337  1.00  0.00    -0.295 OA
ENDROOT
BRANCH   5   9
ATOM      9  C   UNL     1       7.819 -17.218  24.974  1.00  0.00    -0.077 C 
ATOM     10  C   UNL     1       7.062 -18.235  25.422  1.00  0.00     0.008 C 
ATOM     11  C   UNL     1       8.565 -16.378  25.979  1.00  0.00     0.039 C 
ENDBRANCH   5   9
TORSDOF 1
ENDMDL
MODEL 9
REMARK VINA RESULT:    -4.352      1.620      2.121
REMARK INTER + INTRA:          -4.701
REMARK INTER:                  -4.604
REMARK INTRA:                  -0.097
REMARK UNBOUND:                -0.094
REMARK SMILES C=C(C)[C@@H]1CC=C(C)C(=O)C1
REMARK SMILES IDX 8 1 7 2 6 3 5 4 4 5 11 6 9 7 10 8 2 9 1 10 3 11
REMARK H PARENT
REMARK Flexibility Score: inf
ROOT
ATOM      1  C   UNL     1       8.175 -21.770  22.151  1.00  0.00     0.048 C 
ATOM      2  C   UNL     1       8.234 -20.280  22.347  1.00  0.00    -0.012 C 
ATOM      3  C   UNL     1       8.589 -19.776  23.543  1.00  0.00    -0.019 C 
ATOM      4  C   UNL     1       8.681 -18.294  23.788  1.00  0.00     0.036 C 
ATOM      5  C   UNL     1       7.645 -17.525  22.946  1.00  0.00     0.025 C 
ATOM      6  C   UNL     1       7.800 -17.880  21.455  1.00  0.00     0.089 C 
ATOM      7  C   UNL     1       7.784 -19.372  21.263  1.00  0.00     0.158 C 
ATOM      8  O   UNL     1       7.418 -19.844  20.152  1.00  0.00    -0.295 OA
ENDROOT
BRANCH   5   9
ATOM      9  C   UNL     1       7.734 -16.023  23.178  1.00  0.00    -0.077 C 
ATOM     10  C   UNL     1       7.014 -15.158  22.443  1.00  0.00     0.008 C 
ATOM     11  C   UNL     1       8.643 -15.476  24.248  1.00  0.00     0.039 C 
ENDBRANCH   5   9
TORSDOF 1
ENDMDL
