MODEL 1
REMARK VINA RESULT:    -4.086      0.000      0.000
REMARK INTER + INTRA:         -13.074
REMARK INTER:                  -9.342
REMARK INTRA:                  -3.732
REMARK UNBOUND:                -3.732
REMARK SMILES CCCCCCCCCCCCCCCCCCCCCCCC(=O)[O-]
REMARK SMILES IDX 13 1 14 2 15 3 16 4 17 5 18 6 19 7 20 8 21 9 22 10 23 11
REMARK SMILES IDX 24 12 25 13 26 14 12 15 11 16 10 17 9 18 8 19 7 20 6 21 5 22
REMARK SMILES IDX 4 23 3 24 2 25 1 26
REMARK H PARENT
REMARK Flexibility Score: inf
ROOT
ATOM      1  C   UNL     1      27.429   1.825  18.638  1.00  0.00     0.000 C 
ENDROOT
BRANCH   1   2
ATOM      2  C   UNL     1      26.099   1.247  19.169  1.00  0.00     0.000 C 
BRANCH   2   3
ATOM      3  C   UNL     1      25.074   2.304  19.621  1.00  0.00     0.000 C 
BRANCH   3   4
ATOM      4  C   UNL     1      23.723   1.689  20.028  1.00  0.00     0.000 C 
BRANCH   4   5
ATOM      5  C   UNL     1      22.569   2.654  19.716  1.00  0.00     0.000 C 
BRANCH   5   6
ATOM      6  C   UNL     1      23.058   4.082  19.416  1.00  0.00     0.000 C 
BRANCH   6   7
ATOM      7  C   UNL     1      22.731   4.521  17.978  1.00  0.00     0.000 C 
BRANCH   7   8
ATOM      8  C   UNL     1      23.957   5.083  17.234  1.00  0.00     0.000 C 
BRANCH   8   9
ATOM      9  C   UNL     1      23.708   6.398  16.472  1.00  0.00     0.000 C 
BRANCH   9  10
ATOM     10  C   UNL     1      24.831   6.764  15.478  1.00  0.00     0.006 C 
BRANCH  10  11
ATOM     11  C   UNL     1      24.885   5.803  14.282  1.00  0.00     0.053 C 
BRANCH  11  12
ATOM     12  C   UNL     1      26.082   6.086  13.432  1.00  0.00     0.041 C 
ATOM     13  O   UNL     1      26.679   5.147  12.842  1.00  0.00    -0.550 OA
ATOM     14  O   UNL     1      26.586   7.378  13.351  1.00  0.00    -0.550 OA
ENDBRANCH  11  12
ENDBRANCH  10  11
ENDBRANCH   9  10
ENDBRANCH   8   9
ENDBRANCH   7   8
ENDBRANCH   6   7
ENDBRANCH   5   6
ENDBRANCH   4   5
ENDBRANCH   3   4
ENDBRANCH   2   3
ENDBRANCH   1   2
BRANCH   1  15
ATOM     15  C   UNL     1      27.397   3.329  18.293  1.00  0.00     0.000 C 
BRANCH  15  16
ATOM     16  C   UNL     1      26.989   3.664  16.842  1.00  0.00     0.000 C 
BRANCH  16  17
ATOM     17  C   UNL     1      28.139   4.173  15.954  1.00  0.00     0.000 C 
BRANCH  17  18
ATOM     18  C   UNL     1      28.476   5.651  16.217  1.00  0.00    -0.000 C 
BRANCH  18  19
ATOM     19  C   UNL     1      29.941   5.992  15.890  1.00  0.00    -0.000 C 
BRANCH  19  20
ATOM     20  C   UNL     1      30.828   6.236  17.133  1.00  0.00    -0.000 C 
BRANCH  20  21
ATOM     21  C   UNL     1      30.151   5.960  18.492  1.00  0.00    -0.000 C 
BRANCH  21  22
ATOM     22  C   UNL     1      30.591   4.660  19.192  1.00  0.00    -0.000 C 
BRANCH  22  23
ATOM     23  C   UNL     1      31.723   3.910  18.460  1.00  0.00    -0.000 C 
BRANCH  23  24
ATOM     24  C   UNL     1      31.421   2.410  18.283  1.00  0.00    -0.000 C 
BRANCH  24  25
ATOM     25  C   UNL     1      30.822   2.088  16.904  1.00  0.00    -0.003 C 
ATOM     26  C   UNL     1      31.626   2.702  15.756  1.00  0.00     0.004 C 
ENDBRANCH  24  25
ENDBRANCH  23  24
ENDBRANCH  22  23
ENDBRANCH  21  22
ENDBRANCH  20  21
ENDBRANCH  19  20
ENDBRANCH  18  19
ENDBRANCH  17  18
ENDBRANCH  16  17
ENDBRANCH  15  16
ENDBRANCH   1  15
TORSDOF 22
ENDMDL
MODEL 2
REMARK VINA RESULT:    -4.083      3.931      6.681
REMARK INTER + INTRA:         -13.066
REMARK INTER:                  -8.595
REMARK INTRA:                  -4.471
REMARK UNBOUND:                -3.732
REMARK SMILES CCCCCCCCCCCCCCCCCCCCCCCC(=O)[O-]
REMARK SMILES IDX 13 1 14 2 15 3 16 4 17 5 18 6 19 7 20 8 21 9 22 10 23 11
REMARK SMILES IDX 24 12 25 13 26 14 12 15 11 16 10 17 9 18 8 19 7 20 6 21 5 22
REMARK SMILES IDX 4 23 3 24 2 25 1 26
REMARK H PARENT
REMARK Flexibility Score: inf
ROOT
ATOM      1  C   UNL     1      21.889   4.465  14.785  1.00  0.00     0.000 C 
ENDROOT
BRANCH   1   2
ATOM      2  C   UNL     1      21.614   4.095  13.311  1.00  0.00     0.000 C 
BRANCH   2   3
ATOM      3  C   UNL     1      22.769   3.360  12.606  1.00  0.00     0.000 C 
BRANCH   3   4
ATOM      4  C   UNL     1      22.514   3.149  11.103  1.00  0.00     0.000 C 
BRANCH   4   5
ATOM      5  C   UNL     1      23.640   3.775  10.267  1.00  0.00     0.000 C 
BRANCH   5   6
ATOM      6  C   UNL     1      24.559   4.685  11.100  1.00  0.00     0.000 C 
BRANCH   6   7
ATOM      7  C   UNL     1      24.363   6.175  10.769  1.00  0.00     0.000 C 
BRANCH   7   8
ATOM      8  C   UNL     1      23.709   6.959  11.921  1.00  0.00     0.000 C 
BRANCH   8   9
ATOM      9  C   UNL     1      22.235   7.341  11.694  1.00  0.00     0.000 C 
BRANCH   9  10
ATOM     10  C   UNL     1      21.712   6.995  10.283  1.00  0.00     0.006 C 
BRANCH  10  11
ATOM     11  C   UNL     1      20.357   6.275  10.324  1.00  0.00     0.053 C 
BRANCH  11  12
ATOM     12  C   UNL     1      19.278   7.209  10.770  1.00  0.00     0.041 C 
ATOM     13  O   UNL     1      18.543   6.910  11.748  1.00  0.00    -0.550 OA
ATOM     14  O   UNL     1      19.031   8.376  10.058  1.00  0.00    -0.550 OA
ENDBRANCH  11  12
ENDBRANCH  10  11
ENDBRANCH   9  10
ENDBRANCH   8   9
ENDBRANCH   7   8
ENDBRANCH   6   7
ENDBRANCH   5   6
ENDBRANCH   4   5
ENDBRANCH   3   4
ENDBRANCH   2   3
ENDBRANCH   1   2
BRANCH   1  15
ATOM     15  C   UNL     1      21.985   5.978  15.072  1.00  0.00     0.000 C 
BRANCH  15  16
ATOM     16  C   UNL     1      22.653   6.354  16.412  1.00  0.00     0.000 C 
BRANCH  16  17
ATOM     17  C   UNL     1      23.838   7.330  16.287  1.00  0.00     0.000 C 
BRANCH  17  18
ATOM     18  C   UNL     1      24.902   6.837  15.290  1.00  0.00    -0.000 C 
BRANCH  18  19
ATOM     19  C   UNL     1      25.617   5.562  15.768  1.00  0.00    -0.000 C 
BRANCH  19  20
ATOM     20  C   UNL     1      25.599   4.403  14.745  1.00  0.00    -0.000 C 
BRANCH  20  21
ATOM     21  C   UNL     1      25.447   2.991  15.348  1.00  0.00    -0.000 C 
BRANCH  21  22
ATOM     22  C   UNL     1      24.609   2.916  16.639  1.00  0.00    -0.000 C 
BRANCH  22  23
ATOM     23  C   UNL     1      25.374   2.333  17.846  1.00  0.00    -0.000 C 
BRANCH  23  24
ATOM     24  C   UNL     1      26.131   3.411  18.643  1.00  0.00    -0.000 C 
BRANCH  24  25
ATOM     25  C   UNL     1      27.648   3.166  18.673  1.00  0.00    -0.003 C 
ATOM     26  C   UNL     1      28.410   4.083  17.712  1.00  0.00     0.004 C 
ENDBRANCH  24  25
ENDBRANCH  23  24
ENDBRANCH  22  23
ENDBRANCH  21  22
ENDBRANCH  20  21
ENDBRANCH  19  20
ENDBRANCH  18  19
ENDBRANCH  17  18
ENDBRANCH  16  17
ENDBRANCH  15  16
ENDBRANCH   1  15
TORSDOF 22
ENDMDL
MODEL 3
REMARK VINA RESULT:    -4.022      2.148      5.106
REMARK INTER + INTRA:         -12.926
REMARK INTER:                 -10.051
REMARK INTRA:                  -2.875
REMARK UNBOUND:                -3.732
REMARK SMILES CCCCCCCCCCCCCCCCCCCCCCCC(=O)[O-]
REMARK SMILES IDX 13 1 14 2 15 3 16 4 17 5 18 6 19 7 20 8 21 9 22 10 23 11
REMARK SMILES IDX 24 12 25 13 26 14 12 15 11 16 10 17 9 18 8 19 7 20 6 21 5 22
REMARK SMILES IDX 4 23 3 24 2 25 1 26
REMARK H PARENT
REMARK Flexibility Score: inf
ROOT
ATOM      1  C   UNL     1      23.029   5.998  18.243  1.00  0.00     0.000 C 
ENDROOT
BRANCH   1   2
ATOM      2  C   UNL     1      22.809   5.703  16.744  1.00  0.00     0.000 C 
BRANCH   2   3
ATOM      3  C   UNL     1      23.390   6.762  15.787  1.00  0.00     0.000 C 
BRANCH   3   4
ATOM      4  C   UNL     1      24.923   6.688  15.676  1.00  0.00     0.000 C 
BRANCH   4   5
ATOM      5  C   UNL     1      25.411   5.239  15.827  1.00  0.00     0.000 C 
BRANCH   5   6
ATOM      6  C   UNL     1      25.954   4.659  14.509  1.00  0.00     0.000 C 
BRANCH   6   7
ATOM      7  C   UNL     1      25.013   3.604  13.903  1.00  0.00     0.000 C 
BRANCH   7   8
ATOM      8  C   UNL     1      24.063   4.191  12.844  1.00  0.00     0.000 C 
BRANCH   8   9
ATOM      9  C   UNL     1      24.744   4.640  11.537  1.00  0.00     0.000 C 
BRANCH   9  10
ATOM     10  C   UNL     1      24.902   6.171  11.412  1.00  0.00     0.006 C 
BRANCH  10  11
ATOM     11  C   UNL     1      23.789   6.933  12.145  1.00  0.00     0.053 C 
BRANCH  11  12
ATOM     12  C   UNL     1      22.813   7.508  11.168  1.00  0.00     0.041 C 
ATOM     13  O   UNL     1      21.794   8.124  11.577  1.00  0.00    -0.550 OA
ATOM     14  O   UNL     1      22.989   7.298   9.806  1.00  0.00    -0.550 OA
ENDBRANCH  11  12
ENDBRANCH  10  11
ENDBRANCH   9  10
ENDBRANCH   8   9
ENDBRANCH   7   8
ENDBRANCH   6   7
ENDBRANCH   5   6
ENDBRANCH   4   5
ENDBRANCH   3   4
ENDBRANCH   2   3
ENDBRANCH   1   2
BRANCH   1  15
ATOM     15  C   UNL     1      22.992   4.762  19.166  1.00  0.00     0.000 C 
BRANCH  15  16
ATOM     16  C   UNL     1      22.534   3.450  18.494  1.00  0.00     0.000 C 
BRANCH  16  17
ATOM     17  C   UNL     1      22.939   2.169  19.245  1.00  0.00     0.000 C 
BRANCH  17  18
ATOM     18  C   UNL     1      24.196   2.367  20.110  1.00  0.00    -0.000 C 
BRANCH  18  19
ATOM     19  C   UNL     1      25.481   1.903  19.403  1.00  0.00    -0.000 C 
BRANCH  19  20
ATOM     20  C   UNL     1      26.212   3.018  18.620  1.00  0.00    -0.000 C 
BRANCH  20  21
ATOM     21  C   UNL     1      27.750   3.014  18.746  1.00  0.00    -0.000 C 
BRANCH  21  22
ATOM     22  C   UNL     1      28.486   4.003  17.822  1.00  0.00    -0.000 C 
BRANCH  22  23
ATOM     23  C   UNL     1      29.617   4.786  18.521  1.00  0.00    -0.000 C 
BRANCH  23  24
ATOM     24  C   UNL     1      30.111   5.983  17.688  1.00  0.00    -0.000 C 
BRANCH  24  25
ATOM     25  C   UNL     1      29.370   6.115  16.347  1.00  0.00    -0.003 C 
ATOM     26  C   UNL     1      30.286   5.877  15.144  1.00  0.00     0.004 C 
ENDBRANCH  24  25
ENDBRANCH  23  24
ENDBRANCH  22  23
ENDBRANCH  21  22
ENDBRANCH  20  21
ENDBRANCH  19  20
ENDBRANCH  18  19
ENDBRANCH  17  18
ENDBRANCH  16  17
ENDBRANCH  15  16
ENDBRANCH   1  15
TORSDOF 22
ENDMDL
MODEL 4
REMARK VINA RESULT:    -4.012      3.064      4.607
REMARK INTER + INTRA:         -12.903
REMARK INTER:                  -9.003
REMARK INTRA:                  -3.900
REMARK UNBOUND:                -3.732
REMARK SMILES CCCCCCCCCCCCCCCCCCCCCCCC(=O)[O-]
REMARK SMILES IDX 13 1 14 2 15 3 16 4 17 5 18 6 19 7 20 8 21 9 22 10 23 11
REMARK SMILES IDX 24 12 25 13 26 14 12 15 11 16 10 17 9 18 8 19 7 20 6 21 5 22
REMARK SMILES IDX 4 23 3 24 2 25 1 26
REMARK H PARENT
REMARK Flexibility Score: inf
ROOT
ATOM      1  C   UNL     1      26.609   0.601  19.155  1.00  0.00     0.000 C 
ENDROOT
BRANCH   1   2
ATOM      2  C   UNL     1      25.279   1.127  19.735  1.00  0.00     0.000 C 
BRANCH   2   3
ATOM      3  C   UNL     1      24.058   0.947  18.812  1.00  0.00     0.000 C 
BRANCH   3   4
ATOM      4  C   UNL     1      23.019   2.070  18.970  1.00  0.00     0.000 C 
BRANCH   4   5
ATOM      5  C   UNL     1      23.491   3.107  20.001  1.00  0.00     0.000 C 
BRANCH   5   6
ATOM      6  C   UNL     1      22.636   4.386  19.986  1.00  0.00     0.000 C 
BRANCH   6   7
ATOM      7  C   UNL     1      23.308   5.529  19.206  1.00  0.00     0.000 C 
BRANCH   7   8
ATOM      8  C   UNL     1      22.945   5.524  17.710  1.00  0.00     0.000 C 
BRANCH   8   9
ATOM      9  C   UNL     1      23.257   6.832  16.960  1.00  0.00     0.000 C 
BRANCH   9  10
ATOM     10  C   UNL     1      23.725   6.619  15.504  1.00  0.00     0.006 C 
BRANCH  10  11
ATOM     11  C   UNL     1      25.204   6.981  15.310  1.00  0.00     0.053 C 
BRANCH  11  12
ATOM     12  C   UNL     1      25.659   6.616  13.933  1.00  0.00     0.041 C 
ATOM     13  O   UNL     1      26.578   7.272  13.374  1.00  0.00    -0.550 OA
ATOM     14  O   UNL     1      25.018   5.600  13.236  1.00  0.00    -0.550 OA
ENDBRANCH  11  12
ENDBRANCH  10  11
ENDBRANCH   9  10
ENDBRANCH   8   9
ENDBRANCH   7   8
ENDBRANCH   6   7
ENDBRANCH   5   6
ENDBRANCH   4   5
ENDBRANCH   3   4
ENDBRANCH   2   3
ENDBRANCH   1   2
BRANCH   1  15
ATOM     15  C   UNL     1      27.344   1.576  18.211  1.00  0.00     0.000 C 
BRANCH  15  16
ATOM     16  C   UNL     1      27.272   3.065  18.614  1.00  0.00     0.000 C 
BRANCH  16  17
ATOM     17  C   UNL     1      26.302   3.912  17.771  1.00  0.00     0.000 C 
BRANCH  17  18
ATOM     18  C   UNL     1      26.279   3.484  16.293  1.00  0.00    -0.000 C 
BRANCH  18  19
ATOM     19  C   UNL     1      24.898   2.975  15.845  1.00  0.00    -0.000 C 
BRANCH  19  20
ATOM     20  C   UNL     1      24.904   2.243  14.483  1.00  0.00    -0.000 C 
BRANCH  20  21
ATOM     21  C   UNL     1      24.662   0.721  14.550  1.00  0.00    -0.000 C 
BRANCH  21  22
ATOM     22  C   UNL     1      25.730  -0.080  15.319  1.00  0.00    -0.000 C 
BRANCH  22  23
ATOM     23  C   UNL     1      26.331  -1.252  14.515  1.00  0.00    -0.000 C 
BRANCH  23  24
ATOM     24  C   UNL     1      26.683  -0.859  13.069  1.00  0.00    -0.000 C 
BRANCH  24  25
ATOM     25  C   UNL     1      25.991  -1.753  12.029  1.00  0.00    -0.003 C 
ATOM     26  C   UNL     1      25.047  -0.968  11.115  1.00  0.00     0.004 C 
ENDBRANCH  24  25
ENDBRANCH  23  24
ENDBRANCH  22  23
ENDBRANCH  21  22
ENDBRANCH  20  21
ENDBRANCH  19  20
ENDBRANCH  18  19
ENDBRANCH  17  18
ENDBRANCH  16  17
ENDBRANCH  15  16
ENDBRANCH   1  15
TORSDOF 22
ENDMDL
MODEL 5
REMARK VINA RESULT:    -3.993      9.536     11.929
REMARK INTER + INTRA:         -12.861
REMARK INTER:                  -8.626
REMARK INTRA:                  -4.235
REMARK UNBOUND:                -3.732
REMARK SMILES CCCCCCCCCCCCCCCCCCCCCCCC(=O)[O-]
REMARK SMILES IDX 13 1 14 2 15 3 16 4 17 5 18 6 19 7 20 8 21 9 22 10 23 11
REMARK SMILES IDX 24 12 25 13 26 14 12 15 11 16 10 17 9 18 8 19 7 20 6 21 5 22
REMARK SMILES IDX 4 23 3 24 2 25 1 26
REMARK H PARENT
REMARK Flexibility Score: inf
ROOT
ATOM      1  C   UNL     1      27.874  -3.224   8.405  1.00  0.00     0.000 C 
ENDROOT
BRANCH   1   2
ATOM      2  C   UNL     1      27.027  -3.551   9.653  1.00  0.00     0.000 C 
BRANCH   2   3
ATOM      3  C   UNL     1      25.937  -2.512   9.981  1.00  0.00     0.000 C 
BRANCH   3   4
ATOM      4  C   UNL     1      26.095  -1.906  11.386  1.00  0.00     0.000 C 
BRANCH   4   5
ATOM      5  C   UNL     1      26.341  -0.392  11.302  1.00  0.00     0.000 C 
BRANCH   5   6
ATOM      6  C   UNL     1      27.349  -0.018  10.201  1.00  0.00     0.000 C 
BRANCH   6   7
ATOM      7  C   UNL     1      28.596   0.686  10.764  1.00  0.00     0.000 C 
BRANCH   7   8
ATOM      8  C   UNL     1      29.455  -0.239  11.645  1.00  0.00     0.000 C 
BRANCH   8   9
ATOM      9  C   UNL     1      29.956  -1.519  10.949  1.00  0.00     0.000 C 
BRANCH   9  10
ATOM     10  C   UNL     1      30.296  -2.666  11.924  1.00  0.00     0.006 C 
BRANCH  10  11
ATOM     11  C   UNL     1      29.193  -2.887  12.970  1.00  0.00     0.053 C 
BRANCH  11  12
ATOM     12  C   UNL     1      29.742  -2.743  14.353  1.00  0.00     0.041 C 
ATOM     13  O   UNL     1      30.273  -3.728  14.931  1.00  0.00    -0.550 OA
ATOM     14  O   UNL     1      29.601  -1.541  15.034  1.00  0.00    -0.550 OA
ENDBRANCH  11  12
ENDBRANCH  10  11
ENDBRANCH   9  10
ENDBRANCH   8   9
ENDBRANCH   7   8
ENDBRANCH   6   7
ENDBRANCH   5   6
ENDBRANCH   4   5
ENDBRANCH   3   4
ENDBRANCH   2   3
ENDBRANCH   1   2
BRANCH   1  15
ATOM     15  C   UNL     1      29.230  -3.958   8.324  1.00  0.00     0.000 C 
BRANCH  15  16
ATOM     16  C   UNL     1      29.746  -4.235   6.895  1.00  0.00     0.000 C 
BRANCH  16  17
ATOM     17  C   UNL     1      28.702  -4.020   5.784  1.00  0.00     0.000 C 
BRANCH  17  18
ATOM     18  C   UNL     1      29.334  -3.997   4.381  1.00  0.00    -0.000 C 
BRANCH  18  19
ATOM     19  C   UNL     1      30.852  -3.747   4.418  1.00  0.00    -0.000 C 
BRANCH  19  20
ATOM     20  C   UNL     1      31.299  -2.451   3.703  1.00  0.00    -0.000 C 
BRANCH  20  21
ATOM     21  C   UNL     1      31.216  -1.166   4.553  1.00  0.00    -0.000 C 
BRANCH  21  22
ATOM     22  C   UNL     1      30.001  -0.264   4.262  1.00  0.00    -0.000 C 
BRANCH  22  23
ATOM     23  C   UNL     1      28.954  -0.243   5.395  1.00  0.00    -0.000 C 
BRANCH  23  24
ATOM     24  C   UNL     1      29.570  -0.529   6.777  1.00  0.00    -0.000 C 
BRANCH  24  25
ATOM     25  C   UNL     1      30.072   0.745   7.474  1.00  0.00    -0.003 C 
ATOM     26  C   UNL     1      31.420   0.542   8.171  1.00  0.00     0.004 C 
ENDBRANCH  24  25
ENDBRANCH  23  24
ENDBRANCH  22  23
ENDBRANCH  21  22
ENDBRANCH  20  21
ENDBRANCH  19  20
ENDBRANCH  18  19
ENDBRANCH  17  18
ENDBRANCH  16  17
ENDBRANCH  15  16
ENDBRANCH   1  15
TORSDOF 22
ENDMDL
MODEL 6
REMARK VINA RESULT:    -3.982      3.886      6.853
REMARK INTER + INTRA:         -12.834
REMARK INTER:                  -8.904
REMARK INTRA:                  -3.930
REMARK UNBOUND:                -3.732
REMARK SMILES CCCCCCCCCCCCCCCCCCCCCCCC(=O)[O-]
REMARK SMILES IDX 13 1 14 2 15 3 16 4 17 5 18 6 19 7 20 8 21 9 22 10 23 11
REMARK SMILES IDX 24 12 25 13 26 14 12 15 11 16 10 17 9 18 8 19 7 20 6 21 5 22
REMARK SMILES IDX 4 23 3 24 2 25 1 26
REMARK H PARENT
REMARK Flexibility Score: inf
ROOT
ATOM      1  C   UNL     1      22.326   4.444  13.739  1.00  0.00     0.000 C 
ENDROOT
BRANCH   1   2
ATOM      2  C   UNL     1      22.244   3.521  14.974  1.00  0.00     0.000 C 
BRANCH   2   3
ATOM      3  C   UNL     1      23.605   3.154  15.594  1.00  0.00     0.000 C 
BRANCH   3   4
ATOM      4  C   UNL     1      23.699   3.517  17.086  1.00  0.00     0.000 C 
BRANCH   4   5
ATOM      5  C   UNL     1      22.555   4.461  17.489  1.00  0.00     0.000 C 
BRANCH   5   6
ATOM      6  C   UNL     1      23.048   5.883  17.810  1.00  0.00     0.000 C 
BRANCH   6   7
ATOM      7  C   UNL     1      22.955   6.821  16.594  1.00  0.00     0.000 C 
BRANCH   7   8
ATOM      8  C   UNL     1      24.318   7.415  16.194  1.00  0.00     0.000 C 
BRANCH   8   9
ATOM      9  C   UNL     1      24.888   6.896  14.861  1.00  0.00     0.000 C 
BRANCH   9  10
ATOM     10  C   UNL     1      25.898   5.739  15.024  1.00  0.00     0.006 C 
BRANCH  10  11
ATOM     11  C   UNL     1      26.839   5.615  13.817  1.00  0.00     0.053 C 
BRANCH  11  12
ATOM     12  C   UNL     1      27.802   6.758  13.779  1.00  0.00     0.041 C 
ATOM     13  O   UNL     1      28.402   7.118  14.827  1.00  0.00    -0.550 OA
ATOM     14  O   UNL     1      27.980   7.477  12.605  1.00  0.00    -0.550 OA
ENDBRANCH  11  12
ENDBRANCH  10  11
ENDBRANCH   9  10
ENDBRANCH   8   9
ENDBRANCH   7   8
ENDBRANCH   6   7
ENDBRANCH   5   6
ENDBRANCH   4   5
ENDBRANCH   3   4
ENDBRANCH   2   3
ENDBRANCH   1   2
BRANCH   1  15
ATOM     15  C   UNL     1      21.182   5.472  13.612  1.00  0.00     0.000 C 
BRANCH  15  16
ATOM     16  C   UNL     1      21.617   6.898  13.211  1.00  0.00     0.000 C 
BRANCH  16  17
ATOM     17  C   UNL     1      22.033   7.051  11.737  1.00  0.00     0.000 C 
BRANCH  17  18
ATOM     18  C   UNL     1      23.532   6.780  11.517  1.00  0.00    -0.000 C 
BRANCH  18  19
ATOM     19  C   UNL     1      23.823   6.135  10.151  1.00  0.00    -0.000 C 
BRANCH  19  20
ATOM     20  C   UNL     1      22.673   5.257   9.605  1.00  0.00    -0.000 C 
BRANCH  20  21
ATOM     21  C   UNL     1      22.687   3.787  10.071  1.00  0.00    -0.000 C 
BRANCH  21  22
ATOM     22  C   UNL     1      24.008   3.312  10.707  1.00  0.00    -0.000 C 
BRANCH  22  23
ATOM     23  C   UNL     1      24.111   1.780  10.861  1.00  0.00    -0.000 C 
BRANCH  23  24
ATOM     24  C   UNL     1      23.595   1.286  12.225  1.00  0.00    -0.000 C 
BRANCH  24  25
ATOM     25  C   UNL     1      23.657  -0.244  12.361  1.00  0.00    -0.003 C 
ATOM     26  C   UNL     1      24.990  -0.823  11.881  1.00  0.00     0.004 C 
ENDBRANCH  24  25
ENDBRANCH  23  24
ENDBRANCH  22  23
ENDBRANCH  21  22
ENDBRANCH  20  21
ENDBRANCH  19  20
ENDBRANCH  18  19
ENDBRANCH  17  18
ENDBRANCH  16  17
ENDBRANCH  15  16
ENDBRANCH   1  15
TORSDOF 22
ENDMDL
MODEL 7
REMARK VINA RESULT:    -3.974      7.264     10.477
REMARK INTER + INTRA:         -12.817
REMARK INTER:                  -9.055
REMARK INTRA:                  -3.761
REMARK UNBOUND:                -3.732
REMARK SMILES CCCCCCCCCCCCCCCCCCCCCCCC(=O)[O-]
REMARK SMILES IDX 13 1 14 2 15 3 16 4 17 5 18 6 19 7 20 8 21 9 22 10 23 11
REMARK SMILES IDX 24 12 25 13 26 14 12 15 11 16 10 17 9 18 8 19 7 20 6 21 5 22
REMARK SMILES IDX 4 23 3 24 2 25 1 26
REMARK H PARENT
REMARK Flexibility Score: inf
ROOT
ATOM      1  C   UNL     1      20.479   3.176   9.890  1.00  0.00     0.000 C 
ENDROOT
BRANCH   1   2
ATOM      2  C   UNL     1      19.984   3.390  11.337  1.00  0.00     0.000 C 
BRANCH   2   3
ATOM      3  C   UNL     1      18.685   4.210  11.458  1.00  0.00     0.000 C 
BRANCH   3   4
ATOM      4  C   UNL     1      18.942   5.686  11.806  1.00  0.00     0.000 C 
BRANCH   4   5
ATOM      5  C   UNL     1      18.088   6.610  10.924  1.00  0.00     0.000 C 
BRANCH   5   6
ATOM      6  C   UNL     1      18.906   7.287   9.811  1.00  0.00     0.000 C 
BRANCH   6   7
ATOM      7  C   UNL     1      18.212   7.201   8.441  1.00  0.00     0.000 C 
BRANCH   7   8
ATOM      8  C   UNL     1      18.445   5.851   7.738  1.00  0.00     0.000 C 
BRANCH   8   9
ATOM      9  C   UNL     1      17.207   4.938   7.657  1.00  0.00     0.000 C 
BRANCH   9  10
ATOM     10  C   UNL     1      17.522   3.443   7.878  1.00  0.00     0.006 C 
BRANCH  10  11
ATOM     11  C   UNL     1      17.235   2.597   6.629  1.00  0.00     0.053 C 
BRANCH  11  12
ATOM     12  C   UNL     1      18.398   1.713   6.313  1.00  0.00     0.041 C 
ATOM     13  O   UNL     1      18.218   0.613   5.724  1.00  0.00    -0.550 OA
ATOM     14  O   UNL     1      19.673   2.065   6.735  1.00  0.00    -0.550 OA
ENDBRANCH  11  12
ENDBRANCH  10  11
ENDBRANCH   9  10
ENDBRANCH   8   9
ENDBRANCH   7   8
ENDBRANCH   6   7
ENDBRANCH   5   6
ENDBRANCH   4   5
ENDBRANCH   3   4
ENDBRANCH   2   3
ENDBRANCH   1   2
BRANCH   1  15
ATOM     15  C   UNL     1      21.179   4.395   9.252  1.00  0.00     0.000 C 
BRANCH  15  16
ATOM     16  C   UNL     1      22.445   4.072   8.428  1.00  0.00     0.000 C 
BRANCH  16  17
ATOM     17  C   UNL     1      23.763   4.543   9.067  1.00  0.00     0.000 C 
BRANCH  17  18
ATOM     18  C   UNL     1      24.205   5.925   8.554  1.00  0.00    -0.000 C 
BRANCH  18  19
ATOM     19  C   UNL     1      24.163   7.005   9.649  1.00  0.00    -0.000 C 
BRANCH  19  20
ATOM     20  C   UNL     1      22.755   7.588   9.913  1.00  0.00    -0.000 C 
BRANCH  20  21
ATOM     21  C   UNL     1      22.241   7.443  11.360  1.00  0.00    -0.000 C 
BRANCH  21  22
ATOM     22  C   UNL     1      23.198   6.719  12.327  1.00  0.00    -0.000 C 
BRANCH  22  23
ATOM     23  C   UNL     1      22.627   5.406  12.903  1.00  0.00    -0.000 C 
BRANCH  23  24
ATOM     24  C   UNL     1      22.795   5.307  14.430  1.00  0.00    -0.000 C 
BRANCH  24  25
ATOM     25  C   UNL     1      22.621   6.664  15.132  1.00  0.00    -0.003 C 
ATOM     26  C   UNL     1      22.721   6.554  16.656  1.00  0.00     0.004 C 
ENDBRANCH  24  25
ENDBRANCH  23  24
ENDBRANCH  22  23
ENDBRANCH  21  22
ENDBRANCH  20  21
ENDBRANCH  19  20
ENDBRANCH  18  19
ENDBRANCH  17  18
ENDBRANCH  16  17
ENDBRANCH  15  16
ENDBRANCH   1  15
TORSDOF 22
ENDMDL
MODEL 8
REMARK VINA RESULT:    -3.950      1.800      3.820
REMARK INTER + INTRA:         -12.761
REMARK INTER:                  -8.632
REMARK INTRA:                  -4.130
REMARK UNBOUND:                -3.732
REMARK SMILES CCCCCCCCCCCCCCCCCCCCCCCC(=O)[O-]
REMARK SMILES IDX 13 1 14 2 15 3 16 4 17 5 18 6 19 7 20 8 21 9 22 10 23 11
REMARK SMILES IDX 24 12 25 13 26 14 12 15 11 16 10 17 9 18 8 19 7 20 6 21 5 22
REMARK SMILES IDX 4 23 3 24 2 25 1 26
REMARK H PARENT
REMARK Flexibility Score: inf
ROOT
ATOM      1  C   UNL     1      25.288   7.175  15.017  1.00  0.00     0.000 C 
ENDROOT
BRANCH   1   2
ATOM      2  C   UNL     1      23.821   6.703  15.099  1.00  0.00     0.000 C 
BRANCH   2   3
ATOM      3  C   UNL     1      23.206   6.754  16.510  1.00  0.00     0.000 C 
BRANCH   3   4
ATOM      4  C   UNL     1      22.624   5.402  16.957  1.00  0.00     0.000 C 
BRANCH   4   5
ATOM      5  C   UNL     1      23.742   4.367  17.155  1.00  0.00     0.000 C 
BRANCH   5   6
ATOM      6  C   UNL     1      23.684   3.230  16.119  1.00  0.00     0.000 C 
BRANCH   6   7
ATOM      7  C   UNL     1      25.021   2.478  16.002  1.00  0.00     0.000 C 
BRANCH   7   8
ATOM      8  C   UNL     1      25.713   2.698  14.644  1.00  0.00     0.000 C 
BRANCH   8   9
ATOM      9  C   UNL     1      24.902   3.525  13.629  1.00  0.00     0.000 C 
BRANCH   9  10
ATOM     10  C   UNL     1      25.701   3.921  12.368  1.00  0.00     0.006 C 
BRANCH  10  11
ATOM     11  C   UNL     1      24.867   4.761  11.390  1.00  0.00     0.053 C 
BRANCH  11  12
ATOM     12  C   UNL     1      25.189   6.213  11.535  1.00  0.00     0.041 C 
ATOM     13  O   UNL     1      24.264   7.067  11.587  1.00  0.00    -0.550 OA
ATOM     14  O   UNL     1      26.513   6.634  11.537  1.00  0.00    -0.550 OA
ENDBRANCH  11  12
ENDBRANCH  10  11
ENDBRANCH   9  10
ENDBRANCH   8   9
ENDBRANCH   7   8
ENDBRANCH   6   7
ENDBRANCH   5   6
ENDBRANCH   4   5
ENDBRANCH   3   4
ENDBRANCH   2   3
ENDBRANCH   1   2
BRANCH   1  15
ATOM     15  C   UNL     1      26.322   6.211  15.637  1.00  0.00     0.000 C 
BRANCH  15  16
ATOM     16  C   UNL     1      27.603   5.992  14.804  1.00  0.00     0.000 C 
BRANCH  16  17
ATOM     17  C   UNL     1      28.705   5.192  15.521  1.00  0.00     0.000 C 
BRANCH  17  18
ATOM     18  C   UNL     1      29.606   6.084  16.394  1.00  0.00    -0.000 C 
BRANCH  18  19
ATOM     19  C   UNL     1      31.101   5.767  16.219  1.00  0.00    -0.000 C 
BRANCH  19  20
ATOM     20  C   UNL     1      31.390   4.537  15.328  1.00  0.00    -0.000 C 
BRANCH  20  21
ATOM     21  C   UNL     1      31.956   3.306  16.066  1.00  0.00    -0.000 C 
BRANCH  21  22
ATOM     22  C   UNL     1      30.923   2.483  16.859  1.00  0.00    -0.000 C 
BRANCH  22  23
ATOM     23  C   UNL     1      30.991   2.700  18.385  1.00  0.00    -0.000 C 
BRANCH  23  24
ATOM     24  C   UNL     1      29.747   3.420  18.936  1.00  0.00    -0.000 C 
BRANCH  24  25
ATOM     25  C   UNL     1      28.434   2.770  18.470  1.00  0.00    -0.003 C 
ATOM     26  C   UNL     1      27.227   3.696  18.642  1.00  0.00     0.004 C 
ENDBRANCH  24  25
ENDBRANCH  23  24
ENDBRANCH  22  23
ENDBRANCH  21  22
ENDBRANCH  20  21
ENDBRANCH  19  20
ENDBRANCH  18  19
ENDBRANCH  17  18
ENDBRANCH  16  17
ENDBRANCH  15  16
ENDBRANCH   1  15
TORSDOF 22
ENDMDL
MODEL 9
REMARK VINA RESULT:    -3.919      6.180     11.034
REMARK INTER + INTRA:         -12.692
REMARK INTER:                  -9.028
REMARK INTRA:                  -3.664
REMARK UNBOUND:                -3.732
REMARK SMILES CCCCCCCCCCCCCCCCCCCCCCCC(=O)[O-]
REMARK SMILES IDX 13 1 14 2 15 3 16 4 17 5 18 6 19 7 20 8 21 9 22 10 23 11
REMARK SMILES IDX 24 12 25 13 26 14 12 15 11 16 10 17 9 18 8 19 7 20 6 21 5 22
REMARK SMILES IDX 4 23 3 24 2 25 1 26
REMARK H PARENT
REMARK Flexibility Score: inf
ROOT
ATOM      1  C   UNL     1      20.783   7.091  11.704  1.00  0.00     0.000 C 
ENDROOT
BRANCH   1   2
ATOM      2  C   UNL     1      21.550   6.667  10.434  1.00  0.00     0.000 C 
BRANCH   2   3
ATOM      3  C   UNL     1      22.736   7.578  10.064  1.00  0.00     0.000 C 
BRANCH   3   4
ATOM      4  C   UNL     1      24.006   6.787   9.705  1.00  0.00     0.000 C 
BRANCH   4   5
ATOM      5  C   UNL     1      23.772   5.277   9.869  1.00  0.00     0.000 C 
BRANCH   5   6
ATOM      6  C   UNL     1      24.554   4.685  11.055  1.00  0.00     0.000 C 
BRANCH   6   7
ATOM      7  C   UNL     1      23.643   3.921  12.032  1.00  0.00     0.000 C 
BRANCH   7   8
ATOM      8  C   UNL     1      23.280   4.749  13.278  1.00  0.00     0.000 C 
BRANCH   8   9
ATOM      9  C   UNL     1      24.063   6.066  13.435  1.00  0.00     0.000 C 
BRANCH   9  10
ATOM     10  C   UNL     1      24.742   6.227  14.812  1.00  0.00     0.006 C 
BRANCH  10  11
ATOM     11  C   UNL     1      26.192   6.718  14.692  1.00  0.00     0.053 C 
BRANCH  11  12
ATOM     12  C   UNL     1      26.842   6.150  13.471  1.00  0.00     0.041 C 
ATOM     13  O   UNL     1      27.161   4.932  13.431  1.00  0.00    -0.550 OA
ATOM     14  O   UNL     1      27.164   6.980  12.406  1.00  0.00    -0.550 OA
ENDBRANCH  11  12
ENDBRANCH  10  11
ENDBRANCH   9  10
ENDBRANCH   8   9
ENDBRANCH   7   8
ENDBRANCH   6   7
ENDBRANCH   5   6
ENDBRANCH   4   5
ENDBRANCH   3   4
ENDBRANCH   2   3
ENDBRANCH   1   2
BRANCH   1  15
ATOM     15  C   UNL     1      19.311   7.498  11.476  1.00  0.00     0.000 C 
BRANCH  15  16
ATOM     16  C   UNL     1      18.890   7.647   9.998  1.00  0.00     0.000 C 
BRANCH  16  17
ATOM     17  C   UNL     1      17.409   8.013   9.787  1.00  0.00     0.000 C 
BRANCH  17  18
ATOM     18  C   UNL     1      17.058   8.208   8.302  1.00  0.00    -0.000 C 
BRANCH  18  19
ATOM     19  C   UNL     1      17.589   7.071   7.412  1.00  0.00    -0.000 C 
BRANCH  19  20
ATOM     20  C   UNL     1      16.954   5.691   7.700  1.00  0.00    -0.000 C 
BRANCH  20  21
ATOM     21  C   UNL     1      17.838   4.473   7.360  1.00  0.00    -0.000 C 
BRANCH  21  22
ATOM     22  C   UNL     1      19.175   4.400   8.123  1.00  0.00    -0.000 C 
BRANCH  22  23
ATOM     23  C   UNL     1      19.207   3.319   9.224  1.00  0.00    -0.000 C 
BRANCH  23  24
ATOM     24  C   UNL     1      19.004   3.903  10.634  1.00  0.00    -0.000 C 
BRANCH  24  25
ATOM     25  C   UNL     1      20.077   3.430  11.628  1.00  0.00    -0.003 C 
ATOM     26  C   UNL     1      19.690   3.705  13.084  1.00  0.00     0.004 C 
ENDBRANCH  24  25
ENDBRANCH  23  24
ENDBRANCH  22  23
ENDBRANCH  21  22
ENDBRANCH  20  21
ENDBRANCH  19  20
ENDBRANCH  18  19
ENDBRANCH  17  18
ENDBRANCH  16  17
ENDBRANCH  15  16
ENDBRANCH   1  15
TORSDOF 22
ENDMDL
