MODEL 1
REMARK VINA RESULT:    -4.864      0.000      0.000
REMARK INTER + INTRA:         -11.563
REMARK INTER:                  -8.844
REMARK INTRA:                  -2.719
REMARK UNBOUND:                -2.719
REMARK SMILES CCCCCC=CCC=CCCCCCCCC(=O)[O-]
REMARK SMILES IDX 11 1 12 2 13 3 14 4 15 5 16 6 17 7 18 8 19 9 20 10 10 11
REMARK SMILES IDX 9 12 8 13 7 14 6 15 5 16 4 17 3 18 2 19 1 20
REMARK H PARENT
REMARK Flexibility Score: inf
ROOT
ATOM      1  C   UNL     1      13.873  26.191  57.505  1.00  0.00     0.027 C 
ENDROOT
BRANCH   1   2
ATOM      2  C   UNL     1      13.868  27.700  57.217  1.00  0.00     0.004 C 
BRANCH   2   3
ATOM      3  C   UNL     1      14.698  28.488  58.245  1.00  0.00     0.000 C 
BRANCH   3   4
ATOM      4  C   UNL     1      15.905  29.204  57.617  1.00  0.00     0.000 C 
BRANCH   4   5
ATOM      5  C   UNL     1      16.841  29.897  58.625  1.00  0.00     0.000 C 
BRANCH   5   6
ATOM      6  C   UNL     1      18.196  30.328  58.022  1.00  0.00     0.006 C 
BRANCH   6   7
ATOM      7  C   UNL     1      19.092  29.125  57.692  1.00  0.00     0.053 C 
BRANCH   7   8
ATOM      8  C   UNL     1      19.570  29.190  56.276  1.00  0.00     0.041 C 
ATOM      9  O   UNL     1      19.041  29.995  55.465  1.00  0.00    -0.550 OA
ATOM     10  O   UNL     1      20.595  28.355  55.846  1.00  0.00    -0.550 OA
ENDBRANCH   7   8
ENDBRANCH   6   7
ENDBRANCH   5   6
ENDBRANCH   4   5
ENDBRANCH   3   4
ENDBRANCH   2   3
ENDBRANCH   1   2
BRANCH   1  11
ATOM     11  C   UNL     1      14.965  25.806  58.475  1.00  0.00    -0.031 C 
ATOM     12  C   UNL     1      16.123  25.215  58.129  1.00  0.00    -0.027 C 
BRANCH  12  13
ATOM     13  C   UNL     1      16.561  24.949  56.712  1.00  0.00     0.054 C 
BRANCH  13  14
ATOM     14  C   UNL     1      17.362  26.107  56.174  1.00  0.00    -0.027 C 
ATOM     15  C   UNL     1      17.032  26.824  55.082  1.00  0.00    -0.031 C 
BRANCH  15  16
ATOM     16  C   UNL     1      15.763  26.638  54.286  1.00  0.00     0.027 C 
BRANCH  16  17
ATOM     17  C   UNL     1      15.963  25.673  53.108  1.00  0.00     0.004 C 
BRANCH  17  18
ATOM     18  C   UNL     1      17.395  25.736  52.547  1.00  0.00     0.000 C 
BRANCH  18  19
ATOM     19  C   UNL     1      18.031  24.345  52.401  1.00  0.00    -0.003 C 
ATOM     20  C   UNL     1      17.702  23.416  53.570  1.00  0.00     0.004 C 
ENDBRANCH  18  19
ENDBRANCH  17  18
ENDBRANCH  16  17
ENDBRANCH  15  16
ENDBRANCH  13  14
ENDBRANCH  12  13
ENDBRANCH   1  11
TORSDOF 14
ENDMDL
MODEL 2
REMARK VINA RESULT:    -4.858      1.133      2.032
REMARK INTER + INTRA:         -11.553
REMARK INTER:                  -8.846
REMARK INTRA:                  -2.708
REMARK UNBOUND:                -2.719
REMARK SMILES CCCCCC=CCC=CCCCCCCCC(=O)[O-]
REMARK SMILES IDX 11 1 12 2 13 3 14 4 15 5 16 6 17 7 18 8 19 9 20 10 10 11
REMARK SMILES IDX 9 12 8 13 7 14 6 15 5 16 4 17 3 18 2 19 1 20
REMARK H PARENT
REMARK Flexibility Score: inf
ROOT
ATOM      1  C   UNL     1      13.880  26.122  57.837  1.00  0.00     0.027 C 
ENDROOT
BRANCH   1   2
ATOM      2  C   UNL     1      13.975  27.598  57.421  1.00  0.00     0.004 C 
BRANCH   2   3
ATOM      3  C   UNL     1      14.938  28.391  58.320  1.00  0.00     0.000 C 
BRANCH   3   4
ATOM      4  C   UNL     1      15.922  29.262  57.521  1.00  0.00     0.000 C 
BRANCH   4   5
ATOM      5  C   UNL     1      17.352  28.699  57.425  1.00  0.00     0.000 C 
BRANCH   5   6
ATOM      6  C   UNL     1      18.332  29.615  56.660  1.00  0.00     0.006 C 
BRANCH   6   7
ATOM      7  C   UNL     1      19.065  28.868  55.536  1.00  0.00     0.053 C 
BRANCH   7   8
ATOM      8  C   UNL     1      20.373  28.326  56.021  1.00  0.00     0.041 C 
ATOM      9  O   UNL     1      20.847  27.272  55.521  1.00  0.00    -0.550 OA
ATOM     10  O   UNL     1      21.067  28.978  57.033  1.00  0.00    -0.550 OA
ENDBRANCH   7   8
ENDBRANCH   6   7
ENDBRANCH   5   6
ENDBRANCH   4   5
ENDBRANCH   3   4
ENDBRANCH   2   3
ENDBRANCH   1   2
BRANCH   1  11
ATOM     11  C   UNL     1      15.160  25.631  58.470  1.00  0.00    -0.031 C 
ATOM     12  C   UNL     1      16.205  25.123  57.792  1.00  0.00    -0.027 C 
BRANCH  12  13
ATOM     13  C   UNL     1      16.308  25.071  56.289  1.00  0.00     0.054 C 
BRANCH  13  14
ATOM     14  C   UNL     1      17.696  25.444  55.836  1.00  0.00    -0.027 C 
ATOM     15  C   UNL     1      18.246  25.068  54.665  1.00  0.00    -0.031 C 
BRANCH  15  16
ATOM     16  C   UNL     1      17.525  24.294  53.589  1.00  0.00     0.027 C 
BRANCH  16  17
ATOM     17  C   UNL     1      17.274  25.150  52.339  1.00  0.00     0.004 C 
BRANCH  17  18
ATOM     18  C   UNL     1      15.959  25.944  52.438  1.00  0.00     0.000 C 
BRANCH  18  19
ATOM     19  C   UNL     1      16.193  27.444  52.676  1.00  0.00    -0.003 C 
ATOM     20  C   UNL     1      15.569  27.942  53.980  1.00  0.00     0.004 C 
ENDBRANCH  18  19
ENDBRANCH  17  18
ENDBRANCH  16  17
ENDBRANCH  15  16
ENDBRANCH  13  14
ENDBRANCH  12  13
ENDBRANCH   1  11
TORSDOF 14
ENDMDL
MODEL 3
REMARK VINA RESULT:    -4.809      1.978      5.517
REMARK INTER + INTRA:         -11.463
REMARK INTER:                  -8.775
REMARK INTRA:                  -2.688
REMARK UNBOUND:                -2.719
REMARK SMILES CCCCCC=CCC=CCCCCCCCC(=O)[O-]
REMARK SMILES IDX 11 1 12 2 13 3 14 4 15 5 16 6 17 7 18 8 19 9 20 10 10 11
REMARK SMILES IDX 9 12 8 13 7 14 6 15 5 16 4 17 3 18 2 19 1 20
REMARK H PARENT
REMARK Flexibility Score: inf
ROOT
ATOM      1  C   UNL     1      13.991  27.885  57.016  1.00  0.00     0.027 C 
ENDROOT
BRANCH   1   2
ATOM      2  C   UNL     1      13.626  26.396  57.107  1.00  0.00     0.004 C 
BRANCH   2   3
ATOM      3  C   UNL     1      14.195  25.738  58.376  1.00  0.00     0.000 C 
BRANCH   3   4
ATOM      4  C   UNL     1      15.732  25.747  58.418  1.00  0.00     0.000 C 
BRANCH   4   5
ATOM      5  C   UNL     1      16.411  24.733  57.478  1.00  0.00     0.000 C 
BRANCH   5   6
ATOM      6  C   UNL     1      17.265  25.385  56.370  1.00  0.00     0.006 C 
BRANCH   6   7
ATOM      7  C   UNL     1      16.744  25.052  54.964  1.00  0.00     0.053 C 
BRANCH   7   8
ATOM      8  C   UNL     1      17.651  25.609  53.913  1.00  0.00     0.041 C 
ATOM      9  O   UNL     1      17.618  26.837  53.633  1.00  0.00    -0.550 OA
ATOM     10  O   UNL     1      18.528  24.773  53.234  1.00  0.00    -0.550 OA
ENDBRANCH   7   8
ENDBRANCH   6   7
ENDBRANCH   5   6
ENDBRANCH   4   5
ENDBRANCH   3   4
ENDBRANCH   2   3
ENDBRANCH   1   2
BRANCH   1  11
ATOM     11  C   UNL     1      14.855  28.183  55.814  1.00  0.00    -0.031 C 
ATOM     12  C   UNL     1      15.914  29.011  55.818  1.00  0.00    -0.027 C 
BRANCH  12  13
ATOM     13  C   UNL     1      16.473  29.684  57.046  1.00  0.00     0.054 C 
BRANCH  13  14
ATOM     14  C   UNL     1      17.444  28.777  57.757  1.00  0.00    -0.027 C 
ATOM     15  C   UNL     1      18.756  28.685  57.468  1.00  0.00    -0.031 C 
BRANCH  15  16
ATOM     16  C   UNL     1      19.473  29.543  56.453  1.00  0.00     0.027 C 
BRANCH  16  17
ATOM     17  C   UNL     1      20.121  30.775  57.102  1.00  0.00     0.004 C 
BRANCH  17  18
ATOM     18  C   UNL     1      19.371  32.073  56.752  1.00  0.00     0.000 C 
BRANCH  18  19
ATOM     19  C   UNL     1      18.798  32.774  57.994  1.00  0.00    -0.003 C 
ATOM     20  C   UNL     1      19.087  32.016  59.289  1.00  0.00     0.004 C 
ENDBRANCH  18  19
ENDBRANCH  17  18
ENDBRANCH  16  17
ENDBRANCH  15  16
ENDBRANCH  13  14
ENDBRANCH  12  13
ENDBRANCH   1  11
TORSDOF 14
ENDMDL
MODEL 4
REMARK VINA RESULT:    -4.745      6.214      8.729
REMARK INTER + INTRA:         -11.347
REMARK INTER:                  -8.714
REMARK INTRA:                  -2.633
REMARK UNBOUND:                -2.719
REMARK SMILES CCCCCC=CCC=CCCCCCCCC(=O)[O-]
REMARK SMILES IDX 11 1 12 2 13 3 14 4 15 5 16 6 17 7 18 8 19 9 20 10 10 11
REMARK SMILES IDX 9 12 8 13 7 14 6 15 5 16 4 17 3 18 2 19 1 20
REMARK H PARENT
REMARK Flexibility Score: inf
ROOT
ATOM      1  C   UNL     1      26.150  22.290  56.189  1.00  0.00     0.027 C 
ENDROOT
BRANCH   1   2
ATOM      2  C   UNL     1      26.300  23.704  56.771  1.00  0.00     0.004 C 
BRANCH   2   3
ATOM      3  C   UNL     1      26.412  24.773  55.672  1.00  0.00     0.000 C 
BRANCH   3   4
ATOM      4  C   UNL     1      25.717  26.092  56.046  1.00  0.00     0.000 C 
BRANCH   4   5
ATOM      5  C   UNL     1      25.769  27.182  54.959  1.00  0.00     0.000 C 
BRANCH   5   6
ATOM      6  C   UNL     1      24.437  27.939  54.770  1.00  0.00     0.006 C 
BRANCH   6   7
ATOM      7  C   UNL     1      23.836  28.395  56.108  1.00  0.00     0.053 C 
BRANCH   7   8
ATOM      8  C   UNL     1      22.397  27.998  56.208  1.00  0.00     0.041 C 
ATOM      9  O   UNL     1      21.958  27.032  55.529  1.00  0.00    -0.550 OA
ATOM     10  O   UNL     1      21.535  28.698  57.044  1.00  0.00    -0.550 OA
ENDBRANCH   7   8
ENDBRANCH   6   7
ENDBRANCH   5   6
ENDBRANCH   4   5
ENDBRANCH   3   4
ENDBRANCH   2   3
ENDBRANCH   1   2
BRANCH   1  11
ATOM     11  C   UNL     1      26.308  22.278  54.687  1.00  0.00    -0.031 C 
ATOM     12  C   UNL     1      25.487  21.640  53.835  1.00  0.00    -0.027 C 
BRANCH  12  13
ATOM     13  C   UNL     1      24.218  20.932  54.235  1.00  0.00     0.054 C 
BRANCH  13  14
ATOM     14  C   UNL     1      23.312  20.746  53.045  1.00  0.00    -0.027 C 
ATOM     15  C   UNL     1      22.185  21.450  52.824  1.00  0.00    -0.031 C 
BRANCH  15  16
ATOM     16  C   UNL     1      21.708  22.596  53.682  1.00  0.00     0.027 C 
BRANCH  16  17
ATOM     17  C   UNL     1      22.024  23.958  53.046  1.00  0.00     0.004 C 
BRANCH  17  18
ATOM     18  C   UNL     1      23.359  24.535  53.551  1.00  0.00     0.000 C 
BRANCH  18  19
ATOM     19  C   UNL     1      24.252  25.039  52.407  1.00  0.00    -0.003 C 
ATOM     20  C   UNL     1      24.394  24.024  51.274  1.00  0.00     0.004 C 
ENDBRANCH  18  19
ENDBRANCH  17  18
ENDBRANCH  16  17
ENDBRANCH  15  16
ENDBRANCH  13  14
ENDBRANCH  12  13
ENDBRANCH   1  11
TORSDOF 14
ENDMDL
MODEL 5
REMARK VINA RESULT:    -4.731      1.853      5.659
REMARK INTER + INTRA:         -11.322
REMARK INTER:                  -9.129
REMARK INTRA:                  -2.193
REMARK UNBOUND:                -2.719
REMARK SMILES CCCCCC=CCC=CCCCCCCCC(=O)[O-]
REMARK SMILES IDX 11 1 12 2 13 3 14 4 15 5 16 6 17 7 18 8 19 9 20 10 10 11
REMARK SMILES IDX 9 12 8 13 7 14 6 15 5 16 4 17 3 18 2 19 1 20
REMARK H PARENT
REMARK Flexibility Score: inf
ROOT
ATOM      1  C   UNL     1      16.781  25.609  57.857  1.00  0.00     0.027 C 
ENDROOT
BRANCH   1   2
ATOM      2  C   UNL     1      16.923  25.182  56.388  1.00  0.00     0.004 C 
BRANCH   2   3
ATOM      3  C   UNL     1      17.155  26.384  55.457  1.00  0.00     0.000 C 
BRANCH   3   4
ATOM      4  C   UNL     1      16.145  26.448  54.299  1.00  0.00     0.000 C 
BRANCH   4   5
ATOM      5  C   UNL     1      16.047  25.164  53.454  1.00  0.00     0.000 C 
BRANCH   5   6
ATOM      6  C   UNL     1      17.355  24.800  52.718  1.00  0.00     0.006 C 
BRANCH   6   7
ATOM      7  C   UNL     1      17.948  23.473  53.212  1.00  0.00     0.053 C 
BRANCH   7   8
ATOM      8  C   UNL     1      19.393  23.634  53.565  1.00  0.00     0.041 C 
ATOM      9  O   UNL     1      20.146  22.627  53.627  1.00  0.00    -0.550 OA
ATOM     10  O   UNL     1      19.909  24.896  53.836  1.00  0.00    -0.550 OA
ENDBRANCH   7   8
ENDBRANCH   6   7
ENDBRANCH   5   6
ENDBRANCH   4   5
ENDBRANCH   3   4
ENDBRANCH   2   3
ENDBRANCH   1   2
BRANCH   1  11
ATOM     11  C   UNL     1      15.490  25.114  58.466  1.00  0.00    -0.031 C 
ATOM     12  C   UNL     1      14.321  25.778  58.428  1.00  0.00    -0.027 C 
BRANCH  12  13
ATOM     13  C   UNL     1      14.088  27.063  57.675  1.00  0.00     0.054 C 
BRANCH  13  14
ATOM     14  C   UNL     1      14.154  28.246  58.606  1.00  0.00    -0.027 C 
ATOM     15  C   UNL     1      15.144  29.159  58.615  1.00  0.00    -0.031 C 
BRANCH  15  16
ATOM     16  C   UNL     1      16.290  29.190  57.634  1.00  0.00     0.027 C 
BRANCH  16  17
ATOM     17  C   UNL     1      17.617  29.558  58.314  1.00  0.00     0.004 C 
BRANCH  17  18
ATOM     18  C   UNL     1      18.824  28.908  57.614  1.00  0.00     0.000 C 
BRANCH  18  19
ATOM     19  C   UNL     1      19.943  29.918  57.314  1.00  0.00    -0.003 C 
ATOM     20  C   UNL     1      19.637  31.318  57.845  1.00  0.00     0.004 C 
ENDBRANCH  18  19
ENDBRANCH  17  18
ENDBRANCH  16  17
ENDBRANCH  15  16
ENDBRANCH  13  14
ENDBRANCH  12  13
ENDBRANCH   1  11
TORSDOF 14
ENDMDL
MODEL 6
REMARK VINA RESULT:    -4.718      1.896      2.663
REMARK INTER + INTRA:         -11.298
REMARK INTER:                  -8.471
REMARK INTRA:                  -2.828
REMARK UNBOUND:                -2.719
REMARK SMILES CCCCCC=CCC=CCCCCCCCC(=O)[O-]
REMARK SMILES IDX 11 1 12 2 13 3 14 4 15 5 16 6 17 7 18 8 19 9 20 10 10 11
REMARK SMILES IDX 9 12 8 13 7 14 6 15 5 16 4 17 3 18 2 19 1 20
REMARK H PARENT
REMARK Flexibility Score: inf
ROOT
ATOM      1  C   UNL     1      14.290  26.118  57.125  1.00  0.00     0.027 C 
ENDROOT
BRANCH   1   2
ATOM      2  C   UNL     1      14.100  27.635  56.976  1.00  0.00     0.004 C 
BRANCH   2   3
ATOM      3  C   UNL     1      14.660  28.159  55.643  1.00  0.00     0.000 C 
BRANCH   3   4
ATOM      4  C   UNL     1      15.829  29.140  55.829  1.00  0.00     0.000 C 
BRANCH   4   5
ATOM      5  C   UNL     1      16.547  29.041  57.188  1.00  0.00     0.000 C 
BRANCH   5   6
ATOM      6  C   UNL     1      18.086  29.009  57.079  1.00  0.00     0.006 C 
BRANCH   6   7
ATOM      7  C   UNL     1      18.768  29.316  58.420  1.00  0.00     0.053 C 
BRANCH   7   8
ATOM      8  C   UNL     1      18.789  30.789  58.682  1.00  0.00     0.041 C 
ATOM      9  O   UNL     1      19.599  31.531  58.066  1.00  0.00    -0.550 OA
ATOM     10  O   UNL     1      17.921  31.345  59.615  1.00  0.00    -0.550 OA
ENDBRANCH   7   8
ENDBRANCH   6   7
ENDBRANCH   5   6
ENDBRANCH   4   5
ENDBRANCH   3   4
ENDBRANCH   2   3
ENDBRANCH   1   2
BRANCH   1  11
ATOM     11  C   UNL     1      15.383  25.780  58.111  1.00  0.00    -0.031 C 
ATOM     12  C   UNL     1      16.487  25.071  57.818  1.00  0.00    -0.027 C 
BRANCH  12  13
ATOM     13  C   UNL     1      16.862  24.600  56.436  1.00  0.00     0.054 C 
BRANCH  13  14
ATOM     14  C   UNL     1      17.557  25.695  55.669  1.00  0.00    -0.027 C 
ATOM     15  C   UNL     1      17.319  25.994  54.378  1.00  0.00    -0.031 C 
BRANCH  15  16
ATOM     16  C   UNL     1      16.255  25.341  53.528  1.00  0.00     0.027 C 
BRANCH  16  17
ATOM     17  C   UNL     1      15.755  26.278  52.419  1.00  0.00     0.004 C 
BRANCH  17  18
ATOM     18  C   UNL     1      16.502  27.624  52.419  1.00  0.00     0.000 C 
BRANCH  18  19
ATOM     19  C   UNL     1      15.643  28.774  51.871  1.00  0.00    -0.003 C 
ATOM     20  C   UNL     1      14.310  28.296  51.295  1.00  0.00     0.004 C 
ENDBRANCH  18  19
ENDBRANCH  17  18
ENDBRANCH  16  17
ENDBRANCH  15  16
ENDBRANCH  13  14
ENDBRANCH  12  13
ENDBRANCH   1  11
TORSDOF 14
ENDMDL
MODEL 7
REMARK VINA RESULT:    -4.677      2.872      4.429
REMARK INTER + INTRA:         -11.224
REMARK INTER:                  -9.074
REMARK INTRA:                  -2.151
REMARK UNBOUND:                -2.719
REMARK SMILES CCCCCC=CCC=CCCCCCCCC(=O)[O-]
REMARK SMILES IDX 11 1 12 2 13 3 14 4 15 5 16 6 17 7 18 8 19 9 20 10 10 11
REMARK SMILES IDX 9 12 8 13 7 14 6 15 5 16 4 17 3 18 2 19 1 20
REMARK H PARENT
REMARK Flexibility Score: inf
ROOT
ATOM      1  C   UNL     1      17.584  25.289  55.770  1.00  0.00     0.027 C 
ENDROOT
BRANCH   1   2
ATOM      2  C   UNL     1      16.860  24.869  57.058  1.00  0.00     0.004 C 
BRANCH   2   3
ATOM      3  C   UNL     1      15.732  25.846  57.431  1.00  0.00     0.000 C 
BRANCH   3   4
ATOM      4  C   UNL     1      14.777  26.134  56.261  1.00  0.00     0.000 C 
BRANCH   4   5
ATOM      5  C   UNL     1      14.764  27.597  55.780  1.00  0.00     0.000 C 
BRANCH   5   6
ATOM      6  C   UNL     1      15.550  28.561  56.695  1.00  0.00     0.006 C 
BRANCH   6   7
ATOM      7  C   UNL     1      16.563  29.407  55.911  1.00  0.00     0.053 C 
BRANCH   7   8
ATOM      8  C   UNL     1      17.939  28.829  56.021  1.00  0.00     0.041 C 
ATOM      9  O   UNL     1      18.642  28.667  54.989  1.00  0.00    -0.550 OA
ATOM     10  O   UNL     1      18.443  28.459  57.262  1.00  0.00    -0.550 OA
ENDBRANCH   7   8
ENDBRANCH   6   7
ENDBRANCH   5   6
ENDBRANCH   4   5
ENDBRANCH   3   4
ENDBRANCH   2   3
ENDBRANCH   1   2
BRANCH   1  11
ATOM     11  C   UNL     1      17.505  24.221  54.704  1.00  0.00    -0.031 C 
ATOM     12  C   UNL     1      17.311  24.458  53.395  1.00  0.00    -0.027 C 
BRANCH  12  13
ATOM     13  C   UNL     1      17.257  25.829  52.770  1.00  0.00     0.054 C 
BRANCH  13  14
ATOM     14  C   UNL     1      15.879  26.114  52.228  1.00  0.00    -0.027 C 
ATOM     15  C   UNL     1      15.345  27.344  52.107  1.00  0.00    -0.031 C 
BRANCH  15  16
ATOM     16  C   UNL     1      16.076  28.630  52.406  1.00  0.00     0.027 C 
BRANCH  16  17
ATOM     17  C   UNL     1      16.113  29.564  51.187  1.00  0.00     0.004 C 
BRANCH  17  18
ATOM     18  C   UNL     1      16.820  30.895  51.501  1.00  0.00     0.000 C 
BRANCH  18  19
ATOM     19  C   UNL     1      17.061  31.744  50.244  1.00  0.00    -0.003 C 
ATOM     20  C   UNL     1      17.513  30.913  49.043  1.00  0.00     0.004 C 
ENDBRANCH  18  19
ENDBRANCH  17  18
ENDBRANCH  16  17
ENDBRANCH  15  16
ENDBRANCH  13  14
ENDBRANCH  12  13
ENDBRANCH   1  11
TORSDOF 14
ENDMDL
MODEL 8
REMARK VINA RESULT:    -4.674      1.684      2.093
REMARK INTER + INTRA:         -11.219
REMARK INTER:                  -8.826
REMARK INTRA:                  -2.392
REMARK UNBOUND:                -2.719
REMARK SMILES CCCCCC=CCC=CCCCCCCCC(=O)[O-]
REMARK SMILES IDX 11 1 12 2 13 3 14 4 15 5 16 6 17 7 18 8 19 9 20 10 10 11
REMARK SMILES IDX 9 12 8 13 7 14 6 15 5 16 4 17 3 18 2 19 1 20
REMARK H PARENT
REMARK Flexibility Score: inf
ROOT
ATOM      1  C   UNL     1      14.204  26.927  56.806  1.00  0.00     0.027 C 
ENDROOT
BRANCH   1   2
ATOM      2  C   UNL     1      14.058  28.408  57.185  1.00  0.00     0.004 C 
BRANCH   2   3
ATOM      3  C   UNL     1      15.292  28.936  57.936  1.00  0.00     0.000 C 
BRANCH   3   4
ATOM      4  C   UNL     1      16.529  29.075  57.033  1.00  0.00     0.000 C 
BRANCH   4   5
ATOM      5  C   UNL     1      17.879  28.890  57.751  1.00  0.00     0.000 C 
BRANCH   5   6
ATOM      6  C   UNL     1      19.091  28.834  56.796  1.00  0.00     0.006 C 
BRANCH   6   7
ATOM      7  C   UNL     1      20.215  29.784  57.231  1.00  0.00     0.053 C 
BRANCH   7   8
ATOM      8  C   UNL     1      19.705  31.184  57.373  1.00  0.00     0.041 C 
ATOM      9  O   UNL     1      19.436  31.867  56.350  1.00  0.00    -0.550 OA
ATOM     10  O   UNL     1      19.535  31.740  58.636  1.00  0.00    -0.550 OA
ENDBRANCH   7   8
ENDBRANCH   6   7
ENDBRANCH   5   6
ENDBRANCH   4   5
ENDBRANCH   3   4
ENDBRANCH   2   3
ENDBRANCH   1   2
BRANCH   1  11
ATOM     11  C   UNL     1      14.270  26.036  58.024  1.00  0.00    -0.031 C 
ATOM     12  C   UNL     1      15.362  25.360  58.420  1.00  0.00    -0.027 C 
BRANCH  12  13
ATOM     13  C   UNL     1      16.721  25.473  57.778  1.00  0.00     0.054 C 
BRANCH  13  14
ATOM     14  C   UNL     1      16.877  24.457  56.675  1.00  0.00    -0.027 C 
ATOM     15  C   UNL     1      17.091  24.761  55.380  1.00  0.00    -0.031 C 
BRANCH  15  16
ATOM     16  C   UNL     1      17.302  26.158  54.851  1.00  0.00     0.027 C 
BRANCH  16  17
ATOM     17  C   UNL     1      18.660  26.305  54.149  1.00  0.00     0.004 C 
BRANCH  17  18
ATOM     18  C   UNL     1      19.728  25.381  54.760  1.00  0.00     0.000 C 
BRANCH  18  19
ATOM     19  C   UNL     1      20.463  24.548  53.698  1.00  0.00    -0.003 C 
ATOM     20  C   UNL     1      19.932  23.119  53.592  1.00  0.00     0.004 C 
ENDBRANCH  18  19
ENDBRANCH  17  18
ENDBRANCH  16  17
ENDBRANCH  15  16
ENDBRANCH  13  14
ENDBRANCH  12  13
ENDBRANCH   1  11
TORSDOF 14
ENDMDL
MODEL 9
REMARK VINA RESULT:    -4.636      1.800      3.733
REMARK INTER + INTRA:         -11.148
REMARK INTER:                  -8.621
REMARK INTRA:                  -2.528
REMARK UNBOUND:                -2.719
REMARK SMILES CCCCCC=CCC=CCCCCCCCC(=O)[O-]
REMARK SMILES IDX 11 1 12 2 13 3 14 4 15 5 16 6 17 7 18 8 19 9 20 10 10 11
REMARK SMILES IDX 9 12 8 13 7 14 6 15 5 16 4 17 3 18 2 19 1 20
REMARK H PARENT
REMARK Flexibility Score: inf
ROOT
ATOM      1  C   UNL     1      16.532  29.096  55.623  1.00  0.00     0.027 C 
ENDROOT
BRANCH   1   2
ATOM      2  C   UNL     1      17.782  28.767  54.794  1.00  0.00     0.004 C 
BRANCH   2   3
ATOM      3  C   UNL     1      19.080  29.026  55.577  1.00  0.00     0.000 C 
BRANCH   3   4
ATOM      4  C   UNL     1      18.954  28.689  57.072  1.00  0.00     0.000 C 
BRANCH   4   5
ATOM      5  C   UNL     1      19.190  29.876  58.025  1.00  0.00     0.000 C 
BRANCH   5   6
ATOM      6  C   UNL     1      19.926  31.065  57.371  1.00  0.00     0.006 C 
BRANCH   6   7
ATOM      7  C   UNL     1      19.202  32.397  57.611  1.00  0.00     0.053 C 
BRANCH   7   8
ATOM      8  C   UNL     1      17.940  32.470  56.810  1.00  0.00     0.041 C 
ATOM      9  O   UNL     1      17.979  32.362  55.556  1.00  0.00    -0.550 OA
ATOM     10  O   UNL     1      16.720  32.666  57.446  1.00  0.00    -0.550 OA
ENDBRANCH   7   8
ENDBRANCH   6   7
ENDBRANCH   5   6
ENDBRANCH   4   5
ENDBRANCH   3   4
ENDBRANCH   2   3
ENDBRANCH   1   2
BRANCH   1  11
ATOM     11  C   UNL     1      15.344  28.258  55.210  1.00  0.00    -0.031 C 
ATOM     12  C   UNL     1      14.508  27.641  56.064  1.00  0.00    -0.027 C 
BRANCH  12  13
ATOM     13  C   UNL     1      14.557  27.781  57.564  1.00  0.00     0.054 C 
BRANCH  13  14
ATOM     14  C   UNL     1      14.198  26.479  58.233  1.00  0.00    -0.027 C 
ATOM     15  C   UNL     1      15.059  25.465  58.444  1.00  0.00    -0.031 C 
BRANCH  15  16
ATOM     16  C   UNL     1      16.534  25.513  58.129  1.00  0.00     0.027 C 
BRANCH  16  17
ATOM     17  C   UNL     1      16.890  24.634  56.921  1.00  0.00     0.004 C 
BRANCH  17  18
ATOM     18  C   UNL     1      17.653  25.421  55.840  1.00  0.00     0.000 C 
BRANCH  18  19
ATOM     19  C   UNL     1      17.219  25.037  54.417  1.00  0.00    -0.003 C 
ATOM     20  C   UNL     1      17.264  23.530  54.168  1.00  0.00     0.004 C 
ENDBRANCH  18  19
ENDBRANCH  17  18
ENDBRANCH  16  17
ENDBRANCH  15  16
ENDBRANCH  13  14
ENDBRANCH  12  13
ENDBRANCH   1  11
TORSDOF 14
ENDMDL
