MODEL 1
REMARK VINA RESULT:    -6.669      0.000      0.000
REMARK INTER + INTRA:          -6.864
REMARK INTER:                  -6.864
REMARK INTRA:                   0.000
REMARK UNBOUND:                 0.000
REMARK SMILES O=c1ccc2ccc(O)cc2o1
REMARK SMILES IDX 6 1 7 2 8 3 10 4 11 5 5 6 4 7 3 8 2 9 1 10 12 11 9 12
REMARK H PARENT 9 13
REMARK Flexibility Score: inf
ROOT
ATOM      1  C   UNL     1     -12.518  62.820  39.040  1.00  0.00     0.016 A 
ATOM      2  C   UNL     1     -11.389  62.213  39.598  1.00  0.00     0.047 A 
ATOM      3  C   UNL     1     -11.465  60.912  40.110  1.00  0.00     0.119 A 
ATOM      4  C   UNL     1     -12.679  60.213  40.064  1.00  0.00     0.094 A 
ATOM      5  C   UNL     1     -13.815  60.811  39.508  1.00  0.00     0.142 A 
ATOM      6  C   UNL     1     -13.734  62.124  38.992  1.00  0.00     0.018 A 
ATOM      7  C   UNL     1     -14.886  62.697  38.443  1.00  0.00     0.019 A 
ATOM      8  C   UNL     1     -16.071  61.962  38.420  1.00  0.00     0.094 A 
ATOM      9  C   UNL     1     -16.077  60.667  38.950  1.00  0.00     0.336 A 
ATOM     10  O   UNL     1     -17.136  59.988  38.938  1.00  0.00    -0.246 OA
ATOM     11  O   UNL     1     -14.967  60.146  39.467  1.00  0.00    -0.423 OA
ENDROOT
BRANCH   3  12
ATOM     12  O   UNL     1     -10.328  60.324  40.661  1.00  0.00    -0.508 OA
ATOM     13  H   UNL     1      -9.404  60.511  40.290  1.00  0.00     0.293 HD
ENDBRANCH   3  12
TORSDOF 1
ENDMDL
MODEL 2
REMARK VINA RESULT:    -6.246      1.040      4.284
REMARK INTER + INTRA:          -6.429
REMARK INTER:                  -6.429
REMARK INTRA:                   0.000
REMARK UNBOUND:                 0.000
REMARK SMILES O=c1ccc2ccc(O)cc2o1
REMARK SMILES IDX 6 1 7 2 8 3 10 4 11 5 5 6 4 7 3 8 2 9 1 10 12 11 9 12
REMARK H PARENT 9 13
REMARK Flexibility Score: inf
ROOT
ATOM      1  C   UNL     1     -14.682  62.896  38.528  1.00  0.00     0.016 A 
ATOM      2  C   UNL     1     -15.655  61.926  38.270  1.00  0.00     0.047 A 
ATOM      3  C   UNL     1     -15.352  60.566  38.412  1.00  0.00     0.119 A 
ATOM      4  C   UNL     1     -14.068  60.173  38.813  1.00  0.00     0.094 A 
ATOM      5  C   UNL     1     -13.087  61.137  39.073  1.00  0.00     0.142 A 
ATOM      6  C   UNL     1     -13.396  62.508  38.929  1.00  0.00     0.018 A 
ATOM      7  C   UNL     1     -12.396  63.448  39.196  1.00  0.00     0.019 A 
ATOM      8  C   UNL     1     -11.133  63.010  39.592  1.00  0.00     0.094 A 
ATOM      9  C   UNL     1     -10.898  61.636  39.712  1.00  0.00     0.336 A 
ATOM     10  O   UNL     1      -9.765  61.220  40.069  1.00  0.00    -0.246 OA
ATOM     11  O   UNL     1     -11.867  60.762  39.453  1.00  0.00    -0.423 OA
ENDROOT
BRANCH   3  12
ATOM     12  O   UNL     1     -16.336  59.614  38.151  1.00  0.00    -0.508 OA
ATOM     13  H   UNL     1     -17.131  59.492  38.767  1.00  0.00     0.293 HD
ENDBRANCH   3  12
TORSDOF 1
ENDMDL
MODEL 3
REMARK VINA RESULT:    -6.137     17.966     18.859
REMARK INTER + INTRA:          -6.316
REMARK INTER:                  -6.316
REMARK INTRA:                   0.000
REMARK UNBOUND:                 0.000
REMARK SMILES O=c1ccc2ccc(O)cc2o1
REMARK SMILES IDX 6 1 7 2 8 3 10 4 11 5 5 6 4 7 3 8 2 9 1 10 12 11 9 12
REMARK H PARENT 9 13
REMARK Flexibility Score: inf
ROOT
ATOM      1  C   UNL     1     -11.500  51.376  53.250  1.00  0.00     0.016 A 
ATOM      2  C   UNL     1     -10.310  51.499  53.975  1.00  0.00     0.047 A 
ATOM      3  C   UNL     1      -9.904  50.481  54.846  1.00  0.00     0.119 A 
ATOM      4  C   UNL     1     -10.693  49.332  54.994  1.00  0.00     0.094 A 
ATOM      5  C   UNL     1     -11.885  49.199  54.273  1.00  0.00     0.142 A 
ATOM      6  C   UNL     1     -12.291  50.229  53.395  1.00  0.00     0.018 A 
ATOM      7  C   UNL     1     -13.487  50.069  52.688  1.00  0.00     0.019 A 
ATOM      8  C   UNL     1     -14.239  48.908  52.868  1.00  0.00     0.094 A 
ATOM      9  C   UNL     1     -13.774  47.930  53.756  1.00  0.00     0.336 A 
ATOM     10  O   UNL     1     -14.438  46.875  53.932  1.00  0.00    -0.246 OA
ATOM     11  O   UNL     1     -12.633  48.107  54.416  1.00  0.00    -0.423 OA
ENDROOT
BRANCH   3  12
ATOM     12  O   UNL     1      -8.715  50.622  55.559  1.00  0.00    -0.508 OA
ATOM     13  H   UNL     1      -8.047  51.350  55.335  1.00  0.00     0.293 HD
ENDBRANCH   3  12
TORSDOF 1
ENDMDL
MODEL 4
REMARK VINA RESULT:    -6.088      1.825      2.679
REMARK INTER + INTRA:          -6.266
REMARK INTER:                  -6.266
REMARK INTRA:                   0.000
REMARK UNBOUND:                 0.000
REMARK SMILES O=c1ccc2ccc(O)cc2o1
REMARK SMILES IDX 6 1 7 2 8 3 10 4 11 5 5 6 4 7 3 8 2 9 1 10 12 11 9 12
REMARK H PARENT 9 13
REMARK Flexibility Score: inf
ROOT
ATOM      1  C   UNL     1     -11.144  60.725  40.451  1.00  0.00     0.016 A 
ATOM      2  C   UNL     1      -9.979  61.472  40.248  1.00  0.00     0.047 A 
ATOM      3  C   UNL     1     -10.018  62.653  39.497  1.00  0.00     0.119 A 
ATOM      4  C   UNL     1     -11.231  63.091  38.946  1.00  0.00     0.094 A 
ATOM      5  C   UNL     1     -12.401  62.351  39.143  1.00  0.00     0.142 A 
ATOM      6  C   UNL     1     -12.357  61.160  39.902  1.00  0.00     0.018 A 
ATOM      7  C   UNL     1     -13.543  60.441  40.082  1.00  0.00     0.019 A 
ATOM      8  C   UNL     1     -14.725  60.915  39.514  1.00  0.00     0.094 A 
ATOM      9  C   UNL     1     -14.693  62.103  38.774  1.00  0.00     0.336 A 
ATOM     10  O   UNL     1     -15.748  62.548  38.253  1.00  0.00    -0.246 OA
ATOM     11  O   UNL     1     -13.551  62.768  38.617  1.00  0.00    -0.423 OA
ENDROOT
BRANCH   3  12
ATOM     12  O   UNL     1      -8.847  63.384  39.307  1.00  0.00    -0.508 OA
ATOM     13  H   UNL     1      -8.316  63.317  38.446  1.00  0.00     0.293 HD
ENDBRANCH   3  12
TORSDOF 1
ENDMDL
MODEL 5
REMARK VINA RESULT:    -6.087     18.083     19.950
REMARK INTER + INTRA:          -6.264
REMARK INTER:                  -6.264
REMARK INTRA:                   0.000
REMARK UNBOUND:                 0.000
REMARK SMILES O=c1ccc2ccc(O)cc2o1
REMARK SMILES IDX 6 1 7 2 8 3 10 4 11 5 5 6 4 7 3 8 2 9 1 10 12 11 9 12
REMARK H PARENT 9 13
REMARK Flexibility Score: inf
ROOT
ATOM      1  C   UNL     1     -12.282  48.861  54.381  1.00  0.00     0.016 A 
ATOM      2  C   UNL     1     -12.790  49.869  53.556  1.00  0.00     0.047 A 
ATOM      3  C   UNL     1     -12.000  50.977  53.225  1.00  0.00     0.119 A 
ATOM      4  C   UNL     1     -10.693  51.078  53.723  1.00  0.00     0.094 A 
ATOM      5  C   UNL     1     -10.176  50.074  54.549  1.00  0.00     0.142 A 
ATOM      6  C   UNL     1     -10.976  48.958  54.881  1.00  0.00     0.018 A 
ATOM      7  C   UNL     1     -10.433  47.970  55.709  1.00  0.00     0.019 A 
ATOM      8  C   UNL     1      -9.128  48.114  56.180  1.00  0.00     0.094 A 
ATOM      9  C   UNL     1      -8.395  49.247  55.811  1.00  0.00     0.336 A 
ATOM     10  O   UNL     1      -7.216  49.396  56.225  1.00  0.00    -0.246 OA
ATOM     11  O   UNL     1      -8.935  50.172  55.022  1.00  0.00    -0.423 OA
ENDROOT
BRANCH   3  12
ATOM     12  O   UNL     1     -12.524  51.971  52.401  1.00  0.00    -0.508 OA
ATOM     13  H   UNL     1     -13.443  51.883  51.984  1.00  0.00     0.293 HD
ENDBRANCH   3  12
TORSDOF 1
ENDMDL
MODEL 6
REMARK VINA RESULT:    -5.898     17.997     19.560
REMARK INTER + INTRA:          -6.071
REMARK INTER:                  -6.071
REMARK INTRA:                   0.000
REMARK UNBOUND:                 0.000
REMARK SMILES O=c1ccc2ccc(O)cc2o1
REMARK SMILES IDX 6 1 7 2 8 3 10 4 11 5 5 6 4 7 3 8 2 9 1 10 12 11 9 12
REMARK H PARENT 9 13
REMARK Flexibility Score: inf
ROOT
ATOM      1  C   UNL     1     -13.570  47.211  54.370  1.00  0.00     0.016 A 
ATOM      2  C   UNL     1     -14.755  47.372  53.646  1.00  0.00     0.047 A 
ATOM      3  C   UNL     1     -14.978  48.538  52.904  1.00  0.00     0.119 A 
ATOM      4  C   UNL     1     -14.010  49.552  52.887  1.00  0.00     0.094 A 
ATOM      5  C   UNL     1     -12.821  49.401  53.609  1.00  0.00     0.142 A 
ATOM      6  C   UNL     1     -12.599  48.222  54.356  1.00  0.00     0.018 A 
ATOM      7  C   UNL     1     -11.402  48.099  55.067  1.00  0.00     0.019 A 
ATOM      8  C   UNL     1     -10.468  49.134  55.020  1.00  0.00     0.094 A 
ATOM      9  C   UNL     1     -10.756  50.273  54.260  1.00  0.00     0.336 A 
ATOM     10  O   UNL     1      -9.926  51.218  54.204  1.00  0.00    -0.246 OA
ATOM     11  O   UNL     1     -11.903  50.365  53.592  1.00  0.00    -0.423 OA
ENDROOT
BRANCH   3  12
ATOM     12  O   UNL     1     -16.165  48.679  52.188  1.00  0.00    -0.508 OA
ATOM     13  H   UNL     1     -16.315  49.461  51.561  1.00  0.00     0.293 HD
ENDBRANCH   3  12
TORSDOF 1
ENDMDL
MODEL 7
REMARK VINA RESULT:    -5.878      1.982      4.974
REMARK INTER + INTRA:          -6.050
REMARK INTER:                  -6.050
REMARK INTRA:                   0.000
REMARK UNBOUND:                 0.000
REMARK SMILES O=c1ccc2ccc(O)cc2o1
REMARK SMILES IDX 6 1 7 2 8 3 10 4 11 5 5 6 4 7 3 8 2 9 1 10 12 11 9 12
REMARK H PARENT 9 13
REMARK Flexibility Score: inf
ROOT
ATOM      1  C   UNL     1     -12.619  60.118  39.751  1.00  0.00     0.016 A 
ATOM      2  C   UNL     1     -13.917  60.200  39.238  1.00  0.00     0.047 A 
ATOM      3  C   UNL     1     -14.416  61.421  38.770  1.00  0.00     0.119 A 
ATOM      4  C   UNL     1     -13.613  62.569  38.816  1.00  0.00     0.094 A 
ATOM      5  C   UNL     1     -12.313  62.497  39.328  1.00  0.00     0.142 A 
ATOM      6  C   UNL     1     -11.812  61.263  39.799  1.00  0.00     0.018 A 
ATOM      7  C   UNL     1     -10.509  61.221  40.305  1.00  0.00     0.019 A 
ATOM      8  C   UNL     1      -9.748  62.389  40.331  1.00  0.00     0.094 A 
ATOM      9  C   UNL     1     -10.310  63.576  39.848  1.00  0.00     0.336 A 
ATOM     10  O   UNL     1      -9.639  64.641  39.863  1.00  0.00    -0.246 OA
ATOM     11  O   UNL     1     -11.552  63.589  39.372  1.00  0.00    -0.423 OA
ENDROOT
BRANCH   3  12
ATOM     12  O   UNL     1     -15.712  61.482  38.261  1.00  0.00    -0.508 OA
ATOM     13  H   UNL     1     -16.300  62.294  38.408  1.00  0.00     0.293 HD
ENDBRANCH   3  12
TORSDOF 1
ENDMDL
MODEL 8
REMARK VINA RESULT:    -5.819      3.561      6.378
REMARK INTER + INTRA:          -5.989
REMARK INTER:                  -5.989
REMARK INTRA:                   0.000
REMARK UNBOUND:                 0.000
REMARK SMILES O=c1ccc2ccc(O)cc2o1
REMARK SMILES IDX 6 1 7 2 8 3 10 4 11 5 5 6 4 7 3 8 2 9 1 10 12 11 9 12
REMARK H PARENT 9 13
REMARK Flexibility Score: inf
ROOT
ATOM      1  C   UNL     1     -10.740  62.978  38.251  1.00  0.00     0.016 A 
ATOM      2  C   UNL     1     -11.149  61.841  38.955  1.00  0.00     0.047 A 
ATOM      3  C   UNL     1     -10.503  61.474  40.142  1.00  0.00     0.119 A 
ATOM      4  C   UNL     1      -9.440  62.249  40.628  1.00  0.00     0.094 A 
ATOM      5  C   UNL     1      -9.024  63.388  39.931  1.00  0.00     0.142 A 
ATOM      6  C   UNL     1      -9.679  63.755  38.734  1.00  0.00     0.018 A 
ATOM      7  C   UNL     1      -9.241  64.899  38.059  1.00  0.00     0.019 A 
ATOM      8  C   UNL     1      -8.179  65.637  38.581  1.00  0.00     0.094 A 
ATOM      9  C   UNL     1      -7.578  65.213  39.771  1.00  0.00     0.336 A 
ATOM     10  O   UNL     1      -6.619  65.867  40.259  1.00  0.00    -0.246 OA
ATOM     11  O   UNL     1      -8.014  64.121  40.394  1.00  0.00    -0.423 OA
ENDROOT
BRANCH   3  12
ATOM     12  O   UNL     1     -10.925  60.338  40.830  1.00  0.00    -0.508 OA
ATOM     13  H   UNL     1     -11.673  59.753  40.476  1.00  0.00     0.293 HD
ENDBRANCH   3  12
TORSDOF 1
ENDMDL
MODEL 9
REMARK VINA RESULT:    -4.231      4.484      6.473
REMARK INTER + INTRA:          -4.354
REMARK INTER:                  -4.354
REMARK INTRA:                   0.000
REMARK UNBOUND:                 0.000
REMARK SMILES O=c1ccc2ccc(O)cc2o1
REMARK SMILES IDX 6 1 7 2 8 3 10 4 11 5 5 6 4 7 3 8 2 9 1 10 12 11 9 12
REMARK H PARENT 9 13
REMARK Flexibility Score: inf
ROOT
ATOM      1  C   UNL     1      -9.626  63.573  42.194  1.00  0.00     0.016 A 
ATOM      2  C   UNL     1     -10.002  62.243  41.986  1.00  0.00     0.047 A 
ATOM      3  C   UNL     1     -10.002  61.702  40.694  1.00  0.00     0.119 A 
ATOM      4  C   UNL     1      -9.624  62.497  39.603  1.00  0.00     0.094 A 
ATOM      5  C   UNL     1      -9.247  63.829  39.801  1.00  0.00     0.142 A 
ATOM      6  C   UNL     1      -9.247  64.371  41.106  1.00  0.00     0.018 A 
ATOM      7  C   UNL     1      -8.866  65.706  41.273  1.00  0.00     0.019 A 
ATOM      8  C   UNL     1      -8.499  66.458  40.157  1.00  0.00     0.094 A 
ATOM      9  C   UNL     1      -8.523  65.854  38.895  1.00  0.00     0.336 A 
ATOM     10  O   UNL     1      -8.194  66.516  37.875  1.00  0.00    -0.246 OA
ATOM     11  O   UNL     1      -8.890  64.582  38.763  1.00  0.00    -0.423 OA
ENDROOT
BRANCH   3  12
ATOM     12  O   UNL     1     -10.379  60.373  40.508  1.00  0.00    -0.508 OA
ATOM     13  H   UNL     1      -9.913  59.781  39.830  1.00  0.00     0.293 HD
ENDBRANCH   3  12
TORSDOF 1
ENDMDL
