MODEL 1
REMARK VINA RESULT:    33.782      0.000      0.000
REMARK INTER + INTRA:          40.496
REMARK INTER:                  40.694
REMARK INTRA:                  -0.198
REMARK UNBOUND:                -0.198
REMARK SMILES O=c1ccn([C@H]2O[C@@H](CO)[C@@H](O)[C@@H]2O)c(=O)[nH]1
REMARK SMILES IDX 6 1 13 2 11 3 8 4 7 5 5 6 3 7 4 8 2 9 17 10 1 11 15 12 16 14
REMARK SMILES IDX 14 15 12 17 9 19 10 20
REMARK H PARENT 17 13 14 16 12 18 10 21
REMARK Flexibility Score: inf
ROOT
ATOM      1  C   UNL     1       5.424  31.628  18.670  1.00  0.00     0.255 C 
ATOM      2  C   UNL     1       6.241  30.719  19.578  1.00  0.00     0.196 C 
ATOM      3  C   UNL     1       7.647  31.130  19.243  1.00  0.00     0.179 C 
ATOM      4  C   UNL     1       7.485  32.604  18.841  1.00  0.00     0.178 C 
ATOM      5  O   UNL     1       6.140  32.828  18.465  1.00  0.00    -0.347 OA
ENDROOT
BRANCH   1   6
ATOM      6  N   UNL     1       4.095  31.906  19.257  1.00  0.00    -0.271 N 
ATOM      7  C   UNL     1       2.589  31.766  21.119  1.00  0.00     0.090 A 
ATOM      8  C   UNL     1       3.839  31.541  20.551  1.00  0.00     0.099 A 
ATOM      9  C   UNL     1       1.600  32.358  20.340  1.00  0.00     0.253 A 
ATOM     10  N   UNL     1       1.868  32.699  19.052  1.00  0.00    -0.274 N 
ATOM     11  O   UNL     1       0.459  32.576  20.829  1.00  0.00    -0.269 OA
ATOM     12  C   UNL     1       3.094  32.473  18.505  1.00  0.00     0.330 A 
ATOM     13  H   UNL     1       1.116  33.137  18.471  1.00  0.00     0.175 HD
ATOM     14  O   UNL     1       3.294  32.790  17.300  1.00  0.00    -0.248 OA
ENDBRANCH   1   6
BRANCH   2  15
ATOM     15  O   UNL     1       6.031  29.365  19.278  1.00  0.00    -0.386 OA
ATOM     16  H   UNL     1       6.898  28.906  19.435  1.00  0.00     0.211 HD
ENDBRANCH   2  15
BRANCH   3  17
ATOM     17  O   UNL     1       8.511  30.949  20.337  1.00  0.00    -0.387 OA
ATOM     18  H   UNL     1       8.809  30.003  20.307  1.00  0.00     0.211 HD
ENDBRANCH   3  17
BRANCH   4  19
ATOM     19  C   UNL     1       7.857  33.600  19.951  1.00  0.00     0.191 C 
BRANCH  19  20
ATOM     20  O   UNL     1       8.275  34.814  19.391  1.00  0.00    -0.394 OA
ATOM     21  H   UNL     1       7.761  34.920  18.549  1.00  0.00     0.210 HD
ENDBRANCH  19  20
ENDBRANCH   4  19
TORSDOF 5
ENDMDL
MODEL 2
REMARK VINA RESULT:    35.543      1.733      5.499
REMARK INTER + INTRA:          42.617
REMARK INTER:                  43.223
REMARK INTRA:                  -0.607
REMARK UNBOUND:                -0.198
REMARK SMILES O=c1ccn([C@H]2O[C@@H](CO)[C@@H](O)[C@@H]2O)c(=O)[nH]1
REMARK SMILES IDX 6 1 13 2 11 3 8 4 7 5 5 6 3 7 4 8 2 9 17 10 1 11 15 12 16 14
REMARK SMILES IDX 14 15 12 17 9 19 10 20
REMARK H PARENT 17 13 14 16 12 18 10 21
REMARK Flexibility Score: inf
ROOT
ATOM      1  C   UNL     1       4.253  31.693  18.975  1.00  0.00     0.255 C 
ATOM      2  C   UNL     1       3.322  32.435  18.024  1.00  0.00     0.196 C 
ATOM      3  C   UNL     1       1.969  31.996  18.509  1.00  0.00     0.179 C 
ATOM      4  C   UNL     1       2.211  31.736  20.005  1.00  0.00     0.178 C 
ATOM      5  O   UNL     1       3.593  31.518  20.211  1.00  0.00    -0.347 OA
ENDROOT
BRANCH   1   6
ATOM      6  N   UNL     1       5.520  32.433  19.158  1.00  0.00    -0.271 N 
ATOM      7  C   UNL     1       6.685  34.521  19.345  1.00  0.00     0.090 A 
ATOM      8  C   UNL     1       5.503  33.801  19.201  1.00  0.00     0.099 A 
ATOM      9  C   UNL     1       7.885  33.824  19.430  1.00  0.00     0.253 A 
ATOM     10  N   UNL     1       7.883  32.467  19.368  1.00  0.00    -0.274 N 
ATOM     11  O   UNL     1       8.971  34.451  19.563  1.00  0.00    -0.269 OA
ATOM     12  C   UNL     1       6.723  31.770  19.225  1.00  0.00     0.330 A 
ATOM     13  H   UNL     1       8.791  31.950  19.425  1.00  0.00     0.175 HD
ATOM     14  O   UNL     1       6.768  30.511  19.155  1.00  0.00    -0.248 OA
ENDBRANCH   1   6
BRANCH   2  15
ATOM     15  O   UNL     1       3.525  32.046  16.692  1.00  0.00    -0.386 OA
ATOM     16  H   UNL     1       4.445  32.334  16.454  1.00  0.00     0.211 HD
ENDBRANCH   2  15
BRANCH   3  17
ATOM     17  O   UNL     1       0.993  32.977  18.272  1.00  0.00    -0.387 OA
ATOM     18  H   UNL     1       1.302  33.498  17.485  1.00  0.00     0.211 HD
ENDBRANCH   3  17
BRANCH   4  19
ATOM     19  C   UNL     1       1.753  32.882  20.921  1.00  0.00     0.191 C 
BRANCH  19  20
ATOM     20  O   UNL     1       0.369  32.814  21.125  1.00  0.00    -0.394 OA
ATOM     21  H   UNL     1       0.243  32.455  22.041  1.00  0.00     0.210 HD
ENDBRANCH  19  20
ENDBRANCH   4  19
TORSDOF 5
ENDMDL
