MODEL 1
REMARK VINA RESULT:    -3.647      0.000      0.000
REMARK INTER + INTRA:          -5.665
REMARK INTER:                  -5.139
REMARK INTRA:                  -0.526
REMARK UNBOUND:                -0.526
REMARK SMILES CCCCCCCCC(=O)[O-]
REMARK SMILES IDX 6 1 7 2 8 3 9 4 10 5 11 6 5 7 4 8 3 9 2 10 1 11
REMARK H PARENT
REMARK Flexibility Score: inf
ROOT
ATOM      1  C   UNL     1      30.386  -1.170  45.453  1.00  0.00     0.000 C 
ENDROOT
BRANCH   1   2
ATOM      2  C   UNL     1      30.557  -1.963  44.148  1.00  0.00     0.006 C 
BRANCH   2   3
ATOM      3  C   UNL     1      30.131  -1.125  42.939  1.00  0.00     0.053 C 
BRANCH   3   4
ATOM      4  C   UNL     1      28.673  -1.310  42.660  1.00  0.00     0.041 C 
ATOM      5  O   UNL     1      28.136  -2.437  42.816  1.00  0.00    -0.550 OA
ATOM      6  O   UNL     1      27.896  -0.224  42.275  1.00  0.00    -0.550 OA
ENDBRANCH   3   4
ENDBRANCH   2   3
ENDBRANCH   1   2
BRANCH   1   7
ATOM      7  C   UNL     1      29.882  -2.042  46.614  1.00  0.00     0.000 C 
BRANCH   7   8
ATOM      8  C   UNL     1      28.704  -2.941  46.210  1.00  0.00    -0.000 C 
BRANCH   8   9
ATOM      9  C   UNL     1      27.379  -2.171  46.272  1.00  0.00    -0.000 C 
BRANCH   9  10
ATOM     10  C   UNL     1      26.365  -2.889  47.170  1.00  0.00    -0.003 C 
ATOM     11  C   UNL     1      27.010  -4.064  47.899  1.00  0.00     0.004 C 
ENDBRANCH   9  10
ENDBRANCH   8   9
ENDBRANCH   7   8
ENDBRANCH   1   7
TORSDOF 7
ENDMDL
MODEL 2
REMARK VINA RESULT:    -3.444     11.312     13.485
REMARK INTER + INTRA:          -5.380
REMARK INTER:                  -4.608
REMARK INTRA:                  -0.772
REMARK UNBOUND:                -0.526
REMARK SMILES CCCCCCCCC(=O)[O-]
REMARK SMILES IDX 6 1 7 2 8 3 9 4 10 5 11 6 5 7 4 8 3 9 2 10 1 11
REMARK H PARENT
REMARK Flexibility Score: inf
ROOT
ATOM      1  C   UNL     1      19.867 -12.653  46.673  1.00  0.00     0.000 C 
ENDROOT
BRANCH   1   2
ATOM      2  C   UNL     1      20.464 -11.261  46.416  1.00  0.00     0.006 C 
BRANCH   2   3
ATOM      3  C   UNL     1      20.422 -10.915  44.925  1.00  0.00     0.053 C 
BRANCH   3   4
ATOM      4  C   UNL     1      21.786 -10.548  44.433  1.00  0.00     0.041 C 
ATOM      5  O   UNL     1      22.018  -9.381  44.021  1.00  0.00    -0.550 OA
ATOM      6  O   UNL     1      22.815 -11.481  44.474  1.00  0.00    -0.550 OA
ENDBRANCH   3   4
ENDBRANCH   2   3
ENDBRANCH   1   2
BRANCH   1   7
ATOM      7  C   UNL     1      20.845 -13.790  46.333  1.00  0.00     0.000 C 
BRANCH   7   8
ATOM      8  C   UNL     1      20.148 -14.996  45.687  1.00  0.00    -0.000 C 
BRANCH   8   9
ATOM      9  C   UNL     1      19.880 -14.744  44.198  1.00  0.00    -0.000 C 
BRANCH   9  10
ATOM     10  C   UNL     1      21.147 -14.260  43.484  1.00  0.00    -0.003 C 
ATOM     11  C   UNL     1      20.807 -13.544  42.181  1.00  0.00     0.004 C 
ENDBRANCH   9  10
ENDBRANCH   8   9
ENDBRANCH   7   8
ENDBRANCH   1   7
TORSDOF 7
ENDMDL
MODEL 3
REMARK VINA RESULT:    -3.374     12.364     14.031
REMARK INTER + INTRA:          -5.281
REMARK INTER:                  -4.559
REMARK INTRA:                  -0.722
REMARK UNBOUND:                -0.526
REMARK SMILES CCCCCCCCC(=O)[O-]
REMARK SMILES IDX 6 1 7 2 8 3 9 4 10 5 11 6 5 7 4 8 3 9 2 10 1 11
REMARK H PARENT
REMARK Flexibility Score: inf
ROOT
ATOM      1  C   UNL     1      21.056 -10.876  45.618  1.00  0.00     0.000 C 
ENDROOT
BRANCH   1   2
ATOM      2  C   UNL     1      19.671 -11.097  46.247  1.00  0.00     0.006 C 
BRANCH   2   3
ATOM      3  C   UNL     1      19.683 -12.309  47.182  1.00  0.00     0.053 C 
BRANCH   3   4
ATOM      4  C   UNL     1      19.234 -11.917  48.554  1.00  0.00     0.041 C 
ATOM      5  O   UNL     1      18.875 -12.798  49.379  1.00  0.00    -0.550 OA
ATOM      6  O   UNL     1      19.259 -10.582  48.939  1.00  0.00    -0.550 OA
ENDBRANCH   3   4
ENDBRANCH   2   3
ENDBRANCH   1   2
BRANCH   1   7
ATOM      7  C   UNL     1      21.948 -12.125  45.699  1.00  0.00     0.000 C 
BRANCH   7   8
ATOM      8  C   UNL     1      22.461 -12.576  44.323  1.00  0.00    -0.000 C 
BRANCH   8   9
ATOM      9  C   UNL     1      21.331 -13.197  43.492  1.00  0.00    -0.000 C 
BRANCH   9  10
ATOM     10  C   UNL     1      20.656 -14.345  44.251  1.00  0.00    -0.003 C 
ATOM     11  C   UNL     1      19.222 -14.555  43.773  1.00  0.00     0.004 C 
ENDBRANCH   9  10
ENDBRANCH   8   9
ENDBRANCH   7   8
ENDBRANCH   1   7
TORSDOF 7
ENDMDL
MODEL 4
REMARK VINA RESULT:    -3.354     11.129     12.943
REMARK INTER + INTRA:          -5.253
REMARK INTER:                  -4.625
REMARK INTRA:                  -0.628
REMARK UNBOUND:                -0.526
REMARK SMILES CCCCCCCCC(=O)[O-]
REMARK SMILES IDX 6 1 7 2 8 3 9 4 10 5 11 6 5 7 4 8 3 9 2 10 1 11
REMARK H PARENT
REMARK Flexibility Score: inf
ROOT
ATOM      1  C   UNL     1      22.804 -12.579  44.112  1.00  0.00     0.000 C 
ENDROOT
BRANCH   1   2
ATOM      2  C   UNL     1      22.050 -11.552  44.970  1.00  0.00     0.006 C 
BRANCH   2   3
ATOM      3  C   UNL     1      22.094 -10.163  44.325  1.00  0.00     0.053 C 
BRANCH   3   4
ATOM      4  C   UNL     1      20.722  -9.571  44.261  1.00  0.00     0.041 C 
ATOM      5  O   UNL     1      19.741 -10.188  44.754  1.00  0.00    -0.550 OA
ATOM      6  O   UNL     1      20.532  -8.313  43.701  1.00  0.00    -0.550 OA
ENDBRANCH   3   4
ENDBRANCH   2   3
ENDBRANCH   1   2
BRANCH   1   7
ATOM      7  C   UNL     1      21.861 -13.573  43.413  1.00  0.00     0.000 C 
BRANCH   7   8
ATOM      8  C   UNL     1      20.445 -13.562  44.006  1.00  0.00    -0.000 C 
BRANCH   8   9
ATOM      9  C   UNL     1      20.056 -14.952  44.525  1.00  0.00    -0.000 C 
BRANCH   9  10
ATOM     10  C   UNL     1      20.072 -14.992  46.058  1.00  0.00    -0.003 C 
ATOM     11  C   UNL     1      19.572 -13.678  46.649  1.00  0.00     0.004 C 
ENDBRANCH   9  10
ENDBRANCH   8   9
ENDBRANCH   7   8
ENDBRANCH   1   7
TORSDOF 7
ENDMDL
MODEL 5
REMARK VINA RESULT:    -3.345      2.226      4.815
REMARK INTER + INTRA:          -5.240
REMARK INTER:                  -4.651
REMARK INTRA:                  -0.589
REMARK UNBOUND:                -0.526
REMARK SMILES CCCCCCCCC(=O)[O-]
REMARK SMILES IDX 6 1 7 2 8 3 9 4 10 5 11 6 5 7 4 8 3 9 2 10 1 11
REMARK H PARENT
REMARK Flexibility Score: inf
ROOT
ATOM      1  C   UNL     1      29.122  -0.744  46.167  1.00  0.00     0.000 C 
ENDROOT
BRANCH   1   2
ATOM      2  C   UNL     1      27.979  -1.574  45.562  1.00  0.00     0.006 C 
BRANCH   2   3
ATOM      3  C   UNL     1      27.113  -2.195  46.662  1.00  0.00     0.053 C 
BRANCH   3   4
ATOM      4  C   UNL     1      27.466  -3.636  46.856  1.00  0.00     0.041 C 
ATOM      5  O   UNL     1      28.390  -4.159  46.178  1.00  0.00    -0.550 OA
ATOM      6  O   UNL     1      26.808  -4.390  47.820  1.00  0.00    -0.550 OA
ENDBRANCH   3   4
ENDBRANCH   2   3
ENDBRANCH   1   2
BRANCH   1   7
ATOM      7  C   UNL     1      30.510  -1.270  45.768  1.00  0.00     0.000 C 
BRANCH   7   8
ATOM      8  C   UNL     1      30.524  -1.902  44.368  1.00  0.00    -0.000 C 
BRANCH   8   9
ATOM      9  C   UNL     1      31.475  -1.144  43.433  1.00  0.00    -0.000 C 
BRANCH   9  10
ATOM     10  C   UNL     1      30.782  -0.789  42.113  1.00  0.00    -0.003 C 
ATOM     11  C   UNL     1      29.283  -1.064  42.185  1.00  0.00     0.004 C 
ENDBRANCH   9  10
ENDBRANCH   8   9
ENDBRANCH   7   8
ENDBRANCH   1   7
TORSDOF 7
ENDMDL
MODEL 6
REMARK VINA RESULT:    -3.335     11.801     13.809
REMARK INTER + INTRA:          -5.227
REMARK INTER:                  -4.653
REMARK INTRA:                  -0.574
REMARK UNBOUND:                -0.526
REMARK SMILES CCCCCCCCC(=O)[O-]
REMARK SMILES IDX 6 1 7 2 8 3 9 4 10 5 11 6 5 7 4 8 3 9 2 10 1 11
REMARK H PARENT
REMARK Flexibility Score: inf
ROOT
ATOM      1  C   UNL     1      21.581 -12.874  43.356  1.00  0.00     0.000 C 
ENDROOT
BRANCH   1   2
ATOM      2  C   UNL     1      21.225 -14.351  43.584  1.00  0.00     0.006 C 
BRANCH   2   3
ATOM      3  C   UNL     1      19.864 -14.484  44.273  1.00  0.00     0.053 C 
BRANCH   3   4
ATOM      4  C   UNL     1      20.039 -14.835  45.717  1.00  0.00     0.041 C 
ATOM      5  O   UNL     1      20.408 -15.992  46.048  1.00  0.00    -0.550 OA
ATOM      6  O   UNL     1      19.842 -13.869  46.697  1.00  0.00    -0.550 OA
ENDBRANCH   3   4
ENDBRANCH   2   3
ENDBRANCH   1   2
BRANCH   1   7
ATOM      7  C   UNL     1      22.638 -12.359  44.347  1.00  0.00     0.000 C 
BRANCH   7   8
ATOM      8  C   UNL     1      22.028 -11.513  45.474  1.00  0.00    -0.000 C 
BRANCH   8   9
ATOM      9  C   UNL     1      20.958 -10.559  44.928  1.00  0.00    -0.000 C 
BRANCH   9  10
ATOM     10  C   UNL     1      21.595  -9.415  44.132  1.00  0.00    -0.003 C 
ATOM     11  C   UNL     1      20.910  -9.235  42.781  1.00  0.00     0.004 C 
ENDBRANCH   9  10
ENDBRANCH   8   9
ENDBRANCH   7   8
ENDBRANCH   1   7
TORSDOF 7
ENDMDL
MODEL 7
REMARK VINA RESULT:    -3.233      9.799     11.522
REMARK INTER + INTRA:          -5.083
REMARK INTER:                  -4.594
REMARK INTRA:                  -0.489
REMARK UNBOUND:                -0.526
REMARK SMILES CCCCCCCCC(=O)[O-]
REMARK SMILES IDX 6 1 7 2 8 3 9 4 10 5 11 6 5 7 4 8 3 9 2 10 1 11
REMARK H PARENT
REMARK Flexibility Score: inf
ROOT
ATOM      1  C   UNL     1      21.845 -10.310  44.578  1.00  0.00     0.000 C 
ENDROOT
BRANCH   1   2
ATOM      2  C   UNL     1      20.652  -9.529  44.008  1.00  0.00     0.006 C 
BRANCH   2   3
ATOM      3  C   UNL     1      20.987  -8.943  42.633  1.00  0.00     0.053 C 
BRANCH   3   4
ATOM      4  C   UNL     1      21.424  -7.518  42.763  1.00  0.00     0.041 C 
ATOM      5  O   UNL     1      20.713  -6.693  43.394  1.00  0.00    -0.550 OA
ATOM      6  O   UNL     1      22.640  -7.112  42.227  1.00  0.00    -0.550 OA
ENDBRANCH   3   4
ENDBRANCH   2   3
ENDBRANCH   1   2
BRANCH   1   7
ATOM      7  C   UNL     1      21.438 -11.278  45.700  1.00  0.00     0.000 C 
BRANCH   7   8
ATOM      8  C   UNL     1      21.863 -12.726  45.416  1.00  0.00    -0.000 C 
BRANCH   8   9
ATOM      9  C   UNL     1      22.502 -12.848  44.028  1.00  0.00    -0.000 C 
BRANCH   9  10
ATOM     10  C   UNL     1      21.654 -13.732  43.106  1.00  0.00    -0.003 C 
ATOM     11  C   UNL     1      20.392 -14.216  43.814  1.00  0.00     0.004 C 
ENDBRANCH   9  10
ENDBRANCH   8   9
ENDBRANCH   7   8
ENDBRANCH   1   7
TORSDOF 7
ENDMDL
MODEL 8
REMARK VINA RESULT:    -3.189      2.852      3.213
REMARK INTER + INTRA:          -5.020
REMARK INTER:                  -4.720
REMARK INTRA:                  -0.300
REMARK UNBOUND:                -0.526
REMARK SMILES CCCCCCCCC(=O)[O-]
REMARK SMILES IDX 6 1 7 2 8 3 9 4 10 5 11 6 5 7 4 8 3 9 2 10 1 11
REMARK H PARENT
REMARK Flexibility Score: inf
ROOT
ATOM      1  C   UNL     1      30.889  -2.217  44.851  1.00  0.00     0.000 C 
ENDROOT
BRANCH   1   2
ATOM      2  C   UNL     1      31.711  -0.983  44.449  1.00  0.00     0.006 C 
BRANCH   2   3
ATOM      3  C   UNL     1      31.822  -0.872  42.926  1.00  0.00     0.053 C 
BRANCH   3   4
ATOM      4  C   UNL     1      33.126  -0.251  42.539  1.00  0.00     0.041 C 
ATOM      5  O   UNL     1      33.204   0.990  42.344  1.00  0.00    -0.550 OA
ATOM      6  O   UNL     1      34.269  -1.036  42.441  1.00  0.00    -0.550 OA
ENDBRANCH   3   4
ENDBRANCH   2   3
ENDBRANCH   1   2
BRANCH   1   7
ATOM      7  C   UNL     1      30.102  -2.005  46.155  1.00  0.00     0.000 C 
BRANCH   7   8
ATOM      8  C   UNL     1      28.847  -1.142  45.955  1.00  0.00    -0.000 C 
BRANCH   8   9
ATOM      9  C   UNL     1      27.580  -2.007  45.954  1.00  0.00    -0.000 C 
BRANCH   9  10
ATOM     10  C   UNL     1      27.819  -3.335  46.681  1.00  0.00    -0.003 C 
ATOM     11  C   UNL     1      26.712  -3.618  47.691  1.00  0.00     0.004 C 
ENDBRANCH   9  10
ENDBRANCH   8   9
ENDBRANCH   7   8
ENDBRANCH   1   7
TORSDOF 7
ENDMDL
MODEL 9
REMARK VINA RESULT:    -3.144     12.664     13.676
REMARK INTER + INTRA:          -4.957
REMARK INTER:                  -4.414
REMARK INTRA:                  -0.543
REMARK UNBOUND:                -0.526
REMARK SMILES CCCCCCCCC(=O)[O-]
REMARK SMILES IDX 6 1 7 2 8 3 9 4 10 5 11 6 5 7 4 8 3 9 2 10 1 11
REMARK H PARENT
REMARK Flexibility Score: inf
ROOT
ATOM      1  C   UNL     1      21.727 -11.780  44.215  1.00  0.00     0.000 C 
ENDROOT
BRANCH   1   2
ATOM      2  C   UNL     1      22.214 -13.169  43.774  1.00  0.00     0.006 C 
BRANCH   2   3
ATOM      3  C   UNL     1      21.404 -13.678  42.579  1.00  0.00     0.053 C 
BRANCH   3   4
ATOM      4  C   UNL     1      19.984 -13.930  42.977  1.00  0.00     0.041 C 
ATOM      5  O   UNL     1      19.049 -13.285  42.434  1.00  0.00    -0.550 OA
ATOM      6  O   UNL     1      19.688 -14.913  43.914  1.00  0.00    -0.550 OA
ENDBRANCH   3   4
ENDBRANCH   2   3
ENDBRANCH   1   2
BRANCH   1   7
ATOM      7  C   UNL     1      21.581 -11.661  45.741  1.00  0.00     0.000 C 
BRANCH   7   8
ATOM      8  C   UNL     1      21.043 -12.947  46.386  1.00  0.00    -0.000 C 
BRANCH   8   9
ATOM      9  C   UNL     1      19.675 -12.704  47.037  1.00  0.00    -0.000 C 
BRANCH   9  10
ATOM     10  C   UNL     1      19.482 -11.221  47.375  1.00  0.00    -0.003 C 
ATOM     11  C   UNL     1      19.270 -11.019  48.872  1.00  0.00     0.004 C 
ENDBRANCH   9  10
ENDBRANCH   8   9
ENDBRANCH   7   8
ENDBRANCH   1   7
TORSDOF 7
ENDMDL
