MODEL 1
REMARK VINA RESULT:    -5.831      0.000      0.000
REMARK INTER + INTRA:          -6.727
REMARK INTER:                  -6.512
REMARK INTRA:                  -0.215
REMARK UNBOUND:                -0.215
REMARK SMILES CC(C)c1ccc(C(=O)[O-])cc1
REMARK SMILES IDX 7 1 6 2 11 3 5 4 12 5 4 6 8 7 9 8 10 9 2 10 1 11 3 12
REMARK H PARENT
REMARK Flexibility Score: inf
ROOT
ATOM      1  C   UNL     1      13.882 -32.231  21.858  1.00  0.00    -0.003 A 
ATOM      2  C   UNL     1      12.917 -31.468  21.181  1.00  0.00     0.010 A 
ATOM      3  C   UNL     1      14.250 -31.858  23.163  1.00  0.00     0.010 A 
ATOM      4  C   UNL     1      12.332 -30.356  21.793  1.00  0.00     0.004 A 
ATOM      5  C   UNL     1      13.665 -30.747  23.776  1.00  0.00     0.004 A 
ATOM      6  C   UNL     1      12.700 -29.983  23.098  1.00  0.00    -0.045 A 
ENDROOT
BRANCH   1   7
ATOM      7  C   UNL     1      14.498 -33.407  21.207  1.00  0.00     0.071 C 
ATOM      8  O   UNL     1      15.297 -34.146  21.841  1.00  0.00    -0.545 OA
ATOM      9  O   UNL     1      14.205 -33.713  19.883  1.00  0.00    -0.545 OA
ENDBRANCH   1   7
BRANCH   6  10
ATOM     10  C   UNL     1      12.073 -28.778  23.776  1.00  0.00     0.013 C 
ATOM     11  C   UNL     1      10.876 -28.254  22.975  1.00  0.00     0.012 C 
ATOM     12  C   UNL     1      13.110 -27.672  24.006  1.00  0.00     0.012 C 
ENDBRANCH   6  10
TORSDOF 2
ENDMDL
MODEL 2
REMARK VINA RESULT:    -5.787      0.111      1.682
REMARK INTER + INTRA:          -6.679
REMARK INTER:                  -6.462
REMARK INTRA:                  -0.217
REMARK UNBOUND:                -0.215
REMARK SMILES CC(C)c1ccc(C(=O)[O-])cc1
REMARK SMILES IDX 7 1 6 2 11 3 5 4 12 5 4 6 8 7 9 8 10 9 2 10 1 11 3 12
REMARK H PARENT
REMARK Flexibility Score: inf
ROOT
ATOM      1  C   UNL     1      13.900 -32.160  21.877  1.00  0.00    -0.003 A 
ATOM      2  C   UNL     1      14.324 -31.779  23.160  1.00  0.00     0.010 A 
ATOM      3  C   UNL     1      12.879 -31.422  21.252  1.00  0.00     0.010 A 
ATOM      4  C   UNL     1      13.741 -30.685  23.807  1.00  0.00     0.004 A 
ATOM      5  C   UNL     1      12.296 -30.329  21.896  1.00  0.00     0.004 A 
ATOM      6  C   UNL     1      12.720 -29.947  23.181  1.00  0.00    -0.045 A 
ENDROOT
BRANCH   1   7
ATOM      7  C   UNL     1      14.520 -33.318  21.197  1.00  0.00     0.071 C 
ATOM      8  O   UNL     1      14.221 -33.598  20.006  1.00  0.00    -0.545 OA
ATOM      9  O   UNL     1      15.442 -34.115  21.865  1.00  0.00    -0.545 OA
ENDBRANCH   1   7
BRANCH   6  10
ATOM     10  C   UNL     1      12.077 -28.756  23.870  1.00  0.00     0.013 C 
ATOM     11  C   UNL     1      10.876 -28.239  23.071  1.00  0.00     0.012 C 
ATOM     12  C   UNL     1      13.101 -27.641  24.111  1.00  0.00     0.012 C 
ENDBRANCH   6  10
TORSDOF 2
ENDMDL
MODEL 3
REMARK VINA RESULT:    -5.369      2.836      5.073
REMARK INTER + INTRA:          -6.212
REMARK INTER:                  -5.997
REMARK INTRA:                  -0.215
REMARK UNBOUND:                -0.215
REMARK SMILES CC(C)c1ccc(C(=O)[O-])cc1
REMARK SMILES IDX 7 1 6 2 11 3 5 4 12 5 4 6 8 7 9 8 10 9 2 10 1 11 3 12
REMARK H PARENT
REMARK Flexibility Score: inf
ROOT
ATOM      1  C   UNL     1      12.943 -30.516  22.904  1.00  0.00    -0.003 A 
ATOM      2  C   UNL     1      12.939 -30.850  21.540  1.00  0.00     0.010 A 
ATOM      3  C   UNL     1      13.612 -31.359  23.808  1.00  0.00     0.010 A 
ATOM      4  C   UNL     1      13.589 -32.002  21.088  1.00  0.00     0.004 A 
ATOM      5  C   UNL     1      14.261 -32.511  23.358  1.00  0.00     0.004 A 
ATOM      6  C   UNL     1      14.257 -32.846  21.993  1.00  0.00    -0.045 A 
ENDROOT
BRANCH   1   7
ATOM      7  C   UNL     1      12.255 -29.295  23.377  1.00  0.00     0.071 C 
ATOM      8  O   UNL     1      12.757 -28.589  24.291  1.00  0.00    -0.545 OA
ATOM      9  O   UNL     1      11.041 -28.909  22.819  1.00  0.00    -0.545 OA
ENDBRANCH   1   7
BRANCH   6  10
ATOM     10  C   UNL     1      14.967 -34.101  21.518  1.00  0.00     0.013 C 
ATOM     11  C   UNL     1      16.414 -34.142  22.023  1.00  0.00     0.012 C 
ATOM     12  C   UNL     1      14.913 -34.221  19.990  1.00  0.00     0.012 C 
ENDBRANCH   6  10
TORSDOF 2
ENDMDL
MODEL 4
REMARK VINA RESULT:    -5.290      2.704      5.333
REMARK INTER + INTRA:          -6.124
REMARK INTER:                  -5.905
REMARK INTRA:                  -0.219
REMARK UNBOUND:                -0.215
REMARK SMILES CC(C)c1ccc(C(=O)[O-])cc1
REMARK SMILES IDX 7 1 6 2 11 3 5 4 12 5 4 6 8 7 9 8 10 9 2 10 1 11 3 12
REMARK H PARENT
REMARK Flexibility Score: inf
ROOT
ATOM      1  C   UNL     1      13.129 -31.002  22.645  1.00  0.00    -0.003 A 
ATOM      2  C   UNL     1      13.858 -31.807  23.536  1.00  0.00     0.010 A 
ATOM      3  C   UNL     1      13.100 -31.349  21.283  1.00  0.00     0.010 A 
ATOM      4  C   UNL     1      14.545 -32.934  23.075  1.00  0.00     0.004 A 
ATOM      5  C   UNL     1      13.786 -32.475  20.822  1.00  0.00     0.004 A 
ATOM      6  C   UNL     1      14.517 -33.280  21.713  1.00  0.00    -0.045 A 
ENDROOT
BRANCH   1   7
ATOM      7  C   UNL     1      12.403 -29.811  23.137  1.00  0.00     0.071 C 
ATOM      8  O   UNL     1      12.817 -29.178  24.144  1.00  0.00    -0.545 OA
ATOM      9  O   UNL     1      11.251 -29.373  22.494  1.00  0.00    -0.545 OA
ENDBRANCH   1   7
BRANCH   6  10
ATOM     10  C   UNL     1      15.257 -34.502  21.198  1.00  0.00     0.013 C 
ATOM     11  C   UNL     1      16.561 -34.724  21.972  1.00  0.00     0.012 C 
ATOM     12  C   UNL     1      15.522 -34.392  19.691  1.00  0.00     0.012 C 
ENDBRANCH   6  10
TORSDOF 2
ENDMDL
MODEL 5
REMARK VINA RESULT:    -5.185      3.386      5.127
REMARK INTER + INTRA:          -6.006
REMARK INTER:                  -5.802
REMARK INTRA:                  -0.204
REMARK UNBOUND:                -0.215
REMARK SMILES CC(C)c1ccc(C(=O)[O-])cc1
REMARK SMILES IDX 7 1 6 2 11 3 5 4 12 5 4 6 8 7 9 8 10 9 2 10 1 11 3 12
REMARK H PARENT
REMARK Flexibility Score: inf
ROOT
ATOM      1  C   UNL     1      13.478 -29.051  23.193  1.00  0.00    -0.003 A 
ATOM      2  C   UNL     1      14.399 -29.061  22.133  1.00  0.00     0.010 A 
ATOM      3  C   UNL     1      13.127 -30.269  23.799  1.00  0.00     0.010 A 
ATOM      4  C   UNL     1      14.956 -30.263  21.687  1.00  0.00     0.004 A 
ATOM      5  C   UNL     1      13.683 -31.471  23.355  1.00  0.00     0.004 A 
ATOM      6  C   UNL     1      14.604 -31.482  22.294  1.00  0.00    -0.045 A 
ENDROOT
BRANCH   1   7
ATOM      7  C   UNL     1      12.891 -27.777  23.661  1.00  0.00     0.071 C 
ATOM      8  O   UNL     1      13.547 -27.006  24.411  1.00  0.00    -0.545 OA
ATOM      9  O   UNL     1      11.605 -27.412  23.281  1.00  0.00    -0.545 OA
ENDBRANCH   1   7
BRANCH   6  10
ATOM     10  C   UNL     1      15.202 -32.796  21.821  1.00  0.00     0.013 C 
ATOM     11  C   UNL     1      14.389 -33.389  20.665  1.00  0.00     0.012 C 
ATOM     12  C   UNL     1      15.325 -33.794  22.979  1.00  0.00     0.012 C 
ENDBRANCH   6  10
TORSDOF 2
ENDMDL
MODEL 6
REMARK VINA RESULT:    -5.135      3.376      5.296
REMARK INTER + INTRA:          -5.951
REMARK INTER:                  -5.745
REMARK INTRA:                  -0.206
REMARK UNBOUND:                -0.215
REMARK SMILES CC(C)c1ccc(C(=O)[O-])cc1
REMARK SMILES IDX 7 1 6 2 11 3 5 4 12 5 4 6 8 7 9 8 10 9 2 10 1 11 3 12
REMARK H PARENT
REMARK Flexibility Score: inf
ROOT
ATOM      1  C   UNL     1      13.539 -29.183  23.181  1.00  0.00    -0.003 A 
ATOM      2  C   UNL     1      13.231 -30.440  23.727  1.00  0.00     0.010 A 
ATOM      3  C   UNL     1      14.514 -29.102  22.172  1.00  0.00     0.010 A 
ATOM      4  C   UNL     1      13.883 -31.591  23.275  1.00  0.00     0.004 A 
ATOM      5  C   UNL     1      15.166 -30.251  21.719  1.00  0.00     0.004 A 
ATOM      6  C   UNL     1      14.859 -31.509  22.266  1.00  0.00    -0.045 A 
ENDROOT
BRANCH   1   7
ATOM      7  C   UNL     1      12.845 -27.968  23.661  1.00  0.00     0.071 C 
ATOM      8  O   UNL     1      13.466 -27.095  24.324  1.00  0.00    -0.545 OA
ATOM      9  O   UNL     1      11.496 -27.773  23.388  1.00  0.00    -0.545 OA
ENDBRANCH   1   7
BRANCH   6  10
ATOM     10  C   UNL     1      15.576 -32.750  21.765  1.00  0.00     0.013 C 
ATOM     11  C   UNL     1      16.866 -32.381  21.024  1.00  0.00     0.012 C 
ATOM     12  C   UNL     1      14.655 -33.599  20.880  1.00  0.00     0.012 C 
ENDBRANCH   6  10
TORSDOF 2
ENDMDL
MODEL 7
REMARK VINA RESULT:    -5.127      1.579      2.378
REMARK INTER + INTRA:          -5.942
REMARK INTER:                  -5.732
REMARK INTRA:                  -0.210
REMARK UNBOUND:                -0.215
REMARK SMILES CC(C)c1ccc(C(=O)[O-])cc1
REMARK SMILES IDX 7 1 6 2 11 3 5 4 12 5 4 6 8 7 9 8 10 9 2 10 1 11 3 12
REMARK H PARENT
REMARK Flexibility Score: inf
ROOT
ATOM      1  C   UNL     1      15.083 -33.935  21.374  1.00  0.00    -0.003 A 
ATOM      2  C   UNL     1      14.294 -33.208  20.468  1.00  0.00     0.010 A 
ATOM      3  C   UNL     1      15.088 -33.555  22.728  1.00  0.00     0.010 A 
ATOM      4  C   UNL     1      13.526 -32.124  20.905  1.00  0.00     0.004 A 
ATOM      5  C   UNL     1      14.322 -32.472  23.165  1.00  0.00     0.004 A 
ATOM      6  C   UNL     1      13.532 -31.744  22.259  1.00  0.00    -0.045 A 
ENDROOT
BRANCH   1   7
ATOM      7  C   UNL     1      15.893 -35.081  20.908  1.00  0.00     0.071 C 
ATOM      8  O   UNL     1      15.645 -35.635  19.804  1.00  0.00    -0.545 OA
ATOM      9  O   UNL     1      16.941 -35.565  21.684  1.00  0.00    -0.545 OA
ENDBRANCH   1   7
BRANCH   6  10
ATOM     10  C   UNL     1      12.704 -30.570  22.748  1.00  0.00     0.013 C 
ATOM     11  C   UNL     1      11.444 -30.388  21.893  1.00  0.00     0.012 C 
ATOM     12  C   UNL     1      13.537 -29.283  22.782  1.00  0.00     0.012 C 
ENDBRANCH   6  10
TORSDOF 2
ENDMDL
MODEL 8
REMARK VINA RESULT:    -5.087      2.802      4.298
REMARK INTER + INTRA:          -5.897
REMARK INTER:                  -5.681
REMARK INTRA:                  -0.216
REMARK UNBOUND:                -0.215
REMARK SMILES CC(C)c1ccc(C(=O)[O-])cc1
REMARK SMILES IDX 7 1 6 2 11 3 5 4 12 5 4 6 8 7 9 8 10 9 2 10 1 11 3 12
REMARK H PARENT
REMARK Flexibility Score: inf
ROOT
ATOM      1  C   UNL     1      16.311 -35.351  20.836  1.00  0.00    -0.003 A 
ATOM      2  C   UNL     1      15.246 -34.744  20.150  1.00  0.00     0.010 A 
ATOM      3  C   UNL     1      16.698 -34.834  22.084  1.00  0.00     0.010 A 
ATOM      4  C   UNL     1      14.582 -33.644  20.700  1.00  0.00     0.004 A 
ATOM      5  C   UNL     1      16.035 -33.735  22.635  1.00  0.00     0.004 A 
ATOM      6  C   UNL     1      14.969 -33.127  21.949  1.00  0.00    -0.045 A 
ENDROOT
BRANCH   1   7
ATOM      7  C   UNL     1      17.010 -36.516  20.251  1.00  0.00     0.071 C 
ATOM      8  O   UNL     1      17.009 -36.705  19.005  1.00  0.00    -0.545 OA
ATOM      9  O   UNL     1      17.679 -37.419  21.068  1.00  0.00    -0.545 OA
ENDBRANCH   1   7
BRANCH   6  10
ATOM     10  C   UNL     1      14.257 -31.933  22.559  1.00  0.00     0.013 C 
ATOM     11  C   UNL     1      13.696 -32.272  23.945  1.00  0.00     0.012 C 
ATOM     12  C   UNL     1      13.153 -31.414  21.629  1.00  0.00     0.012 C 
ENDBRANCH   6  10
TORSDOF 2
ENDMDL
MODEL 9
REMARK VINA RESULT:    -4.949      2.179      3.263
REMARK INTER + INTRA:          -5.743
REMARK INTER:                  -5.538
REMARK INTRA:                  -0.205
REMARK UNBOUND:                -0.215
REMARK SMILES CC(C)c1ccc(C(=O)[O-])cc1
REMARK SMILES IDX 7 1 6 2 11 3 5 4 12 5 4 6 8 7 9 8 10 9 2 10 1 11 3 12
REMARK H PARENT
REMARK Flexibility Score: inf
ROOT
ATOM      1  C   UNL     1      16.081 -32.801  23.902  1.00  0.00    -0.003 A 
ATOM      2  C   UNL     1      16.454 -31.500  23.527  1.00  0.00     0.010 A 
ATOM      3  C   UNL     1      14.718 -33.143  23.902  1.00  0.00     0.010 A 
ATOM      4  C   UNL     1      15.485 -30.560  23.161  1.00  0.00     0.004 A 
ATOM      5  C   UNL     1      13.749 -32.205  23.536  1.00  0.00     0.004 A 
ATOM      6  C   UNL     1      14.122 -30.903  23.161  1.00  0.00    -0.045 A 
ENDROOT
BRANCH   1   7
ATOM      7  C   UNL     1      17.109 -33.791  24.288  1.00  0.00     0.071 C 
ATOM      8  O   UNL     1      17.807 -33.621  25.322  1.00  0.00    -0.545 OA
ATOM      9  O   UNL     1      17.320 -34.925  23.512  1.00  0.00    -0.545 OA
ENDBRANCH   1   7
BRANCH   6  10
ATOM     10  C   UNL     1      13.058 -29.894  22.766  1.00  0.00     0.013 C 
ATOM     11  C   UNL     1      12.567 -29.103  23.983  1.00  0.00     0.012 C 
ATOM     12  C   UNL     1      11.891 -30.577  22.044  1.00  0.00     0.012 C 
ENDBRANCH   6  10
TORSDOF 2
ENDMDL
