MODEL 1
REMARK VINA RESULT:    -7.395      0.000      0.000
REMARK INTER + INTRA:          -9.509
REMARK INTER:                  -9.124
REMARK INTRA:                  -0.384
REMARK UNBOUND:                -0.384
REMARK SMILES Oc1cc(O)c2cc(O)c(-c3cc(O)c(O)c(O)c3)[o+]c2c1
REMARK SMILES IDX 10 1 20 2 21 3 22 4 2 5 3 6 4 7 6 8 7 9 8 10 11 11 12 12
REMARK SMILES IDX 13 13 19 14 15 15 17 16 14 17 16 19 18 21 9 23 1 25 5 27
REMARK H PARENT 14 18 16 20 18 22 9 24 1 26 5 28
REMARK Flexibility Score: inf
ROOT
ATOM      1  C   UNL     1      25.031 -26.549  27.284  1.00  0.00     0.402 A 
ATOM      2  O   UNL     1      26.116 -27.219  27.662  1.00  0.00    -0.202 OA
ATOM      3  C   UNL     1      26.246 -27.786  28.857  1.00  0.00     0.368 A 
ATOM      4  C   UNL     1      27.425 -28.472  29.161  1.00  0.00     0.162 A 
ATOM      5  C   UNL     1      27.587 -29.079  30.406  1.00  0.00     0.128 A 
ATOM      6  C   UNL     1      26.563 -29.002  31.357  1.00  0.00     0.093 A 
ATOM      7  C   UNL     1      25.372 -28.321  31.077  1.00  0.00     0.136 A 
ATOM      8  C   UNL     1      25.205 -27.700  29.813  1.00  0.00     0.125 A 
ATOM      9  C   UNL     1      24.052 -26.985  29.450  1.00  0.00     0.078 A 
ATOM     10  C   UNL     1      23.961 -26.395  28.186  1.00  0.00     0.223 A 
ENDROOT
BRANCH   1  11
ATOM     11  C   UNL     1      25.003 -25.971  25.921  1.00  0.00     0.091 A 
ATOM     12  C   UNL     1      24.501 -26.697  24.828  1.00  0.00     0.068 A 
ATOM     13  C   UNL     1      24.505 -26.141  23.542  1.00  0.00     0.162 A 
ATOM     14  C   UNL     1      25.540 -24.693  25.704  1.00  0.00     0.068 A 
ATOM     15  C   UNL     1      25.024 -24.851  23.336  1.00  0.00     0.200 A 
ATOM     16  C   UNL     1      25.545 -24.129  24.424  1.00  0.00     0.162 A 
BRANCH  13  17
ATOM     17  O   UNL     1      23.998 -26.868  22.465  1.00  0.00    -0.504 OA
ATOM     18  H   UNL     1      23.183 -26.557  21.950  1.00  0.00     0.293 HD
ENDBRANCH  13  17
BRANCH  15  19
ATOM     19  O   UNL     1      25.030 -24.280  22.063  1.00  0.00    -0.502 OA
ATOM     20  H   UNL     1      25.498 -23.403  21.867  1.00  0.00     0.293 HD
ENDBRANCH  15  19
BRANCH  16  21
ATOM     21  O   UNL     1      26.075 -22.850  24.252  1.00  0.00    -0.504 OA
ATOM     22  H   UNL     1      25.675 -22.184  23.602  1.00  0.00     0.293 HD
ENDBRANCH  16  21
ENDBRANCH   1  11
BRANCH  10  23
ATOM     23  O   UNL     1      22.836 -25.644  27.843  1.00  0.00    -0.500 OA
ATOM     24  H   UNL     1      22.182 -25.957  27.135  1.00  0.00     0.294 HD
ENDBRANCH  10  23
BRANCH   5  25
ATOM     25  O   UNL     1      28.770 -29.758  30.689  1.00  0.00    -0.507 OA
ATOM     26  H   UNL     1      29.024 -30.606  30.197  1.00  0.00     0.293 HD
ENDBRANCH   5  25
BRANCH   7  27
ATOM     27  O   UNL     1      24.397 -28.292  32.078  1.00  0.00    -0.507 OA
ATOM     28  H   UNL     1      24.511 -27.842  32.975  1.00  0.00     0.293 HD
ENDBRANCH   7  27
TORSDOF 7
ENDMDL
MODEL 2
REMARK VINA RESULT:    -7.355      0.575      1.870
REMARK INTER + INTRA:          -9.460
REMARK INTER:                  -9.079
REMARK INTRA:                  -0.380
REMARK UNBOUND:                -0.384
REMARK SMILES Oc1cc(O)c2cc(O)c(-c3cc(O)c(O)c(O)c3)[o+]c2c1
REMARK SMILES IDX 10 1 20 2 21 3 22 4 2 5 3 6 4 7 6 8 7 9 8 10 11 11 12 12
REMARK SMILES IDX 13 13 19 14 15 15 17 16 14 17 16 19 18 21 9 23 1 25 5 27
REMARK H PARENT 14 18 16 20 18 22 9 24 1 26 5 28
REMARK Flexibility Score: inf
ROOT
ATOM      1  C   UNL     1      24.830 -26.631  27.213  1.00  0.00     0.402 A 
ATOM      2  O   UNL     1      25.856 -27.347  27.664  1.00  0.00    -0.202 OA
ATOM      3  C   UNL     1      25.963 -27.756  28.925  1.00  0.00     0.368 A 
ATOM      4  C   UNL     1      27.078 -28.507  29.304  1.00  0.00     0.162 A 
ATOM      5  C   UNL     1      27.216 -28.952  30.619  1.00  0.00     0.128 A 
ATOM      6  C   UNL     1      26.231 -28.644  31.565  1.00  0.00     0.093 A 
ATOM      7  C   UNL     1      25.104 -27.893  31.210  1.00  0.00     0.136 A 
ATOM      8  C   UNL     1      24.962 -27.437  29.874  1.00  0.00     0.125 A 
ATOM      9  C   UNL     1      23.873 -26.667  29.432  1.00  0.00     0.078 A 
ATOM     10  C   UNL     1      23.805 -26.250  28.100  1.00  0.00     0.223 A 
ENDROOT
BRANCH   1  11
ATOM     11  C   UNL     1      24.820 -26.244  25.784  1.00  0.00     0.091 A 
ATOM     12  C   UNL     1      25.401 -25.041  25.347  1.00  0.00     0.068 A 
ATOM     13  C   UNL     1      25.360 -24.682  23.993  1.00  0.00     0.162 A 
ATOM     14  C   UNL     1      24.169 -27.066  24.852  1.00  0.00     0.068 A 
ATOM     15  C   UNL     1      24.725 -25.521  23.063  1.00  0.00     0.200 A 
ATOM     16  C   UNL     1      24.125 -26.716  23.498  1.00  0.00     0.162 A 
BRANCH  13  17
ATOM     17  O   UNL     1      25.946 -23.488  23.570  1.00  0.00    -0.504 OA
ATOM     18  H   UNL     1      25.406 -22.768  23.105  1.00  0.00     0.293 HD
ENDBRANCH  13  17
BRANCH  15  19
ATOM     19  O   UNL     1      24.680 -25.181  21.710  1.00  0.00    -0.502 OA
ATOM     20  H   UNL     1      23.960 -25.530  21.089  1.00  0.00     0.293 HD
ENDBRANCH  15  19
BRANCH  16  21
ATOM     21  O   UNL     1      23.481 -27.567  22.601  1.00  0.00    -0.504 OA
ATOM     22  H   UNL     1      23.242 -27.277  21.661  1.00  0.00     0.293 HD
ENDBRANCH  16  21
ENDBRANCH   1  11
BRANCH  10  23
ATOM     23  O   UNL     1      22.749 -25.445  27.671  1.00  0.00    -0.500 OA
ATOM     24  H   UNL     1      22.815 -24.433  27.676  1.00  0.00     0.294 HD
ENDBRANCH  10  23
BRANCH   5  25
ATOM     25  O   UNL     1      28.335 -29.700  30.978  1.00  0.00    -0.507 OA
ATOM     26  H   UNL     1      28.247 -30.581  31.470  1.00  0.00     0.293 HD
ENDBRANCH   5  25
BRANCH   7  27
ATOM     27  O   UNL     1      24.164 -27.631  32.211  1.00  0.00    -0.507 OA
ATOM     28  H   UNL     1      24.063 -28.173  33.056  1.00  0.00     0.293 HD
ENDBRANCH   7  27
TORSDOF 7
ENDMDL
MODEL 3
REMARK VINA RESULT:    -7.167      4.917      7.915
REMARK INTER + INTRA:          -9.227
REMARK INTER:                  -8.938
REMARK INTRA:                  -0.290
REMARK UNBOUND:                -0.384
REMARK SMILES Oc1cc(O)c2cc(O)c(-c3cc(O)c(O)c(O)c3)[o+]c2c1
REMARK SMILES IDX 10 1 20 2 21 3 22 4 2 5 3 6 4 7 6 8 7 9 8 10 11 11 12 12
REMARK SMILES IDX 13 13 19 14 15 15 17 16 14 17 16 19 18 21 9 23 1 25 5 27
REMARK H PARENT 14 18 16 20 18 22 9 24 1 26 5 28
REMARK Flexibility Score: inf
ROOT
ATOM      1  C   UNL     1      23.964 -21.823  26.703  1.00  0.00     0.402 A 
ATOM      2  O   UNL     1      23.167 -20.820  26.348  1.00  0.00    -0.202 OA
ATOM      3  C   UNL     1      23.250 -19.601  26.870  1.00  0.00     0.368 A 
ATOM      4  C   UNL     1      22.369 -18.610  26.431  1.00  0.00     0.162 A 
ATOM      5  C   UNL     1      22.435 -17.321  26.959  1.00  0.00     0.128 A 
ATOM      6  C   UNL     1      23.390 -17.017  27.935  1.00  0.00     0.093 A 
ATOM      7  C   UNL     1      24.286 -17.991  28.393  1.00  0.00     0.136 A 
ATOM      8  C   UNL     1      24.219 -19.305  27.860  1.00  0.00     0.125 A 
ATOM      9  C   UNL     1      25.066 -20.348  28.268  1.00  0.00     0.078 A 
ATOM     10  C   UNL     1      24.938 -21.619  27.699  1.00  0.00     0.223 A 
ENDROOT
BRANCH   1  11
ATOM     11  C   UNL     1      23.779 -23.135  26.040  1.00  0.00     0.091 A 
ATOM     12  C   UNL     1      24.139 -23.333  24.696  1.00  0.00     0.068 A 
ATOM     13  C   UNL     1      23.933 -24.575  24.080  1.00  0.00     0.162 A 
ATOM     14  C   UNL     1      23.179 -24.186  26.749  1.00  0.00     0.068 A 
ATOM     15  C   UNL     1      23.353 -25.630  24.804  1.00  0.00     0.200 A 
ATOM     16  C   UNL     1      22.973 -25.430  26.143  1.00  0.00     0.162 A 
BRANCH  13  17
ATOM     17  O   UNL     1      24.301 -24.763  22.748  1.00  0.00    -0.504 OA
ATOM     18  H   UNL     1      24.424 -23.981  22.115  1.00  0.00     0.293 HD
ENDBRANCH  13  17
BRANCH  15  19
ATOM     19  O   UNL     1      23.146 -26.875  24.207  1.00  0.00    -0.502 OA
ATOM     20  H   UNL     1      23.872 -27.580  24.165  1.00  0.00     0.293 HD
ENDBRANCH  15  19
BRANCH  16  21
ATOM     21  O   UNL     1      22.387 -26.454  26.886  1.00  0.00    -0.504 OA
ATOM     22  H   UNL     1      21.622 -26.286  27.527  1.00  0.00     0.293 HD
ENDBRANCH  16  21
ENDBRANCH   1  11
BRANCH  10  23
ATOM     23  O   UNL     1      25.746 -22.667  28.139  1.00  0.00    -0.500 OA
ATOM     24  H   UNL     1      26.206 -23.294  27.489  1.00  0.00     0.294 HD
ENDBRANCH  10  23
BRANCH   5  25
ATOM     25  O   UNL     1      21.547 -16.347  26.507  1.00  0.00    -0.507 OA
ATOM     26  H   UNL     1      21.365 -15.507  27.044  1.00  0.00     0.293 HD
ENDBRANCH   5  25
BRANCH   7  27
ATOM     27  O   UNL     1      25.212 -17.608  29.367  1.00  0.00    -0.507 OA
ATOM     28  H   UNL     1      25.206 -17.936  30.322  1.00  0.00     0.293 HD
ENDBRANCH   7  27
TORSDOF 7
ENDMDL
MODEL 4
REMARK VINA RESULT:    -7.163      4.968      7.948
REMARK INTER + INTRA:          -9.222
REMARK INTER:                  -8.916
REMARK INTRA:                  -0.307
REMARK UNBOUND:                -0.384
REMARK SMILES Oc1cc(O)c2cc(O)c(-c3cc(O)c(O)c(O)c3)[o+]c2c1
REMARK SMILES IDX 10 1 20 2 21 3 22 4 2 5 3 6 4 7 6 8 7 9 8 10 11 11 12 12
REMARK SMILES IDX 13 13 19 14 15 15 17 16 14 17 16 19 18 21 9 23 1 25 5 27
REMARK H PARENT 14 18 16 20 18 22 9 24 1 26 5 28
REMARK Flexibility Score: inf
ROOT
ATOM      1  C   UNL     1      23.836 -21.778  26.682  1.00  0.00     0.402 A 
ATOM      2  O   UNL     1      23.022 -20.780  26.353  1.00  0.00    -0.202 OA
ATOM      3  C   UNL     1      23.128 -19.555  26.857  1.00  0.00     0.368 A 
ATOM      4  C   UNL     1      22.225 -18.570  26.447  1.00  0.00     0.162 A 
ATOM      5  C   UNL     1      22.314 -17.275  26.957  1.00  0.00     0.128 A 
ATOM      6  C   UNL     1      23.313 -16.959  27.885  1.00  0.00     0.093 A 
ATOM      7  C   UNL     1      24.229 -17.927  28.311  1.00  0.00     0.136 A 
ATOM      8  C   UNL     1      24.140 -19.246  27.797  1.00  0.00     0.125 A 
ATOM      9  C   UNL     1      25.007 -20.284  28.177  1.00  0.00     0.078 A 
ATOM     10  C   UNL     1      24.854 -21.561  27.630  1.00  0.00     0.223 A 
ENDROOT
BRANCH   1  11
ATOM     11  C   UNL     1      23.623 -23.097  26.043  1.00  0.00     0.091 A 
ATOM     12  C   UNL     1      23.065 -24.173  26.755  1.00  0.00     0.068 A 
ATOM     13  C   UNL     1      22.892 -25.420  26.140  1.00  0.00     0.162 A 
ATOM     14  C   UNL     1      24.037 -23.297  24.718  1.00  0.00     0.068 A 
ATOM     15  C   UNL     1      23.289 -25.605  24.804  1.00  0.00     0.200 A 
ATOM     16  C   UNL     1      23.867 -24.538  24.095  1.00  0.00     0.162 A 
BRANCH  13  17
ATOM     17  O   UNL     1      22.331 -26.479  26.853  1.00  0.00    -0.504 OA
ATOM     18  H   UNL     1      22.600 -27.441  26.677  1.00  0.00     0.293 HD
ENDBRANCH  13  17
BRANCH  15  19
ATOM     19  O   UNL     1      23.120 -26.840  24.175  1.00  0.00    -0.502 OA
ATOM     20  H   UNL     1      23.796 -27.207  23.517  1.00  0.00     0.293 HD
ENDBRANCH  15  19
BRANCH  16  21
ATOM     21  O   UNL     1      24.278 -24.691  22.772  1.00  0.00    -0.504 OA
ATOM     22  H   UNL     1      25.013 -24.125  22.366  1.00  0.00     0.293 HD
ENDBRANCH  16  21
ENDBRANCH   1  11
BRANCH  10  23
ATOM     23  O   UNL     1      25.683 -22.604  28.044  1.00  0.00    -0.500 OA
ATOM     24  H   UNL     1      26.174 -22.575  28.930  1.00  0.00     0.294 HD
ENDBRANCH  10  23
BRANCH   5  25
ATOM     25  O   UNL     1      21.405 -16.307  26.535  1.00  0.00    -0.507 OA
ATOM     26  H   UNL     1      20.672 -16.523  25.869  1.00  0.00     0.293 HD
ENDBRANCH   5  25
BRANCH   7  27
ATOM     27  O   UNL     1      25.199 -17.532  29.237  1.00  0.00    -0.507 OA
ATOM     28  H   UNL     1      25.680 -18.160  29.865  1.00  0.00     0.293 HD
ENDBRANCH   7  27
TORSDOF 7
ENDMDL
MODEL 5
REMARK VINA RESULT:    -7.126      4.928      7.562
REMARK INTER + INTRA:          -9.177
REMARK INTER:                  -8.860
REMARK INTRA:                  -0.317
REMARK UNBOUND:                -0.384
REMARK SMILES Oc1cc(O)c2cc(O)c(-c3cc(O)c(O)c(O)c3)[o+]c2c1
REMARK SMILES IDX 10 1 20 2 21 3 22 4 2 5 3 6 4 7 6 8 7 9 8 10 11 11 12 12
REMARK SMILES IDX 13 13 19 14 15 15 17 16 14 17 16 19 18 21 9 23 1 25 5 27
REMARK H PARENT 14 18 16 20 18 22 9 24 1 26 5 28
REMARK Flexibility Score: inf
ROOT
ATOM      1  C   UNL     1      23.455 -21.436  26.883  1.00  0.00     0.402 A 
ATOM      2  O   UNL     1      23.886 -21.839  25.691  1.00  0.00    -0.202 OA
ATOM      3  C   UNL     1      23.770 -23.090  25.257  1.00  0.00     0.368 A 
ATOM      4  C   UNL     1      24.250 -23.417  23.987  1.00  0.00     0.162 A 
ATOM      5  C   UNL     1      24.140 -24.721  23.504  1.00  0.00     0.128 A 
ATOM      6  C   UNL     1      23.543 -25.708  24.296  1.00  0.00     0.093 A 
ATOM      7  C   UNL     1      23.053 -25.406  25.573  1.00  0.00     0.136 A 
ATOM      8  C   UNL     1      23.167 -24.081  26.068  1.00  0.00     0.125 A 
ATOM      9  C   UNL     1      22.716 -23.691  27.340  1.00  0.00     0.078 A 
ATOM     10  C   UNL     1      22.867 -22.366  27.761  1.00  0.00     0.223 A 
ENDROOT
BRANCH   1  11
ATOM     11  C   UNL     1      23.634 -20.012  27.248  1.00  0.00     0.091 A 
ATOM     12  C   UNL     1      24.623 -19.609  28.161  1.00  0.00     0.068 A 
ATOM     13  C   UNL     1      24.760 -18.259  28.512  1.00  0.00     0.162 A 
ATOM     14  C   UNL     1      22.762 -19.050  26.717  1.00  0.00     0.068 A 
ATOM     15  C   UNL     1      23.897 -17.298  27.957  1.00  0.00     0.200 A 
ATOM     16  C   UNL     1      22.893 -17.700  27.059  1.00  0.00     0.162 A 
BRANCH  13  17
ATOM     17  O   UNL     1      25.749 -17.869  29.414  1.00  0.00    -0.504 OA
ATOM     18  H   UNL     1      26.707 -17.717  29.120  1.00  0.00     0.293 HD
ENDBRANCH  13  17
BRANCH  15  19
ATOM     19  O   UNL     1      24.023 -15.949  28.292  1.00  0.00    -0.502 OA
ATOM     20  H   UNL     1      24.924 -15.515  28.453  1.00  0.00     0.293 HD
ENDBRANCH  15  19
BRANCH  16  21
ATOM     21  O   UNL     1      22.016 -16.772  26.498  1.00  0.00    -0.504 OA
ATOM     22  H   UNL     1      22.103 -16.459  25.539  1.00  0.00     0.293 HD
ENDBRANCH  16  21
ENDBRANCH   1  11
BRANCH  10  23
ATOM     23  O   UNL     1      22.465 -21.989  29.042  1.00  0.00    -0.500 OA
ATOM     24  H   UNL     1      21.498 -21.771  29.254  1.00  0.00     0.294 HD
ENDBRANCH  10  23
BRANCH   5  25
ATOM     25  O   UNL     1      24.625 -25.027  22.235  1.00  0.00    -0.507 OA
ATOM     26  H   UNL     1      24.512 -25.950  21.833  1.00  0.00     0.293 HD
ENDBRANCH   5  25
BRANCH   7  27
ATOM     27  O   UNL     1      22.468 -26.446  26.301  1.00  0.00    -0.507 OA
ATOM     28  H   UNL     1      22.740 -27.416  26.231  1.00  0.00     0.293 HD
ENDBRANCH   7  27
TORSDOF 7
ENDMDL
MODEL 6
REMARK VINA RESULT:    -6.894      2.935      4.512
REMARK INTER + INTRA:          -8.890
REMARK INTER:                  -8.549
REMARK INTRA:                  -0.342
REMARK UNBOUND:                -0.384
REMARK SMILES Oc1cc(O)c2cc(O)c(-c3cc(O)c(O)c(O)c3)[o+]c2c1
REMARK SMILES IDX 10 1 20 2 21 3 22 4 2 5 3 6 4 7 6 8 7 9 8 10 11 11 12 12
REMARK SMILES IDX 13 13 19 14 15 15 17 16 14 17 16 19 18 21 9 23 1 25 5 27
REMARK H PARENT 14 18 16 20 18 22 9 24 1 26 5 28
REMARK Flexibility Score: inf
ROOT
ATOM      1  C   UNL     1      26.722 -27.243  30.465  1.00  0.00     0.402 A 
ATOM      2  O   UNL     1      27.029 -26.357  31.408  1.00  0.00    -0.202 OA
ATOM      3  C   UNL     1      27.640 -26.682  32.543  1.00  0.00     0.368 A 
ATOM      4  C   UNL     1      27.924 -25.679  33.473  1.00  0.00     0.162 A 
ATOM      5  C   UNL     1      28.566 -25.989  34.672  1.00  0.00     0.128 A 
ATOM      6  C   UNL     1      28.929 -27.313  34.945  1.00  0.00     0.093 A 
ATOM      7  C   UNL     1      28.656 -28.336  34.029  1.00  0.00     0.136 A 
ATOM      8  C   UNL     1      28.000 -28.025  32.810  1.00  0.00     0.125 A 
ATOM      9  C   UNL     1      27.674 -28.987  31.840  1.00  0.00     0.078 A 
ATOM     10  C   UNL     1      27.022 -28.604  30.664  1.00  0.00     0.223 A 
ENDROOT
BRANCH   1  11
ATOM     11  C   UNL     1      26.050 -26.756  29.238  1.00  0.00     0.091 A 
ATOM     12  C   UNL     1      24.666 -26.914  29.050  1.00  0.00     0.068 A 
ATOM     13  C   UNL     1      24.053 -26.468  27.871  1.00  0.00     0.162 A 
ATOM     14  C   UNL     1      26.816 -26.176  28.216  1.00  0.00     0.068 A 
ATOM     15  C   UNL     1      24.824 -25.867  26.862  1.00  0.00     0.200 A 
ATOM     16  C   UNL     1      26.212 -25.726  27.038  1.00  0.00     0.162 A 
BRANCH  13  17
ATOM     17  O   UNL     1      22.677 -26.624  27.698  1.00  0.00    -0.504 OA
ATOM     18  H   UNL     1      22.212 -27.501  27.900  1.00  0.00     0.293 HD
ENDBRANCH  13  17
BRANCH  15  19
ATOM     19  O   UNL     1      24.228 -25.413  25.685  1.00  0.00    -0.502 OA
ATOM     20  H   UNL     1      23.765 -26.039  25.038  1.00  0.00     0.293 HD
ENDBRANCH  15  19
BRANCH  16  21
ATOM     21  O   UNL     1      27.006 -25.141  26.052  1.00  0.00    -0.504 OA
ATOM     22  H   UNL     1      26.652 -24.935  25.127  1.00  0.00     0.293 HD
ENDBRANCH  16  21
ENDBRANCH   1  11
BRANCH  10  23
ATOM     23  O   UNL     1      26.654 -29.565  29.723  1.00  0.00    -0.500 OA
ATOM     24  H   UNL     1      27.281 -29.850  28.979  1.00  0.00     0.294 HD
ENDBRANCH  10  23
BRANCH   5  25
ATOM     25  O   UNL     1      28.841 -24.975  35.586  1.00  0.00    -0.507 OA
ATOM     26  H   UNL     1      29.170 -25.181  36.523  1.00  0.00     0.293 HD
ENDBRANCH   5  25
BRANCH   7  27
ATOM     27  O   UNL     1      29.053 -29.632  34.373  1.00  0.00    -0.507 OA
ATOM     28  H   UNL     1      28.557 -30.471  34.108  1.00  0.00     0.293 HD
ENDBRANCH   7  27
TORSDOF 7
ENDMDL
MODEL 7
REMARK VINA RESULT:    -6.817      5.064      7.562
REMARK INTER + INTRA:          -8.795
REMARK INTER:                  -8.467
REMARK INTRA:                  -0.328
REMARK UNBOUND:                -0.384
REMARK SMILES Oc1cc(O)c2cc(O)c(-c3cc(O)c(O)c(O)c3)[o+]c2c1
REMARK SMILES IDX 10 1 20 2 21 3 22 4 2 5 3 6 4 7 6 8 7 9 8 10 11 11 12 12
REMARK SMILES IDX 13 13 19 14 15 15 17 16 14 17 16 19 18 21 9 23 1 25 5 27
REMARK H PARENT 14 18 16 20 18 22 9 24 1 26 5 28
REMARK Flexibility Score: inf
ROOT
ATOM      1  C   UNL     1      23.888 -21.082  26.538  1.00  0.00     0.402 A 
ATOM      2  O   UNL     1      23.394 -22.132  27.187  1.00  0.00    -0.202 OA
ATOM      3  C   UNL     1      23.456 -23.375  26.719  1.00  0.00     0.368 A 
ATOM      4  C   UNL     1      22.911 -24.415  27.475  1.00  0.00     0.162 A 
ATOM      5  C   UNL     1      22.963 -25.729  27.010  1.00  0.00     0.128 A 
ATOM      6  C   UNL     1      23.567 -26.008  25.779  1.00  0.00     0.093 A 
ATOM      7  C   UNL     1      24.122 -24.984  25.002  1.00  0.00     0.136 A 
ATOM      8  C   UNL     1      24.067 -23.645  25.470  1.00  0.00     0.125 A 
ATOM      9  C   UNL     1      24.584 -22.554  24.753  1.00  0.00     0.078 A 
ATOM     10  C   UNL     1      24.489 -21.262  25.278  1.00  0.00     0.223 A 
ENDROOT
BRANCH   1  11
ATOM     11  C   UNL     1      23.766 -19.747  27.169  1.00  0.00     0.091 A 
ATOM     12  C   UNL     1      22.806 -18.817  26.735  1.00  0.00     0.068 A 
ATOM     13  C   UNL     1      22.723 -17.551  27.329  1.00  0.00     0.162 A 
ATOM     14  C   UNL     1      24.663 -19.380  28.184  1.00  0.00     0.068 A 
ATOM     15  C   UNL     1      23.610 -17.199  28.360  1.00  0.00     0.200 A 
ATOM     16  C   UNL     1      24.585 -18.119  28.784  1.00  0.00     0.162 A 
BRANCH  13  17
ATOM     17  O   UNL     1      21.762 -16.638  26.895  1.00  0.00    -0.504 OA
ATOM     18  H   UNL     1      21.056 -16.893  26.213  1.00  0.00     0.293 HD
ENDBRANCH  13  17
BRANCH  15  19
ATOM     19  O   UNL     1      23.537 -15.944  28.966  1.00  0.00    -0.502 OA
ATOM     20  H   UNL     1      23.841 -15.099  28.497  1.00  0.00     0.293 HD
ENDBRANCH  15  19
BRANCH  16  21
ATOM     21  O   UNL     1      25.486 -17.797  29.799  1.00  0.00    -0.504 OA
ATOM     22  H   UNL     1      25.180 -17.538  30.729  1.00  0.00     0.293 HD
ENDBRANCH  16  21
ENDBRANCH   1  11
BRANCH  10  23
ATOM     23  O   UNL     1      24.958 -20.172  24.544  1.00  0.00    -0.500 OA
ATOM     24  H   UNL     1      25.845 -19.730  24.755  1.00  0.00     0.294 HD
ENDBRANCH  10  23
BRANCH   5  25
ATOM     25  O   UNL     1      22.414 -26.752  27.780  1.00  0.00    -0.507 OA
ATOM     26  H   UNL     1      22.830 -27.675  27.808  1.00  0.00     0.293 HD
ENDBRANCH   5  25
BRANCH   7  27
ATOM     27  O   UNL     1      24.709 -25.344  23.786  1.00  0.00    -0.507 OA
ATOM     28  H   UNL     1      24.424 -24.987  22.886  1.00  0.00     0.293 HD
ENDBRANCH   7  27
TORSDOF 7
ENDMDL
MODEL 8
REMARK VINA RESULT:    -6.801      1.512      7.151
REMARK INTER + INTRA:          -8.776
REMARK INTER:                  -8.520
REMARK INTRA:                  -0.256
REMARK UNBOUND:                -0.384
REMARK SMILES Oc1cc(O)c2cc(O)c(-c3cc(O)c(O)c(O)c3)[o+]c2c1
REMARK SMILES IDX 10 1 20 2 21 3 22 4 2 5 3 6 4 7 6 8 7 9 8 10 11 11 12 12
REMARK SMILES IDX 13 13 19 14 15 15 17 16 14 17 16 19 18 21 9 23 1 25 5 27
REMARK H PARENT 14 18 16 20 18 22 9 24 1 26 5 28
REMARK Flexibility Score: inf
ROOT
ATOM      1  C   UNL     1      25.666 -25.564  27.750  1.00  0.00     0.402 A 
ATOM      2  O   UNL     1      25.392 -26.031  26.536  1.00  0.00    -0.202 OA
ATOM      3  C   UNL     1      25.200 -25.249  25.478  1.00  0.00     0.368 A 
ATOM      4  C   UNL     1      24.919 -25.833  24.241  1.00  0.00     0.162 A 
ATOM      5  C   UNL     1      24.715 -25.037  23.114  1.00  0.00     0.128 A 
ATOM      6  C   UNL     1      24.794 -23.644  23.222  1.00  0.00     0.093 A 
ATOM      7  C   UNL     1      25.075 -23.034  24.450  1.00  0.00     0.136 A 
ATOM      8  C   UNL     1      25.279 -23.840  25.600  1.00  0.00     0.125 A 
ATOM      9  C   UNL     1      25.552 -23.316  26.874  1.00  0.00     0.078 A 
ATOM     10  C   UNL     1      25.737 -24.174  27.961  1.00  0.00     0.223 A 
ENDROOT
BRANCH   1  11
ATOM     11  C   UNL     1      25.869 -26.539  28.846  1.00  0.00     0.091 A 
ATOM     12  C   UNL     1      26.983 -27.397  28.867  1.00  0.00     0.068 A 
ATOM     13  C   UNL     1      27.144 -28.328  29.901  1.00  0.00     0.162 A 
ATOM     14  C   UNL     1      24.903 -26.650  29.857  1.00  0.00     0.068 A 
ATOM     15  C   UNL     1      26.183 -28.418  30.922  1.00  0.00     0.200 A 
ATOM     16  C   UNL     1      25.058 -27.576  30.894  1.00  0.00     0.162 A 
BRANCH  13  17
ATOM     17  O   UNL     1      28.257 -29.170  29.915  1.00  0.00    -0.504 OA
ATOM     18  H   UNL     1      28.897 -29.217  29.131  1.00  0.00     0.293 HD
ENDBRANCH  13  17
BRANCH  15  19
ATOM     19  O   UNL     1      26.332 -29.337  31.962  1.00  0.00    -0.502 OA
ATOM     20  H   UNL     1      25.777 -29.288  32.809  1.00  0.00     0.293 HD
ENDBRANCH  15  19
BRANCH  16  21
ATOM     21  O   UNL     1      24.082 -27.645  31.889  1.00  0.00    -0.504 OA
ATOM     22  H   UNL     1      23.188 -28.095  31.736  1.00  0.00     0.293 HD
ENDBRANCH  16  21
ENDBRANCH   1  11
BRANCH  10  23
ATOM     23  O   UNL     1      25.959 -23.652  29.235  1.00  0.00    -0.500 OA
ATOM     24  H   UNL     1      26.816 -23.165  29.469  1.00  0.00     0.294 HD
ENDBRANCH  10  23
BRANCH   5  25
ATOM     25  O   UNL     1      24.436 -25.639  21.889  1.00  0.00    -0.507 OA
ATOM     26  H   UNL     1      23.835 -25.195  21.205  1.00  0.00     0.293 HD
ENDBRANCH   5  25
BRANCH   7  27
ATOM     27  O   UNL     1      25.140 -21.638  24.476  1.00  0.00    -0.507 OA
ATOM     28  H   UNL     1      24.955 -21.042  23.681  1.00  0.00     0.293 HD
ENDBRANCH   7  27
TORSDOF 7
ENDMDL
MODEL 9
REMARK VINA RESULT:    -6.712      1.696      7.249
REMARK INTER + INTRA:          -8.666
REMARK INTER:                  -8.286
REMARK INTRA:                  -0.380
REMARK UNBOUND:                -0.384
REMARK SMILES Oc1cc(O)c2cc(O)c(-c3cc(O)c(O)c(O)c3)[o+]c2c1
REMARK SMILES IDX 10 1 20 2 21 3 22 4 2 5 3 6 4 7 6 8 7 9 8 10 11 11 12 12
REMARK SMILES IDX 13 13 19 14 15 15 17 16 14 17 16 19 18 21 9 23 1 25 5 27
REMARK H PARENT 14 18 16 20 18 22 9 24 1 26 5 28
REMARK Flexibility Score: inf
ROOT
ATOM      1  C   UNL     1      26.456 -26.545  28.197  1.00  0.00     0.402 A 
ATOM      2  O   UNL     1      27.331 -25.677  27.698  1.00  0.00    -0.202 OA
ATOM      3  C   UNL     1      27.100 -24.950  26.610  1.00  0.00     0.368 A 
ATOM      4  C   UNL     1      28.081 -24.061  26.163  1.00  0.00     0.162 A 
ATOM      5  C   UNL     1      27.864 -23.284  25.026  1.00  0.00     0.128 A 
ATOM      6  C   UNL     1      26.657 -23.393  24.327  1.00  0.00     0.093 A 
ATOM      7  C   UNL     1      25.657 -24.276  24.754  1.00  0.00     0.136 A 
ATOM      8  C   UNL     1      25.876 -25.071  25.909  1.00  0.00     0.125 A 
ATOM      9  C   UNL     1      24.937 -25.992  26.401  1.00  0.00     0.078 A 
ATOM     10  C   UNL     1      25.225 -26.744  27.544  1.00  0.00     0.223 A 
ENDROOT
BRANCH   1  11
ATOM     11  C   UNL     1      26.827 -27.289  29.422  1.00  0.00     0.091 A 
ATOM     12  C   UNL     1      26.404 -26.864  30.693  1.00  0.00     0.068 A 
ATOM     13  C   UNL     1      26.786 -27.569  31.843  1.00  0.00     0.162 A 
ATOM     14  C   UNL     1      27.666 -28.409  29.321  1.00  0.00     0.068 A 
ATOM     15  C   UNL     1      27.607 -28.703  31.731  1.00  0.00     0.200 A 
ATOM     16  C   UNL     1      28.049 -29.120  30.463  1.00  0.00     0.162 A 
BRANCH  13  17
ATOM     17  O   UNL     1      26.354 -27.142  33.099  1.00  0.00    -0.504 OA
ATOM     18  H   UNL     1      26.988 -26.706  33.759  1.00  0.00     0.293 HD
ENDBRANCH  13  17
BRANCH  15  19
ATOM     19  O   UNL     1      27.992 -29.420  32.865  1.00  0.00    -0.502 OA
ATOM     20  H   UNL     1      27.465 -30.215  33.206  1.00  0.00     0.293 HD
ENDBRANCH  15  19
BRANCH  16  21
ATOM     21  O   UNL     1      28.872 -30.237  30.319  1.00  0.00    -0.504 OA
ATOM     22  H   UNL     1      28.681 -30.963  29.640  1.00  0.00     0.293 HD
ENDBRANCH  16  21
ENDBRANCH   1  11
BRANCH  10  23
ATOM     23  O   UNL     1      24.313 -27.693  28.006  1.00  0.00    -0.500 OA
ATOM     24  H   UNL     1      24.517 -28.685  27.976  1.00  0.00     0.294 HD
ENDBRANCH  10  23
BRANCH   5  25
ATOM     25  O   UNL     1      28.855 -22.403  24.597  1.00  0.00    -0.507 OA
ATOM     26  H   UNL     1      29.485 -21.955  25.252  1.00  0.00     0.293 HD
ENDBRANCH   5  25
BRANCH   7  27
ATOM     27  O   UNL     1      24.479 -24.325  24.004  1.00  0.00    -0.507 OA
ATOM     28  H   UNL     1      23.914 -23.521  23.773  1.00  0.00     0.293 HD
ENDBRANCH   7  27
TORSDOF 7
ENDMDL
