MODEL 1
REMARK VINA RESULT:    -2.660      0.000      0.000
REMARK INTER + INTRA:         -13.302
REMARK INTER:                  -7.014
REMARK INTRA:                  -6.288
REMARK UNBOUND:                -6.288
REMARK SMILES CCCCCCCCCCCCCCCCCCCCCCCCCCCCCC(=O)[O-]
REMARK SMILES IDX 16 1 17 2 18 3 19 4 20 5 21 6 22 7 23 8 24 9 25 10 26 11
REMARK SMILES IDX 27 12 28 13 29 14 30 15 31 16 32 17 15 18 14 19 13 20 12 21
REMARK SMILES IDX 11 22 10 23 9 24 8 25 7 26 6 27 5 28 4 29 3 30 2 31 1 32
REMARK H PARENT
REMARK Flexibility Score: inf
ROOT
ATOM      1  C   UNL     1     100.292  66.845 226.534  1.00  0.00     0.000 C 
ENDROOT
BRANCH   1   2
ATOM      2  C   UNL     1     101.078  65.705 227.217  1.00  0.00     0.000 C 
BRANCH   2   3
ATOM      3  C   UNL     1     101.021  65.749 228.752  1.00  0.00     0.000 C 
BRANCH   3   4
ATOM      4  C   UNL     1     100.512  64.431 229.363  1.00  0.00     0.000 C 
BRANCH   4   5
ATOM      5  C   UNL     1      99.011  64.198 229.115  1.00  0.00     0.000 C 
BRANCH   5   6
ATOM      6  C   UNL     1      98.449  62.857 229.633  1.00  0.00     0.000 C 
BRANCH   6   7
ATOM      7  C   UNL     1      97.726  62.016 228.560  1.00  0.00     0.000 C 
BRANCH   7   8
ATOM      8  C   UNL     1      98.578  60.833 228.066  1.00  0.00     0.000 C 
BRANCH   8   9
ATOM      9  C   UNL     1      99.906  60.702 228.828  1.00  0.00     0.000 C 
BRANCH   9  10
ATOM     10  C   UNL     1     101.126  60.748 227.892  1.00  0.00     0.000 C 
BRANCH  10  11
ATOM     11  C   UNL     1     101.063  61.916 226.895  1.00  0.00     0.000 C 
BRANCH  11  12
ATOM     12  C   UNL     1     102.084  61.782 225.754  1.00  0.00     0.000 C 
BRANCH  12  13
ATOM     13  C   UNL     1     102.767  63.123 225.461  1.00  0.00     0.006 C 
BRANCH  13  14
ATOM     14  C   UNL     1     104.228  63.107 225.926  1.00  0.00     0.053 C 
BRANCH  14  15
ATOM     15  C   UNL     1     104.444  64.047 227.071  1.00  0.00     0.041 C 
ATOM     16  O   UNL     1     104.025  63.755 228.223  1.00  0.00    -0.550 OA
ATOM     17  O   UNL     1     105.130  65.239 226.872  1.00  0.00    -0.550 OA
ENDBRANCH  14  15
ENDBRANCH  13  14
ENDBRANCH  12  13
ENDBRANCH  11  12
ENDBRANCH  10  11
ENDBRANCH   9  10
ENDBRANCH   8   9
ENDBRANCH   7   8
ENDBRANCH   6   7
ENDBRANCH   5   6
ENDBRANCH   4   5
ENDBRANCH   3   4
ENDBRANCH   2   3
ENDBRANCH   1   2
BRANCH   1  18
ATOM     18  C   UNL     1      99.407  66.340 225.381  1.00  0.00     0.000 C 
BRANCH  18  19
ATOM     19  C   UNL     1      99.373  64.804 225.302  1.00  0.00     0.000 C 
BRANCH  19  20
ATOM     20  C   UNL     1      97.992  64.230 225.662  1.00  0.00     0.000 C 
BRANCH  20  21
ATOM     21  C   UNL     1      96.834  64.970 224.966  1.00  0.00     0.000 C 
BRANCH  21  22
ATOM     22  C   UNL     1      95.704  65.449 225.903  1.00  0.00     0.000 C 
BRANCH  22  23
ATOM     23  C   UNL     1      96.133  65.760 227.349  1.00  0.00     0.000 C 
BRANCH  23  24
ATOM     24  C   UNL     1      96.628  67.203 227.532  1.00  0.00    -0.000 C 
BRANCH  24  25
ATOM     25  C   UNL     1      97.273  67.383 228.917  1.00  0.00    -0.000 C 
BRANCH  25  26
ATOM     26  C   UNL     1      96.391  68.192 229.882  1.00  0.00    -0.000 C 
BRANCH  26  27
ATOM     27  C   UNL     1      96.038  67.420 231.161  1.00  0.00    -0.000 C 
BRANCH  27  28
ATOM     28  C   UNL     1      96.362  65.926 230.995  1.00  0.00    -0.000 C 
BRANCH  28  29
ATOM     29  C   UNL     1      97.152  65.352 232.182  1.00  0.00    -0.000 C 
BRANCH  29  30
ATOM     30  C   UNL     1      98.563  65.945 232.300  1.00  0.00    -0.000 C 
BRANCH  30  31
ATOM     31  C   UNL     1      99.523  64.940 232.951  1.00  0.00    -0.003 C 
ATOM     32  C   UNL     1     100.974  65.398 232.818  1.00  0.00     0.004 C 
ENDBRANCH  30  31
ENDBRANCH  29  30
ENDBRANCH  28  29
ENDBRANCH  27  28
ENDBRANCH  26  27
ENDBRANCH  25  26
ENDBRANCH  24  25
ENDBRANCH  23  24
ENDBRANCH  22  23
ENDBRANCH  21  22
ENDBRANCH  20  21
ENDBRANCH  19  20
ENDBRANCH  18  19
ENDBRANCH   1  18
TORSDOF 28
ENDMDL
MODEL 2
REMARK VINA RESULT:    -2.631      1.955      5.601
REMARK INTER + INTRA:         -13.226
REMARK INTER:                  -6.795
REMARK INTRA:                  -6.431
REMARK UNBOUND:                -6.288
REMARK SMILES CCCCCCCCCCCCCCCCCCCCCCCCCCCCCC(=O)[O-]
REMARK SMILES IDX 16 1 17 2 18 3 19 4 20 5 21 6 22 7 23 8 24 9 25 10 26 11
REMARK SMILES IDX 27 12 28 13 29 14 30 15 31 16 32 17 15 18 14 19 13 20 12 21
REMARK SMILES IDX 11 22 10 23 9 24 8 25 7 26 6 27 5 28 4 29 3 30 2 31 1 32
REMARK H PARENT
REMARK Flexibility Score: inf
ROOT
ATOM      1  C   UNL     1      97.715  64.348 225.920  1.00  0.00     0.000 C 
ENDROOT
BRANCH   1   2
ATOM      2  C   UNL     1      97.237  65.098 224.658  1.00  0.00     0.000 C 
BRANCH   2   3
ATOM      3  C   UNL     1      95.827  65.697 224.792  1.00  0.00     0.000 C 
BRANCH   3   4
ATOM      4  C   UNL     1      95.746  67.143 224.274  1.00  0.00     0.000 C 
BRANCH   4   5
ATOM      5  C   UNL     1      96.749  68.082 224.966  1.00  0.00     0.000 C 
BRANCH   5   6
ATOM      6  C   UNL     1      96.641  68.158 226.504  1.00  0.00     0.000 C 
BRANCH   6   7
ATOM      7  C   UNL     1      98.001  68.166 227.235  1.00  0.00     0.000 C 
BRANCH   7   8
ATOM      8  C   UNL     1      99.128  67.547 226.389  1.00  0.00     0.000 C 
BRANCH   8   9
ATOM      9  C   UNL     1     100.453  67.436 227.158  1.00  0.00     0.000 C 
BRANCH   9  10
ATOM     10  C   UNL     1     101.428  66.439 226.507  1.00  0.00     0.000 C 
BRANCH  10  11
ATOM     11  C   UNL     1     101.184  66.274 224.999  1.00  0.00     0.000 C 
BRANCH  11  12
ATOM     12  C   UNL     1     101.226  64.805 224.545  1.00  0.00     0.000 C 
BRANCH  12  13
ATOM     13  C   UNL     1     101.410  63.862 225.740  1.00  0.00     0.006 C 
BRANCH  13  14
ATOM     14  C   UNL     1     102.242  62.635 225.347  1.00  0.00     0.053 C 
BRANCH  14  15
ATOM     15  C   UNL     1     103.641  62.737 225.870  1.00  0.00     0.041 C 
ATOM     16  O   UNL     1     104.393  63.677 225.497  1.00  0.00    -0.550 OA
ATOM     17  O   UNL     1     104.110  61.806 226.788  1.00  0.00    -0.550 OA
ENDBRANCH  14  15
ENDBRANCH  13  14
ENDBRANCH  12  13
ENDBRANCH  11  12
ENDBRANCH  10  11
ENDBRANCH   9  10
ENDBRANCH   8   9
ENDBRANCH   7   8
ENDBRANCH   6   7
ENDBRANCH   5   6
ENDBRANCH   4   5
ENDBRANCH   3   4
ENDBRANCH   2   3
ENDBRANCH   1   2
BRANCH   1  18
ATOM     18  C   UNL     1      96.738  64.499 227.098  1.00  0.00     0.000 C 
BRANCH  18  19
ATOM     19  C   UNL     1      97.463  64.562 228.453  1.00  0.00     0.000 C 
BRANCH  19  20
ATOM     20  C   UNL     1      98.969  64.272 228.325  1.00  0.00     0.000 C 
BRANCH  20  21
ATOM     21  C   UNL     1      99.718  64.385 229.665  1.00  0.00     0.000 C 
BRANCH  21  22
ATOM     22  C   UNL     1     101.249  64.547 229.550  1.00  0.00     0.000 C 
BRANCH  22  23
ATOM     23  C   UNL     1     102.030  63.252 229.260  1.00  0.00     0.000 C 
BRANCH  23  24
ATOM     24  C   UNL     1     101.332  61.995 229.804  1.00  0.00    -0.000 C 
BRANCH  24  25
ATOM     25  C   UNL     1     101.236  60.915 228.714  1.00  0.00    -0.000 C 
BRANCH  25  26
ATOM     26  C   UNL     1      99.976  61.057 227.845  1.00  0.00    -0.000 C 
BRANCH  26  27
ATOM     27  C   UNL     1      99.224  59.731 227.660  1.00  0.00    -0.000 C 
BRANCH  27  28
ATOM     28  C   UNL     1      98.132  59.578 228.731  1.00  0.00    -0.000 C 
BRANCH  28  29
ATOM     29  C   UNL     1      97.731  60.916 229.370  1.00  0.00    -0.000 C 
BRANCH  29  30
ATOM     30  C   UNL     1      97.393  60.786 230.861  1.00  0.00    -0.000 C 
BRANCH  30  31
ATOM     31  C   UNL     1      98.211  61.783 231.694  1.00  0.00    -0.003 C 
ATOM     32  C   UNL     1      97.387  63.023 232.035  1.00  0.00     0.004 C 
ENDBRANCH  30  31
ENDBRANCH  29  30
ENDBRANCH  28  29
ENDBRANCH  27  28
ENDBRANCH  26  27
ENDBRANCH  25  26
ENDBRANCH  24  25
ENDBRANCH  23  24
ENDBRANCH  22  23
ENDBRANCH  21  22
ENDBRANCH  20  21
ENDBRANCH  19  20
ENDBRANCH  18  19
ENDBRANCH   1  18
TORSDOF 28
ENDMDL
MODEL 3
REMARK VINA RESULT:    -2.533      1.447      5.294
REMARK INTER + INTRA:         -12.969
REMARK INTER:                  -7.098
REMARK INTRA:                  -5.871
REMARK UNBOUND:                -6.288
REMARK SMILES CCCCCCCCCCCCCCCCCCCCCCCCCCCCCC(=O)[O-]
REMARK SMILES IDX 16 1 17 2 18 3 19 4 20 5 21 6 22 7 23 8 24 9 25 10 26 11
REMARK SMILES IDX 27 12 28 13 29 14 30 15 31 16 32 17 15 18 14 19 13 20 12 21
REMARK SMILES IDX 11 22 10 23 9 24 8 25 7 26 6 27 5 28 4 29 3 30 2 31 1 32
REMARK H PARENT
REMARK Flexibility Score: inf
ROOT
ATOM      1  C   UNL     1      97.406  64.163 227.386  1.00  0.00     0.000 C 
ENDROOT
BRANCH   1   2
ATOM      2  C   UNL     1      97.677  64.239 225.868  1.00  0.00     0.000 C 
BRANCH   2   3
ATOM      3  C   UNL     1      96.635  65.063 225.095  1.00  0.00     0.000 C 
BRANCH   3   4
ATOM      4  C   UNL     1      95.523  65.614 226.004  1.00  0.00     0.000 C 
BRANCH   4   5
ATOM      5  C   UNL     1      95.358  67.139 225.889  1.00  0.00     0.000 C 
BRANCH   5   6
ATOM      6  C   UNL     1      96.099  67.974 226.955  1.00  0.00     0.000 C 
BRANCH   6   7
ATOM      7  C   UNL     1      97.366  68.686 226.435  1.00  0.00     0.000 C 
BRANCH   7   8
ATOM      8  C   UNL     1      98.649  67.881 226.714  1.00  0.00     0.000 C 
BRANCH   8   9
ATOM      9  C   UNL     1      99.382  67.471 225.428  1.00  0.00     0.000 C 
BRANCH   9  10
ATOM     10  C   UNL     1     100.649  66.646 225.712  1.00  0.00     0.000 C 
BRANCH  10  11
ATOM     11  C   UNL     1     101.109  65.831 224.493  1.00  0.00     0.000 C 
BRANCH  11  12
ATOM     12  C   UNL     1     101.203  64.324 224.785  1.00  0.00     0.000 C 
BRANCH  12  13
ATOM     13  C   UNL     1     101.566  64.065 226.252  1.00  0.00     0.006 C 
BRANCH  13  14
ATOM     14  C   UNL     1     102.681  63.019 226.365  1.00  0.00     0.053 C 
BRANCH  14  15
ATOM     15  C   UNL     1     104.030  63.666 226.416  1.00  0.00     0.041 C 
ATOM     16  O   UNL     1     104.906  63.382 225.556  1.00  0.00    -0.550 OA
ATOM     17  O   UNL     1     104.315  64.603 227.402  1.00  0.00    -0.550 OA
ENDBRANCH  14  15
ENDBRANCH  13  14
ENDBRANCH  12  13
ENDBRANCH  11  12
ENDBRANCH  10  11
ENDBRANCH   9  10
ENDBRANCH   8   9
ENDBRANCH   7   8
ENDBRANCH   6   7
ENDBRANCH   5   6
ENDBRANCH   4   5
ENDBRANCH   3   4
ENDBRANCH   2   3
ENDBRANCH   1   2
BRANCH   1  18
ATOM     18  C   UNL     1      98.578  64.709 228.221  1.00  0.00     0.000 C 
BRANCH  18  19
ATOM     19  C   UNL     1      98.106  65.636 229.353  1.00  0.00     0.000 C 
BRANCH  19  20
ATOM     20  C   UNL     1      96.595  65.515 229.617  1.00  0.00     0.000 C 
BRANCH  20  21
ATOM     21  C   UNL     1      96.128  66.345 230.827  1.00  0.00     0.000 C 
BRANCH  21  22
ATOM     22  C   UNL     1      97.254  67.059 231.607  1.00  0.00     0.000 C 
BRANCH  22  23
ATOM     23  C   UNL     1      97.491  66.547 233.039  1.00  0.00     0.000 C 
BRANCH  23  24
ATOM     24  C   UNL     1      98.691  65.593 233.146  1.00  0.00    -0.000 C 
BRANCH  24  25
ATOM     25  C   UNL     1      98.216  64.132 233.219  1.00  0.00    -0.000 C 
BRANCH  25  26
ATOM     26  C   UNL     1      98.788  63.263 232.087  1.00  0.00    -0.000 C 
BRANCH  26  27
ATOM     27  C   UNL     1      97.914  62.041 231.771  1.00  0.00    -0.000 C 
BRANCH  27  28
ATOM     28  C   UNL     1      97.705  61.907 230.254  1.00  0.00    -0.000 C 
BRANCH  28  29
ATOM     29  C   UNL     1      97.813  60.454 229.764  1.00  0.00    -0.000 C 
BRANCH  29  30
ATOM     30  C   UNL     1      98.112  60.354 228.262  1.00  0.00    -0.000 C 
BRANCH  30  31
ATOM     31  C   UNL     1      99.382  61.139 227.906  1.00  0.00    -0.003 C 
ATOM     32  C   UNL     1     100.628  60.269 228.053  1.00  0.00     0.004 C 
ENDBRANCH  30  31
ENDBRANCH  29  30
ENDBRANCH  28  29
ENDBRANCH  27  28
ENDBRANCH  26  27
ENDBRANCH  25  26
ENDBRANCH  24  25
ENDBRANCH  23  24
ENDBRANCH  22  23
ENDBRANCH  21  22
ENDBRANCH  20  21
ENDBRANCH  19  20
ENDBRANCH  18  19
ENDBRANCH   1  18
TORSDOF 28
ENDMDL
MODEL 4
REMARK VINA RESULT:    -2.508      1.511      3.809
REMARK INTER + INTRA:         -12.901
REMARK INTER:                  -6.289
REMARK INTRA:                  -6.612
REMARK UNBOUND:                -6.288
REMARK SMILES CCCCCCCCCCCCCCCCCCCCCCCCCCCCCC(=O)[O-]
REMARK SMILES IDX 16 1 17 2 18 3 19 4 20 5 21 6 22 7 23 8 24 9 25 10 26 11
REMARK SMILES IDX 27 12 28 13 29 14 30 15 31 16 32 17 15 18 14 19 13 20 12 21
REMARK SMILES IDX 11 22 10 23 9 24 8 25 7 26 6 27 5 28 4 29 3 30 2 31 1 32
REMARK H PARENT
REMARK Flexibility Score: inf
ROOT
ATOM      1  C   UNL     1     102.171  63.815 225.881  1.00  0.00     0.000 C 
ENDROOT
BRANCH   1   2
ATOM      2  C   UNL     1     102.005  62.287 226.026  1.00  0.00     0.000 C 
BRANCH   2   3
ATOM      3  C   UNL     1     100.787  61.875 226.869  1.00  0.00     0.000 C 
BRANCH   3   4
ATOM      4  C   UNL     1     101.037  60.592 227.680  1.00  0.00     0.000 C 
BRANCH   4   5
ATOM      5  C   UNL     1      99.980  60.361 228.775  1.00  0.00     0.000 C 
BRANCH   5   6
ATOM      6  C   UNL     1      98.548  60.823 228.429  1.00  0.00     0.000 C 
BRANCH   6   7
ATOM      7  C   UNL     1      97.877  61.682 229.522  1.00  0.00     0.000 C 
BRANCH   7   8
ATOM      8  C   UNL     1      98.839  62.026 230.673  1.00  0.00     0.000 C 
BRANCH   8   9
ATOM      9  C   UNL     1      98.838  63.523 231.019  1.00  0.00     0.000 C 
BRANCH   9  10
ATOM     10  C   UNL     1     100.236  64.154 230.900  1.00  0.00     0.000 C 
BRANCH  10  11
ATOM     11  C   UNL     1     100.794  64.090 229.470  1.00  0.00     0.000 C 
BRANCH  11  12
ATOM     12  C   UNL     1     102.321  64.254 229.417  1.00  0.00     0.000 C 
BRANCH  12  13
ATOM     13  C   UNL     1     102.714  65.723 229.222  1.00  0.00     0.006 C 
BRANCH  13  14
ATOM     14  C   UNL     1     104.221  65.860 228.974  1.00  0.00     0.053 C 
BRANCH  14  15
ATOM     15  C   UNL     1     104.517  66.064 227.521  1.00  0.00     0.041 C 
ATOM     16  O   UNL     1     105.355  65.330 226.932  1.00  0.00    -0.550 OA
ATOM     17  O   UNL     1     103.849  67.052 226.807  1.00  0.00    -0.550 OA
ENDBRANCH  14  15
ENDBRANCH  13  14
ENDBRANCH  12  13
ENDBRANCH  11  12
ENDBRANCH  10  11
ENDBRANCH   9  10
ENDBRANCH   8   9
ENDBRANCH   7   8
ENDBRANCH   6   7
ENDBRANCH   5   6
ENDBRANCH   4   5
ENDBRANCH   3   4
ENDBRANCH   2   3
ENDBRANCH   1   2
BRANCH   1  18
ATOM     18  C   UNL     1     101.558  64.351 224.575  1.00  0.00     0.000 C 
BRANCH  18  19
ATOM     19  C   UNL     1     100.857  65.706 224.772  1.00  0.00     0.000 C 
BRANCH  19  20
ATOM     20  C   UNL     1     100.673  66.059 226.259  1.00  0.00     0.000 C 
BRANCH  20  21
ATOM     21  C   UNL     1      99.985  67.419 226.472  1.00  0.00     0.000 C 
BRANCH  21  22
ATOM     22  C   UNL     1      99.144  67.924 225.280  1.00  0.00     0.000 C 
BRANCH  22  23
ATOM     23  C   UNL     1      97.627  67.685 225.394  1.00  0.00     0.000 C 
BRANCH  23  24
ATOM     24  C   UNL     1      97.104  66.648 224.388  1.00  0.00    -0.000 C 
BRANCH  24  25
ATOM     25  C   UNL     1      96.531  65.424 225.122  1.00  0.00    -0.000 C 
BRANCH  25  26
ATOM     26  C   UNL     1      97.572  64.312 225.327  1.00  0.00    -0.000 C 
BRANCH  26  27
ATOM     27  C   UNL     1      97.893  64.058 226.807  1.00  0.00    -0.000 C 
BRANCH  27  28
ATOM     28  C   UNL     1      96.909  64.820 227.710  1.00  0.00    -0.000 C 
BRANCH  28  29
ATOM     29  C   UNL     1      97.593  65.908 228.553  1.00  0.00    -0.000 C 
BRANCH  29  30
ATOM     30  C   UNL     1      96.664  67.089 228.866  1.00  0.00    -0.000 C 
BRANCH  30  31
ATOM     31  C   UNL     1      97.246  67.956 229.991  1.00  0.00    -0.003 C 
ATOM     32  C   UNL     1      98.570  67.388 230.496  1.00  0.00     0.004 C 
ENDBRANCH  30  31
ENDBRANCH  29  30
ENDBRANCH  28  29
ENDBRANCH  27  28
ENDBRANCH  26  27
ENDBRANCH  25  26
ENDBRANCH  24  25
ENDBRANCH  23  24
ENDBRANCH  22  23
ENDBRANCH  21  22
ENDBRANCH  20  21
ENDBRANCH  19  20
ENDBRANCH  18  19
ENDBRANCH   1  18
TORSDOF 28
ENDMDL
MODEL 5
REMARK VINA RESULT:    -2.506      1.366      4.328
REMARK INTER + INTRA:         -12.896
REMARK INTER:                  -6.918
REMARK INTRA:                  -5.979
REMARK UNBOUND:                -6.288
REMARK SMILES CCCCCCCCCCCCCCCCCCCCCCCCCCCCCC(=O)[O-]
REMARK SMILES IDX 16 1 17 2 18 3 19 4 20 5 21 6 22 7 23 8 24 9 25 10 26 11
REMARK SMILES IDX 27 12 28 13 29 14 30 15 31 16 32 17 15 18 14 19 13 20 12 21
REMARK SMILES IDX 11 22 10 23 9 24 8 25 7 26 6 27 5 28 4 29 3 30 2 31 1 32
REMARK H PARENT
REMARK Flexibility Score: inf
ROOT
ATOM      1  C   UNL     1      97.739  67.506 224.726  1.00  0.00     0.000 C 
ENDROOT
BRANCH   1   2
ATOM      2  C   UNL     1      96.454  66.794 224.252  1.00  0.00     0.000 C 
BRANCH   2   3
ATOM      3  C   UNL     1      96.269  65.390 224.851  1.00  0.00     0.000 C 
BRANCH   3   4
ATOM      4  C   UNL     1      95.243  65.367 225.998  1.00  0.00     0.000 C 
BRANCH   4   5
ATOM      5  C   UNL     1      95.893  65.155 227.376  1.00  0.00     0.000 C 
BRANCH   5   6
ATOM      6  C   UNL     1      97.345  64.632 227.358  1.00  0.00     0.000 C 
BRANCH   6   7
ATOM      7  C   UNL     1      98.391  65.644 227.873  1.00  0.00     0.000 C 
BRANCH   7   8
ATOM      8  C   UNL     1      99.733  65.535 227.127  1.00  0.00     0.000 C 
BRANCH   8   9
ATOM      9  C   UNL     1      99.663  64.585 225.921  1.00  0.00     0.000 C 
BRANCH   9  10
ATOM     10  C   UNL     1     100.732  64.905 224.860  1.00  0.00     0.000 C 
BRANCH  10  11
ATOM     11  C   UNL     1     101.899  63.906 224.878  1.00  0.00     0.000 C 
BRANCH  11  12
ATOM     12  C   UNL     1     101.798  62.890 226.028  1.00  0.00     0.000 C 
BRANCH  12  13
ATOM     13  C   UNL     1     103.122  62.142 226.225  1.00  0.00     0.006 C 
BRANCH  13  14
ATOM     14  C   UNL     1     104.314  63.030 225.849  1.00  0.00     0.053 C 
BRANCH  14  15
ATOM     15  C   UNL     1     104.773  63.847 227.017  1.00  0.00     0.041 C 
ATOM     16  O   UNL     1     104.913  63.315 228.151  1.00  0.00    -0.550 OA
ATOM     17  O   UNL     1     105.069  65.194 226.849  1.00  0.00    -0.550 OA
ENDBRANCH  14  15
ENDBRANCH  13  14
ENDBRANCH  12  13
ENDBRANCH  11  12
ENDBRANCH  10  11
ENDBRANCH   9  10
ENDBRANCH   8   9
ENDBRANCH   7   8
ENDBRANCH   6   7
ENDBRANCH   5   6
ENDBRANCH   4   5
ENDBRANCH   3   4
ENDBRANCH   2   3
ENDBRANCH   1   2
BRANCH   1  18
ATOM     18  C   UNL     1      97.461  68.559 225.813  1.00  0.00     0.000 C 
BRANCH  18  19
ATOM     19  C   UNL     1      95.991  69.012 225.824  1.00  0.00     0.000 C 
BRANCH  19  20
ATOM     20  C   UNL     1      95.358  68.911 227.222  1.00  0.00     0.000 C 
BRANCH  20  21
ATOM     21  C   UNL     1      96.401  68.754 228.344  1.00  0.00     0.000 C 
BRANCH  21  22
ATOM     22  C   UNL     1      95.911  67.994 229.595  1.00  0.00     0.000 C 
BRANCH  22  23
ATOM     23  C   UNL     1      96.957  67.817 230.711  1.00  0.00     0.000 C 
BRANCH  23  24
ATOM     24  C   UNL     1      96.576  66.725 231.723  1.00  0.00    -0.000 C 
BRANCH  24  25
ATOM     25  C   UNL     1      96.690  65.331 231.083  1.00  0.00    -0.000 C 
BRANCH  25  26
ATOM     26  C   UNL     1      97.751  64.449 231.763  1.00  0.00    -0.000 C 
BRANCH  26  27
ATOM     27  C   UNL     1      98.426  63.469 230.792  1.00  0.00    -0.000 C 
BRANCH  27  28
ATOM     28  C   UNL     1      99.883  63.883 230.536  1.00  0.00    -0.000 C 
BRANCH  28  29
ATOM     29  C   UNL     1     100.645  62.875 229.662  1.00  0.00    -0.000 C 
BRANCH  29  30
ATOM     30  C   UNL     1     100.142  61.436 229.839  1.00  0.00    -0.000 C 
BRANCH  30  31
ATOM     31  C   UNL     1      99.959  60.751 228.477  1.00  0.00    -0.003 C 
ATOM     32  C   UNL     1      98.775  61.343 227.717  1.00  0.00     0.004 C 
ENDBRANCH  30  31
ENDBRANCH  29  30
ENDBRANCH  28  29
ENDBRANCH  27  28
ENDBRANCH  26  27
ENDBRANCH  25  26
ENDBRANCH  24  25
ENDBRANCH  23  24
ENDBRANCH  22  23
ENDBRANCH  21  22
ENDBRANCH  20  21
ENDBRANCH  19  20
ENDBRANCH  18  19
ENDBRANCH   1  18
TORSDOF 28
ENDMDL
MODEL 6
REMARK VINA RESULT:    -2.495      2.083      6.094
REMARK INTER + INTRA:         -12.867
REMARK INTER:                  -6.377
REMARK INTRA:                  -6.490
REMARK UNBOUND:                -6.288
REMARK SMILES CCCCCCCCCCCCCCCCCCCCCCCCCCCCCC(=O)[O-]
REMARK SMILES IDX 16 1 17 2 18 3 19 4 20 5 21 6 22 7 23 8 24 9 25 10 26 11
REMARK SMILES IDX 27 12 28 13 29 14 30 15 31 16 32 17 15 18 14 19 13 20 12 21
REMARK SMILES IDX 11 22 10 23 9 24 8 25 7 26 6 27 5 28 4 29 3 30 2 31 1 32
REMARK H PARENT
REMARK Flexibility Score: inf
ROOT
ATOM      1  C   UNL     1      97.456  64.943 226.167  1.00  0.00     0.000 C 
ENDROOT
BRANCH   1   2
ATOM      2  C   UNL     1      97.246  65.016 224.639  1.00  0.00     0.000 C 
BRANCH   2   3
ATOM      3  C   UNL     1      95.875  65.578 224.229  1.00  0.00     0.000 C 
BRANCH   3   4
ATOM      4  C   UNL     1      95.975  66.613 223.096  1.00  0.00     0.000 C 
BRANCH   4   5
ATOM      5  C   UNL     1      95.790  68.059 223.589  1.00  0.00     0.000 C 
BRANCH   5   6
ATOM      6  C   UNL     1      95.616  68.228 225.113  1.00  0.00     0.000 C 
BRANCH   6   7
ATOM      7  C   UNL     1      96.867  68.770 225.838  1.00  0.00     0.000 C 
BRANCH   7   8
ATOM      8  C   UNL     1      98.004  69.125 224.863  1.00  0.00     0.000 C 
BRANCH   8   9
ATOM      9  C   UNL     1      99.221  68.199 225.012  1.00  0.00     0.000 C 
BRANCH   9  10
ATOM     10  C   UNL     1      99.738  68.137 226.460  1.00  0.00     0.000 C 
BRANCH  10  11
ATOM     11  C   UNL     1     101.201  67.675 226.546  1.00  0.00     0.000 C 
BRANCH  11  12
ATOM     12  C   UNL     1     101.434  66.635 227.654  1.00  0.00     0.000 C 
BRANCH  12  13
ATOM     13  C   UNL     1     101.033  65.230 227.188  1.00  0.00     0.006 C 
BRANCH  13  14
ATOM     14  C   UNL     1     102.174  64.564 226.409  1.00  0.00     0.053 C 
BRANCH  14  15
ATOM     15  C   UNL     1     101.664  63.876 225.181  1.00  0.00     0.041 C 
ATOM     16  O   UNL     1     101.872  62.646 225.007  1.00  0.00    -0.550 OA
ATOM     17  O   UNL     1     100.939  64.590 224.235  1.00  0.00    -0.550 OA
ENDBRANCH  14  15
ENDBRANCH  13  14
ENDBRANCH  12  13
ENDBRANCH  11  12
ENDBRANCH  10  11
ENDBRANCH   9  10
ENDBRANCH   8   9
ENDBRANCH   7   8
ENDBRANCH   6   7
ENDBRANCH   5   6
ENDBRANCH   4   5
ENDBRANCH   3   4
ENDBRANCH   2   3
ENDBRANCH   1   2
BRANCH   1  18
ATOM     18  C   UNL     1      96.130  65.010 226.945  1.00  0.00     0.000 C 
BRANCH  18  19
ATOM     19  C   UNL     1      96.243  65.866 228.218  1.00  0.00     0.000 C 
BRANCH  19  20
ATOM     20  C   UNL     1      97.704  66.187 228.579  1.00  0.00     0.000 C 
BRANCH  20  21
ATOM     21  C   UNL     1      98.276  65.247 229.655  1.00  0.00     0.000 C 
BRANCH  21  22
ATOM     22  C   UNL     1      97.234  64.643 230.621  1.00  0.00     0.000 C 
BRANCH  22  23
ATOM     23  C   UNL     1      97.810  63.773 231.754  1.00  0.00     0.000 C 
BRANCH  23  24
ATOM     24  C   UNL     1      99.342  63.657 231.702  1.00  0.00    -0.000 C 
BRANCH  24  25
ATOM     25  C   UNL     1      99.769  62.184 231.590  1.00  0.00    -0.000 C 
BRANCH  25  26
ATOM     26  C   UNL     1     101.182  62.017 231.009  1.00  0.00    -0.000 C 
BRANCH  26  27
ATOM     27  C   UNL     1     101.278  62.442 229.536  1.00  0.00    -0.000 C 
BRANCH  27  28
ATOM     28  C   UNL     1     101.371  61.208 228.625  1.00  0.00    -0.000 C 
BRANCH  28  29
ATOM     29  C   UNL     1     100.156  61.060 227.695  1.00  0.00    -0.000 C 
BRANCH  29  30
ATOM     30  C   UNL     1      99.136  62.195 227.865  1.00  0.00    -0.000 C 
BRANCH  30  31
ATOM     31  C   UNL     1      97.813  61.658 228.427  1.00  0.00    -0.003 C 
ATOM     32  C   UNL     1      97.971  60.229 228.942  1.00  0.00     0.004 C 
ENDBRANCH  30  31
ENDBRANCH  29  30
ENDBRANCH  28  29
ENDBRANCH  27  28
ENDBRANCH  26  27
ENDBRANCH  25  26
ENDBRANCH  24  25
ENDBRANCH  23  24
ENDBRANCH  22  23
ENDBRANCH  21  22
ENDBRANCH  20  21
ENDBRANCH  19  20
ENDBRANCH  18  19
ENDBRANCH   1  18
TORSDOF 28
ENDMDL
MODEL 7
REMARK VINA RESULT:    -2.467      1.546      3.752
REMARK INTER + INTRA:         -12.792
REMARK INTER:                  -6.069
REMARK INTRA:                  -6.723
REMARK UNBOUND:                -6.288
REMARK SMILES CCCCCCCCCCCCCCCCCCCCCCCCCCCCCC(=O)[O-]
REMARK SMILES IDX 16 1 17 2 18 3 19 4 20 5 21 6 22 7 23 8 24 9 25 10 26 11
REMARK SMILES IDX 27 12 28 13 29 14 30 15 31 16 32 17 15 18 14 19 13 20 12 21
REMARK SMILES IDX 11 22 10 23 9 24 8 25 7 26 6 27 5 28 4 29 3 30 2 31 1 32
REMARK H PARENT
REMARK Flexibility Score: inf
ROOT
ATOM      1  C   UNL     1      98.565  64.987 226.558  1.00  0.00     0.000 C 
ENDROOT
BRANCH   1   2
ATOM      2  C   UNL     1      99.520  64.641 225.396  1.00  0.00     0.000 C 
BRANCH   2   3
ATOM      3  C   UNL     1     100.419  65.812 224.965  1.00  0.00     0.000 C 
BRANCH   3   4
ATOM      4  C   UNL     1      99.870  67.176 225.417  1.00  0.00     0.000 C 
BRANCH   4   5
ATOM      5  C   UNL     1     100.971  68.238 225.583  1.00  0.00     0.000 C 
BRANCH   5   6
ATOM      6  C   UNL     1     101.220  68.722 227.027  1.00  0.00     0.000 C 
BRANCH   6   7
ATOM      7  C   UNL     1     102.057  67.751 227.887  1.00  0.00     0.000 C 
BRANCH   7   8
ATOM      8  C   UNL     1     101.315  67.301 229.158  1.00  0.00     0.000 C 
BRANCH   8   9
ATOM      9  C   UNL     1     101.032  65.791 229.175  1.00  0.00     0.000 C 
BRANCH   9  10
ATOM     10  C   UNL     1     101.907  65.019 228.171  1.00  0.00     0.000 C 
BRANCH  10  11
ATOM     11  C   UNL     1     101.876  63.501 228.406  1.00  0.00     0.000 C 
BRANCH  11  12
ATOM     12  C   UNL     1     102.239  62.695 227.147  1.00  0.00     0.000 C 
BRANCH  12  13
ATOM     13  C   UNL     1     103.007  63.559 226.139  1.00  0.00     0.006 C 
BRANCH  13  14
ATOM     14  C   UNL     1     104.477  63.130 226.057  1.00  0.00     0.053 C 
BRANCH  14  15
ATOM     15  C   UNL     1     105.301  63.810 227.105  1.00  0.00     0.041 C 
ATOM     16  O   UNL     1     105.484  63.263 228.226  1.00  0.00    -0.550 OA
ATOM     17  O   UNL     1     105.888  65.041 226.838  1.00  0.00    -0.550 OA
ENDBRANCH  14  15
ENDBRANCH  13  14
ENDBRANCH  12  13
ENDBRANCH  11  12
ENDBRANCH  10  11
ENDBRANCH   9  10
ENDBRANCH   8   9
ENDBRANCH   7   8
ENDBRANCH   6   7
ENDBRANCH   5   6
ENDBRANCH   4   5
ENDBRANCH   3   4
ENDBRANCH   2   3
ENDBRANCH   1   2
BRANCH   1  18
ATOM     18  C   UNL     1      97.088  64.763 226.191  1.00  0.00     0.000 C 
BRANCH  18  19
ATOM     19  C   UNL     1      96.835  64.900 224.680  1.00  0.00     0.000 C 
BRANCH  19  20
ATOM     20  C   UNL     1      96.136  66.223 224.323  1.00  0.00     0.000 C 
BRANCH  20  21
ATOM     21  C   UNL     1      94.930  66.529 225.230  1.00  0.00     0.000 C 
BRANCH  21  22
ATOM     22  C   UNL     1      94.930  67.934 225.871  1.00  0.00     0.000 C 
BRANCH  22  23
ATOM     23  C   UNL     1      95.518  68.010 227.292  1.00  0.00     0.000 C 
BRANCH  23  24
ATOM     24  C   UNL     1      97.002  68.409 227.307  1.00  0.00    -0.000 C 
BRANCH  24  25
ATOM     25  C   UNL     1      97.689  67.891 228.582  1.00  0.00    -0.000 C 
BRANCH  25  26
ATOM     26  C   UNL     1      96.846  66.845 229.328  1.00  0.00    -0.000 C 
BRANCH  26  27
ATOM     27  C   UNL     1      97.658  66.044 230.357  1.00  0.00    -0.000 C 
BRANCH  27  28
ATOM     28  C   UNL     1      97.413  64.537 230.181  1.00  0.00    -0.000 C 
BRANCH  28  29
ATOM     29  C   UNL     1      98.597  63.681 230.658  1.00  0.00    -0.000 C 
BRANCH  29  30
ATOM     30  C   UNL     1      98.518  62.229 230.166  1.00  0.00    -0.000 C 
BRANCH  30  31
ATOM     31  C   UNL     1      97.860  62.159 228.781  1.00  0.00    -0.003 C 
ATOM     32  C   UNL     1      98.757  61.434 227.781  1.00  0.00     0.004 C 
ENDBRANCH  30  31
ENDBRANCH  29  30
ENDBRANCH  28  29
ENDBRANCH  27  28
ENDBRANCH  26  27
ENDBRANCH  25  26
ENDBRANCH  24  25
ENDBRANCH  23  24
ENDBRANCH  22  23
ENDBRANCH  21  22
ENDBRANCH  20  21
ENDBRANCH  19  20
ENDBRANCH  18  19
ENDBRANCH   1  18
TORSDOF 28
ENDMDL
MODEL 8
REMARK VINA RESULT:    -2.438      1.622      5.119
REMARK INTER + INTRA:         -12.716
REMARK INTER:                  -5.928
REMARK INTRA:                  -6.788
REMARK UNBOUND:                -6.288
REMARK SMILES CCCCCCCCCCCCCCCCCCCCCCCCCCCCCC(=O)[O-]
REMARK SMILES IDX 16 1 17 2 18 3 19 4 20 5 21 6 22 7 23 8 24 9 25 10 26 11
REMARK SMILES IDX 27 12 28 13 29 14 30 15 31 16 32 17 15 18 14 19 13 20 12 21
REMARK SMILES IDX 11 22 10 23 9 24 8 25 7 26 6 27 5 28 4 29 3 30 2 31 1 32
REMARK H PARENT
REMARK Flexibility Score: inf
ROOT
ATOM      1  C   UNL     1      96.235  64.641 227.006  1.00  0.00     0.000 C 
ENDROOT
BRANCH   1   2
ATOM      2  C   UNL     1      96.605  65.354 228.324  1.00  0.00     0.000 C 
BRANCH   2   3
ATOM      3  C   UNL     1      96.870  66.859 228.159  1.00  0.00     0.000 C 
BRANCH   3   4
ATOM      4  C   UNL     1      96.400  67.679 229.373  1.00  0.00     0.000 C 
BRANCH   4   5
ATOM      5  C   UNL     1      95.981  66.797 230.563  1.00  0.00     0.000 C 
BRANCH   5   6
ATOM      6  C   UNL     1      96.579  67.191 231.930  1.00  0.00     0.000 C 
BRANCH   6   7
ATOM      7  C   UNL     1      98.029  67.719 231.860  1.00  0.00     0.000 C 
BRANCH   7   8
ATOM      8  C   UNL     1      99.000  66.884 232.714  1.00  0.00     0.000 C 
BRANCH   8   9
ATOM      9  C   UNL     1     100.073  66.178 231.870  1.00  0.00     0.000 C 
BRANCH   9  10
ATOM     10  C   UNL     1      99.476  65.445 230.656  1.00  0.00     0.000 C 
BRANCH  10  11
ATOM     11  C   UNL     1     100.178  65.813 229.339  1.00  0.00     0.000 C 
BRANCH  11  12
ATOM     12  C   UNL     1     100.629  67.282 229.294  1.00  0.00     0.000 C 
BRANCH  12  13
ATOM     13  C   UNL     1     102.100  67.397 228.878  1.00  0.00     0.006 C 
BRANCH  13  14
ATOM     14  C   UNL     1     102.619  66.066 228.321  1.00  0.00     0.053 C 
BRANCH  14  15
ATOM     15  C   UNL     1     103.607  66.286 227.218  1.00  0.00     0.041 C 
ATOM     16  O   UNL     1     104.455  65.398 226.937  1.00  0.00    -0.550 OA
ATOM     17  O   UNL     1     103.578  67.465 226.484  1.00  0.00    -0.550 OA
ENDBRANCH  14  15
ENDBRANCH  13  14
ENDBRANCH  12  13
ENDBRANCH  11  12
ENDBRANCH  10  11
ENDBRANCH   9  10
ENDBRANCH   8   9
ENDBRANCH   7   8
ENDBRANCH   6   7
ENDBRANCH   5   6
ENDBRANCH   4   5
ENDBRANCH   3   4
ENDBRANCH   2   3
ENDBRANCH   1   2
BRANCH   1  18
ATOM     18  C   UNL     1      95.523  65.576 226.013  1.00  0.00     0.000 C 
BRANCH  18  19
ATOM     19  C   UNL     1      96.106  65.472 224.593  1.00  0.00     0.000 C 
BRANCH  19  20
ATOM     20  C   UNL     1      96.272  66.849 223.926  1.00  0.00     0.000 C 
BRANCH  20  21
ATOM     21  C   UNL     1      95.801  68.009 224.822  1.00  0.00     0.000 C 
BRANCH  21  22
ATOM     22  C   UNL     1      96.892  69.039 225.190  1.00  0.00     0.000 C 
BRANCH  22  23
ATOM     23  C   UNL     1      98.316  68.688 224.721  1.00  0.00     0.000 C 
BRANCH  23  24
ATOM     24  C   UNL     1      99.290  68.450 225.885  1.00  0.00    -0.000 C 
BRANCH  24  25
ATOM     25  C   UNL     1     100.201  67.247 225.591  1.00  0.00    -0.000 C 
BRANCH  25  26
ATOM     26  C   UNL     1      99.447  65.908 225.622  1.00  0.00    -0.000 C 
BRANCH  26  27
ATOM     27  C   UNL     1     100.383  64.695 225.730  1.00  0.00    -0.000 C 
BRANCH  27  28
ATOM     28  C   UNL     1      99.678  63.533 226.448  1.00  0.00    -0.000 C 
BRANCH  28  29
ATOM     29  C   UNL     1     100.638  62.691 227.303  1.00  0.00    -0.000 C 
BRANCH  29  30
ATOM     30  C   UNL     1     100.012  62.237 228.629  1.00  0.00    -0.000 C 
BRANCH  30  31
ATOM     31  C   UNL     1      98.497  62.039 228.476  1.00  0.00    -0.003 C 
ATOM     32  C   UNL     1      98.169  60.610 228.050  1.00  0.00     0.004 C 
ENDBRANCH  30  31
ENDBRANCH  29  30
ENDBRANCH  28  29
ENDBRANCH  27  28
ENDBRANCH  26  27
ENDBRANCH  25  26
ENDBRANCH  24  25
ENDBRANCH  23  24
ENDBRANCH  22  23
ENDBRANCH  21  22
ENDBRANCH  20  21
ENDBRANCH  19  20
ENDBRANCH  18  19
ENDBRANCH   1  18
TORSDOF 28
ENDMDL
MODEL 9
REMARK VINA RESULT:    -2.404      2.631      6.184
REMARK INTER + INTRA:         -12.627
REMARK INTER:                  -6.106
REMARK INTRA:                  -6.521
REMARK UNBOUND:                -6.288
REMARK SMILES CCCCCCCCCCCCCCCCCCCCCCCCCCCCCC(=O)[O-]
REMARK SMILES IDX 16 1 17 2 18 3 19 4 20 5 21 6 22 7 23 8 24 9 25 10 26 11
REMARK SMILES IDX 27 12 28 13 29 14 30 15 31 16 32 17 15 18 14 19 13 20 12 21
REMARK SMILES IDX 11 22 10 23 9 24 8 25 7 26 6 27 5 28 4 29 3 30 2 31 1 32
REMARK H PARENT
REMARK Flexibility Score: inf
ROOT
ATOM      1  C   UNL     1      96.677  65.375 224.239  1.00  0.00     0.000 C 
ENDROOT
BRANCH   1   2
ATOM      2  C   UNL     1      97.138  64.598 225.491  1.00  0.00     0.000 C 
BRANCH   2   3
ATOM      3  C   UNL     1      96.461  65.064 226.791  1.00  0.00     0.000 C 
BRANCH   3   4
ATOM      4  C   UNL     1      97.472  65.340 227.917  1.00  0.00     0.000 C 
BRANCH   4   5
ATOM      5  C   UNL     1      96.805  65.478 229.297  1.00  0.00     0.000 C 
BRANCH   5   6
ATOM      6  C   UNL     1      97.376  66.587 230.206  1.00  0.00     0.000 C 
BRANCH   6   7
ATOM      7  C   UNL     1      98.689  67.216 229.693  1.00  0.00     0.000 C 
BRANCH   7   8
ATOM      8  C   UNL     1      99.930  66.656 230.412  1.00  0.00     0.000 C 
BRANCH   8   9
ATOM      9  C   UNL     1     101.112  66.425 229.458  1.00  0.00     0.000 C 
BRANCH   9  10
ATOM     10  C   UNL     1     101.327  64.935 229.140  1.00  0.00     0.000 C 
BRANCH  10  11
ATOM     11  C   UNL     1     100.313  64.026 229.854  1.00  0.00     0.000 C 
BRANCH  11  12
ATOM     12  C   UNL     1     100.984  62.914 230.676  1.00  0.00     0.000 C 
BRANCH  12  13
ATOM     13  C   UNL     1     100.087  62.464 231.835  1.00  0.00     0.006 C 
BRANCH  13  14
ATOM     14  C   UNL     1      99.090  63.564 232.217  1.00  0.00     0.053 C 
BRANCH  14  15
ATOM     15  C   UNL     1      97.678  63.121 231.992  1.00  0.00     0.041 C 
ATOM     16  O   UNL     1      96.716  63.824 232.402  1.00  0.00    -0.550 OA
ATOM     17  O   UNL     1      97.421  61.938 231.308  1.00  0.00    -0.550 OA
ENDBRANCH  14  15
ENDBRANCH  13  14
ENDBRANCH  12  13
ENDBRANCH  11  12
ENDBRANCH  10  11
ENDBRANCH   9  10
ENDBRANCH   8   9
ENDBRANCH   7   8
ENDBRANCH   6   7
ENDBRANCH   5   6
ENDBRANCH   4   5
ENDBRANCH   3   4
ENDBRANCH   2   3
ENDBRANCH   1   2
BRANCH   1  18
ATOM     18  C   UNL     1      95.979  66.699 224.593  1.00  0.00     0.000 C 
BRANCH  18  19
ATOM     19  C   UNL     1      96.881  67.920 224.342  1.00  0.00     0.000 C 
BRANCH  19  20
ATOM     20  C   UNL     1      97.188  68.696 225.635  1.00  0.00     0.000 C 
BRANCH  20  21
ATOM     21  C   UNL     1      98.553  68.329 226.245  1.00  0.00     0.000 C 
BRANCH  21  22
ATOM     22  C   UNL     1      99.536  67.630 225.282  1.00  0.00     0.000 C 
BRANCH  22  23
ATOM     23  C   UNL     1     100.367  66.490 225.899  1.00  0.00     0.000 C 
BRANCH  23  24
ATOM     24  C   UNL     1     100.650  65.349 224.910  1.00  0.00    -0.000 C 
BRANCH  24  25
ATOM     25  C   UNL     1     100.786  64.009 225.653  1.00  0.00    -0.000 C 
BRANCH  25  26
ATOM     26  C   UNL     1     102.042  63.225 225.241  1.00  0.00    -0.000 C 
BRANCH  26  27
ATOM     27  C   UNL     1     102.038  61.776 225.750  1.00  0.00    -0.000 C 
BRANCH  27  28
ATOM     28  C   UNL     1     102.100  61.745 227.286  1.00  0.00    -0.000 C 
BRANCH  28  29
ATOM     29  C   UNL     1     101.619  60.410 227.875  1.00  0.00    -0.000 C 
BRANCH  29  30
ATOM     30  C   UNL     1     100.175  60.071 227.481  1.00  0.00    -0.000 C 
BRANCH  30  31
ATOM     31  C   UNL     1      99.180  60.681 228.478  1.00  0.00    -0.003 C 
ATOM     32  C   UNL     1      98.317  61.750 227.812  1.00  0.00     0.004 C 
ENDBRANCH  30  31
ENDBRANCH  29  30
ENDBRANCH  28  29
ENDBRANCH  27  28
ENDBRANCH  26  27
ENDBRANCH  25  26
ENDBRANCH  24  25
ENDBRANCH  23  24
ENDBRANCH  22  23
ENDBRANCH  21  22
ENDBRANCH  20  21
ENDBRANCH  19  20
ENDBRANCH  18  19
ENDBRANCH   1  18
TORSDOF 28
ENDMDL
