MODEL 1
REMARK VINA RESULT:    -4.247      0.000      0.000
REMARK INTER + INTRA:          -5.100
REMARK INTER:                  -4.992
REMARK INTRA:                  -0.108
REMARK UNBOUND:                -0.108
REMARK SMILES O=C([O-])CCC(=O)[O-]
REMARK SMILES IDX 4 1 2 2 1 3 3 4 5 5 6 6 7 7 8 8
REMARK H PARENT
REMARK Flexibility Score: inf
ROOT
ATOM      1  C   UNL     1     -17.167  -8.206  -8.437  1.00  0.00     0.059 C 
ENDROOT
BRANCH   1   2
ATOM      2  C   UNL     1     -16.847  -8.867  -7.130  1.00  0.00     0.042 C 
ATOM      3  O   UNL     1     -15.857  -8.483  -6.453  1.00  0.00    -0.550 OA
ATOM      4  O   UNL     1     -17.666  -9.876  -6.641  1.00  0.00    -0.550 OA
ENDBRANCH   1   2
BRANCH   1   5
ATOM      5  C   UNL     1     -16.835  -9.115  -9.625  1.00  0.00     0.059 C 
BRANCH   5   6
ATOM      6  C   UNL     1     -18.042  -9.865 -10.100  1.00  0.00     0.042 C 
ATOM      7  O   UNL     1     -19.197  -9.434  -9.845  1.00  0.00    -0.550 OA
ATOM      8  O   UNL     1     -17.891 -11.061 -10.790  1.00  0.00    -0.550 OA
ENDBRANCH   5   6
ENDBRANCH   1   5
TORSDOF 3
ENDMDL
MODEL 2
REMARK VINA RESULT:    -4.237      0.205      3.738
REMARK INTER + INTRA:          -5.088
REMARK INTER:                  -4.973
REMARK INTRA:                  -0.115
REMARK UNBOUND:                -0.108
REMARK SMILES O=C([O-])CCC(=O)[O-]
REMARK SMILES IDX 4 1 2 2 1 3 3 4 5 5 6 6 7 7 8 8
REMARK H PARENT
REMARK Flexibility Score: inf
ROOT
ATOM      1  C   UNL     1     -16.757  -9.075  -9.566  1.00  0.00     0.059 C 
ENDROOT
BRANCH   1   2
ATOM      2  C   UNL     1     -18.015  -9.750 -10.025  1.00  0.00     0.042 C 
ATOM      3  O   UNL     1     -17.953 -10.769 -10.762  1.00  0.00    -0.550 OA
ATOM      4  O   UNL     1     -19.251  -9.279  -9.603  1.00  0.00    -0.550 OA
ENDBRANCH   1   2
BRANCH   1   5
ATOM      5  C   UNL     1     -17.021  -8.133  -8.387  1.00  0.00     0.059 C 
BRANCH   5   6
ATOM      6  C   UNL     1     -16.719  -8.792  -7.076  1.00  0.00     0.042 C 
ATOM      7  O   UNL     1     -15.654  -8.523  -6.461  1.00  0.00    -0.550 OA
ATOM      8  O   UNL     1     -17.597  -9.734  -6.553  1.00  0.00    -0.550 OA
ENDBRANCH   5   6
ENDBRANCH   1   5
TORSDOF 3
ENDMDL
MODEL 3
REMARK VINA RESULT:    -4.227      0.310      3.737
REMARK INTER + INTRA:          -5.076
REMARK INTER:                  -4.967
REMARK INTRA:                  -0.109
REMARK UNBOUND:                -0.108
REMARK SMILES O=C([O-])CCC(=O)[O-]
REMARK SMILES IDX 4 1 2 2 1 3 3 4 5 5 6 6 7 7 8 8
REMARK H PARENT
REMARK Flexibility Score: inf
ROOT
ATOM      1  C   UNL     1     -16.880  -9.025  -9.493  1.00  0.00     0.059 C 
ENDROOT
BRANCH   1   2
ATOM      2  C   UNL     1     -18.166  -9.662  -9.923  1.00  0.00     0.042 C 
ATOM      3  O   UNL     1     -19.266  -9.208  -9.511  1.00  0.00    -0.550 OA
ATOM      4  O   UNL     1     -18.151 -10.730 -10.811  1.00  0.00    -0.550 OA
ENDBRANCH   1   2
BRANCH   1   5
ATOM      5  C   UNL     1     -17.071  -8.150  -8.249  1.00  0.00     0.059 C 
BRANCH   5   6
ATOM      6  C   UNL     1     -16.751  -8.900  -6.993  1.00  0.00     0.042 C 
ATOM      7  O   UNL     1     -17.599  -9.681  -6.487  1.00  0.00    -0.550 OA
ATOM      8  O   UNL     1     -15.532  -8.704  -6.358  1.00  0.00    -0.550 OA
ENDBRANCH   5   6
ENDBRANCH   1   5
TORSDOF 3
ENDMDL
MODEL 4
REMARK VINA RESULT:    -4.000      1.465      2.193
REMARK INTER + INTRA:          -4.809
REMARK INTER:                  -4.654
REMARK INTRA:                  -0.154
REMARK UNBOUND:                -0.108
REMARK SMILES O=C([O-])CCC(=O)[O-]
REMARK SMILES IDX 4 1 2 2 1 3 3 4 5 5 6 6 7 7 8 8
REMARK H PARENT
REMARK Flexibility Score: inf
ROOT
ATOM      1  C   UNL     1     -17.796  -9.097  -8.781  1.00  0.00     0.059 C 
ENDROOT
BRANCH   1   2
ATOM      2  C   UNL     1     -17.334  -9.350  -7.378  1.00  0.00     0.042 C 
ATOM      3  O   UNL     1     -17.763 -10.347  -6.740  1.00  0.00    -0.550 OA
ATOM      4  O   UNL     1     -16.398  -8.508  -6.791  1.00  0.00    -0.550 OA
ENDBRANCH   1   2
BRANCH   1   5
ATOM      5  C   UNL     1     -16.628  -9.121  -9.773  1.00  0.00     0.059 C 
BRANCH   5   6
ATOM      6  C   UNL     1     -16.067 -10.501  -9.931  1.00  0.00     0.042 C 
ATOM      7  O   UNL     1     -14.941 -10.787  -9.446  1.00  0.00    -0.550 OA
ATOM      8  O   UNL     1     -16.771 -11.459 -10.650  1.00  0.00    -0.550 OA
ENDBRANCH   5   6
ENDBRANCH   1   5
TORSDOF 3
ENDMDL
MODEL 5
REMARK VINA RESULT:    -3.971      2.449      3.489
REMARK INTER + INTRA:          -4.775
REMARK INTER:                  -4.622
REMARK INTRA:                  -0.153
REMARK UNBOUND:                -0.108
REMARK SMILES O=C([O-])CCC(=O)[O-]
REMARK SMILES IDX 4 1 2 2 1 3 3 4 5 5 6 6 7 7 8 8
REMARK H PARENT
REMARK Flexibility Score: inf
ROOT
ATOM      1  C   UNL     1     -14.517  -9.147  -7.427  1.00  0.00     0.059 C 
ENDROOT
BRANCH   1   2
ATOM      2  C   UNL     1     -14.451 -10.557  -7.933  1.00  0.00     0.042 C 
ATOM      3  O   UNL     1     -14.755 -10.816  -9.127  1.00  0.00    -0.550 OA
ATOM      4  O   UNL     1     -14.013 -11.576  -7.097  1.00  0.00    -0.550 OA
ENDBRANCH   1   2
BRANCH   1   5
ATOM      5  C   UNL     1     -15.683  -8.951  -6.453  1.00  0.00     0.059 C 
BRANCH   5   6
ATOM      6  C   UNL     1     -17.006  -9.030  -7.153  1.00  0.00     0.042 C 
ATOM      7  O   UNL     1     -17.812  -9.958  -6.882  1.00  0.00    -0.550 OA
ATOM      8  O   UNL     1     -17.330  -8.100  -8.133  1.00  0.00    -0.550 OA
ENDBRANCH   5   6
ENDBRANCH   1   5
TORSDOF 3
ENDMDL
MODEL 6
REMARK VINA RESULT:    -3.957      2.582      3.729
REMARK INTER + INTRA:          -4.758
REMARK INTER:                  -4.583
REMARK INTRA:                  -0.175
REMARK UNBOUND:                -0.108
REMARK SMILES O=C([O-])CCC(=O)[O-]
REMARK SMILES IDX 4 1 2 2 1 3 3 4 5 5 6 6 7 7 8 8
REMARK H PARENT
REMARK Flexibility Score: inf
ROOT
ATOM      1  C   UNL     1     -15.976  -9.171  -6.482  1.00  0.00     0.059 C 
ENDROOT
BRANCH   1   2
ATOM      2  C   UNL     1     -17.091 -10.121  -6.797  1.00  0.00     0.042 C 
ATOM      3  O   UNL     1     -17.877  -9.880  -7.751  1.00  0.00    -0.550 OA
ATOM      4  O   UNL     1     -17.236 -11.292  -6.065  1.00  0.00    -0.550 OA
ENDBRANCH   1   2
BRANCH   1   5
ATOM      5  C   UNL     1     -14.887  -9.200  -7.559  1.00  0.00     0.059 C 
BRANCH   5   6
ATOM      6  C   UNL     1     -14.251 -10.553  -7.664  1.00  0.00     0.042 C 
ATOM      7  O   UNL     1     -14.359 -11.224  -8.724  1.00  0.00    -0.550 OA
ATOM      8  O   UNL     1     -13.575 -11.090  -6.576  1.00  0.00    -0.550 OA
ENDBRANCH   5   6
ENDBRANCH   1   5
TORSDOF 3
ENDMDL
MODEL 7
REMARK VINA RESULT:    -3.946      2.096      3.676
REMARK INTER + INTRA:          -4.746
REMARK INTER:                  -4.637
REMARK INTRA:                  -0.109
REMARK UNBOUND:                -0.108
REMARK SMILES O=C([O-])CCC(=O)[O-]
REMARK SMILES IDX 4 1 2 2 1 3 3 4 5 5 6 6 7 7 8 8
REMARK H PARENT
REMARK Flexibility Score: inf
ROOT
ATOM      1  C   UNL     1     -16.726  -9.182  -9.926  1.00  0.00     0.059 C 
ENDROOT
BRANCH   1   2
ATOM      2  C   UNL     1     -18.132  -9.628 -10.191  1.00  0.00     0.042 C 
ATOM      3  O   UNL     1     -18.378 -10.412 -11.145  1.00  0.00    -0.550 OA
ATOM      4  O   UNL     1     -19.163  -9.210  -9.359  1.00  0.00    -0.550 OA
ENDBRANCH   1   2
BRANCH   1   5
ATOM      5  C   UNL     1     -16.085  -9.983  -8.787  1.00  0.00     0.059 C 
BRANCH   5   6
ATOM      6  C   UNL     1     -15.097 -10.983  -9.304  1.00  0.00     0.042 C 
ATOM      7  O   UNL     1     -14.211 -11.451  -8.541  1.00  0.00    -0.550 OA
ATOM      8  O   UNL     1     -15.129 -11.366 -10.639  1.00  0.00    -0.550 OA
ENDBRANCH   5   6
ENDBRANCH   1   5
TORSDOF 3
ENDMDL
MODEL 8
REMARK VINA RESULT:    -3.874      1.945      3.300
REMARK INTER + INTRA:          -4.661
REMARK INTER:                  -4.584
REMARK INTRA:                  -0.077
REMARK UNBOUND:                -0.108
REMARK SMILES O=C([O-])CCC(=O)[O-]
REMARK SMILES IDX 4 1 2 2 1 3 3 4 5 5 6 6 7 7 8 8
REMARK H PARENT
REMARK Flexibility Score: inf
ROOT
ATOM      1  C   UNL     1     -15.589 -10.183  -9.204  1.00  0.00     0.059 C 
ENDROOT
BRANCH   1   2
ATOM      2  C   UNL     1     -15.508 -11.525  -9.867  1.00  0.00     0.042 C 
ATOM      3  O   UNL     1     -14.661 -12.372  -9.480  1.00  0.00    -0.550 OA
ATOM      4  O   UNL     1     -16.396 -11.854 -10.883  1.00  0.00    -0.550 OA
ENDBRANCH   1   2
BRANCH   1   5
ATOM      5  C   UNL     1     -16.742  -9.344  -9.766  1.00  0.00     0.059 C 
BRANCH   5   6
ATOM      6  C   UNL     1     -17.988  -9.503  -8.950  1.00  0.00     0.042 C 
ATOM      7  O   UNL     1     -17.922  -9.930  -7.767  1.00  0.00    -0.550 OA
ATOM      8  O   UNL     1     -19.227  -9.220  -9.512  1.00  0.00    -0.550 OA
ENDBRANCH   5   6
ENDBRANCH   1   5
TORSDOF 3
ENDMDL
MODEL 9
REMARK VINA RESULT:    -3.818      2.264      2.702
REMARK INTER + INTRA:          -4.595
REMARK INTER:                  -4.561
REMARK INTRA:                  -0.033
REMARK UNBOUND:                -0.108
REMARK SMILES O=C([O-])CCC(=O)[O-]
REMARK SMILES IDX 4 1 2 2 1 3 3 4 5 5 6 6 7 7 8 8
REMARK H PARENT
REMARK Flexibility Score: inf
ROOT
ATOM      1  C   UNL     1     -15.732 -10.980  -9.708  1.00  0.00     0.059 C 
ENDROOT
BRANCH   1   2
ATOM      2  C   UNL     1     -14.851 -11.270  -8.530  1.00  0.00     0.042 C 
ATOM      3  O   UNL     1     -14.805 -12.431  -8.045  1.00  0.00    -0.550 OA
ATOM      4  O   UNL     1     -14.050 -10.268  -7.997  1.00  0.00    -0.550 OA
ENDBRANCH   1   2
BRANCH   1   5
ATOM      5  C   UNL     1     -16.533  -9.689  -9.511  1.00  0.00     0.059 C 
BRANCH   5   6
ATOM      6  C   UNL     1     -17.945  -9.837  -9.988  1.00  0.00     0.042 C 
ATOM      7  O   UNL     1     -18.856  -9.111  -9.509  1.00  0.00    -0.550 OA
ATOM      8  O   UNL     1     -18.261 -10.805 -10.933  1.00  0.00    -0.550 OA
ENDBRANCH   5   6
ENDBRANCH   1   5
TORSDOF 3
ENDMDL
