MODEL 1
REMARK VINA RESULT:    -4.346      0.000      0.000
REMARK INTER + INTRA:          -5.448
REMARK INTER:                  -5.235
REMARK INTRA:                  -0.213
REMARK UNBOUND:                -0.213
REMARK SMILES O=c1c(O)c(-c2ccc(O)c(O)c2)oc2cc(O)cc(O)c12
REMARK SMILES IDX 5 1 3 2 2 3 1 4 22 5 20 6 19 7 17 8 16 9 15 10 14 11 6 12
REMARK SMILES IDX 7 13 8 14 9 15 13 16 11 17 10 18 12 20 4 22 21 24 18 26
REMARK H PARENT 10 19 12 21 4 23 21 25 18 27
REMARK Flexibility Score: inf
ROOT
ATOM      1  C   UNL     1      23.335  24.402   5.136  1.00  0.00     0.180 A 
ATOM      2  C   UNL     1      24.540  24.010   5.742  1.00  0.00     0.208 A 
ATOM      3  C   UNL     1      25.399  24.998   6.250  1.00  0.00     0.238 A 
ATOM      4  O   UNL     1      26.452  24.638   6.840  1.00  0.00    -0.285 OA
ATOM      5  C   UNL     1      25.050  26.364   6.132  1.00  0.00     0.111 A 
ATOM      6  C   UNL     1      25.863  27.451   6.576  1.00  0.00     0.134 A 
ATOM      7  C   UNL     1      25.359  28.755   6.528  1.00  0.00     0.093 A 
ATOM      8  C   UNL     1      24.096  29.021   5.991  1.00  0.00     0.123 A 
ATOM      9  C   UNL     1      23.320  27.974   5.499  1.00  0.00     0.094 A 
ATOM     10  C   UNL     1      23.781  26.657   5.568  1.00  0.00     0.146 A 
ATOM     11  O   UNL     1      23.004  25.688   5.099  1.00  0.00    -0.452 OA
ENDROOT
BRANCH   1  12
ATOM     12  C   UNL     1      22.390  23.421   4.554  1.00  0.00     0.025 A 
ATOM     13  C   UNL     1      22.730  22.661   3.422  1.00  0.00     0.016 A 
ATOM     14  C   UNL     1      21.813  21.759   2.875  1.00  0.00     0.051 A 
ATOM     15  C   UNL     1      20.543  21.612   3.441  1.00  0.00     0.157 A 
ATOM     16  C   UNL     1      21.106  23.286   5.107  1.00  0.00     0.062 A 
ATOM     17  C   UNL     1      20.185  22.379   4.561  1.00  0.00     0.158 A 
BRANCH  15  18
ATOM     18  O   UNL     1      19.650  20.701   2.875  1.00  0.00    -0.504 OA
ATOM     19  H   UNL     1      19.612  19.732   3.168  1.00  0.00     0.293 HD
ENDBRANCH  15  18
BRANCH  17  20
ATOM     20  O   UNL     1      18.917  22.243   5.125  1.00  0.00    -0.504 OA
ATOM     21  H   UNL     1      18.785  21.822   6.037  1.00  0.00     0.293 HD
ENDBRANCH  17  20
ENDBRANCH   1  12
BRANCH   2  22
ATOM     22  O   UNL     1      24.856  22.655   5.867  1.00  0.00    -0.502 OA
ATOM     23  H   UNL     1      25.189  22.251   6.735  1.00  0.00     0.293 HD
ENDBRANCH   2  22
BRANCH   6  24
ATOM     24  O   UNL     1      27.172  27.304   7.044  1.00  0.00    -0.507 OA
ATOM     25  H   UNL     1      27.837  28.058   7.138  1.00  0.00     0.293 HD
ENDBRANCH   6  24
BRANCH   8  26
ATOM     26  O   UNL     1      23.609  30.325   5.930  1.00  0.00    -0.508 OA
ATOM     27  H   UNL     1      24.131  31.065   5.476  1.00  0.00     0.293 HD
ENDBRANCH   8  26
TORSDOF 6
ENDMDL
MODEL 2
REMARK VINA RESULT:    -4.309      2.792      6.853
REMARK INTER + INTRA:          -5.403
REMARK INTER:                  -5.087
REMARK INTRA:                  -0.316
REMARK UNBOUND:                -0.213
REMARK SMILES O=c1c(O)c(-c2ccc(O)c(O)c2)oc2cc(O)cc(O)c12
REMARK SMILES IDX 5 1 3 2 2 3 1 4 22 5 20 6 19 7 17 8 16 9 15 10 14 11 6 12
REMARK SMILES IDX 7 13 8 14 9 15 13 16 11 17 10 18 12 20 4 22 21 24 18 26
REMARK H PARENT 10 19 12 21 4 23 21 25 18 27
REMARK Flexibility Score: inf
ROOT
ATOM      1  C   UNL     1      22.820  27.484   4.338  1.00  0.00     0.180 A 
ATOM      2  C   UNL     1      21.924  26.691   5.074  1.00  0.00     0.208 A 
ATOM      3  C   UNL     1      22.176  25.316   5.199  1.00  0.00     0.238 A 
ATOM      4  O   UNL     1      21.399  24.620   5.904  1.00  0.00    -0.285 OA
ATOM      5  C   UNL     1      23.311  24.748   4.571  1.00  0.00     0.111 A 
ATOM      6  C   UNL     1      23.642  23.359   4.598  1.00  0.00     0.134 A 
ATOM      7  C   UNL     1      24.858  22.929   4.055  1.00  0.00     0.093 A 
ATOM      8  C   UNL     1      25.726  23.827   3.428  1.00  0.00     0.123 A 
ATOM      9  C   UNL     1      25.383  25.175   3.344  1.00  0.00     0.094 A 
ATOM     10  C   UNL     1      24.193  25.640   3.909  1.00  0.00     0.146 A 
ATOM     11  O   UNL     1      23.911  26.934   3.817  1.00  0.00    -0.452 OA
ENDROOT
BRANCH   1  12
ATOM     12  C   UNL     1      22.608  28.937   4.141  1.00  0.00     0.025 A 
ATOM     13  C   UNL     1      21.730  29.421   3.158  1.00  0.00     0.016 A 
ATOM     14  C   UNL     1      21.564  30.797   2.974  1.00  0.00     0.051 A 
ATOM     15  C   UNL     1      22.281  31.706   3.757  1.00  0.00     0.157 A 
ATOM     16  C   UNL     1      23.342  29.853   4.913  1.00  0.00     0.062 A 
ATOM     17  C   UNL     1      23.176  31.235   4.731  1.00  0.00     0.158 A 
BRANCH  15  18
ATOM     18  O   UNL     1      22.092  33.074   3.553  1.00  0.00    -0.504 OA
ATOM     19  H   UNL     1      22.804  33.756   3.786  1.00  0.00     0.293 HD
ENDBRANCH  15  18
BRANCH  17  20
ATOM     20  O   UNL     1      23.899  32.136   5.511  1.00  0.00    -0.504 OA
ATOM     21  H   UNL     1      23.747  32.213   6.510  1.00  0.00     0.293 HD
ENDBRANCH  17  20
ENDBRANCH   1  12
BRANCH   2  22
ATOM     22  O   UNL     1      20.821  27.275   5.703  1.00  0.00    -0.502 OA
ATOM     23  H   UNL     1      20.026  27.634   5.186  1.00  0.00     0.293 HD
ENDBRANCH   2  22
BRANCH   6  24
ATOM     24  O   UNL     1      22.805  22.367   5.117  1.00  0.00    -0.507 OA
ATOM     25  H   UNL     1      21.958  22.041   4.676  1.00  0.00     0.293 HD
ENDBRANCH   6  24
BRANCH   8  26
ATOM     26  O   UNL     1      26.927  23.388   2.875  1.00  0.00    -0.508 OA
ATOM     27  H   UNL     1      26.958  22.932   1.970  1.00  0.00     0.293 HD
ENDBRANCH   8  26
TORSDOF 6
ENDMDL
MODEL 3
REMARK VINA RESULT:    -4.279      2.886      7.840
REMARK INTER + INTRA:          -5.367
REMARK INTER:                  -5.058
REMARK INTRA:                  -0.309
REMARK UNBOUND:                -0.213
REMARK SMILES O=c1c(O)c(-c2ccc(O)c(O)c2)oc2cc(O)cc(O)c12
REMARK SMILES IDX 5 1 3 2 2 3 1 4 22 5 20 6 19 7 17 8 16 9 15 10 14 11 6 12
REMARK SMILES IDX 7 13 8 14 9 15 13 16 11 17 10 18 12 20 4 22 21 24 18 26
REMARK H PARENT 10 19 12 21 4 23 21 25 18 27
REMARK Flexibility Score: inf
ROOT
ATOM      1  C   UNL     1      20.716  26.570   3.797  1.00  0.00     0.180 A 
ATOM      2  C   UNL     1      19.322  26.714   3.707  1.00  0.00     0.208 A 
ATOM      3  C   UNL     1      18.530  25.570   3.520  1.00  0.00     0.238 A 
ATOM      4  O   UNL     1      17.278  25.700   3.494  1.00  0.00    -0.285 OA
ATOM      5  C   UNL     1      19.143  24.299   3.409  1.00  0.00     0.111 A 
ATOM      6  C   UNL     1      18.441  23.078   3.179  1.00  0.00     0.134 A 
ATOM      7  C   UNL     1      19.136  21.864   3.219  1.00  0.00     0.093 A 
ATOM      8  C   UNL     1      20.519  21.831   3.415  1.00  0.00     0.123 A 
ATOM      9  C   UNL     1      21.222  23.022   3.581  1.00  0.00     0.094 A 
ATOM     10  C   UNL     1      20.550  24.247   3.583  1.00  0.00     0.146 A 
ATOM     11  O   UNL     1      21.256  25.358   3.756  1.00  0.00    -0.452 OA
ENDROOT
BRANCH   1  12
ATOM     12  C   UNL     1      21.620  27.731   3.969  1.00  0.00     0.025 A 
ATOM     13  C   UNL     1      21.977  28.547   2.882  1.00  0.00     0.016 A 
ATOM     14  C   UNL     1      22.850  29.623   3.062  1.00  0.00     0.051 A 
ATOM     15  C   UNL     1      23.388  29.893   4.324  1.00  0.00     0.157 A 
ATOM     16  C   UNL     1      22.178  27.992   5.231  1.00  0.00     0.062 A 
ATOM     17  C   UNL     1      23.054  29.073   5.414  1.00  0.00     0.158 A 
BRANCH  15  18
ATOM     18  O   UNL     1      24.255  30.976   4.474  1.00  0.00    -0.504 OA
ATOM     19  H   UNL     1      24.281  31.530   5.322  1.00  0.00     0.293 HD
ENDBRANCH  15  18
BRANCH  17  20
ATOM     20  O   UNL     1      23.593  29.332   6.674  1.00  0.00    -0.504 OA
ATOM     21  H   UNL     1      23.583  28.634   7.409  1.00  0.00     0.293 HD
ENDBRANCH  17  20
ENDBRANCH   1  12
BRANCH   2  22
ATOM     22  O   UNL     1      18.736  27.976   3.840  1.00  0.00    -0.502 OA
ATOM     23  H   UNL     1      18.826  28.533   4.682  1.00  0.00     0.293 HD
ENDBRANCH   2  22
BRANCH   6  24
ATOM     24  O   UNL     1      17.076  23.006   2.882  1.00  0.00    -0.507 OA
ATOM     25  H   UNL     1      16.446  23.794   2.884  1.00  0.00     0.293 HD
ENDBRANCH   6  24
BRANCH   8  26
ATOM     26  O   UNL     1      21.206  20.619   3.437  1.00  0.00    -0.508 OA
ATOM     27  H   UNL     1      22.186  20.562   3.185  1.00  0.00     0.293 HD
ENDBRANCH   8  26
TORSDOF 6
ENDMDL
MODEL 4
REMARK VINA RESULT:    -4.253      1.579      3.147
REMARK INTER + INTRA:          -5.337
REMARK INTER:                  -5.049
REMARK INTRA:                  -0.288
REMARK UNBOUND:                -0.213
REMARK SMILES O=c1c(O)c(-c2ccc(O)c(O)c2)oc2cc(O)cc(O)c12
REMARK SMILES IDX 5 1 3 2 2 3 1 4 22 5 20 6 19 7 17 8 16 9 15 10 14 11 6 12
REMARK SMILES IDX 7 13 8 14 9 15 13 16 11 17 10 18 12 20 4 22 21 24 18 26
REMARK H PARENT 10 19 12 21 4 23 21 25 18 27
REMARK Flexibility Score: inf
ROOT
ATOM      1  C   UNL     1      22.244  25.668   4.488  1.00  0.00     0.180 A 
ATOM      2  C   UNL     1      21.688  26.799   3.868  1.00  0.00     0.208 A 
ATOM      3  C   UNL     1      22.153  28.073   4.233  1.00  0.00     0.238 A 
ATOM      4  O   UNL     1      21.688  29.080   3.635  1.00  0.00    -0.285 OA
ATOM      5  C   UNL     1      23.155  28.200   5.224  1.00  0.00     0.111 A 
ATOM      6  C   UNL     1      23.671  29.443   5.701  1.00  0.00     0.134 A 
ATOM      7  C   UNL     1      24.754  29.446   6.588  1.00  0.00     0.093 A 
ATOM      8  C   UNL     1      25.296  28.251   7.068  1.00  0.00     0.123 A 
ATOM      9  C   UNL     1      24.759  27.033   6.655  1.00  0.00     0.094 A 
ATOM     10  C   UNL     1      23.703  26.998   5.742  1.00  0.00     0.146 A 
ATOM     11  O   UNL     1      23.229  25.816   5.366  1.00  0.00    -0.452 OA
ENDROOT
BRANCH   1  12
ATOM     12  C   UNL     1      21.789  24.294   4.174  1.00  0.00     0.025 A 
ATOM     13  C   UNL     1      22.504  23.471   3.287  1.00  0.00     0.016 A 
ATOM     14  C   UNL     1      22.043  22.186   2.987  1.00  0.00     0.051 A 
ATOM     15  C   UNL     1      20.858  21.710   3.556  1.00  0.00     0.157 A 
ATOM     16  C   UNL     1      20.589  23.820   4.728  1.00  0.00     0.062 A 
ATOM     17  C   UNL     1      20.125  22.529   4.430  1.00  0.00     0.158 A 
BRANCH  15  18
ATOM     18  O   UNL     1      20.424  20.422   3.241  1.00  0.00    -0.504 OA
ATOM     19  H   UNL     1      20.115  19.769   3.951  1.00  0.00     0.293 HD
ENDBRANCH  15  18
BRANCH  17  20
ATOM     20  O   UNL     1      18.939  22.063   4.995  1.00  0.00    -0.504 OA
ATOM     21  H   UNL     1      18.905  21.719   5.948  1.00  0.00     0.293 HD
ENDBRANCH  17  20
ENDBRANCH   1  12
BRANCH   2  22
ATOM     22  O   UNL     1      20.715  26.651   2.876  1.00  0.00    -0.502 OA
ATOM     23  H   UNL     1      20.235  25.773   2.710  1.00  0.00     0.293 HD
ENDBRANCH   2  22
BRANCH   6  24
ATOM     24  O   UNL     1      23.143  30.691   5.356  1.00  0.00    -0.507 OA
ATOM     25  H   UNL     1      22.294  30.830   4.829  1.00  0.00     0.293 HD
ENDBRANCH   6  24
BRANCH   8  26
ATOM     26  O   UNL     1      26.363  28.263   7.964  1.00  0.00    -0.508 OA
ATOM     27  H   UNL     1      27.031  27.502   8.002  1.00  0.00     0.293 HD
ENDBRANCH   8  26
TORSDOF 6
ENDMDL
MODEL 5
REMARK VINA RESULT:    -4.187      2.340      6.840
REMARK INTER + INTRA:          -5.256
REMARK INTER:                  -4.954
REMARK INTRA:                  -0.302
REMARK UNBOUND:                -0.213
REMARK SMILES O=c1c(O)c(-c2ccc(O)c(O)c2)oc2cc(O)cc(O)c12
REMARK SMILES IDX 5 1 3 2 2 3 1 4 22 5 20 6 19 7 17 8 16 9 15 10 14 11 6 12
REMARK SMILES IDX 7 13 8 14 9 15 13 16 11 17 10 18 12 20 4 22 21 24 18 26
REMARK H PARENT 10 19 12 21 4 23 21 25 18 27
REMARK Flexibility Score: inf
ROOT
ATOM      1  C   UNL     1      23.365  27.662   4.130  1.00  0.00     0.180 A 
ATOM      2  C   UNL     1      24.624  27.101   3.856  1.00  0.00     0.208 A 
ATOM      3  C   UNL     1      24.784  25.710   3.953  1.00  0.00     0.238 A 
ATOM      4  O   UNL     1      25.900  25.208   3.655  1.00  0.00    -0.285 OA
ATOM      5  C   UNL     1      23.689  24.899   4.337  1.00  0.00     0.111 A 
ATOM      6  C   UNL     1      23.748  23.483   4.505  1.00  0.00     0.134 A 
ATOM      7  C   UNL     1      22.572  22.767   4.759  1.00  0.00     0.093 A 
ATOM      8  C   UNL     1      21.349  23.424   4.916  1.00  0.00     0.123 A 
ATOM      9  C   UNL     1      21.291  24.813   4.813  1.00  0.00     0.094 A 
ATOM     10  C   UNL     1      22.442  25.549   4.524  1.00  0.00     0.146 A 
ATOM     11  O   UNL     1      22.341  26.870   4.423  1.00  0.00    -0.452 OA
ENDROOT
BRANCH   1  12
ATOM     12  C   UNL     1      23.124  29.123   4.074  1.00  0.00     0.025 A 
ATOM     13  C   UNL     1      22.577  29.731   2.932  1.00  0.00     0.016 A 
ATOM     14  C   UNL     1      22.380  31.114   2.892  1.00  0.00     0.051 A 
ATOM     15  C   UNL     1      22.739  31.910   3.984  1.00  0.00     0.157 A 
ATOM     16  C   UNL     1      23.502  29.928   5.161  1.00  0.00     0.062 A 
ATOM     17  C   UNL     1      23.304  31.317   5.125  1.00  0.00     0.158 A 
BRANCH  15  18
ATOM     18  O   UNL     1      22.528  33.288   3.918  1.00  0.00    -0.504 OA
ATOM     19  H   UNL     1      22.405  33.771   3.036  1.00  0.00     0.293 HD
ENDBRANCH  15  18
BRANCH  17  20
ATOM     20  O   UNL     1      23.671  32.105   6.214  1.00  0.00    -0.504 OA
ATOM     21  H   UNL     1      24.362  32.841   6.127  1.00  0.00     0.293 HD
ENDBRANCH  17  20
ENDBRANCH   1  12
BRANCH   2  22
ATOM     22  O   UNL     1      25.686  27.917   3.458  1.00  0.00    -0.502 OA
ATOM     23  H   UNL     1      25.684  28.921   3.598  1.00  0.00     0.293 HD
ENDBRANCH   2  22
BRANCH   6  24
ATOM     24  O   UNL     1      24.933  22.741   4.460  1.00  0.00    -0.507 OA
ATOM     25  H   UNL     1      25.392  22.443   3.613  1.00  0.00     0.293 HD
ENDBRANCH   6  24
BRANCH   8  26
ATOM     26  O   UNL     1      20.185  22.706   5.185  1.00  0.00    -0.508 OA
ATOM     27  H   UNL     1      20.018  21.796   4.773  1.00  0.00     0.293 HD
ENDBRANCH   8  26
TORSDOF 6
ENDMDL
MODEL 6
REMARK VINA RESULT:    -4.112      2.186      6.478
REMARK INTER + INTRA:          -5.166
REMARK INTER:                  -4.845
REMARK INTRA:                  -0.321
REMARK UNBOUND:                -0.213
REMARK SMILES O=c1c(O)c(-c2ccc(O)c(O)c2)oc2cc(O)cc(O)c12
REMARK SMILES IDX 5 1 3 2 2 3 1 4 22 5 20 6 19 7 17 8 16 9 15 10 14 11 6 12
REMARK SMILES IDX 7 13 8 14 9 15 13 16 11 17 10 18 12 20 4 22 21 24 18 26
REMARK H PARENT 10 19 12 21 4 23 21 25 18 27
REMARK Flexibility Score: inf
ROOT
ATOM      1  C   UNL     1      25.251  25.926   5.455  1.00  0.00     0.180 A 
ATOM      2  C   UNL     1      26.577  25.561   5.742  1.00  0.00     0.208 A 
ATOM      3  C   UNL     1      26.924  24.201   5.746  1.00  0.00     0.238 A 
ATOM      4  O   UNL     1      28.125  23.884   5.951  1.00  0.00    -0.285 OA
ATOM      5  C   UNL     1      25.937  23.221   5.479  1.00  0.00     0.111 A 
ATOM      6  C   UNL     1      26.167  21.813   5.496  1.00  0.00     0.134 A 
ATOM      7  C   UNL     1      25.150  20.941   5.089  1.00  0.00     0.093 A 
ATOM      8  C   UNL     1      23.890  21.424   4.727  1.00  0.00     0.123 A 
ATOM      9  C   UNL     1      23.637  22.794   4.765  1.00  0.00     0.094 A 
ATOM     10  C   UNL     1      24.643  23.690   5.133  1.00  0.00     0.146 A 
ATOM     11  O   UNL     1      24.363  24.988   5.144  1.00  0.00    -0.452 OA
ENDROOT
BRANCH   1  12
ATOM     12  C   UNL     1      24.803  27.338   5.457  1.00  0.00     0.025 A 
ATOM     13  C   UNL     1      24.822  28.112   4.285  1.00  0.00     0.016 A 
ATOM     14  C   UNL     1      24.417  29.449   4.314  1.00  0.00     0.051 A 
ATOM     15  C   UNL     1      24.003  30.036   5.514  1.00  0.00     0.157 A 
ATOM     16  C   UNL     1      24.406  27.935   6.664  1.00  0.00     0.062 A 
ATOM     17  C   UNL     1      23.998  29.278   6.696  1.00  0.00     0.158 A 
BRANCH  15  18
ATOM     18  O   UNL     1      23.602  31.372   5.513  1.00  0.00    -0.504 OA
ATOM     19  H   UNL     1      22.916  31.729   6.167  1.00  0.00     0.293 HD
ENDBRANCH  15  18
BRANCH  17  20
ATOM     20  O   UNL     1      23.593  29.858   7.897  1.00  0.00    -0.504 OA
ATOM     21  H   UNL     1      23.548  29.323   8.756  1.00  0.00     0.293 HD
ENDBRANCH  17  20
ENDBRANCH   1  12
BRANCH   2  22
ATOM     22  O   UNL     1      27.540  26.545   5.981  1.00  0.00    -0.502 OA
ATOM     23  H   UNL     1      27.302  27.522   6.109  1.00  0.00     0.293 HD
ENDBRANCH   2  22
BRANCH   6  24
ATOM     24  O   UNL     1      27.359  21.222   5.928  1.00  0.00    -0.507 OA
ATOM     25  H   UNL     1      28.263  21.668   5.903  1.00  0.00     0.293 HD
ENDBRANCH   6  24
BRANCH   8  26
ATOM     26  O   UNL     1      22.877  20.549   4.339  1.00  0.00    -0.508 OA
ATOM     27  H   UNL     1      22.770  19.638   4.770  1.00  0.00     0.293 HD
ENDBRANCH   8  26
TORSDOF 6
ENDMDL
MODEL 7
REMARK VINA RESULT:    -4.106      2.652      7.449
REMARK INTER + INTRA:          -5.159
REMARK INTER:                  -4.893
REMARK INTRA:                  -0.266
REMARK UNBOUND:                -0.213
REMARK SMILES O=c1c(O)c(-c2ccc(O)c(O)c2)oc2cc(O)cc(O)c12
REMARK SMILES IDX 5 1 3 2 2 3 1 4 22 5 20 6 19 7 17 8 16 9 15 10 14 11 6 12
REMARK SMILES IDX 7 13 8 14 9 15 13 16 11 17 10 18 12 20 4 22 21 24 18 26
REMARK H PARENT 10 19 12 21 4 23 21 25 18 27
REMARK Flexibility Score: inf
ROOT
ATOM      1  C   UNL     1      21.069  25.449   3.833  1.00  0.00     0.180 A 
ATOM      2  C   UNL     1      19.699  25.141   3.787  1.00  0.00     0.208 A 
ATOM      3  C   UNL     1      19.307  23.805   3.608  1.00  0.00     0.238 A 
ATOM      4  O   UNL     1      18.078  23.529   3.621  1.00  0.00    -0.285 OA
ATOM      5  C   UNL     1      20.289  22.796   3.461  1.00  0.00     0.111 A 
ATOM      6  C   UNL     1      20.005  21.415   3.235  1.00  0.00     0.134 A 
ATOM      7  C   UNL     1      21.051  20.486   3.237  1.00  0.00     0.093 A 
ATOM      8  C   UNL     1      22.379  20.895   3.391  1.00  0.00     0.123 A 
ATOM      9  C   UNL     1      22.671  22.248   3.552  1.00  0.00     0.094 A 
ATOM     10  C   UNL     1      21.644  23.194   3.591  1.00  0.00     0.146 A 
ATOM     11  O   UNL     1      21.966  24.472   3.758  1.00  0.00    -0.452 OA
ENDROOT
BRANCH   1  12
ATOM     12  C   UNL     1      21.561  26.837   3.993  1.00  0.00     0.025 A 
ATOM     13  C   UNL     1      21.488  27.764   2.940  1.00  0.00     0.016 A 
ATOM     14  C   UNL     1      21.979  29.062   3.106  1.00  0.00     0.051 A 
ATOM     15  C   UNL     1      22.562  29.448   4.317  1.00  0.00     0.157 A 
ATOM     16  C   UNL     1      22.165  27.221   5.201  1.00  0.00     0.062 A 
ATOM     17  C   UNL     1      22.659  28.524   5.370  1.00  0.00     0.158 A 
BRANCH  15  18
ATOM     18  O   UNL     1      23.042  30.751   4.454  1.00  0.00    -0.504 OA
ATOM     19  H   UNL     1      22.468  31.499   4.823  1.00  0.00     0.293 HD
ENDBRANCH  15  18
BRANCH  17  20
ATOM     20  O   UNL     1      23.245  28.899   6.578  1.00  0.00    -0.504 OA
ATOM     21  H   UNL     1      22.738  29.440   7.268  1.00  0.00     0.293 HD
ENDBRANCH  17  20
ENDBRANCH   1  12
BRANCH   2  22
ATOM     22  O   UNL     1      18.746  26.150   3.955  1.00  0.00    -0.502 OA
ATOM     23  H   UNL     1      17.874  25.998   4.447  1.00  0.00     0.293 HD
ENDBRANCH   2  22
BRANCH   6  24
ATOM     24  O   UNL     1      18.725  20.914   2.979  1.00  0.00    -0.507 OA
ATOM     25  H   UNL     1      18.200  21.083   2.134  1.00  0.00     0.293 HD
ENDBRANCH   6  24
BRANCH   8  26
ATOM     26  O   UNL     1      23.417  19.965   3.375  1.00  0.00    -0.508 OA
ATOM     27  H   UNL     1      24.350  20.220   3.074  1.00  0.00     0.293 HD
ENDBRANCH   8  26
TORSDOF 6
ENDMDL
MODEL 8
REMARK VINA RESULT:    -4.086      2.447      7.300
REMARK INTER + INTRA:          -5.135
REMARK INTER:                  -4.852
REMARK INTRA:                  -0.283
REMARK UNBOUND:                -0.213
REMARK SMILES O=c1c(O)c(-c2ccc(O)c(O)c2)oc2cc(O)cc(O)c12
REMARK SMILES IDX 5 1 3 2 2 3 1 4 22 5 20 6 19 7 17 8 16 9 15 10 14 11 6 12
REMARK SMILES IDX 7 13 8 14 9 15 13 16 11 17 10 18 12 20 4 22 21 24 18 26
REMARK H PARENT 10 19 12 21 4 23 21 25 18 27
REMARK Flexibility Score: inf
ROOT
ATOM      1  C   UNL     1      22.332  26.666   4.480  1.00  0.00     0.180 A 
ATOM      2  C   UNL     1      21.350  27.611   4.139  1.00  0.00     0.208 A 
ATOM      3  C   UNL     1      20.064  27.164   3.798  1.00  0.00     0.238 A 
ATOM      4  O   UNL     1      19.174  28.019   3.545  1.00  0.00    -0.285 OA
ATOM      5  C   UNL     1      19.780  25.778   3.785  1.00  0.00     0.111 A 
ATOM      6  C   UNL     1      18.522  25.211   3.416  1.00  0.00     0.134 A 
ATOM      7  C   UNL     1      18.314  23.835   3.567  1.00  0.00     0.093 A 
ATOM      8  C   UNL     1      19.339  22.995   4.011  1.00  0.00     0.123 A 
ATOM      9  C   UNL     1      20.589  23.531   4.316  1.00  0.00     0.094 A 
ATOM     10  C   UNL     1      20.815  24.905   4.211  1.00  0.00     0.146 A 
ATOM     11  O   UNL     1      22.016  25.376   4.523  1.00  0.00    -0.452 OA
ENDROOT
BRANCH   1  12
ATOM     12  C   UNL     1      23.717  27.058   4.827  1.00  0.00     0.025 A 
ATOM     13  C   UNL     1      24.771  26.908   3.909  1.00  0.00     0.016 A 
ATOM     14  C   UNL     1      26.075  27.262   4.266  1.00  0.00     0.051 A 
ATOM     15  C   UNL     1      26.348  27.757   5.545  1.00  0.00     0.157 A 
ATOM     16  C   UNL     1      23.998  27.535   6.117  1.00  0.00     0.062 A 
ATOM     17  C   UNL     1      25.307  27.893   6.477  1.00  0.00     0.158 A 
BRANCH  15  18
ATOM     18  O   UNL     1      27.659  28.105   5.872  1.00  0.00    -0.504 OA
ATOM     19  H   UNL     1      28.146  28.862   5.409  1.00  0.00     0.293 HD
ENDBRANCH  15  18
BRANCH  17  20
ATOM     20  O   UNL     1      25.573  28.379   7.757  1.00  0.00    -0.504 OA
ATOM     21  H   UNL     1      24.990  28.134   8.549  1.00  0.00     0.293 HD
ENDBRANCH  17  20
ENDBRANCH   1  12
BRANCH   2  22
ATOM     22  O   UNL     1      21.646  28.977   4.178  1.00  0.00    -0.502 OA
ATOM     23  H   UNL     1      22.561  29.329   4.433  1.00  0.00     0.293 HD
ENDBRANCH   2  22
BRANCH   6  24
ATOM     24  O   UNL     1      17.464  25.947   2.875  1.00  0.00    -0.507 OA
ATOM     25  H   UNL     1      16.964  25.702   2.034  1.00  0.00     0.293 HD
ENDBRANCH   6  24
BRANCH   8  26
ATOM     26  O   UNL     1      19.129  21.624   4.143  1.00  0.00    -0.508 OA
ATOM     27  H   UNL     1      18.206  21.244   4.319  1.00  0.00     0.293 HD
ENDBRANCH   8  26
TORSDOF 6
ENDMDL
