MODEL 1
REMARK VINA RESULT:    -6.358      0.000      0.000
REMARK INTER + INTRA:          -6.961
REMARK INTER:                  -6.730
REMARK INTRA:                  -0.231
REMARK UNBOUND:                -0.231
REMARK SMILES O=c1cc(-c2ccccc2)oc2ccccc12
REMARK SMILES IDX 4 1 3 2 2 3 1 4 17 5 16 6 15 7 14 8 13 9 12 10 11 11 5 12
REMARK SMILES IDX 8 13 7 14 9 15 6 16 10 17
REMARK H PARENT
REMARK Flexibility Score: inf
ROOT
ATOM      1  C   UNL     1     -41.629 -22.088  19.127  1.00  0.00     0.138 A 
ATOM      2  C   UNL     1     -41.448 -23.207  19.967  1.00  0.00     0.100 A 
ATOM      3  C   UNL     1     -41.484 -24.491  19.420  1.00  0.00     0.193 A 
ATOM      4  O   UNL     1     -41.323 -25.491  20.173  1.00  0.00    -0.289 OA
ATOM      5  C   UNL     1     -41.699 -24.650  18.045  1.00  0.00     0.065 A 
ATOM      6  C   UNL     1     -41.747 -25.915  17.431  1.00  0.00     0.016 A 
ATOM      7  C   UNL     1     -41.965 -26.017  16.054  1.00  0.00     0.001 A 
ATOM      8  C   UNL     1     -42.137 -24.864  15.282  1.00  0.00     0.004 A 
ATOM      9  C   UNL     1     -42.090 -23.603  15.883  1.00  0.00     0.048 A 
ATOM     10  C   UNL     1     -41.873 -23.490  17.261  1.00  0.00     0.138 A 
ATOM     11  O   UNL     1     -41.832 -22.286  17.824  1.00  0.00    -0.456 OA
ENDROOT
BRANCH   1  12
ATOM     12  C   UNL     1     -41.605 -20.679  19.630  1.00  0.00     0.017 A 
ATOM     13  C   UNL     1     -41.654 -18.013  20.555  1.00  0.00     0.000 A 
ATOM     14  C   UNL     1     -42.800 -18.580  19.999  1.00  0.00     0.001 A 
ATOM     15  C   UNL     1     -40.484 -18.764  20.654  1.00  0.00     0.001 A 
ATOM     16  C   UNL     1     -42.778 -19.900  19.540  1.00  0.00     0.012 A 
ATOM     17  C   UNL     1     -40.453 -20.087  20.197  1.00  0.00     0.012 A 
ENDBRANCH   1  12
TORSDOF 1
ENDMDL
MODEL 2
REMARK VINA RESULT:    -5.952      1.641      6.092
REMARK INTER + INTRA:          -6.531
REMARK INTER:                  -6.266
REMARK INTRA:                  -0.265
REMARK UNBOUND:                -0.231
REMARK SMILES O=c1cc(-c2ccccc2)oc2ccccc12
REMARK SMILES IDX 4 1 3 2 2 3 1 4 17 5 16 6 15 7 14 8 13 9 12 10 11 11 5 12
REMARK SMILES IDX 8 13 7 14 9 15 6 16 10 17
REMARK H PARENT
REMARK Flexibility Score: inf
ROOT
ATOM      1  C   UNL     1     -41.195 -22.189  18.051  1.00  0.00     0.138 A 
ATOM      2  C   UNL     1     -39.877 -21.983  18.509  1.00  0.00     0.100 A 
ATOM      3  C   UNL     1     -39.594 -20.884  19.323  1.00  0.00     0.193 A 
ATOM      4  O   UNL     1     -38.414 -20.701  19.732  1.00  0.00    -0.289 OA
ATOM      5  C   UNL     1     -40.625 -20.003  19.675  1.00  0.00     0.065 A 
ATOM      6  C   UNL     1     -40.408 -18.878  20.492  1.00  0.00     0.016 A 
ATOM      7  C   UNL     1     -41.473 -18.030  20.812  1.00  0.00     0.001 A 
ATOM      8  C   UNL     1     -42.754 -18.295  20.323  1.00  0.00     0.004 A 
ATOM      9  C   UNL     1     -42.979 -19.411  19.511  1.00  0.00     0.048 A 
ATOM     10  C   UNL     1     -41.921 -20.266  19.184  1.00  0.00     0.138 A 
ATOM     11  O   UNL     1     -42.145 -21.324  18.411  1.00  0.00    -0.456 OA
ENDROOT
BRANCH   1  12
ATOM     12  C   UNL     1     -41.583 -23.339  17.177  1.00  0.00     0.017 A 
ATOM     13  C   UNL     1     -42.219 -25.529  15.515  1.00  0.00     0.000 A 
ATOM     14  C   UNL     1     -40.886 -25.217  15.778  1.00  0.00     0.001 A 
ATOM     15  C   UNL     1     -43.237 -24.759  16.074  1.00  0.00     0.001 A 
ATOM     16  C   UNL     1     -40.568 -24.132  16.600  1.00  0.00     0.012 A 
ATOM     17  C   UNL     1     -42.929 -23.672  16.899  1.00  0.00     0.012 A 
ENDBRANCH   1  12
TORSDOF 1
ENDMDL
MODEL 3
REMARK VINA RESULT:    -5.816     11.664     13.860
REMARK INTER + INTRA:          -6.387
REMARK INTER:                  -6.138
REMARK INTRA:                  -0.249
REMARK UNBOUND:                -0.231
REMARK SMILES O=c1cc(-c2ccccc2)oc2ccccc12
REMARK SMILES IDX 4 1 3 2 2 3 1 4 17 5 16 6 15 7 14 8 13 9 12 10 11 11 5 12
REMARK SMILES IDX 8 13 7 14 9 15 6 16 10 17
REMARK H PARENT
REMARK Flexibility Score: inf
ROOT
ATOM      1  C   UNL     1     -33.261 -22.586   8.185  1.00  0.00     0.138 A 
ATOM      2  C   UNL     1     -32.718 -23.626   8.969  1.00  0.00     0.100 A 
ATOM      3  C   UNL     1     -32.946 -23.640  10.347  1.00  0.00     0.193 A 
ATOM      4  O   UNL     1     -32.460 -24.571  11.047  1.00  0.00    -0.289 OA
ATOM      5  C   UNL     1     -33.711 -22.623  10.930  1.00  0.00     0.065 A 
ATOM      6  C   UNL     1     -33.979 -22.578  12.312  1.00  0.00     0.016 A 
ATOM      7  C   UNL     1     -34.749 -21.539  12.842  1.00  0.00     0.001 A 
ATOM      8  C   UNL     1     -35.255 -20.541  12.005  1.00  0.00     0.004 A 
ATOM      9  C   UNL     1     -34.996 -20.577  10.632  1.00  0.00     0.048 A 
ATOM     10  C   UNL     1     -34.226 -21.612  10.090  1.00  0.00     0.138 A 
ATOM     11  O   UNL     1     -33.983 -21.638   8.784  1.00  0.00    -0.456 OA
ENDROOT
BRANCH   1  12
ATOM     12  C   UNL     1     -33.066 -22.495   6.705  1.00  0.00     0.017 A 
ATOM     13  C   UNL     1     -32.791 -22.295   3.904  1.00  0.00     0.000 A 
ATOM     14  C   UNL     1     -34.012 -21.998   4.508  1.00  0.00     0.001 A 
ATOM     15  C   UNL     1     -31.706 -22.690   4.684  1.00  0.00     0.001 A 
ATOM     16  C   UNL     1     -34.151 -22.097   5.895  1.00  0.00     0.012 A 
ATOM     17  C   UNL     1     -31.836 -22.792   6.074  1.00  0.00     0.012 A 
ENDBRANCH   1  12
TORSDOF 1
ENDMDL
MODEL 4
REMARK VINA RESULT:    -5.783      1.380      1.590
REMARK INTER + INTRA:          -6.352
REMARK INTER:                  -6.097
REMARK INTRA:                  -0.255
REMARK UNBOUND:                -0.231
REMARK SMILES O=c1cc(-c2ccccc2)oc2ccccc12
REMARK SMILES IDX 4 1 3 2 2 3 1 4 17 5 16 6 15 7 14 8 13 9 12 10 11 11 5 12
REMARK SMILES IDX 8 13 7 14 9 15 6 16 10 17
REMARK H PARENT
REMARK Flexibility Score: inf
ROOT
ATOM      1  C   UNL     1     -41.725 -21.784  18.721  1.00  0.00     0.138 A 
ATOM      2  C   UNL     1     -42.926 -22.525  18.741  1.00  0.00     0.100 A 
ATOM      3  C   UNL     1     -42.995 -23.740  18.057  1.00  0.00     0.193 A 
ATOM      4  O   UNL     1     -44.070 -24.402  18.075  1.00  0.00    -0.289 OA
ATOM      5  C   UNL     1     -41.873 -24.207  17.362  1.00  0.00     0.065 A 
ATOM      6  C   UNL     1     -41.876 -25.422  16.652  1.00  0.00     0.016 A 
ATOM      7  C   UNL     1     -40.726 -25.841  15.975  1.00  0.00     0.001 A 
ATOM      8  C   UNL     1     -39.571 -25.055  15.998  1.00  0.00     0.004 A 
ATOM      9  C   UNL     1     -39.558 -23.846  16.700  1.00  0.00     0.048 A 
ATOM     10  C   UNL     1     -40.703 -23.418  17.382  1.00  0.00     0.138 A 
ATOM     11  O   UNL     1     -40.681 -22.266  18.045  1.00  0.00    -0.456 OA
ENDROOT
BRANCH   1  12
ATOM     12  C   UNL     1     -41.566 -20.475  19.426  1.00  0.00     0.017 A 
ATOM     13  C   UNL     1     -41.360 -17.986  20.742  1.00  0.00     0.000 A 
ATOM     14  C   UNL     1     -42.584 -18.399  20.217  1.00  0.00     0.001 A 
ATOM     15  C   UNL     1     -40.239 -18.804  20.618  1.00  0.00     0.001 A 
ATOM     16  C   UNL     1     -42.688 -19.631  19.564  1.00  0.00     0.012 A 
ATOM     17  C   UNL     1     -40.334 -20.039  19.966  1.00  0.00     0.012 A 
ENDBRANCH   1  12
TORSDOF 1
ENDMDL
MODEL 5
REMARK VINA RESULT:    -5.686      1.522      1.855
REMARK INTER + INTRA:          -6.249
REMARK INTER:                  -5.991
REMARK INTRA:                  -0.259
REMARK UNBOUND:                -0.231
REMARK SMILES O=c1cc(-c2ccccc2)oc2ccccc12
REMARK SMILES IDX 4 1 3 2 2 3 1 4 17 5 16 6 15 7 14 8 13 9 12 10 11 11 5 12
REMARK SMILES IDX 8 13 7 14 9 15 6 16 10 17
REMARK H PARENT
REMARK Flexibility Score: inf
ROOT
ATOM      1  C   UNL     1     -41.321 -21.585  18.365  1.00  0.00     0.138 A 
ATOM      2  C   UNL     1     -40.169 -22.120  17.751  1.00  0.00     0.100 A 
ATOM      3  C   UNL     1     -40.278 -23.268  16.964  1.00  0.00     0.193 A 
ATOM      4  O   UNL     1     -39.247 -23.746  16.416  1.00  0.00    -0.289 OA
ATOM      5  C   UNL     1     -41.530 -23.872  16.795  1.00  0.00     0.065 A 
ATOM      6  C   UNL     1     -41.709 -25.030  16.015  1.00  0.00     0.016 A 
ATOM      7  C   UNL     1     -42.982 -25.593  15.879  1.00  0.00     0.001 A 
ATOM      8  C   UNL     1     -44.080 -25.009  16.517  1.00  0.00     0.004 A 
ATOM      9  C   UNL     1     -43.912 -23.859  17.293  1.00  0.00     0.048 A 
ATOM     10  C   UNL     1     -42.643 -23.287  17.435  1.00  0.00     0.138 A 
ATOM     11  O   UNL     1     -42.493 -22.194  18.176  1.00  0.00    -0.456 OA
ENDROOT
BRANCH   1  12
ATOM     12  C   UNL     1     -41.292 -20.360  19.222  1.00  0.00     0.017 A 
ATOM     13  C   UNL     1     -41.334 -18.033  20.818  1.00  0.00     0.000 A 
ATOM     14  C   UNL     1     -42.485 -18.436  20.143  1.00  0.00     0.001 A 
ATOM     15  C   UNL     1     -40.163 -18.780  20.705  1.00  0.00     0.001 A 
ATOM     16  C   UNL     1     -42.467 -19.588  19.352  1.00  0.00     0.012 A 
ATOM     17  C   UNL     1     -40.136 -19.934  19.914  1.00  0.00     0.012 A 
ENDBRANCH   1  12
TORSDOF 1
ENDMDL
MODEL 6
REMARK VINA RESULT:    -5.676      8.220      9.647
REMARK INTER + INTRA:          -6.238
REMARK INTER:                  -6.015
REMARK INTRA:                  -0.223
REMARK UNBOUND:                -0.231
REMARK SMILES O=c1cc(-c2ccccc2)oc2ccccc12
REMARK SMILES IDX 4 1 3 2 2 3 1 4 17 5 16 6 15 7 14 8 13 9 12 10 11 11 5 12
REMARK SMILES IDX 8 13 7 14 9 15 6 16 10 17
REMARK H PARENT
REMARK Flexibility Score: inf
ROOT
ATOM      1  C   UNL     1     -39.940 -19.506  10.540  1.00  0.00     0.138 A 
ATOM      2  C   UNL     1     -40.902 -20.189   9.766  1.00  0.00     0.100 A 
ATOM      3  C   UNL     1     -40.510 -20.825   8.586  1.00  0.00     0.193 A 
ATOM      4  O   UNL     1     -41.372 -21.435   7.895  1.00  0.00    -0.289 OA
ATOM      5  C   UNL     1     -39.168 -20.778   8.189  1.00  0.00     0.065 A 
ATOM      6  C   UNL     1     -38.708 -21.397   7.012  1.00  0.00     0.016 A 
ATOM      7  C   UNL     1     -37.357 -21.318   6.661  1.00  0.00     0.001 A 
ATOM      8  C   UNL     1     -36.459 -20.624   7.476  1.00  0.00     0.004 A 
ATOM      9  C   UNL     1     -36.906 -20.006   8.647  1.00  0.00     0.048 A 
ATOM     10  C   UNL     1     -38.257 -20.078   9.008  1.00  0.00     0.138 A 
ATOM     11  O   UNL     1     -38.673 -19.486  10.122  1.00  0.00    -0.456 OA
ENDROOT
BRANCH   1  12
ATOM     12  C   UNL     1     -40.273 -18.799  11.815  1.00  0.00     0.017 A 
ATOM     13  C   UNL     1     -40.949 -17.395  14.168  1.00  0.00     0.000 A 
ATOM     14  C   UNL     1     -41.330 -16.895  12.924  1.00  0.00     0.001 A 
ATOM     15  C   UNL     1     -40.235 -18.589  14.249  1.00  0.00     0.001 A 
ATOM     16  C   UNL     1     -40.997 -17.588  11.756  1.00  0.00     0.012 A 
ATOM     17  C   UNL     1     -39.896 -19.289  13.086  1.00  0.00     0.012 A 
ENDBRANCH   1  12
TORSDOF 1
ENDMDL
MODEL 7
REMARK VINA RESULT:    -5.384      7.222      9.384
REMARK INTER + INTRA:          -5.929
REMARK INTER:                  -5.701
REMARK INTRA:                  -0.228
REMARK UNBOUND:                -0.231
REMARK SMILES O=c1cc(-c2ccccc2)oc2ccccc12
REMARK SMILES IDX 4 1 3 2 2 3 1 4 17 5 16 6 15 7 14 8 13 9 12 10 11 11 5 12
REMARK SMILES IDX 8 13 7 14 9 15 6 16 10 17
REMARK H PARENT
REMARK Flexibility Score: inf
ROOT
ATOM      1  C   UNL     1     -37.957 -20.208  12.179  1.00  0.00     0.138 A 
ATOM      2  C   UNL     1     -38.669 -20.338  10.967  1.00  0.00     0.100 A 
ATOM      3  C   UNL     1     -39.802 -19.553  10.747  1.00  0.00     0.193 A 
ATOM      4  O   UNL     1     -40.438 -19.670   9.663  1.00  0.00    -0.289 OA
ATOM      5  C   UNL     1     -40.216 -18.647  11.732  1.00  0.00     0.065 A 
ATOM      6  C   UNL     1     -41.349 -17.827  11.573  1.00  0.00     0.016 A 
ATOM      7  C   UNL     1     -41.718 -16.939  12.589  1.00  0.00     0.001 A 
ATOM      8  C   UNL     1     -40.966 -16.863  13.764  1.00  0.00     0.004 A 
ATOM      9  C   UNL     1     -39.839 -17.674  13.931  1.00  0.00     0.048 A 
ATOM     10  C   UNL     1     -39.460 -18.566  12.921  1.00  0.00     0.138 A 
ATOM     11  O   UNL     1     -38.388 -19.333  13.089  1.00  0.00    -0.456 OA
ENDROOT
BRANCH   1  12
ATOM     12  C   UNL     1     -36.734 -21.009  12.495  1.00  0.00     0.017 A 
ATOM     13  C   UNL     1     -34.377 -22.470  13.022  1.00  0.00     0.000 A 
ATOM     14  C   UNL     1     -34.379 -21.478  12.043  1.00  0.00     0.001 A 
ATOM     15  C   UNL     1     -35.541 -22.739  13.741  1.00  0.00     0.001 A 
ATOM     16  C   UNL     1     -35.545 -20.753  11.779  1.00  0.00     0.012 A 
ATOM     17  C   UNL     1     -36.713 -22.019  13.484  1.00  0.00     0.012 A 
ENDBRANCH   1  12
TORSDOF 1
ENDMDL
MODEL 8
REMARK VINA RESULT:    -5.340      7.922      9.144
REMARK INTER + INTRA:          -5.883
REMARK INTER:                  -5.617
REMARK INTRA:                  -0.266
REMARK UNBOUND:                -0.231
REMARK SMILES O=c1cc(-c2ccccc2)oc2ccccc12
REMARK SMILES IDX 4 1 3 2 2 3 1 4 17 5 16 6 15 7 14 8 13 9 12 10 11 11 5 12
REMARK SMILES IDX 8 13 7 14 9 15 6 16 10 17
REMARK H PARENT
REMARK Flexibility Score: inf
ROOT
ATOM      1  C   UNL     1     -37.996 -19.475  11.888  1.00  0.00     0.138 A 
ATOM      2  C   UNL     1     -37.694 -19.315  10.519  1.00  0.00     0.100 A 
ATOM      3  C   UNL     1     -36.558 -19.928   9.989  1.00  0.00     0.193 A 
ATOM      4  O   UNL     1     -36.289 -19.783   8.764  1.00  0.00    -0.289 OA
ATOM      5  C   UNL     1     -35.735 -20.695  10.823  1.00  0.00     0.065 A 
ATOM      6  C   UNL     1     -34.576 -21.340  10.351  1.00  0.00     0.016 A 
ATOM      7  C   UNL     1     -33.789 -22.094  11.228  1.00  0.00     0.001 A 
ATOM      8  C   UNL     1     -34.149 -22.210  12.573  1.00  0.00     0.004 A 
ATOM      9  C   UNL     1     -35.298 -21.574  13.050  1.00  0.00     0.048 A 
ATOM     10  C   UNL     1     -36.093 -20.817  12.182  1.00  0.00     0.138 A 
ATOM     11  O   UNL     1     -37.184 -20.214  12.645  1.00  0.00    -0.456 OA
ENDROOT
BRANCH   1  12
ATOM     12  C   UNL     1     -39.193 -18.854  12.537  1.00  0.00     0.017 A 
ATOM     13  C   UNL     1     -41.473 -17.639  13.673  1.00  0.00     0.000 A 
ATOM     14  C   UNL     1     -41.175 -17.441  12.325  1.00  0.00     0.001 A 
ATOM     15  C   UNL     1     -40.644 -18.438  14.458  1.00  0.00     0.001 A 
ATOM     16  C   UNL     1     -40.046 -18.041  11.760  1.00  0.00     0.012 A 
ATOM     17  C   UNL     1     -39.511 -19.043  13.901  1.00  0.00     0.012 A 
ENDBRANCH   1  12
TORSDOF 1
ENDMDL
MODEL 9
REMARK VINA RESULT:    -4.155     10.963     13.559
REMARK INTER + INTRA:          -4.628
REMARK INTER:                  -4.408
REMARK INTRA:                  -0.221
REMARK UNBOUND:                -0.231
REMARK SMILES O=c1cc(-c2ccccc2)oc2ccccc12
REMARK SMILES IDX 4 1 3 2 2 3 1 4 17 5 16 6 15 7 14 8 13 9 12 10 11 11 5 12
REMARK SMILES IDX 8 13 7 14 9 15 6 16 10 17
REMARK H PARENT
REMARK Flexibility Score: inf
ROOT
ATOM      1  C   UNL     1     -36.742 -20.991   6.730  1.00  0.00     0.138 A 
ATOM      2  C   UNL     1     -36.524 -20.309   7.946  1.00  0.00     0.100 A 
ATOM      3  C   UNL     1     -37.593 -20.103   8.821  1.00  0.00     0.193 A 
ATOM      4  O   UNL     1     -37.397 -19.492   9.908  1.00  0.00    -0.289 OA
ATOM      5  C   UNL     1     -38.866 -20.576   8.479  1.00  0.00     0.065 A 
ATOM      6  C   UNL     1     -39.985 -20.402   9.314  1.00  0.00     0.016 A 
ATOM      7  C   UNL     1     -41.234 -20.895   8.924  1.00  0.00     0.001 A 
ATOM      8  C   UNL     1     -41.376 -21.561   7.704  1.00  0.00     0.004 A 
ATOM      9  C   UNL     1     -40.271 -21.740   6.867  1.00  0.00     0.048 A 
ATOM     10  C   UNL     1     -39.016 -21.250   7.248  1.00  0.00     0.138 A 
ATOM     11  O   UNL     1     -37.971 -21.424   6.445  1.00  0.00    -0.456 OA
ENDROOT
BRANCH   1  12
ATOM     12  C   UNL     1     -35.653 -21.254   5.738  1.00  0.00     0.017 A 
ATOM     13  C   UNL     1     -33.590 -21.841   3.905  1.00  0.00     0.000 A 
ATOM     14  C   UNL     1     -33.984 -22.796   4.841  1.00  0.00     0.001 A 
ATOM     15  C   UNL     1     -34.216 -20.596   3.875  1.00  0.00     0.001 A 
ATOM     16  C   UNL     1     -35.006 -22.508   5.750  1.00  0.00     0.012 A 
ATOM     17  C   UNL     1     -35.240 -20.299   4.782  1.00  0.00     0.012 A 
ENDBRANCH   1  12
TORSDOF 1
ENDMDL
