MODEL 1
REMARK VINA RESULT:     2.766      0.000      0.000
REMARK INTER + INTRA:           2.637
REMARK INTER:                   2.928
REMARK INTRA:                  -0.291
REMARK UNBOUND:                -0.291
REMARK SMILES CC1=CC[C@@H]2[C@H]3[C@@H](C(C)C)CC[C@]2(C)[C@@H]13
REMARK SMILES IDX 1 1 2 2 3 3 4 4 5 5 6 6 15 7 13 8 12 9 11 10 7 11 14 12 8 13
REMARK SMILES IDX 9 14 10 15
REMARK H PARENT
REMARK Flexibility Score: inf
ROOT
ATOM      1  C   UNL     1       3.976   8.984  10.875  1.00  0.00     0.039 C 
ATOM      2  C   UNL     1       4.508   8.245  12.067  1.00  0.00    -0.073 C 
ATOM      3  C   UNL     1       3.875   8.294  13.267  1.00  0.00    -0.027 C 
ATOM      4  C   UNL     1       4.451   7.496  14.441  1.00  0.00     0.031 C 
ATOM      5  C   UNL     1       5.759   6.757  14.009  1.00  0.00     0.003 C 
ATOM      6  C   UNL     1       6.636   7.777  13.235  1.00  0.00     0.004 C 
ATOM      7  C   UNL     1       5.794   7.414  11.991  1.00  0.00     0.024 C 
ATOM      8  C   UNL     1       5.581   6.031  12.650  1.00  0.00    -0.022 C 
ATOM      9  C   UNL     1       6.818   5.128  12.348  1.00  0.00     0.008 C 
ATOM     10  C   UNL     1       8.137   5.715  12.918  1.00  0.00     0.005 C 
ATOM     11  C   UNL     1       8.096   7.270  13.038  1.00  0.00    -0.005 C 
ATOM     12  C   UNL     1       4.262   5.276  12.365  1.00  0.00     0.012 C 
ENDROOT
BRANCH  11  13
ATOM     13  C   UNL     1       9.074   7.857  14.099  1.00  0.00    -0.014 C 
ATOM     14  C   UNL     1       8.430   9.005  14.891  1.00  0.00     0.007 C 
ATOM     15  C   UNL     1      10.434   8.297  13.529  1.00  0.00     0.007 C 
ENDBRANCH  11  13
TORSDOF 1
ENDMDL
MODEL 2
REMARK VINA RESULT:     5.757      1.347      4.360
REMARK INTER + INTRA:           5.802
REMARK INTER:                   6.141
REMARK INTRA:                  -0.339
REMARK UNBOUND:                -0.291
REMARK SMILES CC1=CC[C@@H]2[C@H]3[C@@H](C(C)C)CC[C@]2(C)[C@@H]13
REMARK SMILES IDX 1 1 2 2 3 3 4 4 5 5 6 6 15 7 13 8 12 9 11 10 7 11 14 12 8 13
REMARK SMILES IDX 9 14 10 15
REMARK H PARENT
REMARK Flexibility Score: inf
ROOT
ATOM      1  C   UNL     1       9.117   8.627  14.934  1.00  0.00     0.039 C 
ATOM      2  C   UNL     1       8.168   8.307  13.818  1.00  0.00    -0.073 C 
ATOM      3  C   UNL     1       7.939   9.192  12.812  1.00  0.00    -0.027 C 
ATOM      4  C   UNL     1       6.982   8.797  11.684  1.00  0.00     0.031 C 
ATOM      5  C   UNL     1       6.391   7.374  11.942  1.00  0.00     0.003 C 
ATOM      6  C   UNL     1       5.936   7.320  13.426  1.00  0.00     0.004 C 
ATOM      7  C   UNL     1       7.406   6.979  13.764  1.00  0.00     0.024 C 
ATOM      8  C   UNL     1       7.494   6.363  12.348  1.00  0.00    -0.022 C 
ATOM      9  C   UNL     1       6.920   4.913  12.387  1.00  0.00     0.008 C 
ATOM     10  C   UNL     1       5.428   4.875  12.816  1.00  0.00     0.005 C 
ATOM     11  C   UNL     1       5.037   6.083  13.722  1.00  0.00    -0.005 C 
ATOM     12  C   UNL     1       8.856   6.398  11.615  1.00  0.00     0.012 C 
ENDROOT
BRANCH  11  13
ATOM     13  C   UNL     1       3.519   6.436  13.699  1.00  0.00    -0.014 C 
ATOM     14  C   UNL     1       2.733   5.501  12.767  1.00  0.00     0.007 C 
ATOM     15  C   UNL     1       3.218   7.906  13.360  1.00  0.00     0.007 C 
ENDBRANCH  11  13
TORSDOF 1
ENDMDL
