MODEL 1
REMARK VINA RESULT:    -5.138      0.000      0.000
REMARK INTER + INTRA:          -7.171
REMARK INTER:                  -6.940
REMARK INTRA:                  -0.231
REMARK UNBOUND:                -0.231
REMARK SMILES [NH3+]CCCC[C@@H]([NH3+])C(=O)[O-]
REMARK SMILES IDX 4 1 3 2 2 3 1 4 5 8 6 9 7 10 8 14 9 15 10 16
REMARK H PARENT 1 5 1 6 1 7 7 11 7 12 7 13
REMARK Flexibility Score: inf
ROOT
ATOM      1  C   UNL     1      -6.881   7.384  -0.672  1.00  0.00     0.012 C 
ENDROOT
BRANCH   1   2
ATOM      2  C   UNL     1      -7.856   7.411  -1.859  1.00  0.00     0.061 C 
BRANCH   2   3
ATOM      3  C   UNL     1      -8.032   8.822  -2.445  1.00  0.00     0.258 C 
BRANCH   3   4
ATOM      4  N   UNL     1      -7.155   9.057  -3.594  1.00  0.00    -0.358 N 
ATOM      5  H   UNL     1      -6.199   9.295  -3.246  1.00  0.00     0.344 HD
ATOM      6  H   UNL     1      -7.085   8.194  -4.180  1.00  0.00     0.344 HD
ATOM      7  H   UNL     1      -7.512   9.853  -4.169  1.00  0.00     0.344 HD
ENDBRANCH   3   4
ENDBRANCH   2   3
ENDBRANCH   1   2
BRANCH   1   8
ATOM      8  C   UNL     1      -5.835   6.272  -0.847  1.00  0.00     0.072 C 
BRANCH   8   9
ATOM      9  C   UNL     1      -5.385   6.102  -2.316  1.00  0.00     0.227 C 
BRANCH   9  10
ATOM     10  N   UNL     1      -3.983   6.501  -2.505  1.00  0.00    -0.350 N 
ATOM     11  H   UNL     1      -3.836   7.469  -2.135  1.00  0.00     0.345 HD
ATOM     12  H   UNL     1      -3.352   5.862  -1.972  1.00  0.00     0.345 HD
ATOM     13  H   UNL     1      -3.724   6.480  -3.517  1.00  0.00     0.345 HD
ENDBRANCH   9  10
BRANCH   9  14
ATOM     14  C   UNL     1      -5.575   4.669  -2.735  1.00  0.00     0.099 C 
ATOM     15  O   UNL     1      -6.734   4.194  -2.862  1.00  0.00    -0.544 OA
ATOM     16  O   UNL     1      -4.472   3.855  -2.966  1.00  0.00    -0.544 OA
ENDBRANCH   9  14
ENDBRANCH   8   9
ENDBRANCH   1   8
TORSDOF 7
ENDMDL
MODEL 2
REMARK VINA RESULT:    -5.085      1.451      1.568
REMARK INTER + INTRA:          -7.100
REMARK INTER:                  -6.593
REMARK INTRA:                  -0.507
REMARK UNBOUND:                -0.231
REMARK SMILES [NH3+]CCCC[C@@H]([NH3+])C(=O)[O-]
REMARK SMILES IDX 4 1 3 2 2 3 1 4 5 8 6 9 7 10 8 14 9 15 10 16
REMARK H PARENT 1 5 1 6 1 7 7 11 7 12 7 13
REMARK Flexibility Score: inf
ROOT
ATOM      1  C   UNL     1      -6.770   7.267  -0.621  1.00  0.00     0.012 C 
ENDROOT
BRANCH   1   2
ATOM      2  C   UNL     1      -7.637   7.472  -1.872  1.00  0.00     0.061 C 
BRANCH   2   3
ATOM      3  C   UNL     1      -9.027   6.827  -1.739  1.00  0.00     0.258 C 
BRANCH   3   4
ATOM      4  N   UNL     1      -9.021   5.415  -2.127  1.00  0.00    -0.358 N 
ATOM      5  H   UNL     1      -9.669   5.284  -2.937  1.00  0.00     0.344 HD
ATOM      6  H   UNL     1      -8.062   5.124  -2.425  1.00  0.00     0.344 HD
ATOM      7  H   UNL     1      -9.347   4.816  -1.335  1.00  0.00     0.344 HD
ENDBRANCH   3   4
ENDBRANCH   2   3
ENDBRANCH   1   2
BRANCH   1   8
ATOM      8  C   UNL     1      -5.726   6.162  -0.853  1.00  0.00     0.072 C 
BRANCH   8   9
ATOM      9  C   UNL     1      -5.277   6.066  -2.328  1.00  0.00     0.227 C 
BRANCH   9  10
ATOM     10  N   UNL     1      -3.880   6.486  -2.501  1.00  0.00    -0.350 N 
ATOM     11  H   UNL     1      -3.626   7.186  -1.765  1.00  0.00     0.345 HD
ATOM     12  H   UNL     1      -3.241   5.667  -2.388  1.00  0.00     0.345 HD
ATOM     13  H   UNL     1      -3.733   6.913  -3.443  1.00  0.00     0.345 HD
ENDBRANCH   9  10
BRANCH   9  14
ATOM     14  C   UNL     1      -5.455   4.652  -2.814  1.00  0.00     0.099 C 
ATOM     15  O   UNL     1      -6.607   4.151  -2.899  1.00  0.00    -0.544 OA
ATOM     16  O   UNL     1      -4.347   3.885  -3.154  1.00  0.00    -0.544 OA
ENDBRANCH   9  14
ENDBRANCH   8   9
ENDBRANCH   1   8
TORSDOF 7
ENDMDL
MODEL 3
REMARK VINA RESULT:    -4.837      1.561      1.896
REMARK INTER + INTRA:          -6.766
REMARK INTER:                  -6.338
REMARK INTRA:                  -0.427
REMARK UNBOUND:                -0.231
REMARK SMILES [NH3+]CCCC[C@@H]([NH3+])C(=O)[O-]
REMARK SMILES IDX 4 1 3 2 2 3 1 4 5 8 6 9 7 10 8 14 9 15 10 16
REMARK H PARENT 1 5 1 6 1 7 7 11 7 12 7 13
REMARK Flexibility Score: inf
ROOT
ATOM      1  C   UNL     1      -8.661   7.157  -2.063  1.00  0.00     0.012 C 
ENDROOT
BRANCH   1   2
ATOM      2  C   UNL     1      -7.900   8.485  -1.934  1.00  0.00     0.061 C 
BRANCH   2   3
ATOM      3  C   UNL     1      -7.843   9.264  -3.259  1.00  0.00     0.258 C 
BRANCH   3   4
ATOM      4  N   UNL     1      -6.701   8.868  -4.085  1.00  0.00    -0.358 N 
ATOM      5  H   UNL     1      -7.046   8.599  -5.034  1.00  0.00     0.344 HD
ATOM      6  H   UNL     1      -6.035   9.666  -4.192  1.00  0.00     0.344 HD
ATOM      7  H   UNL     1      -6.211   8.047  -3.661  1.00  0.00     0.344 HD
ENDBRANCH   3   4
ENDBRANCH   2   3
ENDBRANCH   1   2
BRANCH   1   8
ATOM      8  C   UNL     1      -7.730   5.963  -1.798  1.00  0.00     0.072 C 
BRANCH   8   9
ATOM      9  C   UNL     1      -6.300   6.398  -1.409  1.00  0.00     0.227 C 
BRANCH   9  10
ATOM     10  N   UNL     1      -5.975   6.021  -0.026  1.00  0.00    -0.350 N 
ATOM     11  H   UNL     1      -6.173   6.823   0.617  1.00  0.00     0.345 HD
ATOM     12  H   UNL     1      -6.571   5.219   0.279  1.00  0.00     0.345 HD
ATOM     13  H   UNL     1      -4.967   5.756   0.061  1.00  0.00     0.345 HD
ENDBRANCH   9  10
BRANCH   9  14
ATOM     14  C   UNL     1      -5.312   5.775  -2.359  1.00  0.00     0.099 C 
ATOM     15  O   UNL     1      -5.194   4.523  -2.421  1.00  0.00    -0.544 OA
ATOM     16  O   UNL     1      -4.509   6.579  -3.160  1.00  0.00    -0.544 OA
ENDBRANCH   9  14
ENDBRANCH   8   9
ENDBRANCH   1   8
TORSDOF 7
ENDMDL
MODEL 4
REMARK VINA RESULT:    -4.817      2.801      4.030
REMARK INTER + INTRA:          -6.737
REMARK INTER:                  -6.359
REMARK INTRA:                  -0.379
REMARK UNBOUND:                -0.231
REMARK SMILES [NH3+]CCCC[C@@H]([NH3+])C(=O)[O-]
REMARK SMILES IDX 4 1 3 2 2 3 1 4 5 8 6 9 7 10 8 14 9 15 10 16
REMARK H PARENT 1 5 1 6 1 7 7 11 7 12 7 13
REMARK Flexibility Score: inf
ROOT
ATOM      1  C   UNL     1      -6.216   6.837  -2.349  1.00  0.00     0.012 C 
ENDROOT
BRANCH   1   2
ATOM      2  C   UNL     1      -4.914   6.047  -2.151  1.00  0.00     0.061 C 
BRANCH   2   3
ATOM      3  C   UNL     1      -4.979   4.638  -2.766  1.00  0.00     0.258 C 
BRANCH   3   4
ATOM      4  N   UNL     1      -6.355   4.157  -2.900  1.00  0.00    -0.358 N 
ATOM      5  H   UNL     1      -6.810   4.165  -1.959  1.00  0.00     0.344 HD
ATOM      6  H   UNL     1      -6.900   4.785  -3.533  1.00  0.00     0.344 HD
ATOM      7  H   UNL     1      -6.365   3.179  -3.270  1.00  0.00     0.344 HD
ENDBRANCH   3   4
ENDBRANCH   2   3
ENDBRANCH   1   2
BRANCH   1   8
ATOM      8  C   UNL     1      -6.786   7.301  -0.999  1.00  0.00     0.072 C 
BRANCH   8   9
ATOM      9  C   UNL     1      -7.190   6.123  -0.085  1.00  0.00     0.227 C 
BRANCH   9  10
ATOM     10  N   UNL     1      -7.025   6.455   1.337  1.00  0.00    -0.350 N 
ATOM     11  H   UNL     1      -6.575   7.395   1.432  1.00  0.00     0.345 HD
ATOM     12  H   UNL     1      -7.958   6.505   1.805  1.00  0.00     0.345 HD
ATOM     13  H   UNL     1      -6.432   5.743   1.819  1.00  0.00     0.345 HD
ENDBRANCH   9  10
BRANCH   9  14
ATOM     14  C   UNL     1      -8.620   5.741  -0.364  1.00  0.00     0.099 C 
ATOM     15  O   UNL     1      -9.505   5.917   0.514  1.00  0.00    -0.544 OA
ATOM     16  O   UNL     1      -8.969   5.176  -1.584  1.00  0.00    -0.544 OA
ENDBRANCH   9  14
ENDBRANCH   8   9
ENDBRANCH   1   8
TORSDOF 7
ENDMDL
MODEL 5
REMARK VINA RESULT:    -4.774      3.038      4.420
REMARK INTER + INTRA:          -6.680
REMARK INTER:                  -6.789
REMARK INTRA:                   0.109
REMARK UNBOUND:                -0.231
REMARK SMILES [NH3+]CCCC[C@@H]([NH3+])C(=O)[O-]
REMARK SMILES IDX 4 1 3 2 2 3 1 4 5 8 6 9 7 10 8 14 9 15 10 16
REMARK H PARENT 1 5 1 6 1 7 7 11 7 12 7 13
REMARK Flexibility Score: inf
ROOT
ATOM      1  C   UNL     1      -5.951   6.022  -1.122  1.00  0.00     0.012 C 
ENDROOT
BRANCH   1   2
ATOM      2  C   UNL     1      -5.031   5.900  -2.345  1.00  0.00     0.061 C 
BRANCH   2   3
ATOM      3  C   UNL     1      -4.888   4.448  -2.833  1.00  0.00     0.258 C 
BRANCH   3   4
ATOM      4  N   UNL     1      -3.510   4.122  -3.204  1.00  0.00    -0.358 N 
ATOM      5  H   UNL     1      -2.879   4.360  -2.404  1.00  0.00     0.344 HD
ATOM      6  H   UNL     1      -3.417   3.100  -3.400  1.00  0.00     0.344 HD
ATOM      7  H   UNL     1      -3.216   4.676  -4.040  1.00  0.00     0.344 HD
ENDBRANCH   3   4
ENDBRANCH   2   3
ENDBRANCH   1   2
BRANCH   1   8
ATOM      8  C   UNL     1      -7.128   6.968  -1.414  1.00  0.00     0.072 C 
BRANCH   8   9
ATOM      9  C   UNL     1      -8.491   6.241  -1.412  1.00  0.00     0.227 C 
BRANCH   9  10
ATOM     10  N   UNL     1      -8.415   4.939  -2.089  1.00  0.00    -0.350 N 
ATOM     11  H   UNL     1      -8.389   5.079  -3.127  1.00  0.00     0.345 HD
ATOM     12  H   UNL     1      -7.537   4.443  -1.818  1.00  0.00     0.345 HD
ATOM     13  H   UNL     1      -9.239   4.344  -1.847  1.00  0.00     0.345 HD
ENDBRANCH   9  10
BRANCH   9  14
ATOM     14  C   UNL     1      -8.958   6.057   0.008  1.00  0.00     0.099 C 
ATOM     15  O   UNL     1     -10.137   5.682   0.243  1.00  0.00    -0.544 OA
ATOM     16  O   UNL     1      -8.097   6.317   1.067  1.00  0.00    -0.544 OA
ENDBRANCH   9  14
ENDBRANCH   8   9
ENDBRANCH   1   8
TORSDOF 7
ENDMDL
MODEL 6
REMARK VINA RESULT:    -4.678      3.073      4.496
REMARK INTER + INTRA:          -6.550
REMARK INTER:                  -6.378
REMARK INTRA:                  -0.172
REMARK UNBOUND:                -0.231
REMARK SMILES [NH3+]CCCC[C@@H]([NH3+])C(=O)[O-]
REMARK SMILES IDX 4 1 3 2 2 3 1 4 5 8 6 9 7 10 8 14 9 15 10 16
REMARK H PARENT 1 5 1 6 1 7 7 11 7 12 7 13
REMARK Flexibility Score: inf
ROOT
ATOM      1  C   UNL     1      -6.035   6.324  -0.659  1.00  0.00     0.012 C 
ENDROOT
BRANCH   1   2
ATOM      2  C   UNL     1      -5.311   6.214  -2.008  1.00  0.00     0.061 C 
BRANCH   2   3
ATOM      3  C   UNL     1      -5.207   4.762  -2.506  1.00  0.00     0.258 C 
BRANCH   3   4
ATOM      4  N   UNL     1      -3.927   4.495  -3.165  1.00  0.00    -0.358 N 
ATOM      5  H   UNL     1      -3.829   5.134  -3.986  1.00  0.00     0.344 HD
ATOM      6  H   UNL     1      -3.134   4.680  -2.509  1.00  0.00     0.344 HD
ATOM      7  H   UNL     1      -3.890   3.506  -3.502  1.00  0.00     0.344 HD
ENDBRANCH   3   4
ENDBRANCH   2   3
ENDBRANCH   1   2
BRANCH   1   8
ATOM      8  C   UNL     1      -7.186   7.340  -0.735  1.00  0.00     0.072 C 
BRANCH   8   9
ATOM      9  C   UNL     1      -7.983   7.240  -2.055  1.00  0.00     0.227 C 
BRANCH   9  10
ATOM     10  N   UNL     1      -9.063   6.249  -1.965  1.00  0.00    -0.350 N 
ATOM     11  H   UNL     1      -8.663   5.305  -1.751  1.00  0.00     0.345 HD
ATOM     12  H   UNL     1      -9.716   6.497  -1.189  1.00  0.00     0.345 HD
ATOM     13  H   UNL     1      -9.596   6.196  -2.863  1.00  0.00     0.345 HD
ENDBRANCH   9  10
BRANCH   9  14
ATOM     14  C   UNL     1      -8.550   8.592  -2.401  1.00  0.00     0.099 C 
ATOM     15  O   UNL     1      -9.768   8.711  -2.697  1.00  0.00    -0.544 OA
ATOM     16  O   UNL     1      -7.730   9.713  -2.412  1.00  0.00    -0.544 OA
ENDBRANCH   9  14
ENDBRANCH   8   9
ENDBRANCH   1   8
TORSDOF 7
ENDMDL
MODEL 7
REMARK VINA RESULT:    -4.617      2.984      4.469
REMARK INTER + INTRA:          -6.468
REMARK INTER:                  -6.260
REMARK INTRA:                  -0.208
REMARK UNBOUND:                -0.231
REMARK SMILES [NH3+]CCCC[C@@H]([NH3+])C(=O)[O-]
REMARK SMILES IDX 4 1 3 2 2 3 1 4 5 8 6 9 7 10 8 14 9 15 10 16
REMARK H PARENT 1 5 1 6 1 7 7 11 7 12 7 13
REMARK Flexibility Score: inf
ROOT
ATOM      1  C   UNL     1      -6.999   7.404  -0.735  1.00  0.00     0.012 C 
ENDROOT
BRANCH   1   2
ATOM      2  C   UNL     1      -5.980   6.255  -0.746  1.00  0.00     0.061 C 
BRANCH   2   3
ATOM      3  C   UNL     1      -5.618   5.802  -2.171  1.00  0.00     0.258 C 
BRANCH   3   4
ATOM      4  N   UNL     1      -4.308   6.302  -2.594  1.00  0.00    -0.358 N 
ATOM      5  H   UNL     1      -3.930   5.673  -3.338  1.00  0.00     0.344 HD
ATOM      6  H   UNL     1      -4.398   7.264  -2.993  1.00  0.00     0.344 HD
ATOM      7  H   UNL     1      -3.642   6.309  -1.788  1.00  0.00     0.344 HD
ENDBRANCH   3   4
ENDBRANCH   2   3
ENDBRANCH   1   2
BRANCH   1   8
ATOM      8  C   UNL     1      -7.907   7.344  -1.973  1.00  0.00     0.072 C 
BRANCH   8   9
ATOM      9  C   UNL     1      -8.039   8.710  -2.683  1.00  0.00     0.227 C 
BRANCH   9  10
ATOM     10  N   UNL     1      -6.955   8.927  -3.651  1.00  0.00    -0.350 N 
ATOM     11  H   UNL     1      -7.357   9.171  -4.587  1.00  0.00     0.345 HD
ATOM     12  H   UNL     1      -6.357   9.727  -3.348  1.00  0.00     0.345 HD
ATOM     13  H   UNL     1      -6.365   8.069  -3.748  1.00  0.00     0.345 HD
ENDBRANCH   9  10
BRANCH   9  14
ATOM     14  C   UNL     1      -9.373   8.786  -3.377  1.00  0.00     0.099 C 
ATOM     15  O   UNL     1      -9.431   8.984  -4.619  1.00  0.00    -0.544 OA
ATOM     16  O   UNL     1     -10.549   8.657  -2.648  1.00  0.00    -0.544 OA
ENDBRANCH   9  14
ENDBRANCH   8   9
ENDBRANCH   1   8
TORSDOF 7
ENDMDL
MODEL 8
REMARK VINA RESULT:    -4.552      2.928      3.390
REMARK INTER + INTRA:          -6.380
REMARK INTER:                  -6.165
REMARK INTRA:                  -0.216
REMARK UNBOUND:                -0.231
REMARK SMILES [NH3+]CCCC[C@@H]([NH3+])C(=O)[O-]
REMARK SMILES IDX 4 1 3 2 2 3 1 4 5 8 6 9 7 10 8 14 9 15 10 16
REMARK H PARENT 1 5 1 6 1 7 7 11 7 12 7 13
REMARK Flexibility Score: inf
ROOT
ATOM      1  C   UNL     1      -7.479   7.906  -2.336  1.00  0.00     0.012 C 
ENDROOT
BRANCH   1   2
ATOM      2  C   UNL     1      -8.290   9.173  -2.644  1.00  0.00     0.061 C 
BRANCH   2   3
ATOM      3  C   UNL     1      -9.581   8.872  -3.424  1.00  0.00     0.258 C 
BRANCH   3   4
ATOM      4  N   UNL     1     -10.380   7.823  -2.786  1.00  0.00    -0.358 N 
ATOM      5  H   UNL     1     -11.046   8.266  -2.114  1.00  0.00     0.344 HD
ATOM      6  H   UNL     1     -10.935   7.302  -3.502  1.00  0.00     0.344 HD
ATOM      7  H   UNL     1      -9.762   7.162  -2.262  1.00  0.00     0.344 HD
ENDBRANCH   3   4
ENDBRANCH   2   3
ENDBRANCH   1   2
BRANCH   1   8
ATOM      8  C   UNL     1      -7.124   7.832  -0.842  1.00  0.00     0.072 C 
BRANCH   8   9
ATOM      9  C   UNL     1      -7.164   6.390  -0.290  1.00  0.00     0.227 C 
BRANCH   9  10
ATOM     10  N   UNL     1      -6.788   6.340   1.130  1.00  0.00    -0.350 N 
ATOM     11  H   UNL     1      -7.416   6.966   1.686  1.00  0.00     0.345 HD
ATOM     12  H   UNL     1      -6.904   5.370   1.499  1.00  0.00     0.345 HD
ATOM     13  H   UNL     1      -5.797   6.645   1.264  1.00  0.00     0.345 HD
ENDBRANCH   9  10
BRANCH   9  14
ATOM     14  C   UNL     1      -8.545   5.820  -0.478  1.00  0.00     0.099 C 
ATOM     15  O   UNL     1      -9.393   5.894   0.449  1.00  0.00    -0.544 OA
ATOM     16  O   UNL     1      -8.886   5.193  -1.670  1.00  0.00    -0.544 OA
ENDBRANCH   9  14
ENDBRANCH   8   9
ENDBRANCH   1   8
TORSDOF 7
ENDMDL
MODEL 9
REMARK VINA RESULT:    -4.325      3.502      4.737
REMARK INTER + INTRA:          -6.073
REMARK INTER:                  -5.954
REMARK INTRA:                  -0.119
REMARK UNBOUND:                -0.231
REMARK SMILES [NH3+]CCCC[C@@H]([NH3+])C(=O)[O-]
REMARK SMILES IDX 4 1 3 2 2 3 1 4 5 8 6 9 7 10 8 14 9 15 10 16
REMARK H PARENT 1 5 1 6 1 7 7 11 7 12 7 13
REMARK Flexibility Score: inf
ROOT
ATOM      1  C   UNL     1      -6.847   7.086  -2.091  1.00  0.00     0.012 C 
ENDROOT
BRANCH   1   2
ATOM      2  C   UNL     1      -6.407   6.412  -0.783  1.00  0.00     0.061 C 
BRANCH   2   3
ATOM      3  C   UNL     1      -7.522   6.396   0.277  1.00  0.00     0.258 C 
BRANCH   3   4
ATOM      4  N   UNL     1      -6.989   6.326   1.639  1.00  0.00    -0.358 N 
ATOM      5  H   UNL     1      -6.081   6.843   1.674  1.00  0.00     0.344 HD
ATOM      6  H   UNL     1      -7.649   6.779   2.311  1.00  0.00     0.344 HD
ATOM      7  H   UNL     1      -6.822   5.332   1.916  1.00  0.00     0.344 HD
ENDBRANCH   3   4
ENDBRANCH   2   3
ENDBRANCH   1   2
BRANCH   1   8
ATOM      8  C   UNL     1      -7.917   8.156  -1.824  1.00  0.00     0.072 C 
BRANCH   8   9
ATOM      9  C   UNL     1      -8.014   9.199  -2.959  1.00  0.00     0.227 C 
BRANCH   9  10
ATOM     10  N   UNL     1      -6.931   9.039  -3.939  1.00  0.00    -0.350 N 
ATOM     11  H   UNL     1      -6.402   9.938  -4.034  1.00  0.00     0.345 HD
ATOM     12  H   UNL     1      -6.256   8.311  -3.614  1.00  0.00     0.345 HD
ATOM     13  H   UNL     1      -7.311   8.767  -4.873  1.00  0.00     0.345 HD
ENDBRANCH   9  10
BRANCH   9  14
ATOM     14  C   UNL     1      -9.350   9.073  -3.642  1.00  0.00     0.099 C 
ATOM     15  O   UNL     1     -10.400   8.941  -2.960  1.00  0.00    -0.544 OA
ATOM     16  O   UNL     1      -9.431   9.084  -5.029  1.00  0.00    -0.544 OA
ENDBRANCH   9  14
ENDBRANCH   8   9
ENDBRANCH   1   8
TORSDOF 7
ENDMDL
