MODEL 1
REMARK VINA RESULT:    -2.315      0.000      0.000
REMARK INTER + INTRA:         -11.496
REMARK INTER:                  -5.834
REMARK INTRA:                  -5.661
REMARK UNBOUND:                -5.661
REMARK SMILES CCCCCCCCCCCCCCCCCCCCCCCCCCCC(=O)[O-]
REMARK SMILES IDX 15 1 16 2 17 3 18 4 19 5 20 6 21 7 22 8 23 9 24 10 25 11
REMARK SMILES IDX 26 12 27 13 28 14 29 15 30 16 14 17 13 18 12 19 11 20 10 21
REMARK SMILES IDX 9 22 8 23 7 24 6 25 5 26 4 27 3 28 2 29 1 30
REMARK H PARENT
REMARK Flexibility Score: inf
ROOT
ATOM      1  C   UNL     1      21.577   9.407  17.054  1.00  0.00     0.000 C 
ENDROOT
BRANCH   1   2
ATOM      2  C   UNL     1      21.210   8.162  16.230  1.00  0.00     0.000 C 
BRANCH   2   3
ATOM      3  C   UNL     1      19.723   8.124  15.848  1.00  0.00     0.000 C 
BRANCH   3   4
ATOM      4  C   UNL     1      19.197   6.680  15.865  1.00  0.00     0.000 C 
BRANCH   4   5
ATOM      5  C   UNL     1      20.068   5.725  16.701  1.00  0.00     0.000 C 
BRANCH   5   6
ATOM      6  C   UNL     1      19.557   5.450  18.132  1.00  0.00     0.000 C 
BRANCH   6   7
ATOM      7  C   UNL     1      20.413   6.085  19.246  1.00  0.00     0.000 C 
BRANCH   7   8
ATOM      8  C   UNL     1      19.648   7.106  20.116  1.00  0.00     0.000 C 
BRANCH   8   9
ATOM      9  C   UNL     1      18.509   7.788  19.337  1.00  0.00     0.000 C 
BRANCH   9  10
ATOM     10  C   UNL     1      18.351   9.276  19.689  1.00  0.00     0.000 C 
BRANCH  10  11
ATOM     11  C   UNL     1      18.346  10.181  18.448  1.00  0.00     0.000 C 
BRANCH  11  12
ATOM     12  C   UNL     1      18.746  11.615  18.814  1.00  0.00     0.006 C 
BRANCH  12  13
ATOM     13  C   UNL     1      19.276  12.368  17.590  1.00  0.00     0.053 C 
BRANCH  13  14
ATOM     14  C   UNL     1      20.622  12.959  17.871  1.00  0.00     0.041 C 
ATOM     15  O   UNL     1      21.516  12.947  16.981  1.00  0.00    -0.550 OA
ATOM     16  O   UNL     1      20.880  13.559  19.099  1.00  0.00    -0.550 OA
ENDBRANCH  13  14
ENDBRANCH  12  13
ENDBRANCH  11  12
ENDBRANCH  10  11
ENDBRANCH   9  10
ENDBRANCH   8   9
ENDBRANCH   7   8
ENDBRANCH   6   7
ENDBRANCH   5   6
ENDBRANCH   4   5
ENDBRANCH   3   4
ENDBRANCH   2   3
ENDBRANCH   1   2
BRANCH   1  17
ATOM     17  C   UNL     1      22.303   9.056  18.365  1.00  0.00     0.000 C 
BRANCH  17  18
ATOM     18  C   UNL     1      21.939  10.015  19.509  1.00  0.00     0.000 C 
BRANCH  18  19
ATOM     19  C   UNL     1      22.484   9.542  20.868  1.00  0.00     0.000 C 
BRANCH  19  20
ATOM     20  C   UNL     1      23.221   8.190  20.762  1.00  0.00     0.000 C 
BRANCH  20  21
ATOM     21  C   UNL     1      24.719   8.273  21.107  1.00  0.00     0.000 C 
BRANCH  21  22
ATOM     22  C   UNL     1      25.601   8.487  19.868  1.00  0.00    -0.000 C 
BRANCH  22  23
ATOM     23  C   UNL     1      26.628   7.360  19.655  1.00  0.00    -0.000 C 
BRANCH  23  24
ATOM     24  C   UNL     1      26.287   6.353  18.536  1.00  0.00    -0.000 C 
BRANCH  24  25
ATOM     25  C   UNL     1      24.974   5.573  18.731  1.00  0.00    -0.000 C 
BRANCH  25  26
ATOM     26  C   UNL     1      23.831   5.993  17.789  1.00  0.00    -0.000 C 
BRANCH  26  27
ATOM     27  C   UNL     1      23.774   5.171  16.482  1.00  0.00    -0.000 C 
BRANCH  27  28
ATOM     28  C   UNL     1      24.590   5.813  15.352  1.00  0.00    -0.000 C 
BRANCH  28  29
ATOM     29  C   UNL     1      24.178   5.248  13.986  1.00  0.00    -0.003 C 
ATOM     30  C   UNL     1      22.776   5.712  13.598  1.00  0.00     0.004 C 
ENDBRANCH  28  29
ENDBRANCH  27  28
ENDBRANCH  26  27
ENDBRANCH  25  26
ENDBRANCH  24  25
ENDBRANCH  23  24
ENDBRANCH  22  23
ENDBRANCH  21  22
ENDBRANCH  20  21
ENDBRANCH  19  20
ENDBRANCH  18  19
ENDBRANCH  17  18
ENDBRANCH   1  17
TORSDOF 26
ENDMDL
MODEL 2
REMARK VINA RESULT:    -2.070      5.630     10.612
REMARK INTER + INTRA:         -10.877
REMARK INTER:                  -8.161
REMARK INTRA:                  -2.716
REMARK UNBOUND:                -5.661
REMARK SMILES CCCCCCCCCCCCCCCCCCCCCCCCCCCC(=O)[O-]
REMARK SMILES IDX 15 1 16 2 17 3 18 4 19 5 20 6 21 7 22 8 23 9 24 10 25 11
REMARK SMILES IDX 26 12 27 13 28 14 29 15 30 16 14 17 13 18 12 19 11 20 10 21
REMARK SMILES IDX 9 22 8 23 7 24 6 25 5 26 4 27 3 28 2 29 1 30
REMARK H PARENT
REMARK Flexibility Score: inf
ROOT
ATOM      1  C   UNL     1      21.697  12.877  19.126  1.00  0.00     0.000 C 
ENDROOT
BRANCH   1   2
ATOM      2  C   UNL     1      21.237  12.479  17.715  1.00  0.00     0.000 C 
BRANCH   2   3
ATOM      3  C   UNL     1      21.249  10.959  17.496  1.00  0.00     0.000 C 
BRANCH   3   4
ATOM      4  C   UNL     1      21.220  10.218  18.842  1.00  0.00     0.000 C 
BRANCH   4   5
ATOM      5  C   UNL     1      22.324   9.153  18.974  1.00  0.00     0.000 C 
BRANCH   5   6
ATOM      6  C   UNL     1      23.411   9.458  20.028  1.00  0.00     0.000 C 
BRANCH   6   7
ATOM      7  C   UNL     1      23.928   8.218  20.786  1.00  0.00     0.000 C 
BRANCH   7   8
ATOM      8  C   UNL     1      25.385   7.840  20.443  1.00  0.00     0.000 C 
BRANCH   8   9
ATOM      9  C   UNL     1      25.948   8.696  19.295  1.00  0.00     0.000 C 
BRANCH   9  10
ATOM     10  C   UNL     1      26.008   7.940  17.958  1.00  0.00     0.000 C 
BRANCH  10  11
ATOM     11  C   UNL     1      25.870   6.419  18.131  1.00  0.00     0.000 C 
BRANCH  11  12
ATOM     12  C   UNL     1      24.559   5.915  17.517  1.00  0.00     0.006 C 
BRANCH  12  13
ATOM     13  C   UNL     1      23.953   6.961  16.576  1.00  0.00     0.053 C 
BRANCH  13  14
ATOM     14  C   UNL     1      22.704   6.440  15.936  1.00  0.00     0.041 C 
ATOM     15  O   UNL     1      22.715   5.328  15.341  1.00  0.00    -0.550 OA
ATOM     16  O   UNL     1      21.518   7.160  16.031  1.00  0.00    -0.550 OA
ENDBRANCH  13  14
ENDBRANCH  12  13
ENDBRANCH  11  12
ENDBRANCH  10  11
ENDBRANCH   9  10
ENDBRANCH   8   9
ENDBRANCH   7   8
ENDBRANCH   6   7
ENDBRANCH   5   6
ENDBRANCH   4   5
ENDBRANCH   3   4
ENDBRANCH   2   3
ENDBRANCH   1   2
BRANCH   1  17
ATOM     17  C   UNL     1      20.664  13.749  19.862  1.00  0.00     0.000 C 
BRANCH  17  18
ATOM     18  C   UNL     1      19.878  14.658  18.904  1.00  0.00     0.000 C 
BRANCH  18  19
ATOM     19  C   UNL     1      19.120  15.774  19.643  1.00  0.00     0.000 C 
BRANCH  19  20
ATOM     20  C   UNL     1      19.777  16.130  20.994  1.00  0.00     0.000 C 
BRANCH  20  21
ATOM     21  C   UNL     1      20.739  17.330  20.917  1.00  0.00     0.000 C 
BRANCH  21  22
ATOM     22  C   UNL     1      20.018  18.647  20.593  1.00  0.00    -0.000 C 
BRANCH  22  23
ATOM     23  C   UNL     1      20.981  19.829  20.387  1.00  0.00    -0.000 C 
BRANCH  23  24
ATOM     24  C   UNL     1      21.733  19.846  19.039  1.00  0.00    -0.000 C 
BRANCH  24  25
ATOM     25  C   UNL     1      22.851  20.898  18.923  1.00  0.00    -0.000 C 
BRANCH  25  26
ATOM     26  C   UNL     1      22.788  22.022  19.973  1.00  0.00    -0.000 C 
BRANCH  26  27
ATOM     27  C   UNL     1      22.773  23.441  19.362  1.00  0.00    -0.000 C 
BRANCH  27  28
ATOM     28  C   UNL     1      21.542  23.683  18.478  1.00  0.00    -0.000 C 
BRANCH  28  29
ATOM     29  C   UNL     1      20.301  23.971  19.331  1.00  0.00    -0.003 C 
ATOM     30  C   UNL     1      19.241  22.887  19.146  1.00  0.00     0.004 C 
ENDBRANCH  28  29
ENDBRANCH  27  28
ENDBRANCH  26  27
ENDBRANCH  25  26
ENDBRANCH  24  25
ENDBRANCH  23  24
ENDBRANCH  22  23
ENDBRANCH  21  22
ENDBRANCH  20  21
ENDBRANCH  19  20
ENDBRANCH  18  19
ENDBRANCH  17  18
ENDBRANCH   1  17
TORSDOF 26
ENDMDL
MODEL 3
REMARK VINA RESULT:    -2.025      4.516      9.170
REMARK INTER + INTRA:         -10.763
REMARK INTER:                  -7.292
REMARK INTRA:                  -3.471
REMARK UNBOUND:                -5.661
REMARK SMILES CCCCCCCCCCCCCCCCCCCCCCCCCCCC(=O)[O-]
REMARK SMILES IDX 15 1 16 2 17 3 18 4 19 5 20 6 21 7 22 8 23 9 24 10 25 11
REMARK SMILES IDX 26 12 27 13 28 14 29 15 30 16 14 17 13 18 12 19 11 20 10 21
REMARK SMILES IDX 9 22 8 23 7 24 6 25 5 26 4 27 3 28 2 29 1 30
REMARK H PARENT
REMARK Flexibility Score: inf
ROOT
ATOM      1  C   UNL     1      21.039   9.849  19.049  1.00  0.00     0.000 C 
ENDROOT
BRANCH   1   2
ATOM      2  C   UNL     1      19.660   9.698  19.712  1.00  0.00     0.000 C 
BRANCH   2   3
ATOM      3  C   UNL     1      18.505  10.025  18.755  1.00  0.00     0.000 C 
BRANCH   3   4
ATOM      4  C   UNL     1      19.037  10.298  17.339  1.00  0.00     0.000 C 
BRANCH   4   5
ATOM      5  C   UNL     1      18.280   9.524  16.244  1.00  0.00     0.000 C 
BRANCH   5   6
ATOM      6  C   UNL     1      18.722   8.057  16.048  1.00  0.00     0.000 C 
BRANCH   6   7
ATOM      7  C   UNL     1      20.154   7.893  15.501  1.00  0.00     0.000 C 
BRANCH   7   8
ATOM      8  C   UNL     1      21.076   7.050  16.409  1.00  0.00     0.000 C 
BRANCH   8   9
ATOM      9  C   UNL     1      20.329   6.495  17.634  1.00  0.00     0.000 C 
BRANCH   9  10
ATOM     10  C   UNL     1      21.218   5.619  18.531  1.00  0.00     0.000 C 
BRANCH  10  11
ATOM     11  C   UNL     1      22.355   6.411  19.195  1.00  0.00     0.000 C 
BRANCH  11  12
ATOM     12  C   UNL     1      23.699   5.696  19.016  1.00  0.00     0.006 C 
BRANCH  12  13
ATOM     13  C   UNL     1      24.785   6.671  18.553  1.00  0.00     0.053 C 
BRANCH  13  14
ATOM     14  C   UNL     1      24.654   6.956  17.089  1.00  0.00     0.041 C 
ATOM     15  O   UNL     1      24.640   6.007  16.259  1.00  0.00    -0.550 OA
ATOM     16  O   UNL     1      24.507   8.265  16.643  1.00  0.00    -0.550 OA
ENDBRANCH  13  14
ENDBRANCH  12  13
ENDBRANCH  11  12
ENDBRANCH  10  11
ENDBRANCH   9  10
ENDBRANCH   8   9
ENDBRANCH   7   8
ENDBRANCH   6   7
ENDBRANCH   5   6
ENDBRANCH   4   5
ENDBRANCH   3   4
ENDBRANCH   2   3
ENDBRANCH   1   2
BRANCH   1  17
ATOM     17  C   UNL     1      22.023  10.662  19.909  1.00  0.00     0.000 C 
BRANCH  17  18
ATOM     18  C   UNL     1      21.580  12.123  20.082  1.00  0.00     0.000 C 
BRANCH  18  19
ATOM     19  C   UNL     1      21.805  12.960  18.810  1.00  0.00     0.000 C 
BRANCH  19  20
ATOM     20  C   UNL     1      20.493  13.579  18.280  1.00  0.00     0.000 C 
BRANCH  20  21
ATOM     21  C   UNL     1      19.373  13.650  19.334  1.00  0.00     0.000 C 
BRANCH  21  22
ATOM     22  C   UNL     1      18.947  15.091  19.649  1.00  0.00    -0.000 C 
BRANCH  22  23
ATOM     23  C   UNL     1      20.068  15.927  20.293  1.00  0.00    -0.000 C 
BRANCH  23  24
ATOM     24  C   UNL     1      19.775  17.435  20.434  1.00  0.00    -0.000 C 
BRANCH  24  25
ATOM     25  C   UNL     1      21.016  18.342  20.515  1.00  0.00    -0.000 C 
BRANCH  25  26
ATOM     26  C   UNL     1      20.864  19.705  19.815  1.00  0.00    -0.000 C 
BRANCH  26  27
ATOM     27  C   UNL     1      22.063  20.073  18.912  1.00  0.00    -0.000 C 
BRANCH  27  28
ATOM     28  C   UNL     1      22.823  21.304  19.424  1.00  0.00    -0.000 C 
BRANCH  28  29
ATOM     29  C   UNL     1      21.886  22.511  19.561  1.00  0.00    -0.003 C 
ATOM     30  C   UNL     1      22.516  23.769  18.966  1.00  0.00     0.004 C 
ENDBRANCH  28  29
ENDBRANCH  27  28
ENDBRANCH  26  27
ENDBRANCH  25  26
ENDBRANCH  24  25
ENDBRANCH  23  24
ENDBRANCH  22  23
ENDBRANCH  21  22
ENDBRANCH  20  21
ENDBRANCH  19  20
ENDBRANCH  18  19
ENDBRANCH  17  18
ENDBRANCH   1  17
TORSDOF 26
ENDMDL
MODEL 4
REMARK VINA RESULT:    -2.003      5.264      7.945
REMARK INTER + INTRA:         -10.708
REMARK INTER:                  -7.646
REMARK INTRA:                  -3.062
REMARK UNBOUND:                -5.661
REMARK SMILES CCCCCCCCCCCCCCCCCCCCCCCCCCCC(=O)[O-]
REMARK SMILES IDX 15 1 16 2 17 3 18 4 19 5 20 6 21 7 22 8 23 9 24 10 25 11
REMARK SMILES IDX 26 12 27 13 28 14 29 15 30 16 14 17 13 18 12 19 11 20 10 21
REMARK SMILES IDX 9 22 8 23 7 24 6 25 5 26 4 27 3 28 2 29 1 30
REMARK H PARENT
REMARK Flexibility Score: inf
ROOT
ATOM      1  C   UNL     1      21.488  11.111  20.572  1.00  0.00     0.000 C 
ENDROOT
BRANCH   1   2
ATOM      2  C   UNL     1      22.629  12.121  20.364  1.00  0.00     0.000 C 
BRANCH   2   3
ATOM      3  C   UNL     1      22.163  13.400  19.653  1.00  0.00     0.000 C 
BRANCH   3   4
ATOM      4  C   UNL     1      20.869  13.932  20.288  1.00  0.00     0.000 C 
BRANCH   4   5
ATOM      5  C   UNL     1      19.969  14.689  19.295  1.00  0.00     0.000 C 
BRANCH   5   6
ATOM      6  C   UNL     1      19.350  15.998  19.832  1.00  0.00     0.000 C 
BRANCH   6   7
ATOM      7  C   UNL     1      20.379  17.025  20.344  1.00  0.00     0.000 C 
BRANCH   7   8
ATOM      8  C   UNL     1      19.744  18.272  20.997  1.00  0.00     0.000 C 
BRANCH   8   9
ATOM      9  C   UNL     1      20.284  19.579  20.390  1.00  0.00     0.000 C 
BRANCH   9  10
ATOM     10  C   UNL     1      21.553  19.368  19.548  1.00  0.00     0.000 C 
BRANCH  10  11
ATOM     11  C   UNL     1      22.056  20.666  18.898  1.00  0.00     0.000 C 
BRANCH  11  12
ATOM     12  C   UNL     1      21.280  21.879  19.421  1.00  0.00     0.006 C 
BRANCH  12  13
ATOM     13  C   UNL     1      21.866  23.185  18.877  1.00  0.00     0.053 C 
BRANCH  13  14
ATOM     14  C   UNL     1      20.814  23.990  18.180  1.00  0.00     0.041 C 
ATOM     15  O   UNL     1      21.145  24.944  17.425  1.00  0.00    -0.550 OA
ATOM     16  O   UNL     1      19.470  23.663  18.330  1.00  0.00    -0.550 OA
ENDBRANCH  13  14
ENDBRANCH  12  13
ENDBRANCH  11  12
ENDBRANCH  10  11
ENDBRANCH   9  10
ENDBRANCH   8   9
ENDBRANCH   7   8
ENDBRANCH   6   7
ENDBRANCH   5   6
ENDBRANCH   4   5
ENDBRANCH   3   4
ENDBRANCH   2   3
ENDBRANCH   1   2
BRANCH   1  17
ATOM     17  C   UNL     1      21.988   9.656  20.615  1.00  0.00     0.000 C 
BRANCH  17  18
ATOM     18  C   UNL     1      23.521   9.561  20.563  1.00  0.00     0.000 C 
BRANCH  18  19
ATOM     19  C   UNL     1      24.031   8.133  20.821  1.00  0.00     0.000 C 
BRANCH  19  20
ATOM     20  C   UNL     1      25.530   7.980  20.486  1.00  0.00     0.000 C 
BRANCH  20  21
ATOM     21  C   UNL     1      25.944   8.669  19.173  1.00  0.00     0.000 C 
BRANCH  21  22
ATOM     22  C   UNL     1      25.962   7.704  17.978  1.00  0.00    -0.000 C 
BRANCH  22  23
ATOM     23  C   UNL     1      24.860   7.999  16.945  1.00  0.00    -0.000 C 
BRANCH  23  24
ATOM     24  C   UNL     1      23.644   7.050  16.980  1.00  0.00    -0.000 C 
BRANCH  24  25
ATOM     25  C   UNL     1      22.359   7.649  17.580  1.00  0.00    -0.000 C 
BRANCH  25  26
ATOM     26  C   UNL     1      22.029   9.074  17.101  1.00  0.00    -0.000 C 
BRANCH  26  27
ATOM     27  C   UNL     1      20.583   9.233  16.581  1.00  0.00    -0.000 C 
BRANCH  27  28
ATOM     28  C   UNL     1      19.667   9.920  17.603  1.00  0.00    -0.000 C 
BRANCH  28  29
ATOM     29  C   UNL     1      19.646  11.438  17.390  1.00  0.00    -0.003 C 
ATOM     30  C   UNL     1      18.389  11.872  16.640  1.00  0.00     0.004 C 
ENDBRANCH  28  29
ENDBRANCH  27  28
ENDBRANCH  26  27
ENDBRANCH  25  26
ENDBRANCH  24  25
ENDBRANCH  23  24
ENDBRANCH  22  23
ENDBRANCH  21  22
ENDBRANCH  20  21
ENDBRANCH  19  20
ENDBRANCH  18  19
ENDBRANCH  17  18
ENDBRANCH   1  17
TORSDOF 26
ENDMDL
MODEL 5
REMARK VINA RESULT:    -1.984      5.788     10.595
REMARK INTER + INTRA:         -10.661
REMARK INTER:                  -8.405
REMARK INTRA:                  -2.256
REMARK UNBOUND:                -5.661
REMARK SMILES CCCCCCCCCCCCCCCCCCCCCCCCCCCC(=O)[O-]
REMARK SMILES IDX 15 1 16 2 17 3 18 4 19 5 20 6 21 7 22 8 23 9 24 10 25 11
REMARK SMILES IDX 26 12 27 13 28 14 29 15 30 16 14 17 13 18 12 19 11 20 10 21
REMARK SMILES IDX 9 22 8 23 7 24 6 25 5 26 4 27 3 28 2 29 1 30
REMARK H PARENT
REMARK Flexibility Score: inf
ROOT
ATOM      1  C   UNL     1      21.772  13.105  18.873  1.00  0.00     0.000 C 
ENDROOT
BRANCH   1   2
ATOM      2  C   UNL     1      21.282  12.869  17.436  1.00  0.00     0.000 C 
BRANCH   2   3
ATOM      3  C   UNL     1      20.755  11.442  17.218  1.00  0.00     0.000 C 
BRANCH   3   4
ATOM      4  C   UNL     1      21.390  10.472  18.227  1.00  0.00     0.000 C 
BRANCH   4   5
ATOM      5  C   UNL     1      22.038   9.243  17.564  1.00  0.00     0.000 C 
BRANCH   5   6
ATOM      6  C   UNL     1      21.147   7.983  17.497  1.00  0.00     0.000 C 
BRANCH   6   7
ATOM      7  C   UNL     1      20.850   7.491  16.066  1.00  0.00     0.000 C 
BRANCH   7   8
ATOM      8  C   UNL     1      21.461   6.111  15.741  1.00  0.00     0.000 C 
BRANCH   8   9
ATOM      9  C   UNL     1      22.230   5.524  16.939  1.00  0.00     0.000 C 
BRANCH   9  10
ATOM     10  C   UNL     1      23.717   5.281  16.633  1.00  0.00     0.000 C 
BRANCH  10  11
ATOM     11  C   UNL     1      24.333   6.389  15.765  1.00  0.00     0.000 C 
BRANCH  11  12
ATOM     12  C   UNL     1      25.151   7.364  16.619  1.00  0.00     0.006 C 
BRANCH  12  13
ATOM     13  C   UNL     1      25.547   6.729  17.955  1.00  0.00     0.053 C 
BRANCH  13  14
ATOM     14  C   UNL     1      26.079   7.762  18.898  1.00  0.00     0.041 C 
ATOM     15  O   UNL     1      26.015   7.574  20.144  1.00  0.00    -0.550 OA
ATOM     16  O   UNL     1      26.682   8.914  18.405  1.00  0.00    -0.550 OA
ENDBRANCH  13  14
ENDBRANCH  12  13
ENDBRANCH  11  12
ENDBRANCH  10  11
ENDBRANCH   9  10
ENDBRANCH   8   9
ENDBRANCH   7   8
ENDBRANCH   6   7
ENDBRANCH   5   6
ENDBRANCH   4   5
ENDBRANCH   3   4
ENDBRANCH   2   3
ENDBRANCH   1   2
BRANCH   1  17
ATOM     17  C   UNL     1      20.761  13.900  19.720  1.00  0.00     0.000 C 
BRANCH  17  18
ATOM     18  C   UNL     1      20.012  14.958  18.895  1.00  0.00     0.000 C 
BRANCH  18  19
ATOM     19  C   UNL     1      19.083  15.828  19.760  1.00  0.00     0.000 C 
BRANCH  19  20
ATOM     20  C   UNL     1      19.750  16.251  21.087  1.00  0.00     0.000 C 
BRANCH  20  21
ATOM     21  C   UNL     1      20.570  17.550  20.981  1.00  0.00     0.000 C 
BRANCH  21  22
ATOM     22  C   UNL     1      19.768  18.709  20.371  1.00  0.00    -0.000 C 
BRANCH  22  23
ATOM     23  C   UNL     1      20.621  19.962  20.106  1.00  0.00    -0.000 C 
BRANCH  23  24
ATOM     24  C   UNL     1      21.828  19.757  19.167  1.00  0.00    -0.000 C 
BRANCH  24  25
ATOM     25  C   UNL     1      22.801  20.947  19.076  1.00  0.00    -0.000 C 
BRANCH  25  26
ATOM     26  C   UNL     1      22.454  22.132  19.995  1.00  0.00    -0.000 C 
BRANCH  26  27
ATOM     27  C   UNL     1      22.997  23.487  19.488  1.00  0.00    -0.000 C 
BRANCH  27  28
ATOM     28  C   UNL     1      22.072  24.134  18.448  1.00  0.00    -0.000 C 
BRANCH  28  29
ATOM     29  C   UNL     1      20.650  23.569  18.549  1.00  0.00    -0.003 C 
ATOM     30  C   UNL     1      19.620  24.572  18.033  1.00  0.00     0.004 C 
ENDBRANCH  28  29
ENDBRANCH  27  28
ENDBRANCH  26  27
ENDBRANCH  25  26
ENDBRANCH  24  25
ENDBRANCH  23  24
ENDBRANCH  22  23
ENDBRANCH  21  22
ENDBRANCH  20  21
ENDBRANCH  19  20
ENDBRANCH  18  19
ENDBRANCH  17  18
ENDBRANCH   1  17
TORSDOF 26
ENDMDL
MODEL 6
REMARK VINA RESULT:    -1.969      5.818     10.582
REMARK INTER + INTRA:         -10.622
REMARK INTER:                  -7.916
REMARK INTRA:                  -2.707
REMARK UNBOUND:                -5.661
REMARK SMILES CCCCCCCCCCCCCCCCCCCCCCCCCCCC(=O)[O-]
REMARK SMILES IDX 15 1 16 2 17 3 18 4 19 5 20 6 21 7 22 8 23 9 24 10 25 11
REMARK SMILES IDX 26 12 27 13 28 14 29 15 30 16 14 17 13 18 12 19 11 20 10 21
REMARK SMILES IDX 9 22 8 23 7 24 6 25 5 26 4 27 3 28 2 29 1 30
REMARK H PARENT
REMARK Flexibility Score: inf
ROOT
ATOM      1  C   UNL     1      21.419  12.830  19.565  1.00  0.00     0.000 C 
ENDROOT
BRANCH   1   2
ATOM      2  C   UNL     1      21.110  11.630  18.655  1.00  0.00     0.000 C 
BRANCH   2   3
ATOM      3  C   UNL     1      21.279  11.960  17.165  1.00  0.00     0.000 C 
BRANCH   3   4
ATOM      4  C   UNL     1      19.911  12.179  16.501  1.00  0.00     0.000 C 
BRANCH   4   5
ATOM      5  C   UNL     1      18.757  11.475  17.237  1.00  0.00     0.000 C 
BRANCH   5   6
ATOM      6  C   UNL     1      18.276  10.153  16.598  1.00  0.00     0.000 C 
BRANCH   6   7
ATOM      7  C   UNL     1      18.100   8.992  17.597  1.00  0.00     0.000 C 
BRANCH   7   8
ATOM      8  C   UNL     1      19.339   8.079  17.717  1.00  0.00     0.000 C 
BRANCH   8   9
ATOM      9  C   UNL     1      20.345   8.319  16.578  1.00  0.00     0.000 C 
BRANCH   9  10
ATOM     10  C   UNL     1      21.806   8.156  17.026  1.00  0.00     0.000 C 
BRANCH  10  11
ATOM     11  C   UNL     1      22.034   6.881  17.853  1.00  0.00     0.000 C 
BRANCH  11  12
ATOM     12  C   UNL     1      23.528   6.556  17.959  1.00  0.00     0.006 C 
BRANCH  12  13
ATOM     13  C   UNL     1      23.997   5.725  16.761  1.00  0.00     0.053 C 
BRANCH  13  14
ATOM     14  C   UNL     1      25.097   6.425  16.027  1.00  0.00     0.041 C 
ATOM     15  O   UNL     1      25.035   6.561  14.774  1.00  0.00    -0.550 OA
ATOM     16  O   UNL     1      26.173   6.964  16.726  1.00  0.00    -0.550 OA
ENDBRANCH  13  14
ENDBRANCH  12  13
ENDBRANCH  11  12
ENDBRANCH  10  11
ENDBRANCH   9  10
ENDBRANCH   8   9
ENDBRANCH   7   8
ENDBRANCH   6   7
ENDBRANCH   5   6
ENDBRANCH   4   5
ENDBRANCH   3   4
ENDBRANCH   2   3
ENDBRANCH   1   2
BRANCH   1  17
ATOM     17  C   UNL     1      20.151  13.586  19.999  1.00  0.00     0.000 C 
BRANCH  17  18
ATOM     18  C   UNL     1      19.885  14.828  19.134  1.00  0.00     0.000 C 
BRANCH  18  19
ATOM     19  C   UNL     1      18.455  15.368  19.305  1.00  0.00     0.000 C 
BRANCH  19  20
ATOM     20  C   UNL     1      18.414  16.646  20.171  1.00  0.00     0.000 C 
BRANCH  20  21
ATOM     21  C   UNL     1      19.805  17.227  20.481  1.00  0.00     0.000 C 
BRANCH  21  22
ATOM     22  C   UNL     1      19.736  18.633  21.096  1.00  0.00    -0.000 C 
BRANCH  22  23
ATOM     23  C   UNL     1      20.979  19.488  20.793  1.00  0.00    -0.000 C 
BRANCH  23  24
ATOM     24  C   UNL     1      20.838  20.469  19.610  1.00  0.00    -0.000 C 
BRANCH  24  25
ATOM     25  C   UNL     1      22.157  20.859  18.917  1.00  0.00    -0.000 C 
BRANCH  25  26
ATOM     26  C   UNL     1      22.931  21.999  19.603  1.00  0.00    -0.000 C 
BRANCH  26  27
ATOM     27  C   UNL     1      22.092  23.281  19.807  1.00  0.00    -0.000 C 
BRANCH  27  28
ATOM     28  C   UNL     1      21.997  24.126  18.530  1.00  0.00    -0.000 C 
BRANCH  28  29
ATOM     29  C   UNL     1      20.544  24.233  18.049  1.00  0.00    -0.003 C 
ATOM     30  C   UNL     1      19.565  23.896  19.171  1.00  0.00     0.004 C 
ENDBRANCH  28  29
ENDBRANCH  27  28
ENDBRANCH  26  27
ENDBRANCH  25  26
ENDBRANCH  24  25
ENDBRANCH  23  24
ENDBRANCH  22  23
ENDBRANCH  21  22
ENDBRANCH  20  21
ENDBRANCH  19  20
ENDBRANCH  18  19
ENDBRANCH  17  18
ENDBRANCH   1  17
TORSDOF 26
ENDMDL
MODEL 7
REMARK VINA RESULT:    -1.963      3.056      7.221
REMARK INTER + INTRA:         -10.607
REMARK INTER:                  -6.098
REMARK INTRA:                  -4.509
REMARK UNBOUND:                -5.661
REMARK SMILES CCCCCCCCCCCCCCCCCCCCCCCCCCCC(=O)[O-]
REMARK SMILES IDX 15 1 16 2 17 3 18 4 19 5 20 6 21 7 22 8 23 9 24 10 25 11
REMARK SMILES IDX 26 12 27 13 28 14 29 15 30 16 14 17 13 18 12 19 11 20 10 21
REMARK SMILES IDX 9 22 8 23 7 24 6 25 5 26 4 27 3 28 2 29 1 30
REMARK H PARENT
REMARK Flexibility Score: inf
ROOT
ATOM      1  C   UNL     1      22.426   6.877  20.247  1.00  0.00     0.000 C 
ENDROOT
BRANCH   1   2
ATOM      2  C   UNL     1      22.753   5.378  20.152  1.00  0.00     0.000 C 
BRANCH   2   3
ATOM      3  C   UNL     1      23.179   4.954  18.739  1.00  0.00     0.000 C 
BRANCH   3   4
ATOM      4  C   UNL     1      21.970   4.937  17.791  1.00  0.00     0.000 C 
BRANCH   4   5
ATOM      5  C   UNL     1      21.974   6.096  16.778  1.00  0.00     0.000 C 
BRANCH   5   6
ATOM      6  C   UNL     1      22.486   5.736  15.366  1.00  0.00     0.000 C 
BRANCH   6   7
ATOM      7  C   UNL     1      23.956   5.274  15.322  1.00  0.00     0.000 C 
BRANCH   7   8
ATOM      8  C   UNL     1      24.964   6.419  15.082  1.00  0.00     0.000 C 
BRANCH   8   9
ATOM      9  C   UNL     1      24.940   7.455  16.220  1.00  0.00     0.000 C 
BRANCH   9  10
ATOM     10  C   UNL     1      25.914   7.113  17.359  1.00  0.00     0.000 C 
BRANCH  10  11
ATOM     11  C   UNL     1      25.607   7.883  18.653  1.00  0.00     0.000 C 
BRANCH  11  12
ATOM     12  C   UNL     1      26.862   8.016  19.523  1.00  0.00     0.006 C 
BRANCH  12  13
ATOM     13  C   UNL     1      26.668   7.329  20.878  1.00  0.00     0.053 C 
BRANCH  13  14
ATOM     14  C   UNL     1      27.035   5.880  20.797  1.00  0.00     0.041 C 
ATOM     15  O   UNL     1      26.142   4.996  20.899  1.00  0.00    -0.550 OA
ATOM     16  O   UNL     1      28.355   5.505  20.569  1.00  0.00    -0.550 OA
ENDBRANCH  13  14
ENDBRANCH  12  13
ENDBRANCH  11  12
ENDBRANCH  10  11
ENDBRANCH   9  10
ENDBRANCH   8   9
ENDBRANCH   7   8
ENDBRANCH   6   7
ENDBRANCH   5   6
ENDBRANCH   4   5
ENDBRANCH   3   4
ENDBRANCH   2   3
ENDBRANCH   1   2
BRANCH   1  17
ATOM     17  C   UNL     1      21.125   7.151  21.023  1.00  0.00     0.000 C 
BRANCH  17  18
ATOM     18  C   UNL     1      20.469   8.479  20.614  1.00  0.00     0.000 C 
BRANCH  18  19
ATOM     19  C   UNL     1      19.021   8.295  20.130  1.00  0.00     0.000 C 
BRANCH  19  20
ATOM     20  C   UNL     1      18.836   6.990  19.327  1.00  0.00     0.000 C 
BRANCH  20  21
ATOM     21  C   UNL     1      18.621   7.216  17.819  1.00  0.00     0.000 C 
BRANCH  21  22
ATOM     22  C   UNL     1      18.115   8.630  17.499  1.00  0.00    -0.000 C 
BRANCH  22  23
ATOM     23  C   UNL     1      18.903   9.313  16.367  1.00  0.00    -0.000 C 
BRANCH  23  24
ATOM     24  C   UNL     1      20.438   9.169  16.446  1.00  0.00    -0.000 C 
BRANCH  24  25
ATOM     25  C   UNL     1      21.142  10.137  17.414  1.00  0.00    -0.000 C 
BRANCH  25  26
ATOM     26  C   UNL     1      21.278  11.580  16.894  1.00  0.00    -0.000 C 
BRANCH  26  27
ATOM     27  C   UNL     1      21.277  12.644  18.013  1.00  0.00    -0.000 C 
BRANCH  27  28
ATOM     28  C   UNL     1      20.389  12.243  19.199  1.00  0.00    -0.000 C 
BRANCH  28  29
ATOM     29  C   UNL     1      18.965  12.786  19.029  1.00  0.00    -0.003 C 
ATOM     30  C   UNL     1      17.927  11.766  19.492  1.00  0.00     0.004 C 
ENDBRANCH  28  29
ENDBRANCH  27  28
ENDBRANCH  26  27
ENDBRANCH  25  26
ENDBRANCH  24  25
ENDBRANCH  23  24
ENDBRANCH  22  23
ENDBRANCH  21  22
ENDBRANCH  20  21
ENDBRANCH  19  20
ENDBRANCH  18  19
ENDBRANCH  17  18
ENDBRANCH   1  17
TORSDOF 26
ENDMDL
MODEL 8
REMARK VINA RESULT:    -1.912      4.579      9.278
REMARK INTER + INTRA:         -10.479
REMARK INTER:                  -7.195
REMARK INTRA:                  -3.284
REMARK UNBOUND:                -5.661
REMARK SMILES CCCCCCCCCCCCCCCCCCCCCCCCCCCC(=O)[O-]
REMARK SMILES IDX 15 1 16 2 17 3 18 4 19 5 20 6 21 7 22 8 23 9 24 10 25 11
REMARK SMILES IDX 26 12 27 13 28 14 29 15 30 16 14 17 13 18 12 19 11 20 10 21
REMARK SMILES IDX 9 22 8 23 7 24 6 25 5 26 4 27 3 28 2 29 1 30
REMARK H PARENT
REMARK Flexibility Score: inf
ROOT
ATOM      1  C   UNL     1      21.250  10.821  18.779  1.00  0.00     0.000 C 
ENDROOT
BRANCH   1   2
ATOM      2  C   UNL     1      21.036  11.610  17.477  1.00  0.00     0.000 C 
BRANCH   2   3
ATOM      3  C   UNL     1      19.560  11.666  17.056  1.00  0.00     0.000 C 
BRANCH   3   4
ATOM      4  C   UNL     1      18.705  10.763  17.959  1.00  0.00     0.000 C 
BRANCH   4   5
ATOM      5  C   UNL     1      18.105   9.554  17.218  1.00  0.00     0.000 C 
BRANCH   5   6
ATOM      6  C   UNL     1      19.090   8.779  16.316  1.00  0.00     0.000 C 
BRANCH   6   7
ATOM      7  C   UNL     1      19.467   7.379  16.842  1.00  0.00     0.000 C 
BRANCH   7   8
ATOM      8  C   UNL     1      20.373   7.406  18.093  1.00  0.00     0.000 C 
BRANCH   8   9
ATOM      9  C   UNL     1      21.824   7.016  17.762  1.00  0.00     0.000 C 
BRANCH   9  10
ATOM     10  C   UNL     1      22.561   8.092  16.948  1.00  0.00     0.000 C 
BRANCH  10  11
ATOM     11  C   UNL     1      24.087   7.921  16.984  1.00  0.00     0.000 C 
BRANCH  11  12
ATOM     12  C   UNL     1      24.486   6.727  17.858  1.00  0.00     0.006 C 
BRANCH  12  13
ATOM     13  C   UNL     1      25.903   6.898  18.412  1.00  0.00     0.053 C 
BRANCH  13  14
ATOM     14  C   UNL     1      26.027   8.183  19.169  1.00  0.00     0.041 C 
ATOM     15  O   UNL     1      26.876   9.045  18.815  1.00  0.00    -0.550 OA
ATOM     16  O   UNL     1      25.178   8.449  20.238  1.00  0.00    -0.550 OA
ENDBRANCH  13  14
ENDBRANCH  12  13
ENDBRANCH  11  12
ENDBRANCH  10  11
ENDBRANCH   9  10
ENDBRANCH   8   9
ENDBRANCH   7   8
ENDBRANCH   6   7
ENDBRANCH   5   6
ENDBRANCH   4   5
ENDBRANCH   3   4
ENDBRANCH   2   3
ENDBRANCH   1   2
BRANCH   1  17
ATOM     17  C   UNL     1      21.946  11.655  19.869  1.00  0.00     0.000 C 
BRANCH  17  18
ATOM     18  C   UNL     1      22.097  13.131  19.469  1.00  0.00     0.000 C 
BRANCH  18  19
ATOM     19  C   UNL     1      21.393  14.082  20.452  1.00  0.00     0.000 C 
BRANCH  19  20
ATOM     20  C   UNL     1      19.941  13.646  20.746  1.00  0.00     0.000 C 
BRANCH  20  21
ATOM     21  C   UNL     1      18.922  14.148  19.707  1.00  0.00     0.000 C 
BRANCH  21  22
ATOM     22  C   UNL     1      19.186  15.597  19.270  1.00  0.00    -0.000 C 
BRANCH  22  23
ATOM     23  C   UNL     1      18.205  16.605  19.895  1.00  0.00    -0.000 C 
BRANCH  23  24
ATOM     24  C   UNL     1      18.849  17.711  20.757  1.00  0.00    -0.000 C 
BRANCH  24  25
ATOM     25  C   UNL     1      20.388  17.723  20.770  1.00  0.00    -0.000 C 
BRANCH  25  26
ATOM     26  C   UNL     1      21.028  18.880  19.980  1.00  0.00    -0.000 C 
BRANCH  26  27
ATOM     27  C   UNL     1      21.227  20.164  20.815  1.00  0.00    -0.000 C 
BRANCH  27  28
ATOM     28  C   UNL     1      21.300  21.424  19.942  1.00  0.00    -0.000 C 
BRANCH  28  29
ATOM     29  C   UNL     1      22.754  21.869  19.740  1.00  0.00    -0.003 C 
ATOM     30  C   UNL     1      22.829  23.344  19.352  1.00  0.00     0.004 C 
ENDBRANCH  28  29
ENDBRANCH  27  28
ENDBRANCH  26  27
ENDBRANCH  25  26
ENDBRANCH  24  25
ENDBRANCH  23  24
ENDBRANCH  22  23
ENDBRANCH  21  22
ENDBRANCH  20  21
ENDBRANCH  19  20
ENDBRANCH  18  19
ENDBRANCH  17  18
ENDBRANCH   1  17
TORSDOF 26
ENDMDL
MODEL 9
REMARK VINA RESULT:    -1.904      5.432     10.195
REMARK INTER + INTRA:         -10.460
REMARK INTER:                  -7.943
REMARK INTRA:                  -2.517
REMARK UNBOUND:                -5.661
REMARK SMILES CCCCCCCCCCCCCCCCCCCCCCCCCCCC(=O)[O-]
REMARK SMILES IDX 15 1 16 2 17 3 18 4 19 5 20 6 21 7 22 8 23 9 24 10 25 11
REMARK SMILES IDX 26 12 27 13 28 14 29 15 30 16 14 17 13 18 12 19 11 20 10 21
REMARK SMILES IDX 9 22 8 23 7 24 6 25 5 26 4 27 3 28 2 29 1 30
REMARK H PARENT
REMARK Flexibility Score: inf
ROOT
ATOM      1  C   UNL     1      20.606  12.362  16.941  1.00  0.00     0.000 C 
ENDROOT
BRANCH   1   2
ATOM      2  C   UNL     1      19.270  12.003  17.612  1.00  0.00     0.000 C 
BRANCH   2   3
ATOM      3  C   UNL     1      18.290  11.320  16.648  1.00  0.00     0.000 C 
BRANCH   3   4
ATOM      4  C   UNL     1      18.598   9.818  16.538  1.00  0.00     0.000 C 
BRANCH   4   5
ATOM      5  C   UNL     1      18.968   9.173  17.886  1.00  0.00     0.000 C 
BRANCH   5   6
ATOM      6  C   UNL     1      20.164   8.195  17.842  1.00  0.00     0.000 C 
BRANCH   6   7
ATOM      7  C   UNL     1      21.542   8.880  17.747  1.00  0.00     0.000 C 
BRANCH   7   8
ATOM      8  C   UNL     1      22.198   9.154  19.118  1.00  0.00     0.000 C 
BRANCH   8   9
ATOM      9  C   UNL     1      23.319   8.147  19.431  1.00  0.00     0.000 C 
BRANCH   9  10
ATOM     10  C   UNL     1      24.705   8.805  19.525  1.00  0.00     0.000 C 
BRANCH  10  11
ATOM     11  C   UNL     1      25.852   7.804  19.318  1.00  0.00     0.000 C 
BRANCH  11  12
ATOM     12  C   UNL     1      25.439   6.688  18.353  1.00  0.00     0.006 C 
BRANCH  12  13
ATOM     13  C   UNL     1      25.908   6.991  16.926  1.00  0.00     0.053 C 
BRANCH  13  14
ATOM     14  C   UNL     1      24.876   6.572  15.927  1.00  0.00     0.041 C 
ATOM     15  O   UNL     1      23.662   6.506  16.261  1.00  0.00    -0.550 OA
ATOM     16  O   UNL     1      25.246   6.293  14.615  1.00  0.00    -0.550 OA
ENDBRANCH  13  14
ENDBRANCH  12  13
ENDBRANCH  11  12
ENDBRANCH  10  11
ENDBRANCH   9  10
ENDBRANCH   8   9
ENDBRANCH   7   8
ENDBRANCH   6   7
ENDBRANCH   5   6
ENDBRANCH   4   5
ENDBRANCH   3   4
ENDBRANCH   2   3
ENDBRANCH   1   2
BRANCH   1  17
ATOM     17  C   UNL     1      21.628  12.946  17.933  1.00  0.00     0.000 C 
BRANCH  17  18
ATOM     18  C   UNL     1      21.241  12.679  19.396  1.00  0.00     0.000 C 
BRANCH  18  19
ATOM     19  C   UNL     1      21.217  13.964  20.242  1.00  0.00     0.000 C 
BRANCH  19  20
ATOM     20  C   UNL     1      19.781  14.484  20.471  1.00  0.00     0.000 C 
BRANCH  20  21
ATOM     21  C   UNL     1      19.514  15.863  19.842  1.00  0.00     0.000 C 
BRANCH  21  22
ATOM     22  C   UNL     1      19.587  17.006  20.866  1.00  0.00    -0.000 C 
BRANCH  22  23
ATOM     23  C   UNL     1      20.827  17.899  20.689  1.00  0.00    -0.000 C 
BRANCH  23  24
ATOM     24  C   UNL     1      20.551  19.416  20.637  1.00  0.00    -0.000 C 
BRANCH  24  25
ATOM     25  C   UNL     1      21.422  20.211  19.646  1.00  0.00    -0.000 C 
BRANCH  25  26
ATOM     26  C   UNL     1      22.363  21.240  20.300  1.00  0.00    -0.000 C 
BRANCH  26  27
ATOM     27  C   UNL     1      22.796  22.375  19.346  1.00  0.00    -0.000 C 
BRANCH  27  28
ATOM     28  C   UNL     1      21.597  23.093  18.711  1.00  0.00    -0.000 C 
BRANCH  28  29
ATOM     29  C   UNL     1      20.934  24.048  19.712  1.00  0.00    -0.003 C 
ATOM     30  C   UNL     1      21.979  24.784  20.547  1.00  0.00     0.004 C 
ENDBRANCH  28  29
ENDBRANCH  27  28
ENDBRANCH  26  27
ENDBRANCH  25  26
ENDBRANCH  24  25
ENDBRANCH  23  24
ENDBRANCH  22  23
ENDBRANCH  21  22
ENDBRANCH  20  21
ENDBRANCH  19  20
ENDBRANCH  18  19
ENDBRANCH  17  18
ENDBRANCH   1  17
TORSDOF 26
ENDMDL
