MODEL 1
REMARK VINA RESULT:    -4.960      0.000      0.000
REMARK INTER + INTRA:          -5.634
REMARK INTER:                  -5.395
REMARK INTRA:                  -0.239
REMARK UNBOUND:                -0.239
REMARK SMILES O=C([O-])c1ccccc1O
REMARK SMILES IDX 4 1 9 2 5 3 8 4 6 5 7 6 2 7 1 8 3 9 10 10
REMARK H PARENT 10 11
REMARK Flexibility Score: inf
ROOT
ATOM      1  C   UNL     1      43.413 -10.006 -39.322  1.00  0.00     0.039 A 
ATOM      2  C   UNL     1      44.795  -9.851 -39.038  1.00  0.00     0.124 A 
ATOM      3  C   UNL     1      42.987 -11.149 -40.023  1.00  0.00     0.014 A 
ATOM      4  C   UNL     1      45.695 -10.862 -39.402  1.00  0.00     0.047 A 
ATOM      5  C   UNL     1      43.900 -12.138 -40.398  1.00  0.00     0.001 A 
ATOM      6  C   UNL     1      45.250 -11.999 -40.078  1.00  0.00     0.004 A 
ENDROOT
BRANCH   1   7
ATOM      7  C   UNL     1      42.390  -9.030 -38.884  1.00  0.00     0.075 C 
ATOM      8  O   UNL     1      42.357  -8.617 -37.695  1.00  0.00    -0.545 OA
ATOM      9  O   UNL     1      41.404  -8.611 -39.770  1.00  0.00    -0.545 OA
ENDBRANCH   1   7
BRANCH   2  10
ATOM     10  O   UNL     1      45.317  -8.706 -38.432  1.00  0.00    -0.507 OA
ATOM     11  H   UNL     1      45.916  -8.046 -38.907  1.00  0.00     0.293 HD
ENDBRANCH   2  10
TORSDOF 2
ENDMDL
MODEL 2
REMARK VINA RESULT:    -4.890      3.752      4.456
REMARK INTER + INTRA:          -5.558
REMARK INTER:                  -5.306
REMARK INTRA:                  -0.252
REMARK UNBOUND:                -0.239
REMARK SMILES O=C([O-])c1ccccc1O
REMARK SMILES IDX 4 1 9 2 5 3 8 4 6 5 7 6 2 7 1 8 3 9 10 10
REMARK H PARENT 10 11
REMARK Flexibility Score: inf
ROOT
ATOM      1  C   UNL     1      42.913 -11.415 -36.969  1.00  0.00     0.039 A 
ATOM      2  C   UNL     1      41.641 -11.925 -36.596  1.00  0.00     0.124 A 
ATOM      3  C   UNL     1      44.001 -11.601 -36.097  1.00  0.00     0.014 A 
ATOM      4  C   UNL     1      41.508 -12.654 -35.407  1.00  0.00     0.047 A 
ATOM      5  C   UNL     1      43.847 -12.312 -34.904  1.00  0.00     0.001 A 
ATOM      6  C   UNL     1      42.605 -12.847 -34.565  1.00  0.00     0.004 A 
ENDROOT
BRANCH   1   7
ATOM      7  C   UNL     1      43.154 -10.720 -38.253  1.00  0.00     0.075 C 
ATOM      8  O   UNL     1      43.932  -9.733 -38.318  1.00  0.00    -0.545 OA
ATOM      9  O   UNL     1      42.464 -11.111 -39.395  1.00  0.00    -0.545 OA
ENDBRANCH   1   7
BRANCH   2  10
ATOM     10  O   UNL     1      40.489 -11.704 -37.354  1.00  0.00    -0.507 OA
ATOM     11  H   UNL     1      39.554 -11.870 -37.011  1.00  0.00     0.293 HD
ENDBRANCH   2  10
TORSDOF 2
ENDMDL
MODEL 3
REMARK VINA RESULT:    -4.890      2.954      3.275
REMARK INTER + INTRA:          -5.558
REMARK INTER:                  -5.312
REMARK INTRA:                  -0.246
REMARK UNBOUND:                -0.239
REMARK SMILES O=C([O-])c1ccccc1O
REMARK SMILES IDX 4 1 9 2 5 3 8 4 6 5 7 6 2 7 1 8 3 9 10 10
REMARK H PARENT 10 11
REMARK Flexibility Score: inf
ROOT
ATOM      1  C   UNL     1      42.258 -10.866 -37.642  1.00  0.00     0.039 A 
ATOM      2  C   UNL     1      43.550 -10.785 -37.060  1.00  0.00     0.124 A 
ATOM      3  C   UNL     1      41.315 -11.748 -37.083  1.00  0.00     0.014 A 
ATOM      4  C   UNL     1      43.840 -11.531 -35.910  1.00  0.00     0.047 A 
ATOM      5  C   UNL     1      41.627 -12.501 -35.948  1.00  0.00     0.001 A 
ATOM      6  C   UNL     1      42.884 -12.385 -35.357  1.00  0.00     0.004 A 
ENDROOT
BRANCH   1   7
ATOM      7  C   UNL     1      41.845 -10.038 -38.797  1.00  0.00     0.075 C 
ATOM      8  O   UNL     1      41.292 -10.558 -39.800  1.00  0.00    -0.545 OA
ATOM      9  O   UNL     1      42.129  -8.677 -38.814  1.00  0.00    -0.545 OA
ENDBRANCH   1   7
BRANCH   2  10
ATOM     10  O   UNL     1      44.575 -10.010 -37.605  1.00  0.00    -0.507 OA
ATOM     11  H   UNL     1      45.554 -10.250 -37.539  1.00  0.00     0.293 HD
ENDBRANCH   2  10
TORSDOF 2
ENDMDL
MODEL 4
REMARK VINA RESULT:    -4.890      4.740      5.624
REMARK INTER + INTRA:          -5.558
REMARK INTER:                  -5.481
REMARK INTRA:                  -0.076
REMARK UNBOUND:                -0.239
REMARK SMILES O=C([O-])c1ccccc1O
REMARK SMILES IDX 4 1 9 2 5 3 8 4 6 5 7 6 2 7 1 8 3 9 10 10
REMARK H PARENT 10 11
REMARK Flexibility Score: inf
ROOT
ATOM      1  C   UNL     1      43.029 -12.240 -35.278  1.00  0.00     0.039 A 
ATOM      2  C   UNL     1      41.739 -12.462 -35.828  1.00  0.00     0.124 A 
ATOM      3  C   UNL     1      43.955 -11.474 -36.009  1.00  0.00     0.014 A 
ATOM      4  C   UNL     1      41.393 -11.867 -37.049  1.00  0.00     0.047 A 
ATOM      5  C   UNL     1      43.602 -10.906 -37.235  1.00  0.00     0.001 A 
ATOM      6  C   UNL     1      42.320 -11.093 -37.749  1.00  0.00     0.004 A 
ENDROOT
BRANCH   1   7
ATOM      7  C   UNL     1      43.434 -12.753 -33.951  1.00  0.00     0.075 C 
ATOM      8  O   UNL     1      43.819 -13.942 -33.808  1.00  0.00    -0.545 OA
ATOM      9  O   UNL     1      43.326 -11.940 -32.828  1.00  0.00    -0.545 OA
ENDBRANCH   1   7
BRANCH   2  10
ATOM     10  O   UNL     1      40.791 -13.286 -35.217  1.00  0.00    -0.507 OA
ATOM     11  H   UNL     1      40.737 -14.283 -35.367  1.00  0.00     0.293 HD
ENDBRANCH   2  10
TORSDOF 2
ENDMDL
MODEL 5
REMARK VINA RESULT:    -4.867      7.677      8.571
REMARK INTER + INTRA:          -5.533
REMARK INTER:                  -5.293
REMARK INTRA:                  -0.240
REMARK UNBOUND:                -0.239
REMARK SMILES O=C([O-])c1ccccc1O
REMARK SMILES IDX 4 1 9 2 5 3 8 4 6 5 7 6 2 7 1 8 3 9 10 10
REMARK H PARENT 10 11
REMARK Flexibility Score: inf
ROOT
ATOM      1  C   UNL     1      46.385 -13.844 -32.653  1.00  0.00     0.039 A 
ATOM      2  C   UNL     1      45.158 -13.433 -32.067  1.00  0.00     0.124 A 
ATOM      3  C   UNL     1      46.362 -14.445 -33.925  1.00  0.00     0.014 A 
ATOM      4  C   UNL     1      43.964 -13.576 -32.787  1.00  0.00     0.047 A 
ATOM      5  C   UNL     1      45.160 -14.600 -34.620  1.00  0.00     0.001 A 
ATOM      6  C   UNL     1      43.965 -14.156 -34.056  1.00  0.00     0.004 A 
ENDROOT
BRANCH   1   7
ATOM      7  C   UNL     1      47.695 -13.637 -31.998  1.00  0.00     0.075 C 
ATOM      8  O   UNL     1      48.503 -14.592 -31.854  1.00  0.00    -0.545 OA
ATOM      9  O   UNL     1      48.020 -12.393 -31.469  1.00  0.00    -0.545 OA
ENDBRANCH   1   7
BRANCH   2  10
ATOM     10  O   UNL     1      45.078 -12.915 -30.773  1.00  0.00    -0.507 OA
ATOM     11  H   UNL     1      45.724 -12.233 -30.403  1.00  0.00     0.293 HD
ENDBRANCH   2  10
TORSDOF 2
ENDMDL
MODEL 6
REMARK VINA RESULT:    -4.841      5.619      6.420
REMARK INTER + INTRA:          -5.504
REMARK INTER:                  -5.281
REMARK INTRA:                  -0.223
REMARK UNBOUND:                -0.239
REMARK SMILES O=C([O-])c1ccccc1O
REMARK SMILES IDX 4 1 9 2 5 3 8 4 6 5 7 6 2 7 1 8 3 9 10 10
REMARK H PARENT 10 11
REMARK Flexibility Score: inf
ROOT
ATOM      1  C   UNL     1      40.965 -10.371 -43.857  1.00  0.00     0.039 A 
ATOM      2  C   UNL     1      41.168  -9.074 -44.399  1.00  0.00     0.124 A 
ATOM      3  C   UNL     1      40.608 -10.492 -42.502  1.00  0.00     0.014 A 
ATOM      4  C   UNL     1      40.949  -7.946 -43.597  1.00  0.00     0.047 A 
ATOM      5  C   UNL     1      40.414  -9.357 -41.710  1.00  0.00     0.001 A 
ATOM      6  C   UNL     1      40.574  -8.086 -42.260  1.00  0.00     0.004 A 
ENDROOT
BRANCH   1   7
ATOM      7  C   UNL     1      41.081 -11.605 -44.665  1.00  0.00     0.075 C 
ATOM      8  O   UNL     1      42.160 -11.900 -45.243  1.00  0.00    -0.545 OA
ATOM      9  O   UNL     1      39.971 -12.421 -44.852  1.00  0.00    -0.545 OA
ENDBRANCH   1   7
BRANCH   2  10
ATOM     10  O   UNL     1      41.614  -8.865 -45.705  1.00  0.00    -0.507 OA
ATOM     11  H   UNL     1      42.187  -8.080 -45.982  1.00  0.00     0.293 HD
ENDBRANCH   2  10
TORSDOF 2
ENDMDL
MODEL 7
REMARK VINA RESULT:    -4.793      1.633      2.599
REMARK INTER + INTRA:          -5.452
REMARK INTER:                  -5.238
REMARK INTRA:                  -0.214
REMARK UNBOUND:                -0.239
REMARK SMILES O=C([O-])c1ccccc1O
REMARK SMILES IDX 4 1 9 2 5 3 8 4 6 5 7 6 2 7 1 8 3 9 10 10
REMARK H PARENT 10 11
REMARK Flexibility Score: inf
ROOT
ATOM      1  C   UNL     1      42.796 -10.103 -39.323  1.00  0.00     0.039 A 
ATOM      2  C   UNL     1      42.370  -9.275 -40.395  1.00  0.00     0.124 A 
ATOM      3  C   UNL     1      43.430 -11.323 -39.618  1.00  0.00     0.014 A 
ATOM      4  C   UNL     1      42.643  -9.656 -41.716  1.00  0.00     0.047 A 
ATOM      5  C   UNL     1      43.676 -11.698 -40.941  1.00  0.00     0.001 A 
ATOM      6  C   UNL     1      43.292 -10.861 -41.988  1.00  0.00     0.004 A 
ENDROOT
BRANCH   1   7
ATOM      7  C   UNL     1      42.631  -9.723 -37.902  1.00  0.00     0.075 C 
ATOM      8  O   UNL     1      42.200  -8.585 -37.583  1.00  0.00    -0.545 OA
ATOM      9  O   UNL     1      43.021 -10.603 -36.898  1.00  0.00    -0.545 OA
ENDBRANCH   1   7
BRANCH   2  10
ATOM     10  O   UNL     1      41.650  -8.095 -40.196  1.00  0.00    -0.507 OA
ATOM     11  H   UNL     1      41.145  -7.885 -39.348  1.00  0.00     0.293 HD
ENDBRANCH   2  10
TORSDOF 2
ENDMDL
MODEL 8
REMARK VINA RESULT:    -4.785      2.081      3.406
REMARK INTER + INTRA:          -5.444
REMARK INTER:                  -5.222
REMARK INTRA:                  -0.221
REMARK UNBOUND:                -0.239
REMARK SMILES O=C([O-])c1ccccc1O
REMARK SMILES IDX 4 1 9 2 5 3 8 4 6 5 7 6 2 7 1 8 3 9 10 10
REMARK H PARENT 10 11
REMARK Flexibility Score: inf
ROOT
ATOM      1  C   UNL     1      42.755 -10.123 -40.297  1.00  0.00     0.039 A 
ATOM      2  C   UNL     1      42.216  -9.037 -39.558  1.00  0.00     0.124 A 
ATOM      3  C   UNL     1      43.304 -11.214 -39.597  1.00  0.00     0.014 A 
ATOM      4  C   UNL     1      42.183  -9.098 -38.159  1.00  0.00     0.047 A 
ATOM      5  C   UNL     1      43.283 -11.250 -38.201  1.00  0.00     0.001 A 
ATOM      6  C   UNL     1      42.714 -10.198 -37.483  1.00  0.00     0.004 A 
ENDROOT
BRANCH   1   7
ATOM      7  C   UNL     1      42.736 -10.176 -41.775  1.00  0.00     0.075 C 
ATOM      8  O   UNL     1      42.047  -9.361 -42.443  1.00  0.00    -0.545 OA
ATOM      9  O   UNL     1      43.429 -11.179 -42.444  1.00  0.00    -0.545 OA
ENDBRANCH   1   7
BRANCH   2  10
ATOM     10  O   UNL     1      41.737  -7.875 -40.168  1.00  0.00    -0.507 OA
ATOM     11  H   UNL     1      42.241  -7.001 -40.178  1.00  0.00     0.293 HD
ENDBRANCH   2  10
TORSDOF 2
ENDMDL
MODEL 9
REMARK VINA RESULT:    -4.684      5.945      6.841
REMARK INTER + INTRA:          -5.333
REMARK INTER:                  -5.086
REMARK INTRA:                  -0.247
REMARK UNBOUND:                -0.239
REMARK SMILES O=C([O-])c1ccccc1O
REMARK SMILES IDX 4 1 9 2 5 3 8 4 6 5 7 6 2 7 1 8 3 9 10 10
REMARK H PARENT 10 11
REMARK Flexibility Score: inf
ROOT
ATOM      1  C   UNL     1      46.813 -13.714 -35.212  1.00  0.00     0.039 A 
ATOM      2  C   UNL     1      48.088 -13.209 -35.579  1.00  0.00     0.124 A 
ATOM      3  C   UNL     1      46.640 -14.247 -33.921  1.00  0.00     0.014 A 
ATOM      4  C   UNL     1      49.125 -13.193 -34.637  1.00  0.00     0.047 A 
ATOM      5  C   UNL     1      47.690 -14.242 -33.000  1.00  0.00     0.001 A 
ATOM      6  C   UNL     1      48.928 -13.706 -33.355  1.00  0.00     0.004 A 
ENDROOT
BRANCH   1   7
ATOM      7  C   UNL     1      45.644 -13.676 -36.117  1.00  0.00     0.075 C 
ATOM      8  O   UNL     1      45.506 -12.749 -36.957  1.00  0.00    -0.545 OA
ATOM      9  O   UNL     1      44.642 -14.634 -36.001  1.00  0.00    -0.545 OA
ENDBRANCH   1   7
BRANCH   2  10
ATOM     10  O   UNL     1      48.374 -12.750 -36.867  1.00  0.00    -0.507 OA
ATOM     11  H   UNL     1      49.056 -13.180 -37.475  1.00  0.00     0.293 HD
ENDBRANCH   2  10
TORSDOF 2
ENDMDL
