MODEL 1
REMARK VINA RESULT:    -4.096      0.000      0.000
REMARK INTER + INTRA:          -5.318
REMARK INTER:                  -5.054
REMARK INTRA:                  -0.265
REMARK UNBOUND:                -0.265
REMARK SMILES CCCCC=CC(C)=O
REMARK SMILES IDX 4 1 3 2 2 3 1 4 5 5 6 6 7 7 9 8 8 9
REMARK H PARENT
REMARK Flexibility Score: inf
ROOT
ATOM      1  C   UNL     1      49.608  23.795  21.286  1.00  0.00     0.027 C 
ENDROOT
BRANCH   1   2
ATOM      2  C   UNL     1      51.001  23.814  20.644  1.00  0.00     0.004 C 
BRANCH   2   3
ATOM      3  C   UNL     1      50.978  23.144  19.265  1.00  0.00    -0.003 C 
ATOM      4  C   UNL     1      50.575  24.134  18.177  1.00  0.00     0.004 C 
ENDBRANCH   2   3
ENDBRANCH   1   2
BRANCH   1   5
ATOM      5  C   UNL     1      49.006  22.419  21.238  1.00  0.00    -0.023 C 
ATOM      6  C   UNL     1      47.788  22.206  20.728  1.00  0.00     0.042 C 
BRANCH   6   7
ATOM      7  C   UNL     1      47.175  20.866  20.685  1.00  0.00     0.152 C 
ATOM      8  O   UNL     1      45.925  20.724  20.758  1.00  0.00    -0.295 OA
ATOM      9  C   UNL     1      48.047  19.658  20.557  1.00  0.00     0.093 C 
ENDBRANCH   6   7
ENDBRANCH   1   5
TORSDOF 4
ENDMDL
MODEL 2
REMARK VINA RESULT:    -4.032      1.395      1.519
REMARK INTER + INTRA:          -5.240
REMARK INTER:                  -5.023
REMARK INTRA:                  -0.217
REMARK UNBOUND:                -0.265
REMARK SMILES CCCCC=CC(C)=O
REMARK SMILES IDX 4 1 3 2 2 3 1 4 5 5 6 6 7 7 9 8 8 9
REMARK H PARENT
REMARK Flexibility Score: inf
ROOT
ATOM      1  C   UNL     1      49.666  23.043  21.750  1.00  0.00     0.027 C 
ENDROOT
BRANCH   1   2
ATOM      2  C   UNL     1      50.609  23.930  20.928  1.00  0.00     0.004 C 
BRANCH   2   3
ATOM      3  C   UNL     1      50.984  23.252  19.605  1.00  0.00    -0.003 C 
ATOM      4  C   UNL     1      50.895  24.232  18.439  1.00  0.00     0.004 C 
ENDBRANCH   2   3
ENDBRANCH   1   2
BRANCH   1   5
ATOM      5  C   UNL     1      48.652  22.366  20.872  1.00  0.00    -0.023 C 
ATOM      6  C   UNL     1      47.347  22.644  20.970  1.00  0.00     0.042 C 
BRANCH   6   7
ATOM      7  C   UNL     1      46.335  21.981  20.127  1.00  0.00     0.152 C 
ATOM      8  O   UNL     1      46.439  21.982  18.870  1.00  0.00    -0.295 OA
ATOM      9  C   UNL     1      45.168  21.302  20.769  1.00  0.00     0.093 C 
ENDBRANCH   6   7
ENDBRANCH   1   5
TORSDOF 4
ENDMDL
MODEL 3
REMARK VINA RESULT:    -3.942      2.254      4.712
REMARK INTER + INTRA:          -5.128
REMARK INTER:                  -4.940
REMARK INTRA:                  -0.188
REMARK UNBOUND:                -0.265
REMARK SMILES CCCCC=CC(C)=O
REMARK SMILES IDX 4 1 3 2 2 3 1 4 5 5 6 6 7 7 9 8 8 9
REMARK H PARENT
REMARK Flexibility Score: inf
ROOT
ATOM      1  C   UNL     1      48.333  20.624  20.393  1.00  0.00     0.027 C 
ENDROOT
BRANCH   1   2
ATOM      2  C   UNL     1      46.870  20.424  20.810  1.00  0.00     0.004 C 
BRANCH   2   3
ATOM      3  C   UNL     1      45.977  21.519  20.217  1.00  0.00    -0.003 C 
ATOM      4  C   UNL     1      44.598  21.519  20.872  1.00  0.00     0.004 C 
ENDBRANCH   2   3
ENDBRANCH   1   2
BRANCH   1   5
ATOM      5  C   UNL     1      48.697  22.082  20.370  1.00  0.00    -0.023 C 
ATOM      6  C   UNL     1      49.239  22.683  21.434  1.00  0.00     0.042 C 
BRANCH   6   7
ATOM      7  C   UNL     1      49.590  24.115  21.436  1.00  0.00     0.152 C 
ATOM      8  O   UNL     1      48.705  24.998  21.597  1.00  0.00    -0.295 OA
ATOM      9  C   UNL     1      51.014  24.527  21.242  1.00  0.00     0.093 C 
ENDBRANCH   6   7
ENDBRANCH   1   5
TORSDOF 4
ENDMDL
MODEL 4
REMARK VINA RESULT:    -3.922      2.425      4.696
REMARK INTER + INTRA:          -5.103
REMARK INTER:                  -4.853
REMARK INTRA:                  -0.250
REMARK UNBOUND:                -0.265
REMARK SMILES CCCCC=CC(C)=O
REMARK SMILES IDX 4 1 3 2 2 3 1 4 5 5 6 6 7 7 9 8 8 9
REMARK H PARENT
REMARK Flexibility Score: inf
ROOT
ATOM      1  C   UNL     1      47.429  22.291  21.069  1.00  0.00     0.027 C 
ENDROOT
BRANCH   1   2
ATOM      2  C   UNL     1      46.903  20.981  20.468  1.00  0.00     0.004 C 
BRANCH   2   3
ATOM      3  C   UNL     1      48.046  19.989  20.230  1.00  0.00    -0.003 C 
ATOM      4  C   UNL     1      48.036  18.876  21.273  1.00  0.00     0.004 C 
ENDBRANCH   2   3
ENDBRANCH   1   2
BRANCH   1   5
ATOM      5  C   UNL     1      48.797  22.620  20.540  1.00  0.00    -0.023 C 
ATOM      6  C   UNL     1      49.565  23.549  21.120  1.00  0.00     0.042 C 
BRANCH   6   7
ATOM      7  C   UNL     1      50.903  23.896  20.609  1.00  0.00     0.152 C 
ATOM      8  O   UNL     1      51.649  24.694  21.239  1.00  0.00    -0.295 OA
ATOM      9  C   UNL     1      51.382  23.298  19.326  1.00  0.00     0.093 C 
ENDBRANCH   6   7
ENDBRANCH   1   5
TORSDOF 4
ENDMDL
MODEL 5
REMARK VINA RESULT:    -3.900      2.469      3.938
REMARK INTER + INTRA:          -5.077
REMARK INTER:                  -4.811
REMARK INTRA:                  -0.266
REMARK UNBOUND:                -0.265
REMARK SMILES CCCCC=CC(C)=O
REMARK SMILES IDX 4 1 3 2 2 3 1 4 5 5 6 6 7 7 9 8 8 9
REMARK H PARENT
REMARK Flexibility Score: inf
ROOT
ATOM      1  C   UNL     1      46.972  20.416  20.585  1.00  0.00     0.027 C 
ENDROOT
BRANCH   1   2
ATOM      2  C   UNL     1      48.413  20.860  20.866  1.00  0.00     0.004 C 
BRANCH   2   3
ATOM      3  C   UNL     1      48.566  22.374  20.675  1.00  0.00    -0.003 C 
ATOM      4  C   UNL     1      49.371  22.993  21.814  1.00  0.00     0.004 C 
ENDBRANCH   2   3
ENDBRANCH   1   2
BRANCH   1   5
ATOM      5  C   UNL     1      46.026  21.583  20.615  1.00  0.00    -0.023 C 
ATOM      6  C   UNL     1      44.762  21.448  21.032  1.00  0.00     0.042 C 
BRANCH   6   7
ATOM      7  C   UNL     1      43.816  22.577  21.057  1.00  0.00     0.152 C 
ATOM      8  O   UNL     1      42.572  22.378  21.116  1.00  0.00    -0.295 OA
ATOM      9  C   UNL     1      44.335  23.978  21.008  1.00  0.00     0.093 C 
ENDBRANCH   6   7
ENDBRANCH   1   5
TORSDOF 4
ENDMDL
MODEL 6
REMARK VINA RESULT:    -3.887      2.723      5.086
REMARK INTER + INTRA:          -5.060
REMARK INTER:                  -4.955
REMARK INTRA:                  -0.105
REMARK UNBOUND:                -0.265
REMARK SMILES CCCCC=CC(C)=O
REMARK SMILES IDX 4 1 3 2 2 3 1 4 5 5 6 6 7 7 9 8 8 9
REMARK H PARENT
REMARK Flexibility Score: inf
ROOT
ATOM      1  C   UNL     1      48.745  22.094  21.333  1.00  0.00     0.027 C 
ENDROOT
BRANCH   1   2
ATOM      2  C   UNL     1      47.980  21.350  20.231  1.00  0.00     0.004 C 
BRANCH   2   3
ATOM      3  C   UNL     1      47.394  20.037  20.761  1.00  0.00    -0.003 C 
ATOM      4  C   UNL     1      48.364  18.877  20.554  1.00  0.00     0.004 C 
ENDBRANCH   2   3
ENDBRANCH   1   2
BRANCH   1   5
ATOM      5  C   UNL     1      49.508  23.261  20.774  1.00  0.00    -0.023 C 
ATOM      6  C   UNL     1      50.475  23.863  21.473  1.00  0.00     0.042 C 
BRANCH   6   7
ATOM      7  C   UNL     1      51.226  25.018  20.947  1.00  0.00     0.152 C 
ATOM      8  O   UNL     1      51.123  25.359  19.738  1.00  0.00    -0.295 OA
ATOM      9  C   UNL     1      52.125  25.792  21.857  1.00  0.00     0.093 C 
ENDBRANCH   6   7
ENDBRANCH   1   5
TORSDOF 4
ENDMDL
MODEL 7
REMARK VINA RESULT:    -3.779      1.262      1.776
REMARK INTER + INTRA:          -4.928
REMARK INTER:                  -4.747
REMARK INTRA:                  -0.180
REMARK UNBOUND:                -0.265
REMARK SMILES CCCCC=CC(C)=O
REMARK SMILES IDX 4 1 3 2 2 3 1 4 5 5 6 6 7 7 9 8 8 9
REMARK H PARENT
REMARK Flexibility Score: inf
ROOT
ATOM      1  C   UNL     1      49.071  23.925  21.432  1.00  0.00     0.027 C 
ENDROOT
BRANCH   1   2
ATOM      2  C   UNL     1      50.478  23.599  20.917  1.00  0.00     0.004 C 
BRANCH   2   3
ATOM      3  C   UNL     1      51.370  24.846  20.930  1.00  0.00    -0.003 C 
ATOM      4  C   UNL     1      51.124  25.685  22.180  1.00  0.00     0.004 C 
ENDBRANCH   2   3
ENDBRANCH   1   2
BRANCH   1   5
ATOM      5  C   UNL     1      48.119  22.793  21.169  1.00  0.00    -0.023 C 
ATOM      6  C   UNL     1      48.549  21.532  21.052  1.00  0.00     0.042 C 
BRANCH   6   7
ATOM      7  C   UNL     1      47.632  20.409  20.780  1.00  0.00     0.152 C 
ATOM      8  O   UNL     1      46.382  20.569  20.828  1.00  0.00    -0.295 OA
ATOM      9  C   UNL     1      48.191  19.064  20.446  1.00  0.00     0.093 C 
ENDBRANCH   6   7
ENDBRANCH   1   5
TORSDOF 4
ENDMDL
MODEL 8
REMARK VINA RESULT:    -3.658      3.314      4.960
REMARK INTER + INTRA:          -4.778
REMARK INTER:                  -4.551
REMARK INTRA:                  -0.227
REMARK UNBOUND:                -0.265
REMARK SMILES CCCCC=CC(C)=O
REMARK SMILES IDX 4 1 3 2 2 3 1 4 5 5 6 6 7 7 9 8 8 9
REMARK H PARENT
REMARK Flexibility Score: inf
ROOT
ATOM      1  C   UNL     1      45.688  21.147  20.414  1.00  0.00     0.027 C 
ENDROOT
BRANCH   1   2
ATOM      2  C   UNL     1      46.965  21.802  19.872  1.00  0.00     0.004 C 
BRANCH   2   3
ATOM      3  C   UNL     1      48.214  21.148  20.473  1.00  0.00    -0.003 C 
ATOM      4  C   UNL     1      47.947  19.693  20.847  1.00  0.00     0.004 C 
ENDBRANCH   2   3
ENDBRANCH   1   2
BRANCH   1   5
ATOM      5  C   UNL     1      44.744  22.175  20.970  1.00  0.00    -0.023 C 
ATOM      6  C   UNL     1      44.959  23.485  20.804  1.00  0.00     0.042 C 
BRANCH   6   7
ATOM      7  C   UNL     1      44.052  24.509  21.353  1.00  0.00     0.152 C 
ATOM      8  O   UNL     1      44.340  25.126  22.414  1.00  0.00    -0.295 OA
ATOM      9  C   UNL     1      42.771  24.817  20.646  1.00  0.00     0.093 C 
ENDBRANCH   6   7
ENDBRANCH   1   5
TORSDOF 4
ENDMDL
MODEL 9
REMARK VINA RESULT:    -1.655      3.451      5.002
REMARK INTER + INTRA:          -2.307
REMARK INTER:                  -2.144
REMARK INTRA:                  -0.163
REMARK UNBOUND:                -0.265
REMARK SMILES CCCCC=CC(C)=O
REMARK SMILES IDX 4 1 3 2 2 3 1 4 5 5 6 6 7 7 9 8 8 9
REMARK H PARENT
REMARK Flexibility Score: inf
ROOT
ATOM      1  C   UNL     1      46.439  22.247  20.497  1.00  0.00     0.027 C 
ENDROOT
BRANCH   1   2
ATOM      2  C   UNL     1      46.552  20.736  20.733  1.00  0.00     0.004 C 
BRANCH   2   3
ATOM      3  C   UNL     1      47.990  20.252  20.507  1.00  0.00    -0.003 C 
ATOM      4  C   UNL     1      48.210  18.875  21.126  1.00  0.00     0.004 C 
ENDBRANCH   2   3
ENDBRANCH   1   2
BRANCH   1   5
ATOM      5  C   UNL     1      45.022  22.718  20.661  1.00  0.00    -0.023 C 
ATOM      6  C   UNL     1      44.065  21.907  21.126  1.00  0.00     0.042 C 
BRANCH   6   7
ATOM      7  C   UNL     1      42.667  22.347  21.282  1.00  0.00     0.152 C 
ATOM      8  O   UNL     1      41.731  21.506  21.369  1.00  0.00    -0.295 OA
ATOM      9  C   UNL     1      42.352  23.807  21.334  1.00  0.00     0.093 C 
ENDBRANCH   6   7
ENDBRANCH   1   5
TORSDOF 4
ENDMDL
