MODEL 1
REMARK VINA RESULT:    -5.409      0.000      0.000
REMARK INTER + INTRA:          -7.232
REMARK INTER:                  -7.623
REMARK INTRA:                   0.391
REMARK UNBOUND:                 0.391
REMARK SMILES CC1=CCC(=C(C)C)C(=O)CC(C)=CCC1
REMARK SMILES IDX 12 1 14 2 13 3 15 4 16 5 2 6 1 7 3 8 11 10 9 11 10 12 5 13
REMARK SMILES IDX 6 14 7 15 8 16 4 17
REMARK H PARENT
REMARK Flexibility Score: 60.00
ROOT
ATOM      1  C   UNL     1     -12.883 -15.244  29.195  1.00  0.00    -0.070 C 
ATOM      2  C   UNL     1     -13.533 -15.320  30.380  1.00  0.00    -0.027 C 
ATOM      3  C   UNL     1     -13.687 -14.906  27.966  1.00  0.00     0.039 C 
ENDROOT
BRANCH   2   4
ATOM      4  C   UNL     1     -12.867 -15.500  31.720  1.00  0.00     0.032 C 
BRANCH   4   5
ATOM      5  C   UNL     1     -12.347 -16.936  31.854  1.00  0.00     0.034 C 
BRANCH   5   6
ATOM      6  C   UNL     1     -10.854 -16.992  32.104  1.00  0.00    -0.077 C 
ATOM      7  C   UNL     1     -10.279 -16.177  33.238  1.00  0.00     0.039 C 
ATOM      8  C   UNL     1      -9.986 -17.680  31.320  1.00  0.00    -0.023 CG0
ATOM      9  G   UNL     1     -10.322 -18.609  30.168  1.00  0.00     0.000 G0
ENDBRANCH   5   6
ENDBRANCH   4   5
ENDBRANCH   2   4
BRANCH   1  10
ATOM     10  C   UNL     1     -11.397 -15.501  29.041  1.00  0.00     0.111 C 
BRANCH  10  11
ATOM     11  C   UNL     1     -11.120 -16.858  28.439  1.00  0.00     0.163 C 
ATOM     12  O   UNL     1     -10.677 -16.882  27.259  1.00  0.00    -0.294 OA
BRANCH  11  13
ATOM     13  C   UNL     1     -11.361 -18.153  29.156  1.00  0.00    -0.002 C 
ATOM     14  C   UNL     1     -12.562 -18.800  29.038  1.00  0.00    -0.069 C 
ATOM     15  C   UNL     1     -13.571 -18.407  27.983  1.00  0.00     0.039 C 
ATOM     16  C   UNL     1     -12.929 -19.975  29.916  1.00  0.00     0.039 C 
BRANCH  13  17
ATOM     17  C   UNL     1     -10.307 -18.624  30.152  1.00  0.00     0.066 CG0
ATOM     18  G   UNL     1      -9.990 -17.681  31.297  1.00  0.00     0.000 G0
ENDBRANCH  13  17
ENDBRANCH  11  13
ENDBRANCH  10  11
ENDBRANCH   1  10
TORSDOF 0
ENDMDL
MODEL 2
REMARK VINA RESULT:    -5.403      2.213      4.930
REMARK INTER + INTRA:          -7.223
REMARK INTER:                  -7.580
REMARK INTRA:                   0.357
REMARK UNBOUND:                 0.391
REMARK SMILES CC1=CCC(=C(C)C)C(=O)CC(C)=CCC1
REMARK SMILES IDX 12 1 14 2 13 3 15 4 16 5 2 6 1 7 3 8 11 10 9 11 10 12 5 13
REMARK SMILES IDX 6 14 7 15 8 16 4 17
REMARK H PARENT
REMARK Flexibility Score: 60.00
ROOT
ATOM      1  C   UNL     1     -12.798 -19.600  30.731  1.00  0.00    -0.070 C 
ATOM      2  C   UNL     1     -12.944 -19.822  29.404  1.00  0.00    -0.027 C 
ATOM      3  C   UNL     1     -12.010 -20.602  31.535  1.00  0.00     0.039 C 
ENDROOT
BRANCH   2   4
ATOM      4  C   UNL     1     -13.571 -18.857  28.431  1.00  0.00     0.032 C 
BRANCH   4   5
ATOM      5  C   UNL     1     -12.482 -18.000  27.774  1.00  0.00     0.034 C 
BRANCH   5   6
ATOM      6  C   UNL     1     -12.958 -16.596  27.463  1.00  0.00    -0.077 C 
ATOM      7  C   UNL     1     -13.728 -16.358  26.188  1.00  0.00     0.039 C 
ATOM      8  C   UNL     1     -12.668 -15.518  28.235  1.00  0.00    -0.023 CG0
ATOM      9  G   UNL     1     -11.965 -15.507  29.580  1.00  0.00     0.000 G0
ENDBRANCH   5   6
ENDBRANCH   4   5
ENDBRANCH   2   4
BRANCH   1  10
ATOM     10  C   UNL     1     -13.403 -18.410  31.449  1.00  0.00     0.111 C 
BRANCH  10  11
ATOM     11  C   UNL     1     -12.467 -17.226  31.462  1.00  0.00     0.163 C 
ATOM     12  O   UNL     1     -11.372 -17.366  32.071  1.00  0.00    -0.294 OA
BRANCH  11  13
ATOM     13  C   UNL     1     -12.780 -15.908  30.816  1.00  0.00    -0.002 C 
ATOM     14  C   UNL     1     -13.873 -15.183  31.208  1.00  0.00    -0.069 C 
ATOM     15  C   UNL     1     -14.632 -15.519  32.471  1.00  0.00     0.039 C 
ATOM     16  C   UNL     1     -14.354 -13.976  30.434  1.00  0.00     0.039 C 
BRANCH  13  17
ATOM     17  C   UNL     1     -11.957 -15.498  29.599  1.00  0.00     0.066 CG0
ATOM     18  G   UNL     1     -12.675 -15.512  28.261  1.00  0.00     0.000 G0
ENDBRANCH  13  17
ENDBRANCH  11  13
ENDBRANCH  10  11
ENDBRANCH   1  10
TORSDOF 0
ENDMDL
MODEL 3
REMARK VINA RESULT:    -5.330      1.782      3.758
REMARK INTER + INTRA:          -7.121
REMARK INTER:                  -7.829
REMARK INTRA:                   0.708
REMARK UNBOUND:                 0.391
REMARK SMILES CC1=CCC(=C(C)C)C(=O)CC(C)=CCC1
REMARK SMILES IDX 12 1 14 2 13 3 15 4 16 5 2 6 1 7 3 8 11 10 9 11 10 12 5 13
REMARK SMILES IDX 6 14 7 15 8 16 4 17
REMARK H PARENT
REMARK Flexibility Score: 60.00
ROOT
ATOM      1  C   UNL     1     -12.727 -16.837  31.273  1.00  0.00    -0.070 C 
ATOM      2  C   UNL     1     -13.283 -18.064  31.392  1.00  0.00    -0.027 C 
ATOM      3  C   UNL     1     -13.633 -15.636  31.368  1.00  0.00     0.039 C 
ENDROOT
BRANCH   2   4
ATOM      4  C   UNL     1     -12.512 -19.358  31.469  1.00  0.00     0.032 C 
BRANCH   4   5
ATOM      5  C   UNL     1     -11.731 -19.575  30.168  1.00  0.00     0.034 C 
BRANCH   5   6
ATOM      6  C   UNL     1     -12.623 -19.544  28.944  1.00  0.00    -0.077 C 
ATOM      7  C   UNL     1     -13.757 -20.535  28.849  1.00  0.00     0.039 C 
ATOM      8  C   UNL     1     -12.418 -18.718  27.887  1.00  0.00    -0.023 CG0
ATOM      9  G   UNL     1     -11.390 -17.608  27.770  1.00  0.00     0.000 G0
ENDBRANCH   5   6
ENDBRANCH   4   5
ENDBRANCH   2   4
BRANCH   1  10
ATOM     10  C   UNL     1     -11.248 -16.610  31.029  1.00  0.00     0.111 C 
BRANCH  10  11
ATOM     11  C   UNL     1     -10.993 -15.937  29.701  1.00  0.00     0.163 C 
ATOM     12  O   UNL     1     -10.125 -15.024  29.679  1.00  0.00    -0.294 OA
BRANCH  11  13
ATOM     13  C   UNL     1     -11.724 -16.281  28.437  1.00  0.00    -0.002 C 
ATOM     14  C   UNL     1     -12.769 -15.509  28.005  1.00  0.00    -0.069 C 
ATOM     15  C   UNL     1     -13.046 -14.149  28.603  1.00  0.00     0.039 C 
ATOM     16  C   UNL     1     -13.674 -15.945  26.875  1.00  0.00     0.039 C 
BRANCH  13  17
ATOM     17  C   UNL     1     -11.388 -17.605  27.758  1.00  0.00     0.066 CG0
ATOM     18  G   UNL     1     -12.415 -18.714  27.891  1.00  0.00     0.000 G0
ENDBRANCH  13  17
ENDBRANCH  11  13
ENDBRANCH  10  11
ENDBRANCH   1  10
TORSDOF 0
ENDMDL
MODEL 4
REMARK VINA RESULT:    -5.307      1.628      3.628
REMARK INTER + INTRA:          -7.088
REMARK INTER:                  -7.653
REMARK INTRA:                   0.565
REMARK UNBOUND:                 0.391
REMARK SMILES CC1=CCC(=C(C)C)C(=O)CC(C)=CCC1
REMARK SMILES IDX 12 1 14 2 13 3 15 4 16 5 2 6 1 7 3 8 11 10 9 11 10 12 5 13
REMARK SMILES IDX 6 14 7 15 8 16 4 17
REMARK H PARENT
REMARK Flexibility Score: 60.00
ROOT
ATOM      1  C   UNL     1     -12.034 -17.396  27.238  1.00  0.00    -0.070 C 
ATOM      2  C   UNL     1     -12.079 -18.585  27.881  1.00  0.00    -0.027 C 
ATOM      3  C   UNL     1     -11.063 -17.244  26.095  1.00  0.00     0.039 C 
ENDROOT
BRANCH   2   4
ATOM      4  C   UNL     1     -13.084 -18.957  28.941  1.00  0.00     0.032 C 
BRANCH   4   5
ATOM      5  C   UNL     1     -12.359 -19.494  30.180  1.00  0.00     0.034 C 
BRANCH   5   6
ATOM      6  C   UNL     1     -11.343 -18.514  30.729  1.00  0.00    -0.077 C 
ATOM      7  C   UNL     1      -9.896 -18.936  30.800  1.00  0.00     0.039 C 
ATOM      8  C   UNL     1     -11.670 -17.296  31.230  1.00  0.00    -0.023 CG0
ATOM      9  G   UNL     1     -13.033 -16.629  31.218  1.00  0.00     0.000 G0
ENDBRANCH   5   6
ENDBRANCH   4   5
ENDBRANCH   2   4
BRANCH   1  10
ATOM     10  C   UNL     1     -12.893 -16.207  27.622  1.00  0.00     0.111 C 
BRANCH  10  11
ATOM     11  C   UNL     1     -12.447 -15.588  28.925  1.00  0.00     0.163 C 
ATOM     12  O   UNL     1     -11.292 -15.085  28.955  1.00  0.00    -0.294 OA
BRANCH  11  13
ATOM     13  C   UNL     1     -13.288 -15.561  30.167  1.00  0.00    -0.002 C 
ATOM     14  C   UNL     1     -14.126 -14.507  30.418  1.00  0.00    -0.069 C 
ATOM     15  C   UNL     1     -14.455 -13.489  29.350  1.00  0.00     0.039 C 
ATOM     16  C   UNL     1     -14.810 -14.328  31.754  1.00  0.00     0.039 C 
BRANCH  13  17
ATOM     17  C   UNL     1     -13.044 -16.641  31.215  1.00  0.00     0.066 CG0
ATOM     18  G   UNL     1     -11.665 -17.275  31.226  1.00  0.00     0.000 G0
ENDBRANCH  13  17
ENDBRANCH  11  13
ENDBRANCH  10  11
ENDBRANCH   1  10
TORSDOF 0
ENDMDL
MODEL 5
REMARK VINA RESULT:    -5.283      1.954      3.832
REMARK INTER + INTRA:          -7.054
REMARK INTER:                  -7.298
REMARK INTRA:                   0.244
REMARK UNBOUND:                 0.391
REMARK SMILES CC1=CCC(=C(C)C)C(=O)CC(C)=CCC1
REMARK SMILES IDX 12 1 14 2 13 3 15 4 16 5 2 6 1 7 3 8 11 10 9 11 10 12 5 13
REMARK SMILES IDX 6 14 7 15 8 16 4 17
REMARK H PARENT
REMARK Flexibility Score: 60.00
ROOT
ATOM      1  C   UNL     1     -12.200 -17.006  26.820  1.00  0.00    -0.070 C 
ATOM      2  C   UNL     1     -12.896 -15.890  26.502  1.00  0.00    -0.027 C 
ATOM      3  C   UNL     1     -11.035 -17.388  25.943  1.00  0.00     0.039 C 
ENDROOT
BRANCH   2   4
ATOM      4  C   UNL     1     -13.989 -15.284  27.346  1.00  0.00     0.032 C 
BRANCH   4   5
ATOM      5  C   UNL     1     -13.384 -14.295  28.349  1.00  0.00     0.034 C 
BRANCH   5   6
ATOM      6  C   UNL     1     -14.081 -14.333  29.694  1.00  0.00    -0.077 C 
ATOM      7  C   UNL     1     -15.408 -13.631  29.840  1.00  0.00     0.039 C 
ATOM      8  C   UNL     1     -13.544 -14.904  30.801  1.00  0.00    -0.023 CG0
ATOM      9  G   UNL     1     -12.262 -15.712  30.894  1.00  0.00     0.000 G0
ENDBRANCH   5   6
ENDBRANCH   4   5
ENDBRANCH   2   4
BRANCH   1  10
ATOM     10  C   UNL     1     -12.545 -17.898  27.995  1.00  0.00     0.111 C 
BRANCH  10  11
ATOM     11  C   UNL     1     -11.709 -17.577  29.211  1.00  0.00     0.163 C 
ATOM     12  O   UNL     1     -10.458 -17.677  29.089  1.00  0.00    -0.294 OA
BRANCH  11  13
ATOM     13  C   UNL     1     -12.284 -17.171  30.536  1.00  0.00    -0.002 C 
ATOM     14  C   UNL     1     -12.966 -18.077  31.305  1.00  0.00    -0.069 C 
ATOM     15  C   UNL     1     -12.924 -19.558  31.004  1.00  0.00     0.039 C 
ATOM     16  C   UNL     1     -13.753 -17.659  32.526  1.00  0.00     0.039 C 
BRANCH  13  17
ATOM     17  C   UNL     1     -12.244 -15.693  30.908  1.00  0.00     0.066 CG0
ATOM     18  G   UNL     1     -13.551 -14.931  30.791  1.00  0.00     0.000 G0
ENDBRANCH  13  17
ENDBRANCH  11  13
ENDBRANCH  10  11
ENDBRANCH   1  10
TORSDOF 0
ENDMDL
MODEL 6
REMARK VINA RESULT:    -5.104      1.632      3.480
REMARK INTER + INTRA:          -6.802
REMARK INTER:                  -7.352
REMARK INTRA:                   0.550
REMARK UNBOUND:                 0.391
REMARK SMILES CC1=CCC(=C(C)C)C(=O)CC(C)=CCC1
REMARK SMILES IDX 12 1 14 2 13 3 15 4 16 5 2 6 1 7 3 8 11 10 9 11 10 12 5 13
REMARK SMILES IDX 6 14 7 15 8 16 4 17
REMARK H PARENT
REMARK Flexibility Score: 60.00
ROOT
ATOM      1  C   UNL     1     -12.717 -19.159  29.187  1.00  0.00    -0.070 C 
ATOM      2  C   UNL     1     -13.048 -19.613  30.418  1.00  0.00    -0.027 C 
ATOM      3  C   UNL     1     -13.726 -19.317  28.079  1.00  0.00     0.039 C 
ENDROOT
BRANCH   2   4
ATOM      4  C   UNL     1     -12.225 -19.406  31.665  1.00  0.00     0.032 C 
BRANCH   4   5
ATOM      5  C   UNL     1     -11.781 -17.942  31.758  1.00  0.00     0.034 C 
BRANCH   5   6
ATOM      6  C   UNL     1     -12.952 -16.983  31.826  1.00  0.00    -0.077 C 
ATOM      7  C   UNL     1     -14.016 -17.215  32.870  1.00  0.00     0.039 C 
ATOM      8  C   UNL     1     -13.137 -15.963  30.951  1.00  0.00    -0.023 CG0
ATOM      9  G   UNL     1     -12.190 -15.498  29.861  1.00  0.00     0.000 G0
ENDBRANCH   5   6
ENDBRANCH   4   5
ENDBRANCH   2   4
BRANCH   1  10
ATOM     10  C   UNL     1     -11.380 -18.521  28.864  1.00  0.00     0.111 C 
BRANCH  10  11
ATOM     11  C   UNL     1     -11.540 -17.255  28.058  1.00  0.00     0.163 C 
ATOM     12  O   UNL     1     -10.879 -17.170  26.987  1.00  0.00    -0.294 OA
BRANCH  11  13
ATOM     13  C   UNL     1     -12.414 -16.107  28.470  1.00  0.00    -0.002 C 
ATOM     14  C   UNL     1     -13.267 -15.524  27.571  1.00  0.00    -0.069 C 
ATOM     15  C   UNL     1     -13.576 -16.173  26.241  1.00  0.00     0.039 C 
ATOM     16  C   UNL     1     -13.988 -14.230  27.874  1.00  0.00     0.039 C 
BRANCH  13  17
ATOM     17  C   UNL     1     -12.189 -15.501  29.851  1.00  0.00     0.066 CG0
ATOM     18  G   UNL     1     -13.125 -15.962  30.953  1.00  0.00     0.000 G0
ENDBRANCH  13  17
ENDBRANCH  11  13
ENDBRANCH  10  11
ENDBRANCH   1  10
TORSDOF 0
ENDMDL
MODEL 7
REMARK VINA RESULT:    -5.100      1.880      3.642
REMARK INTER + INTRA:          -6.796
REMARK INTER:                  -7.871
REMARK INTRA:                   1.075
REMARK UNBOUND:                 0.391
REMARK SMILES CC1=CCC(=C(C)C)C(=O)CC(C)=CCC1
REMARK SMILES IDX 12 1 14 2 13 3 15 4 16 5 2 6 1 7 3 8 11 10 9 11 10 12 5 13
REMARK SMILES IDX 6 14 7 15 8 16 4 17
REMARK H PARENT
REMARK Flexibility Score: 60.00
ROOT
ATOM      1  C   UNL     1     -13.004 -15.887  31.104  1.00  0.00    -0.070 C 
ATOM      2  C   UNL     1     -13.867 -15.108  30.412  1.00  0.00    -0.027 C 
ATOM      3  C   UNL     1     -13.534 -16.655  32.288  1.00  0.00     0.039 C 
ENDROOT
BRANCH   2   4
ATOM      4  C   UNL     1     -13.544 -14.394  29.125  1.00  0.00     0.032 C 
BRANCH   4   5
ATOM      5  C   UNL     1     -12.417 -15.129  28.390  1.00  0.00     0.034 C 
BRANCH   5   6
ATOM      6  C   UNL     1     -12.938 -16.080  27.332  1.00  0.00    -0.077 C 
ATOM      7  C   UNL     1     -13.999 -15.589  26.378  1.00  0.00     0.039 C 
ATOM      8  C   UNL     1     -12.555 -17.378  27.235  1.00  0.00    -0.023 CG0
ATOM      9  G   UNL     1     -11.474 -18.083  28.034  1.00  0.00     0.000 G0
ENDBRANCH   5   6
ENDBRANCH   4   5
ENDBRANCH   2   4
BRANCH   1  10
ATOM     10  C   UNL     1     -11.532 -16.010  30.762  1.00  0.00     0.111 C 
BRANCH  10  11
ATOM     11  C   UNL     1     -11.127 -17.445  30.525  1.00  0.00     0.163 C 
ATOM     12  O   UNL     1     -10.176 -17.894  31.220  1.00  0.00    -0.294 OA
BRANCH  11  13
ATOM     13  C   UNL     1     -11.774 -18.338  29.508  1.00  0.00    -0.002 C 
ATOM     14  C   UNL     1     -12.472 -19.448  29.901  1.00  0.00    -0.069 C 
ATOM     15  C   UNL     1     -12.864 -19.665  31.345  1.00  0.00     0.039 C 
ATOM     16  C   UNL     1     -12.939 -20.494  28.913  1.00  0.00     0.039 C 
BRANCH  13  17
ATOM     17  C   UNL     1     -11.475 -18.075  28.036  1.00  0.00     0.066 CG0
ATOM     18  G   UNL     1     -12.558 -17.368  27.242  1.00  0.00     0.000 G0
ENDBRANCH  13  17
ENDBRANCH  11  13
ENDBRANCH  10  11
ENDBRANCH   1  10
TORSDOF 0
ENDMDL
MODEL 8
REMARK VINA RESULT:    -5.085      1.782      3.801
REMARK INTER + INTRA:          -6.775
REMARK INTER:                  -7.350
REMARK INTRA:                   0.575
REMARK UNBOUND:                 0.391
REMARK SMILES CC1=CCC(=C(C)C)C(=O)CC(C)=CCC1
REMARK SMILES IDX 12 1 14 2 13 3 15 4 16 5 2 6 1 7 3 8 11 10 9 11 10 12 5 13
REMARK SMILES IDX 6 14 7 15 8 16 4 17
REMARK H PARENT
REMARK Flexibility Score: 60.00
ROOT
ATOM      1  C   UNL     1     -13.313 -14.869  28.972  1.00  0.00    -0.070 C 
ATOM      2  C   UNL     1     -14.071 -15.012  27.861  1.00  0.00    -0.027 C 
ATOM      3  C   UNL     1     -14.016 -14.694  30.294  1.00  0.00     0.039 C 
ENDROOT
BRANCH   2   4
ATOM      4  C   UNL     1     -13.540 -15.342  26.489  1.00  0.00     0.032 C 
BRANCH   4   5
ATOM      5  C   UNL     1     -13.345 -16.856  26.357  1.00  0.00     0.034 C 
BRANCH   5   6
ATOM      6  C   UNL     1     -11.891 -17.266  26.468  1.00  0.00    -0.077 C 
ATOM      7  C   UNL     1     -10.969 -16.987  25.307  1.00  0.00     0.039 C 
ATOM      8  C   UNL     1     -11.380 -17.938  27.531  1.00  0.00    -0.023 CG0
ATOM      9  G   UNL     1     -12.084 -18.280  28.831  1.00  0.00     0.000 G0
ENDBRANCH   5   6
ENDBRANCH   4   5
ENDBRANCH   2   4
BRANCH   1  10
ATOM     10  C   UNL     1     -11.797 -14.854  28.951  1.00  0.00     0.111 C 
BRANCH  10  11
ATOM     11  C   UNL     1     -11.212 -16.011  29.724  1.00  0.00     0.163 C 
ATOM     12  O   UNL     1     -10.032 -15.880  30.148  1.00  0.00    -0.294 OA
BRANCH  11  13
ATOM     13  C   UNL     1     -11.944 -17.294  29.987  1.00  0.00    -0.002 C 
ATOM     14  C   UNL     1     -12.324 -17.630  31.259  1.00  0.00    -0.069 C 
ATOM     15  C   UNL     1     -12.286 -16.623  32.386  1.00  0.00     0.039 C 
ATOM     16  C   UNL     1     -12.851 -19.005  31.602  1.00  0.00     0.039 C 
BRANCH  13  17
ATOM     17  C   UNL     1     -12.084 -18.284  28.836  1.00  0.00     0.066 CG0
ATOM     18  G   UNL     1     -11.375 -17.923  27.544  1.00  0.00     0.000 G0
ENDBRANCH  13  17
ENDBRANCH  11  13
ENDBRANCH  10  11
ENDBRANCH   1  10
TORSDOF 0
ENDMDL
MODEL 9
REMARK VINA RESULT:    -4.634      2.353      4.142
REMARK INTER + INTRA:          -6.140
REMARK INTER:                  -6.815
REMARK INTRA:                   0.675
REMARK UNBOUND:                 0.391
REMARK SMILES CC1=CCC(=C(C)C)C(=O)CC(C)=CCC1
REMARK SMILES IDX 12 1 14 2 13 3 15 4 16 5 2 6 1 7 3 8 11 10 9 11 10 12 5 13
REMARK SMILES IDX 6 14 7 15 8 16 4 17
REMARK H PARENT
REMARK Flexibility Score: 60.00
ROOT
ATOM      1  C   UNL     1     -10.638 -16.771  30.979  1.00  0.00    -0.070 C 
ATOM      2  C   UNL     1      -9.875 -16.406  29.923  1.00  0.00    -0.027 C 
ATOM      3  C   UNL     1     -10.064 -17.763  31.958  1.00  0.00     0.039 C 
ENDROOT
BRANCH   2   4
ATOM      4  C   UNL     1     -10.229 -15.324  28.935  1.00  0.00     0.032 C 
BRANCH   4   5
ATOM      5  C   UNL     1     -11.640 -15.561  28.386  1.00  0.00     0.034 C 
BRANCH   5   6
ATOM      6  C   UNL     1     -11.721 -16.789  27.503  1.00  0.00    -0.077 C 
ATOM      7  C   UNL     1     -10.755 -16.916  26.350  1.00  0.00     0.039 C 
ATOM      8  C   UNL     1     -12.663 -17.755  27.645  1.00  0.00    -0.023 CG0
ATOM      9  G   UNL     1     -13.697 -17.880  28.748  1.00  0.00     0.000 G0
ENDBRANCH   5   6
ENDBRANCH   4   5
ENDBRANCH   2   4
BRANCH   1  10
ATOM     10  C   UNL     1     -12.041 -16.249  31.215  1.00  0.00     0.111 C 
BRANCH  10  11
ATOM     11  C   UNL     1     -13.062 -17.361  31.217  1.00  0.00     0.163 C 
ATOM     12  O   UNL     1     -13.815 -17.446  32.224  1.00  0.00    -0.294 OA
BRANCH  11  13
ATOM     13  C   UNL     1     -13.208 -18.362  30.109  1.00  0.00    -0.002 C 
ATOM     14  C   UNL     1     -12.758 -19.646  30.269  1.00  0.00    -0.069 C 
ATOM     15  C   UNL     1     -12.370 -20.184  31.628  1.00  0.00     0.039 C 
ATOM     16  C   UNL     1     -12.674 -20.615  29.112  1.00  0.00     0.039 C 
BRANCH  13  17
ATOM     17  C   UNL     1     -13.697 -17.861  28.755  1.00  0.00     0.066 CG0
ATOM     18  G   UNL     1     -12.655 -17.752  27.657  1.00  0.00     0.000 G0
ENDBRANCH  13  17
ENDBRANCH  11  13
ENDBRANCH  10  11
ENDBRANCH   1  10
TORSDOF 0
ENDMDL
