MODEL 1
REMARK VINA RESULT:    -3.394      0.000      0.000
REMARK INTER + INTRA:          -4.089
REMARK INTER:                  -3.989
REMARK INTRA:                  -0.099
REMARK UNBOUND:                -0.099
REMARK SMILES CCCCC(=O)[O-]
REMARK SMILES IDX 4 1 5 2 6 3 7 4 3 5 2 6 1 7
REMARK H PARENT
REMARK Flexibility Score: inf
ROOT
ATOM      1  C   UNL     1      -8.873  -4.879  -2.954  1.00  0.00     0.053 C 
ENDROOT
BRANCH   1   2
ATOM      2  C   UNL     1      -7.768  -4.028  -3.502  1.00  0.00     0.041 C 
ATOM      3  O   UNL     1      -7.813  -3.622  -4.694  1.00  0.00    -0.550 OA
ATOM      4  O   UNL     1      -6.705  -3.653  -2.690  1.00  0.00    -0.550 OA
ENDBRANCH   1   2
BRANCH   1   5
ATOM      5  C   UNL     1      -8.778  -6.341  -3.425  1.00  0.00     0.006 C 
BRANCH   5   6
ATOM      6  C   UNL     1      -9.895  -6.755  -4.399  1.00  0.00    -0.003 C 
ATOM      7  C   UNL     1      -9.587  -6.403  -5.854  1.00  0.00     0.004 C 
ENDBRANCH   5   6
ENDBRANCH   1   5
TORSDOF 3
ENDMDL
MODEL 2
REMARK VINA RESULT:    -3.307      1.576      2.047
REMARK INTER + INTRA:          -3.986
REMARK INTER:                  -3.970
REMARK INTRA:                  -0.016
REMARK UNBOUND:                -0.099
REMARK SMILES CCCCC(=O)[O-]
REMARK SMILES IDX 4 1 5 2 6 3 7 4 3 5 2 6 1 7
REMARK H PARENT
REMARK Flexibility Score: inf
ROOT
ATOM      1  C   UNL     1      -8.635  -3.851  -2.930  1.00  0.00     0.053 C 
ENDROOT
BRANCH   1   2
ATOM      2  C   UNL     1      -8.041  -3.036  -1.821  1.00  0.00     0.041 C 
ATOM      3  O   UNL     1      -6.824  -2.713  -1.856  1.00  0.00    -0.550 OA
ATOM      4  O   UNL     1      -8.835  -2.606  -0.767  1.00  0.00    -0.550 OA
ENDBRANCH   1   2
BRANCH   1   5
ATOM      5  C   UNL     1      -8.009  -5.253  -3.032  1.00  0.00     0.006 C 
BRANCH   5   6
ATOM      6  C   UNL     1      -9.026  -6.369  -3.325  1.00  0.00    -0.003 C 
ATOM      7  C   UNL     1      -9.372  -6.494  -4.809  1.00  0.00     0.004 C 
ENDBRANCH   5   6
ENDBRANCH   1   5
TORSDOF 3
ENDMDL
MODEL 3
REMARK VINA RESULT:    -3.100      2.013      3.555
REMARK INTER + INTRA:          -3.743
REMARK INTER:                  -3.640
REMARK INTRA:                  -0.103
REMARK UNBOUND:                -0.099
REMARK SMILES CCCCC(=O)[O-]
REMARK SMILES IDX 4 1 5 2 6 3 7 4 3 5 2 6 1 7
REMARK H PARENT
REMARK Flexibility Score: inf
ROOT
ATOM      1  C   UNL     1      -8.237  -5.544  -3.021  1.00  0.00     0.053 C 
ENDROOT
BRANCH   1   2
ATOM      2  C   UNL     1      -9.019  -5.797  -4.274  1.00  0.00     0.041 C 
ATOM      3  O   UNL     1      -9.823  -6.766  -4.333  1.00  0.00    -0.550 OA
ATOM      4  O   UNL     1      -8.889  -4.946  -5.364  1.00  0.00    -0.550 OA
ENDBRANCH   1   2
BRANCH   1   5
ATOM      5  C   UNL     1      -7.527  -4.179  -3.036  1.00  0.00     0.006 C 
BRANCH   5   6
ATOM      6  C   UNL     1      -8.135  -3.150  -2.068  1.00  0.00    -0.003 C 
ATOM      7  C   UNL     1      -9.254  -2.319  -2.698  1.00  0.00     0.004 C 
ENDBRANCH   5   6
ENDBRANCH   1   5
TORSDOF 3
ENDMDL
MODEL 4
REMARK VINA RESULT:    -2.921      1.848      3.570
REMARK INTER + INTRA:          -3.532
REMARK INTER:                  -3.472
REMARK INTRA:                  -0.061
REMARK UNBOUND:                -0.099
REMARK SMILES CCCCC(=O)[O-]
REMARK SMILES IDX 4 1 5 2 6 3 7 4 3 5 2 6 1 7
REMARK H PARENT
REMARK Flexibility Score: inf
ROOT
ATOM      1  C   UNL     1      -8.883  -4.713  -3.014  1.00  0.00     0.053 C 
ENDROOT
BRANCH   1   2
ATOM      2  C   UNL     1      -8.588  -4.527  -4.472  1.00  0.00     0.041 C 
ATOM      3  O   UNL     1      -7.864  -3.569  -4.853  1.00  0.00    -0.550 OA
ATOM      4  O   UNL     1      -9.082  -5.428  -5.406  1.00  0.00    -0.550 OA
ENDBRANCH   1   2
BRANCH   1   5
ATOM      5  C   UNL     1      -9.876  -3.667  -2.476  1.00  0.00     0.006 C 
BRANCH   5   6
ATOM      6  C   UNL     1      -9.241  -2.636  -1.528  1.00  0.00    -0.003 C 
ATOM      7  C   UNL     1      -7.716  -2.725  -1.475  1.00  0.00     0.004 C 
ENDBRANCH   5   6
ENDBRANCH   1   5
TORSDOF 3
ENDMDL
MODEL 5
REMARK VINA RESULT:    -2.785      2.186      3.460
REMARK INTER + INTRA:          -3.372
REMARK INTER:                  -3.308
REMARK INTRA:                  -0.064
REMARK UNBOUND:                -0.099
REMARK SMILES CCCCC(=O)[O-]
REMARK SMILES IDX 4 1 5 2 6 3 7 4 3 5 2 6 1 7
REMARK H PARENT
REMARK Flexibility Score: inf
ROOT
ATOM      1  C   UNL     1      -8.573  -3.703  -4.365  1.00  0.00     0.053 C 
ENDROOT
BRANCH   1   2
ATOM      2  C   UNL     1      -7.750  -4.365  -3.302  1.00  0.00     0.041 C 
ATOM      3  O   UNL     1      -8.054  -5.516  -2.891  1.00  0.00    -0.550 OA
ATOM      4  O   UNL     1      -6.629  -3.727  -2.786  1.00  0.00    -0.550 OA
ENDBRANCH   1   2
BRANCH   1   5
ATOM      5  C   UNL     1      -9.916  -3.178  -3.829  1.00  0.00     0.006 C 
BRANCH   5   6
ATOM      6  C   UNL     1      -9.836  -2.600  -2.406  1.00  0.00    -0.003 C 
ATOM      7  C   UNL     1      -9.814  -1.072  -2.377  1.00  0.00     0.004 C 
ENDBRANCH   5   6
ENDBRANCH   1   5
TORSDOF 3
ENDMDL
MODEL 6
REMARK VINA RESULT:    -2.679     18.801     19.908
REMARK INTER + INTRA:          -3.248
REMARK INTER:                  -3.212
REMARK INTRA:                  -0.036
REMARK UNBOUND:                -0.099
REMARK SMILES CCCCC(=O)[O-]
REMARK SMILES IDX 4 1 5 2 6 3 7 4 3 5 2 6 1 7
REMARK H PARENT
REMARK Flexibility Score: inf
ROOT
ATOM      1  C   UNL     1       1.342   8.594   8.241  1.00  0.00     0.053 C 
ENDROOT
BRANCH   1   2
ATOM      2  C   UNL     1       2.234   8.251   7.086  1.00  0.00     0.041 C 
ATOM      3  O   UNL     1       3.368   7.741   7.292  1.00  0.00    -0.550 OA
ATOM      4  O   UNL     1       1.803   8.462   5.783  1.00  0.00    -0.550 OA
ENDBRANCH   1   2
BRANCH   1   5
ATOM      5  C   UNL     1      -0.015   7.873   8.171  1.00  0.00     0.006 C 
BRANCH   5   6
ATOM      6  C   UNL     1      -0.100   6.618   9.057  1.00  0.00    -0.003 C 
ATOM      7  C   UNL     1      -1.496   5.996   9.087  1.00  0.00     0.004 C 
ENDBRANCH   5   6
ENDBRANCH   1   5
TORSDOF 3
ENDMDL
MODEL 7
REMARK VINA RESULT:    -2.648     16.556     17.972
REMARK INTER + INTRA:          -3.211
REMARK INTER:                  -3.195
REMARK INTRA:                  -0.016
REMARK UNBOUND:                -0.099
REMARK SMILES CCCCC(=O)[O-]
REMARK SMILES IDX 4 1 5 2 6 3 7 4 3 5 2 6 1 7
REMARK H PARENT
REMARK Flexibility Score: inf
ROOT
ATOM      1  C   UNL     1      -1.074   3.596   9.754  1.00  0.00     0.053 C 
ENDROOT
BRANCH   1   2
ATOM      2  C   UNL     1      -2.147   2.589   9.465  1.00  0.00     0.041 C 
ATOM      3  O   UNL     1      -1.935   1.658   8.643  1.00  0.00    -0.550 OA
ATOM      4  O   UNL     1      -3.367   2.657  10.125  1.00  0.00    -0.550 OA
ENDBRANCH   1   2
BRANCH   1   5
ATOM      5  C   UNL     1      -1.412   4.991   9.202  1.00  0.00     0.006 C 
BRANCH   5   6
ATOM      6  C   UNL     1      -0.345   6.057   9.509  1.00  0.00    -0.003 C 
ATOM      7  C   UNL     1      -0.342   7.212   8.508  1.00  0.00     0.004 C 
ENDBRANCH   5   6
ENDBRANCH   1   5
TORSDOF 3
ENDMDL
MODEL 8
REMARK VINA RESULT:    -2.646     15.695     16.912
REMARK INTER + INTRA:          -3.210
REMARK INTER:                  -3.116
REMARK INTRA:                  -0.093
REMARK UNBOUND:                -0.099
REMARK SMILES CCCCC(=O)[O-]
REMARK SMILES IDX 4 1 5 2 6 3 7 4 3 5 2 6 1 7
REMARK H PARENT
REMARK Flexibility Score: inf
ROOT
ATOM      1  C   UNL     1      -3.578   3.168   9.980  1.00  0.00     0.053 C 
ENDROOT
BRANCH   1   2
ATOM      2  C   UNL     1      -3.054   2.037   9.148  1.00  0.00     0.041 C 
ATOM      3  O   UNL     1      -1.812   1.864   9.026  1.00  0.00    -0.550 OA
ATOM      4  O   UNL     1      -3.933   1.154   8.534  1.00  0.00    -0.550 OA
ENDBRANCH   1   2
BRANCH   1   5
ATOM      5  C   UNL     1      -3.882   4.423   9.144  1.00  0.00     0.006 C 
BRANCH   5   6
ATOM      6  C   UNL     1      -2.947   5.609   9.439  1.00  0.00    -0.003 C 
ATOM      7  C   UNL     1      -1.539   5.421   8.875  1.00  0.00     0.004 C 
ENDBRANCH   5   6
ENDBRANCH   1   5
TORSDOF 3
ENDMDL
MODEL 9
REMARK VINA RESULT:    -2.570     20.844     21.552
REMARK INTER + INTRA:          -3.120
REMARK INTER:                  -3.061
REMARK INTRA:                  -0.059
REMARK UNBOUND:                -0.099
REMARK SMILES CCCCC(=O)[O-]
REMARK SMILES IDX 4 1 5 2 6 3 7 4 3 5 2 6 1 7
REMARK H PARENT
REMARK Flexibility Score: inf
ROOT
ATOM      1  C   UNL     1       3.324   7.870   7.833  1.00  0.00     0.053 C 
ENDROOT
BRANCH   1   2
ATOM      2  C   UNL     1       4.450   8.783   8.214  1.00  0.00     0.041 C 
ATOM      3  O   UNL     1       4.374  10.017   7.972  1.00  0.00    -0.550 OA
ATOM      4  O   UNL     1       5.568   8.280   8.866  1.00  0.00    -0.550 OA
ENDBRANCH   1   2
BRANCH   1   5
ATOM      5  C   UNL     1       2.215   8.597   7.053  1.00  0.00     0.006 C 
BRANCH   5   6
ATOM      6  C   UNL     1       0.791   8.229   7.505  1.00  0.00    -0.003 C 
ATOM      7  C   UNL     1       0.753   7.522   8.860  1.00  0.00     0.004 C 
ENDBRANCH   5   6
ENDBRANCH   1   5
TORSDOF 3
ENDMDL
