MODEL 1
REMARK VINA RESULT:    -4.574      0.000      0.000
REMARK INTER + INTRA:          -5.434
REMARK INTER:                  -5.377
REMARK INTRA:                  -0.057
REMARK UNBOUND:                -0.057
REMARK SMILES O=C([O-])CCC(=O)[O-]
REMARK SMILES IDX 4 1 2 2 1 3 3 4 5 5 6 6 7 7 8 8
REMARK H PARENT
REMARK Flexibility Score: inf
ROOT
ATOM      1  C   UNL     1       5.899   7.112  -8.544  1.00  0.00     0.059 C 
ENDROOT
BRANCH   1   2
ATOM      2  C   UNL     1       5.965   8.484  -9.139  1.00  0.00     0.042 C 
ATOM      3  O   UNL     1       6.715   8.713 -10.124  1.00  0.00    -0.550 OA
ATOM      4  O   UNL     1       5.228   9.521  -8.582  1.00  0.00    -0.550 OA
ENDBRANCH   1   2
BRANCH   1   5
ATOM      5  C   UNL     1       6.239   7.127  -7.049  1.00  0.00     0.059 C 
BRANCH   5   6
ATOM      6  C   UNL     1       7.523   6.410  -6.767  1.00  0.00     0.042 C 
ATOM      7  O   UNL     1       7.881   5.443  -7.489  1.00  0.00    -0.550 OA
ATOM      8  O   UNL     1       8.304   6.783  -5.680  1.00  0.00    -0.550 OA
ENDBRANCH   5   6
ENDBRANCH   1   5
TORSDOF 3
ENDMDL
MODEL 2
REMARK VINA RESULT:    -4.538      0.200      3.952
REMARK INTER + INTRA:          -5.391
REMARK INTER:                  -5.343
REMARK INTRA:                  -0.048
REMARK UNBOUND:                -0.057
REMARK SMILES O=C([O-])CCC(=O)[O-]
REMARK SMILES IDX 4 1 2 2 1 3 3 4 5 5 6 6 7 7 8 8
REMARK H PARENT
REMARK Flexibility Score: inf
ROOT
ATOM      1  C   UNL     1       6.189   7.019  -7.151  1.00  0.00     0.059 C 
ENDROOT
BRANCH   1   2
ATOM      2  C   UNL     1       7.495   6.361  -6.825  1.00  0.00     0.042 C 
ATOM      3  O   UNL     1       7.884   5.364  -7.488  1.00  0.00    -0.550 OA
ATOM      4  O   UNL     1       8.262   6.824  -5.765  1.00  0.00    -0.550 OA
ENDBRANCH   1   2
BRANCH   1   5
ATOM      5  C   UNL     1       6.013   7.208  -8.662  1.00  0.00     0.059 C 
BRANCH   5   6
ATOM      6  C   UNL     1       5.987   8.657  -9.038  1.00  0.00     0.042 C 
ATOM      7  O   UNL     1       5.266   9.466  -8.395  1.00  0.00    -0.550 OA
ATOM      8  O   UNL     1       6.725   9.108 -10.125  1.00  0.00    -0.550 OA
ENDBRANCH   5   6
ENDBRANCH   1   5
TORSDOF 3
ENDMDL
MODEL 3
REMARK VINA RESULT:    -3.088     14.891     15.690
REMARK INTER + INTRA:          -3.687
REMARK INTER:                  -3.630
REMARK INTRA:                  -0.057
REMARK UNBOUND:                -0.057
REMARK SMILES O=C([O-])CCC(=O)[O-]
REMARK SMILES IDX 4 1 2 2 1 3 3 4 5 5 6 6 7 7 8 8
REMARK H PARENT
REMARK Flexibility Score: inf
ROOT
ATOM      1  C   UNL     1      -9.318   7.192  -6.767  1.00  0.00     0.059 C 
ENDROOT
BRANCH   1   2
ATOM      2  C   UNL     1      -8.824   7.213  -5.353  1.00  0.00     0.042 C 
ATOM      3  O   UNL     1      -8.184   8.207  -4.920  1.00  0.00    -0.550 OA
ATOM      4  O   UNL     1      -9.035   6.118  -4.526  1.00  0.00    -0.550 OA
ENDBRANCH   1   2
BRANCH   1   5
ATOM      5  C   UNL     1      -8.623   8.256  -7.624  1.00  0.00     0.059 C 
BRANCH   5   6
ATOM      6  C   UNL     1      -8.159   7.696  -8.933  1.00  0.00     0.042 C 
ATOM      7  O   UNL     1      -7.730   8.463  -9.835  1.00  0.00    -0.550 OA
ATOM      8  O   UNL     1      -8.239   6.330  -9.173  1.00  0.00    -0.550 OA
ENDBRANCH   5   6
ENDBRANCH   1   5
TORSDOF 3
ENDMDL
MODEL 4
REMARK VINA RESULT:    -3.078     14.906     15.669
REMARK INTER + INTRA:          -3.675
REMARK INTER:                  -3.629
REMARK INTRA:                  -0.045
REMARK UNBOUND:                -0.057
REMARK SMILES O=C([O-])CCC(=O)[O-]
REMARK SMILES IDX 4 1 2 2 1 3 3 4 5 5 6 6 7 7 8 8
REMARK H PARENT
REMARK Flexibility Score: inf
ROOT
ATOM      1  C   UNL     1      -9.156   7.000  -6.798  1.00  0.00     0.059 C 
ENDROOT
BRANCH   1   2
ATOM      2  C   UNL     1      -8.779   7.120  -5.353  1.00  0.00     0.042 C 
ATOM      3  O   UNL     1      -9.054   6.192  -4.547  1.00  0.00    -0.550 OA
ATOM      4  O   UNL     1      -8.159   8.272  -4.889  1.00  0.00    -0.550 OA
ENDBRANCH   1   2
BRANCH   1   5
ATOM      5  C   UNL     1      -8.569   8.145  -7.632  1.00  0.00     0.059 C 
BRANCH   5   6
ATOM      6  C   UNL     1      -8.158   7.681  -8.995  1.00  0.00     0.042 C 
ATOM      7  O   UNL     1      -7.771   8.513  -9.857  1.00  0.00    -0.550 OA
ATOM      8  O   UNL     1      -8.240   6.335  -9.327  1.00  0.00    -0.550 OA
ENDBRANCH   5   6
ENDBRANCH   1   5
TORSDOF 3
ENDMDL
MODEL 5
REMARK VINA RESULT:    -3.047     14.724     15.288
REMARK INTER + INTRA:          -3.638
REMARK INTER:                  -3.592
REMARK INTRA:                  -0.045
REMARK UNBOUND:                -0.057
REMARK SMILES O=C([O-])CCC(=O)[O-]
REMARK SMILES IDX 4 1 2 2 1 3 3 4 5 5 6 6 7 7 8 8
REMARK H PARENT
REMARK Flexibility Score: inf
ROOT
ATOM      1  C   UNL     1      -8.730   6.686  -7.698  1.00  0.00     0.059 C 
ENDROOT
BRANCH   1   2
ATOM      2  C   UNL     1      -7.997   6.970  -8.973  1.00  0.00     0.042 C 
ATOM      3  O   UNL     1      -7.876   8.154  -9.384  1.00  0.00    -0.550 OA
ATOM      4  O   UNL     1      -7.482   5.924  -9.727  1.00  0.00    -0.550 OA
ENDBRANCH   1   2
BRANCH   1   5
ATOM      5  C   UNL     1      -8.989   7.968  -6.898  1.00  0.00     0.059 C 
BRANCH   5   6
ATOM      6  C   UNL     1      -8.653   7.794  -5.450  1.00  0.00     0.042 C 
ATOM      7  O   UNL     1      -8.188   8.758  -4.786  1.00  0.00    -0.550 OA
ATOM      8  O   UNL     1      -8.812   6.555  -4.842  1.00  0.00    -0.550 OA
ENDBRANCH   5   6
ENDBRANCH   1   5
TORSDOF 3
ENDMDL
MODEL 6
REMARK VINA RESULT:    -2.893     20.157     21.556
REMARK INTER + INTRA:          -3.457
REMARK INTER:                  -3.296
REMARK INTRA:                  -0.161
REMARK UNBOUND:                -0.057
REMARK SMILES O=C([O-])CCC(=O)[O-]
REMARK SMILES IDX 4 1 2 2 1 3 3 4 5 5 6 6 7 7 8 8
REMARK H PARENT
REMARK Flexibility Score: inf
ROOT
ATOM      1  C   UNL     1       4.990  -8.239   7.109  1.00  0.00     0.059 C 
ENDROOT
BRANCH   1   2
ATOM      2  C   UNL     1       5.506  -7.974   5.728  1.00  0.00     0.042 C 
ATOM      3  O   UNL     1       5.505  -6.803   5.265  1.00  0.00    -0.550 OA
ATOM      4  O   UNL     1       5.950  -9.026   4.937  1.00  0.00    -0.550 OA
ENDBRANCH   1   2
BRANCH   1   5
ATOM      5  C   UNL     1       6.043  -8.931   7.982  1.00  0.00     0.059 C 
BRANCH   5   6
ATOM      6  C   UNL     1       7.335  -8.175   7.993  1.00  0.00     0.042 C 
ATOM      7  O   UNL     1       7.379  -7.001   8.446  1.00  0.00    -0.550 OA
ATOM      8  O   UNL     1       8.484  -8.750   7.463  1.00  0.00    -0.550 OA
ENDBRANCH   5   6
ENDBRANCH   1   5
TORSDOF 3
ENDMDL
MODEL 7
REMARK VINA RESULT:    -2.875     20.172     21.769
REMARK INTER + INTRA:          -3.436
REMARK INTER:                  -3.276
REMARK INTRA:                  -0.161
REMARK UNBOUND:                -0.057
REMARK SMILES O=C([O-])CCC(=O)[O-]
REMARK SMILES IDX 4 1 2 2 1 3 3 4 5 5 6 6 7 7 8 8
REMARK H PARENT
REMARK Flexibility Score: inf
ROOT
ATOM      1  C   UNL     1       6.093  -9.038   7.918  1.00  0.00     0.059 C 
ENDROOT
BRANCH   1   2
ATOM      2  C   UNL     1       7.389  -8.288   7.942  1.00  0.00     0.042 C 
ATOM      3  O   UNL     1       8.452  -8.849   7.566  1.00  0.00    -0.550 OA
ATOM      4  O   UNL     1       7.430  -6.984   8.417  1.00  0.00    -0.550 OA
ENDBRANCH   1   2
BRANCH   1   5
ATOM      5  C   UNL     1       5.038  -8.315   7.073  1.00  0.00     0.059 C 
BRANCH   5   6
ATOM      6  C   UNL     1       5.538  -8.028   5.691  1.00  0.00     0.042 C 
ATOM      7  O   UNL     1       5.493  -6.857   5.230  1.00  0.00    -0.550 OA
ATOM      8  O   UNL     1       6.016  -9.061   4.894  1.00  0.00    -0.550 OA
ENDBRANCH   5   6
ENDBRANCH   1   5
TORSDOF 3
ENDMDL
MODEL 8
REMARK VINA RESULT:    -2.875     20.585     22.389
REMARK INTER + INTRA:          -3.436
REMARK INTER:                  -3.343
REMARK INTRA:                  -0.093
REMARK UNBOUND:                -0.057
REMARK SMILES O=C([O-])CCC(=O)[O-]
REMARK SMILES IDX 4 1 2 2 1 3 3 4 5 5 6 6 7 7 8 8
REMARK H PARENT
REMARK Flexibility Score: inf
ROOT
ATOM      1  C   UNL     1       4.529  -9.662   7.429  1.00  0.00     0.059 C 
ENDROOT
BRANCH   1   2
ATOM      2  C   UNL     1       4.648  -8.999   8.767  1.00  0.00     0.042 C 
ATOM      3  O   UNL     1       5.765  -8.577   9.167  1.00  0.00    -0.550 OA
ATOM      4  O   UNL     1       3.535  -8.882   9.588  1.00  0.00    -0.550 OA
ENDBRANCH   1   2
BRANCH   1   5
ATOM      5  C   UNL     1       4.158  -8.659   6.332  1.00  0.00     0.059 C 
BRANCH   5   6
ATOM      6  C   UNL     1       5.366  -8.192   5.578  1.00  0.00     0.042 C 
ATOM      7  O   UNL     1       5.632  -6.963   5.506  1.00  0.00    -0.550 OA
ATOM      8  O   UNL     1       6.174  -9.110   4.920  1.00  0.00    -0.550 OA
ENDBRANCH   5   6
ENDBRANCH   1   5
TORSDOF 3
ENDMDL
MODEL 9
REMARK VINA RESULT:    -2.868     20.576     22.217
REMARK INTER + INTRA:          -3.428
REMARK INTER:                  -3.330
REMARK INTRA:                  -0.098
REMARK UNBOUND:                -0.057
REMARK SMILES O=C([O-])CCC(=O)[O-]
REMARK SMILES IDX 4 1 2 2 1 3 3 4 5 5 6 6 7 7 8 8
REMARK H PARENT
REMARK Flexibility Score: inf
ROOT
ATOM      1  C   UNL     1       4.140  -8.661   6.351  1.00  0.00     0.059 C 
ENDROOT
BRANCH   1   2
ATOM      2  C   UNL     1       5.356  -8.237   5.587  1.00  0.00     0.042 C 
ATOM      3  O   UNL     1       5.663  -7.018   5.510  1.00  0.00    -0.550 OA
ATOM      4  O   UNL     1       6.128  -9.184   4.927  1.00  0.00    -0.550 OA
ENDBRANCH   1   2
BRANCH   1   5
ATOM      5  C   UNL     1       4.496  -9.620   7.493  1.00  0.00     0.059 C 
BRANCH   5   6
ATOM      6  C   UNL     1       4.653  -8.897   8.794  1.00  0.00     0.042 C 
ATOM      7  O   UNL     1       5.790  -8.512   9.173  1.00  0.00    -0.550 OA
ATOM      8  O   UNL     1       3.549  -8.685   9.611  1.00  0.00    -0.550 OA
ENDBRANCH   5   6
ENDBRANCH   1   5
TORSDOF 3
ENDMDL
