MODEL 1
REMARK VINA RESULT:    -5.839      0.000      0.000
REMARK INTER + INTRA:          -9.041
REMARK INTER:                  -7.888
REMARK INTRA:                  -1.153
REMARK UNBOUND:                -1.153
REMARK SMILES CC[C@@H](CC[C@@H](C)[C@H]1CC[C@@H]2[C@H]3CC(=O)C4=CC(=O)CC[C@@]4(C)[C@@H]3CC[C@@]21C)C(C)C
REMARK SMILES IDX 4 1 3 2 2 3 1 4 29 5 30 6 31 7 5 8 6 9 7 10 8 11 9 12 27 13
REMARK SMILES IDX 10 14 11 15 26 16 28 17 12 18 25 19 24 20 13 21 22 22 14 23
REMARK SMILES IDX 16 24 21 25 23 26 15 27 17 28 20 29 18 30 19 31
REMARK H PARENT
REMARK Flexibility Score: inf
ROOT
ATOM      1  C   UNL     1      86.274  -6.373  30.027  1.00  0.00     0.004 C 
ENDROOT
BRANCH   1   2
ATOM      2  C   UNL     1      86.709  -7.292  31.222  1.00  0.00    -0.009 C 
BRANCH   2   3
ATOM      3  C   UNL     1      88.256  -7.280  31.426  1.00  0.00     0.000 C 
ATOM      4  C   UNL     1      88.805  -5.911  31.850  1.00  0.00     0.004 C 
ENDBRANCH   2   3
BRANCH   2   5
ATOM      5  C   UNL     1      86.078  -8.737  31.194  1.00  0.00    -0.014 C 
ATOM      6  C   UNL     1      87.072  -9.817  31.673  1.00  0.00     0.007 C 
ATOM      7  C   UNL     1      85.578  -9.129  29.792  1.00  0.00     0.007 C 
ENDBRANCH   2   5
ENDBRANCH   1   2
BRANCH   1   8
ATOM      8  C   UNL     1      85.337  -5.159  30.281  1.00  0.00     0.004 C 
BRANCH   8   9
ATOM      9  C   UNL     1      84.147  -5.399  31.244  1.00  0.00    -0.011 C 
ATOM     10  C   UNL     1      83.427  -4.085  31.635  1.00  0.00     0.008 C 
BRANCH   9  11
ATOM     11  C   UNL     1      83.205  -6.579  30.789  1.00  0.00    -0.002 C 
ATOM     12  C   UNL     1      82.329  -7.059  31.953  1.00  0.00     0.005 C 
ATOM     13  C   UNL     1      82.205  -6.416  29.581  1.00  0.00    -0.026 C 
ATOM     14  C   UNL     1      80.937  -6.502  31.726  1.00  0.00     0.005 C 
ATOM     15  C   UNL     1      80.795  -6.208  30.221  1.00  0.00    -0.001 C 
ATOM     16  C   UNL     1      82.215  -7.738  28.764  1.00  0.00     0.007 C 
ATOM     17  C   UNL     1      82.554  -5.251  28.617  1.00  0.00     0.012 C 
ATOM     18  C   UNL     1      79.634  -7.064  29.598  1.00  0.00     0.004 C 
ATOM     19  C   UNL     1      81.172  -7.766  27.639  1.00  0.00     0.005 C 
ATOM     20  C   UNL     1      79.768  -7.225  28.054  1.00  0.00     0.003 C 
ATOM     21  C   UNL     1      78.281  -6.417  29.973  1.00  0.00     0.085 C 
ATOM     22  C   UNL     1      78.581  -8.042  27.398  1.00  0.00    -0.000 C 
ATOM     23  C   UNL     1      77.121  -7.068  29.294  1.00  0.00     0.159 C 
ATOM     24  C   UNL     1      77.241  -7.489  27.886  1.00  0.00     0.005 C 
ATOM     25  C   UNL     1      78.676  -7.893  25.846  1.00  0.00     0.020 C 
ATOM     26  C   UNL     1      78.615  -9.549  27.781  1.00  0.00     0.017 C 
ATOM     27  O   UNL     1      76.026  -7.176  29.907  1.00  0.00    -0.295 OA
ATOM     28  C   UNL     1      76.144  -7.508  27.107  1.00  0.00     0.055 C 
ATOM     29  C   UNL     1      77.463  -8.481  25.116  1.00  0.00     0.081 C 
ATOM     30  C   UNL     1      76.189  -7.966  25.710  1.00  0.00     0.156 C 
ATOM     31  O   UNL     1      75.136  -7.964  25.021  1.00  0.00    -0.295 OA
ENDBRANCH   9  11
ENDBRANCH   8   9
ENDBRANCH   1   8
TORSDOF 6
ENDMDL
MODEL 2
REMARK VINA RESULT:    -5.704      2.111      3.952
REMARK INTER + INTRA:          -8.858
REMARK INTER:                  -6.929
REMARK INTRA:                  -1.928
REMARK UNBOUND:                -1.153
REMARK SMILES CC[C@@H](CC[C@@H](C)[C@H]1CC[C@@H]2[C@H]3CC(=O)C4=CC(=O)CC[C@@]4(C)[C@@H]3CC[C@@]21C)C(C)C
REMARK SMILES IDX 4 1 3 2 2 3 1 4 29 5 30 6 31 7 5 8 6 9 7 10 8 11 9 12 27 13
REMARK SMILES IDX 10 14 11 15 26 16 28 17 12 18 25 19 24 20 13 21 22 22 14 23
REMARK SMILES IDX 16 24 21 25 23 26 15 27 17 28 20 29 18 30 19 31
REMARK H PARENT
REMARK Flexibility Score: inf
ROOT
ATOM      1  C   UNL     1      84.857  -5.729  28.746  1.00  0.00     0.004 C 
ENDROOT
BRANCH   1   2
ATOM      2  C   UNL     1      83.747  -4.624  28.640  1.00  0.00    -0.009 C 
BRANCH   2   3
ATOM      3  C   UNL     1      82.819  -4.617  29.894  1.00  0.00     0.000 C 
ATOM      4  C   UNL     1      83.493  -4.045  31.149  1.00  0.00     0.004 C 
ENDBRANCH   2   3
BRANCH   2   5
ATOM      5  C   UNL     1      82.970  -4.613  27.268  1.00  0.00    -0.014 C 
ATOM      6  C   UNL     1      83.712  -3.805  26.183  1.00  0.00     0.007 C 
ATOM      7  C   UNL     1      81.548  -4.039  27.407  1.00  0.00     0.007 C 
ENDBRANCH   2   5
ENDBRANCH   1   2
BRANCH   1   8
ATOM      8  C   UNL     1      84.692  -6.903  29.750  1.00  0.00     0.004 C 
BRANCH   8   9
ATOM      9  C   UNL     1      84.793  -8.332  29.160  1.00  0.00    -0.011 C 
ATOM     10  C   UNL     1      85.790  -9.224  29.938  1.00  0.00     0.008 C 
BRANCH   9  11
ATOM     11  C   UNL     1      83.388  -8.984  28.863  1.00  0.00    -0.002 C 
ATOM     12  C   UNL     1      82.368  -8.598  29.942  1.00  0.00     0.005 C 
ATOM     13  C   UNL     1      82.637  -8.737  27.499  1.00  0.00    -0.026 C 
ATOM     14  C   UNL     1      81.463  -7.537  29.344  1.00  0.00     0.005 C 
ATOM     15  C   UNL     1      81.521  -7.689  27.812  1.00  0.00    -0.001 C 
ATOM     16  C   UNL     1      81.983 -10.076  27.059  1.00  0.00     0.007 C 
ATOM     17  C   UNL     1      83.552  -8.246  26.346  1.00  0.00     0.012 C 
ATOM     18  C   UNL     1      80.097  -8.020  27.235  1.00  0.00     0.004 C 
ATOM     19  C   UNL     1      81.094  -9.940  25.815  1.00  0.00     0.005 C 
ATOM     20  C   UNL     1      80.160  -8.690  25.830  1.00  0.00     0.003 C 
ATOM     21  C   UNL     1      79.261  -6.720  27.194  1.00  0.00     0.085 C 
ATOM     22  C   UNL     1      78.734  -8.988  25.208  1.00  0.00    -0.000 C 
ATOM     23  C   UNL     1      77.946  -6.902  26.513  1.00  0.00     0.159 C 
ATOM     24  C   UNL     1      77.859  -7.737  25.300  1.00  0.00     0.005 C 
ATOM     25  C   UNL     1      78.921  -9.387  23.710  1.00  0.00     0.020 C 
ATOM     26  C   UNL     1      77.982 -10.122  25.961  1.00  0.00     0.017 C 
ATOM     27  O   UNL     1      76.938  -6.273  26.933  1.00  0.00    -0.295 OA
ATOM     28  C   UNL     1      76.922  -7.461  24.373  1.00  0.00     0.055 C 
ATOM     29  C   UNL     1      77.594  -9.506  22.954  1.00  0.00     0.081 C 
ATOM     30  C   UNL     1      76.753  -8.286  23.168  1.00  0.00     0.156 C 
ATOM     31  O   UNL     1      75.863  -7.987  22.330  1.00  0.00    -0.295 OA
ENDBRANCH   9  11
ENDBRANCH   8   9
ENDBRANCH   1   8
TORSDOF 6
ENDMDL
MODEL 3
REMARK VINA RESULT:    -5.627      1.095      1.929
REMARK INTER + INTRA:          -8.754
REMARK INTER:                  -8.170
REMARK INTRA:                  -0.584
REMARK UNBOUND:                -1.153
REMARK SMILES CC[C@@H](CC[C@@H](C)[C@H]1CC[C@@H]2[C@H]3CC(=O)C4=CC(=O)CC[C@@]4(C)[C@@H]3CC[C@@]21C)C(C)C
REMARK SMILES IDX 4 1 3 2 2 3 1 4 29 5 30 6 31 7 5 8 6 9 7 10 8 11 9 12 27 13
REMARK SMILES IDX 10 14 11 15 26 16 28 17 12 18 25 19 24 20 13 21 22 22 14 23
REMARK SMILES IDX 16 24 21 25 23 26 15 27 17 28 20 29 18 30 19 31
REMARK H PARENT
REMARK Flexibility Score: inf
ROOT
ATOM      1  C   UNL     1      86.720  -6.248  30.309  1.00  0.00     0.004 C 
ENDROOT
BRANCH   1   2
ATOM      2  C   UNL     1      87.265  -7.564  30.967  1.00  0.00    -0.009 C 
BRANCH   2   3
ATOM      3  C   UNL     1      86.106  -8.505  31.422  1.00  0.00     0.000 C 
ATOM      4  C   UNL     1      85.947  -9.749  30.538  1.00  0.00     0.004 C 
ENDBRANCH   2   3
BRANCH   2   5
ATOM      5  C   UNL     1      88.371  -7.332  32.067  1.00  0.00    -0.014 C 
ATOM      6  C   UNL     1      89.064  -5.962  31.919  1.00  0.00     0.007 C 
ATOM      7  C   UNL     1      89.455  -8.425  32.046  1.00  0.00     0.007 C 
ENDBRANCH   2   5
ENDBRANCH   1   2
BRANCH   1   8
ATOM      8  C   UNL     1      85.507  -6.307  29.339  1.00  0.00     0.004 C 
BRANCH   8   9
ATOM      9  C   UNL     1      84.154  -5.802  29.900  1.00  0.00    -0.011 C 
ATOM     10  C   UNL     1      83.822  -4.363  29.437  1.00  0.00     0.008 C 
BRANCH   9  11
ATOM     11  C   UNL     1      82.986  -6.850  29.746  1.00  0.00    -0.002 C 
ATOM     12  C   UNL     1      82.042  -6.798  30.955  1.00  0.00     0.005 C 
ATOM     13  C   UNL     1      82.028  -6.840  28.494  1.00  0.00    -0.026 C 
ATOM     14  C   UNL     1      80.791  -6.061  30.515  1.00  0.00     0.005 C 
ATOM     15  C   UNL     1      80.696  -6.183  28.982  1.00  0.00    -0.001 C 
ATOM     16  C   UNL     1      81.758  -8.312  28.079  1.00  0.00     0.007 C 
ATOM     17  C   UNL     1      82.597  -6.088  27.262  1.00  0.00     0.012 C 
ATOM     18  C   UNL     1      79.379  -6.931  28.567  1.00  0.00     0.004 C 
ATOM     19  C   UNL     1      80.720  -8.449  26.957  1.00  0.00     0.005 C 
ATOM     20  C   UNL     1      79.461  -7.544  27.138  1.00  0.00     0.003 C 
ATOM     21  C   UNL     1      78.190  -5.948  28.682  1.00  0.00     0.085 C 
ATOM     22  C   UNL     1      78.125  -8.260  26.679  1.00  0.00    -0.000 C 
ATOM     23  C   UNL     1      76.916  -6.519  28.157  1.00  0.00     0.159 C 
ATOM     24  C   UNL     1      76.932  -7.336  26.929  1.00  0.00     0.005 C 
ATOM     25  C   UNL     1      78.232  -8.577  25.154  1.00  0.00     0.020 C 
ATOM     26  C   UNL     1      77.854  -9.573  27.468  1.00  0.00     0.017 C 
ATOM     27  O   UNL     1      75.828  -6.230  28.721  1.00  0.00    -0.295 OA
ATOM     28  C   UNL     1      75.845  -7.356  26.134  1.00  0.00     0.055 C 
ATOM     29  C   UNL     1      76.917  -9.093  24.558  1.00  0.00     0.081 C 
ATOM     30  C   UNL     1      75.782  -8.188  24.924  1.00  0.00     0.156 C 
ATOM     31  O   UNL     1      74.744  -8.172  24.211  1.00  0.00    -0.295 OA
ENDBRANCH   9  11
ENDBRANCH   8   9
ENDBRANCH   1   8
TORSDOF 6
ENDMDL
MODEL 4
REMARK VINA RESULT:    -5.405      1.487      2.741
REMARK INTER + INTRA:          -8.454
REMARK INTER:                  -7.416
REMARK INTRA:                  -1.039
REMARK UNBOUND:                -1.153
REMARK SMILES CC[C@@H](CC[C@@H](C)[C@H]1CC[C@@H]2[C@H]3CC(=O)C4=CC(=O)CC[C@@]4(C)[C@@H]3CC[C@@]21C)C(C)C
REMARK SMILES IDX 4 1 3 2 2 3 1 4 29 5 30 6 31 7 5 8 6 9 7 10 8 11 9 12 27 13
REMARK SMILES IDX 10 14 11 15 26 16 28 17 12 18 25 19 24 20 13 21 22 22 14 23
REMARK SMILES IDX 16 24 21 25 23 26 15 27 17 28 20 29 18 30 19 31
REMARK H PARENT
REMARK Flexibility Score: inf
ROOT
ATOM      1  C   UNL     1      86.527  -6.666  29.837  1.00  0.00     0.004 C 
ENDROOT
BRANCH   1   2
ATOM      2  C   UNL     1      86.517  -6.324  31.368  1.00  0.00    -0.009 C 
BRANCH   2   3
ATOM      3  C   UNL     1      85.987  -4.881  31.635  1.00  0.00     0.000 C 
ATOM      4  C   UNL     1      84.485  -4.830  31.942  1.00  0.00     0.004 C 
ENDBRANCH   2   3
BRANCH   2   5
ATOM      5  C   UNL     1      87.862  -6.662  32.119  1.00  0.00    -0.014 C 
ATOM      6  C   UNL     1      88.975  -5.638  31.811  1.00  0.00     0.007 C 
ATOM      7  C   UNL     1      88.389  -8.066  31.770  1.00  0.00     0.007 C 
ENDBRANCH   2   5
ENDBRANCH   1   2
BRANCH   1   8
ATOM      8  C   UNL     1      85.202  -7.036  29.114  1.00  0.00     0.004 C 
BRANCH   8   9
ATOM      9  C   UNL     1      84.810  -8.535  29.121  1.00  0.00    -0.011 C 
ATOM     10  C   UNL     1      85.775  -9.394  29.973  1.00  0.00     0.008 C 
BRANCH   9  11
ATOM     11  C   UNL     1      83.275  -8.776  29.384  1.00  0.00    -0.002 C 
ATOM     12  C   UNL     1      82.719  -7.737  30.367  1.00  0.00     0.005 C 
ATOM     13  C   UNL     1      82.230  -8.805  28.204  1.00  0.00    -0.026 C 
ATOM     14  C   UNL     1      81.928  -6.730  29.554  1.00  0.00     0.005 C 
ATOM     15  C   UNL     1      81.504  -7.422  28.244  1.00  0.00    -0.001 C 
ATOM     16  C   UNL     1      81.206  -9.937  28.492  1.00  0.00     0.007 C 
ATOM     17  C   UNL     1      82.854  -9.063  26.806  1.00  0.00     0.012 C 
ATOM     18  C   UNL     1      79.938  -7.473  28.128  1.00  0.00     0.004 C 
ATOM     19  C   UNL     1      80.045  -9.979  27.489  1.00  0.00     0.005 C 
ATOM     20  C   UNL     1      79.445  -8.579  27.148  1.00  0.00     0.003 C 
ATOM     21  C   UNL     1      79.424  -6.080  27.698  1.00  0.00     0.085 C 
ATOM     22  C   UNL     1      77.871  -8.616  26.977  1.00  0.00    -0.000 C 
ATOM     23  C   UNL     1      77.960  -6.070  27.406  1.00  0.00     0.159 C 
ATOM     24  C   UNL     1      77.348  -7.207  26.693  1.00  0.00     0.005 C 
ATOM     25  C   UNL     1      77.525  -9.555  25.778  1.00  0.00     0.020 C 
ATOM     26  C   UNL     1      77.146  -9.118  28.259  1.00  0.00     0.017 C 
ATOM     27  O   UNL     1      77.277  -5.053  27.699  1.00  0.00    -0.295 OA
ATOM     28  C   UNL     1      76.264  -6.998  25.923  1.00  0.00     0.055 C 
ATOM     29  C   UNL     1      76.041  -9.512  25.396  1.00  0.00     0.081 C 
ATOM     30  C   UNL     1      75.580  -8.098  25.227  1.00  0.00     0.156 C 
ATOM     31  O   UNL     1      74.571  -7.852  24.517  1.00  0.00    -0.295 OA
ENDBRANCH   9  11
ENDBRANCH   8   9
ENDBRANCH   1   8
TORSDOF 6
ENDMDL
MODEL 5
REMARK VINA RESULT:    -5.380      1.527      2.161
REMARK INTER + INTRA:          -8.421
REMARK INTER:                  -7.733
REMARK INTRA:                  -0.687
REMARK UNBOUND:                -1.153
REMARK SMILES CC[C@@H](CC[C@@H](C)[C@H]1CC[C@@H]2[C@H]3CC(=O)C4=CC(=O)CC[C@@]4(C)[C@@H]3CC[C@@]21C)C(C)C
REMARK SMILES IDX 4 1 3 2 2 3 1 4 29 5 30 6 31 7 5 8 6 9 7 10 8 11 9 12 27 13
REMARK SMILES IDX 10 14 11 15 26 16 28 17 12 18 25 19 24 20 13 21 22 22 14 23
REMARK SMILES IDX 16 24 21 25 23 26 15 27 17 28 20 29 18 30 19 31
REMARK H PARENT
REMARK Flexibility Score: inf
ROOT
ATOM      1  C   UNL     1      86.358  -6.088  30.474  1.00  0.00     0.004 C 
ENDROOT
BRANCH   1   2
ATOM      2  C   UNL     1      86.775  -7.285  31.399  1.00  0.00    -0.009 C 
BRANCH   2   3
ATOM      3  C   UNL     1      88.326  -7.421  31.504  1.00  0.00     0.000 C 
ATOM      4  C   UNL     1      89.034  -6.097  31.821  1.00  0.00     0.004 C 
ENDBRANCH   2   3
BRANCH   2   5
ATOM      5  C   UNL     1      86.034  -8.641  31.083  1.00  0.00    -0.014 C 
ATOM      6  C   UNL     1      84.734  -8.800  31.899  1.00  0.00     0.007 C 
ATOM      7  C   UNL     1      86.923  -9.869  31.348  1.00  0.00     0.007 C 
ENDBRANCH   2   5
ENDBRANCH   1   2
BRANCH   1   8
ATOM      8  C   UNL     1      85.361  -6.320  29.304  1.00  0.00     0.004 C 
BRANCH   8   9
ATOM      9  C   UNL     1      83.913  -5.817  29.526  1.00  0.00    -0.011 C 
ATOM     10  C   UNL     1      83.654  -4.445  28.859  1.00  0.00     0.008 C 
BRANCH   9  11
ATOM     11  C   UNL     1      82.821  -6.921  29.251  1.00  0.00    -0.002 C 
ATOM     12  C   UNL     1      81.642  -6.778  30.223  1.00  0.00     0.005 C 
ATOM     13  C   UNL     1      82.150  -7.082  27.834  1.00  0.00    -0.026 C 
ATOM     14  C   UNL     1      80.501  -6.143  29.452  1.00  0.00     0.005 C 
ATOM     15  C   UNL     1      80.735  -6.431  27.957  1.00  0.00    -0.001 C 
ATOM     16  C   UNL     1      81.999  -8.600  27.541  1.00  0.00     0.007 C 
ATOM     17  C   UNL     1      82.955  -6.444  26.671  1.00  0.00     0.012 C 
ATOM     18  C   UNL     1      79.547  -7.270  27.363  1.00  0.00     0.004 C 
ATOM     19  C   UNL     1      81.223  -8.897  26.249  1.00  0.00     0.005 C 
ATOM     20  C   UNL     1      79.940  -8.029  26.060  1.00  0.00     0.003 C 
ATOM     21  C   UNL     1      78.345  -6.329  27.116  1.00  0.00     0.085 C 
ATOM     22  C   UNL     1      78.744  -8.842  25.417  1.00  0.00    -0.000 C 
ATOM     23  C   UNL     1      77.220  -7.003  26.404  1.00  0.00     0.159 C 
ATOM     24  C   UNL     1      77.510  -7.946  25.307  1.00  0.00     0.005 C 
ATOM     25  C   UNL     1      79.176  -9.316  23.993  1.00  0.00     0.020 C 
ATOM     26  C   UNL     1      78.333 -10.073  26.274  1.00  0.00     0.017 C 
ATOM     27  O   UNL     1      76.033  -6.699  26.693  1.00  0.00    -0.295 OA
ATOM     28  C   UNL     1      76.617  -8.093  24.310  1.00  0.00     0.055 C 
ATOM     29  C   UNL     1      78.026  -9.944  23.198  1.00  0.00     0.081 C 
ATOM     30  C   UNL     1      76.824  -9.051  23.215  1.00  0.00     0.156 C 
ATOM     31  O   UNL     1      75.961  -9.152  22.304  1.00  0.00    -0.295 OA
ENDBRANCH   9  11
ENDBRANCH   8   9
ENDBRANCH   1   8
TORSDOF 6
ENDMDL
MODEL 6
REMARK VINA RESULT:    -5.299      1.604      3.349
REMARK INTER + INTRA:          -8.312
REMARK INTER:                  -6.735
REMARK INTRA:                  -1.577
REMARK UNBOUND:                -1.153
REMARK SMILES CC[C@@H](CC[C@@H](C)[C@H]1CC[C@@H]2[C@H]3CC(=O)C4=CC(=O)CC[C@@]4(C)[C@@H]3CC[C@@]21C)C(C)C
REMARK SMILES IDX 4 1 3 2 2 3 1 4 29 5 30 6 31 7 5 8 6 9 7 10 8 11 9 12 27 13
REMARK SMILES IDX 10 14 11 15 26 16 28 17 12 18 25 19 24 20 13 21 22 22 14 23
REMARK SMILES IDX 16 24 21 25 23 26 15 27 17 28 20 29 18 30 19 31
REMARK H PARENT
REMARK Flexibility Score: inf
ROOT
ATOM      1  C   UNL     1      84.895  -5.994  29.267  1.00  0.00     0.004 C 
ENDROOT
BRANCH   1   2
ATOM      2  C   UNL     1      83.731  -4.975  29.533  1.00  0.00    -0.009 C 
BRANCH   2   3
ATOM      3  C   UNL     1      83.408  -4.123  28.267  1.00  0.00     0.000 C 
ATOM      4  C   UNL     1      82.703  -4.918  27.160  1.00  0.00     0.004 C 
ENDBRANCH   2   3
BRANCH   2   5
ATOM      5  C   UNL     1      83.900  -4.125  30.851  1.00  0.00    -0.014 C 
ATOM      6  C   UNL     1      85.195  -4.477  31.612  1.00  0.00     0.007 C 
ATOM      7  C   UNL     1      82.712  -4.300  31.815  1.00  0.00     0.007 C 
ENDBRANCH   2   5
ENDBRANCH   1   2
BRANCH   1   8
ATOM      8  C   UNL     1      85.048  -7.252  30.166  1.00  0.00     0.004 C 
BRANCH   8   9
ATOM      9  C   UNL     1      84.893  -8.623  29.462  1.00  0.00    -0.011 C 
ATOM     10  C   UNL     1      85.987  -9.633  29.885  1.00  0.00     0.008 C 
BRANCH   9  11
ATOM     11  C   UNL     1      83.415  -9.173  29.488  1.00  0.00    -0.002 C 
ATOM     12  C   UNL     1      82.697  -8.748  30.776  1.00  0.00     0.005 C 
ATOM     13  C   UNL     1      82.392  -8.844  28.335  1.00  0.00    -0.026 C 
ATOM     14  C   UNL     1      81.756  -7.615  30.411  1.00  0.00     0.005 C 
ATOM     15  C   UNL     1      81.452  -7.732  28.905  1.00  0.00    -0.001 C 
ATOM     16  C   UNL     1      81.563 -10.125  28.044  1.00  0.00     0.007 C 
ATOM     17  C   UNL     1      83.052  -8.385  27.008  1.00  0.00     0.012 C 
ATOM     18  C   UNL     1      79.915  -7.955  28.667  1.00  0.00     0.004 C 
ATOM     19  C   UNL     1      80.426  -9.899  27.038  1.00  0.00     0.005 C 
ATOM     20  C   UNL     1      79.609  -8.592  27.278  1.00  0.00     0.003 C 
ATOM     21  C   UNL     1      79.185  -6.602  28.831  1.00  0.00     0.085 C 
ATOM     22  C   UNL     1      78.062  -8.779  26.997  1.00  0.00    -0.000 C 
ATOM     23  C   UNL     1      77.739  -6.679  28.467  1.00  0.00     0.159 C 
ATOM     24  C   UNL     1      77.320  -7.476  27.299  1.00  0.00     0.005 C 
ATOM     25  C   UNL     1      77.875  -9.152  25.492  1.00  0.00     0.020 C 
ATOM     26  C   UNL     1      77.424  -9.880  27.891  1.00  0.00     0.017 C 
ATOM     27  O   UNL     1      76.901  -5.996  29.113  1.00  0.00    -0.295 OA
ATOM     28  C   UNL     1      76.219  -7.115  26.614  1.00  0.00     0.055 C 
ATOM     29  C   UNL     1      76.405  -9.164  25.059  1.00  0.00     0.081 C 
ATOM     30  C   UNL     1      75.723  -7.897  25.471  1.00  0.00     0.156 C 
ATOM     31  O   UNL     1      74.688  -7.519  24.862  1.00  0.00    -0.295 OA
ENDBRANCH   9  11
ENDBRANCH   8   9
ENDBRANCH   1   8
TORSDOF 6
ENDMDL
MODEL 7
REMARK VINA RESULT:    -5.252      3.078      8.670
REMARK INTER + INTRA:          -8.247
REMARK INTER:                  -6.882
REMARK INTRA:                  -1.365
REMARK UNBOUND:                -1.153
REMARK SMILES CC[C@@H](CC[C@@H](C)[C@H]1CC[C@@H]2[C@H]3CC(=O)C4=CC(=O)CC[C@@]4(C)[C@@H]3CC[C@@]21C)C(C)C
REMARK SMILES IDX 4 1 3 2 2 3 1 4 29 5 30 6 31 7 5 8 6 9 7 10 8 11 9 12 27 13
REMARK SMILES IDX 10 14 11 15 26 16 28 17 12 18 25 19 24 20 13 21 22 22 14 23
REMARK SMILES IDX 16 24 21 25 23 26 15 27 17 28 20 29 18 30 19 31
REMARK H PARENT
REMARK Flexibility Score: inf
ROOT
ATOM      1  C   UNL     1      76.581  -7.397  25.398  1.00  0.00     0.004 C 
ENDROOT
BRANCH   1   2
ATOM      2  C   UNL     1      76.599  -8.877  24.876  1.00  0.00    -0.009 C 
BRANCH   2   3
ATOM      3  C   UNL     1      77.160  -9.861  25.949  1.00  0.00     0.000 C 
ATOM      4  C   UNL     1      76.186 -10.123  27.105  1.00  0.00     0.004 C 
ENDBRANCH   2   3
BRANCH   2   5
ATOM      5  C   UNL     1      77.241  -9.054  23.446  1.00  0.00    -0.014 C 
ATOM      6  C   UNL     1      78.769  -9.258  23.514  1.00  0.00     0.007 C 
ATOM      7  C   UNL     1      76.954  -7.855  22.524  1.00  0.00     0.007 C 
ENDBRANCH   2   5
ENDBRANCH   1   2
BRANCH   1   8
ATOM      8  C   UNL     1      77.715  -6.888  26.332  1.00  0.00     0.004 C 
BRANCH   8   9
ATOM      9  C   UNL     1      77.271  -6.304  27.697  1.00  0.00    -0.011 C 
ATOM     10  C   UNL     1      75.776  -6.572  27.997  1.00  0.00     0.008 C 
BRANCH   9  11
ATOM     11  C   UNL     1      78.269  -6.638  28.871  1.00  0.00    -0.002 C 
ATOM     12  C   UNL     1      78.390  -8.154  29.071  1.00  0.00     0.005 C 
ATOM     13  C   UNL     1      79.758  -6.119  28.860  1.00  0.00    -0.026 C 
ATOM     14  C   UNL     1      79.715  -8.581  28.468  1.00  0.00     0.005 C 
ATOM     15  C   UNL     1      80.633  -7.344  28.442  1.00  0.00    -0.001 C 
ATOM     16  C   UNL     1      80.128  -5.684  30.305  1.00  0.00     0.007 C 
ATOM     17  C   UNL     1      80.005  -4.913  27.915  1.00  0.00     0.012 C 
ATOM     18  C   UNL     1      81.916  -7.590  29.314  1.00  0.00     0.004 C 
ATOM     19  C   UNL     1      81.604  -5.293  30.463  1.00  0.00     0.005 C 
ATOM     20  C   UNL     1      82.602  -6.264  29.760  1.00  0.00     0.003 C 
ATOM     21  C   UNL     1      82.896  -8.482  28.517  1.00  0.00     0.085 C 
ATOM     22  C   UNL     1      83.927  -6.489  30.598  1.00  0.00    -0.000 C 
ATOM     23  C   UNL     1      84.216  -8.641  29.197  1.00  0.00     0.159 C 
ATOM     24  C   UNL     1      84.834  -7.485  29.874  1.00  0.00     0.005 C 
ATOM     25  C   UNL     1      84.662  -5.118  30.738  1.00  0.00     0.020 C 
ATOM     26  C   UNL     1      83.644  -7.078  32.009  1.00  0.00     0.017 C 
ATOM     27  O   UNL     1      84.825  -9.740  29.117  1.00  0.00    -0.295 OA
ATOM     28  C   UNL     1      86.175  -7.409  29.957  1.00  0.00     0.055 C 
ATOM     29  C   UNL     1      86.056  -5.250  31.362  1.00  0.00     0.081 C 
ATOM     30  C   UNL     1      86.849  -6.308  30.661  1.00  0.00     0.156 C 
ATOM     31  O   UNL     1      88.107  -6.280  30.711  1.00  0.00    -0.295 OA
ENDBRANCH   9  11
ENDBRANCH   8   9
ENDBRANCH   1   8
TORSDOF 6
ENDMDL
MODEL 8
REMARK VINA RESULT:    -5.189      2.901      8.101
REMARK INTER + INTRA:          -8.162
REMARK INTER:                  -6.921
REMARK INTRA:                  -1.241
REMARK UNBOUND:                -1.153
REMARK SMILES CC[C@@H](CC[C@@H](C)[C@H]1CC[C@@H]2[C@H]3CC(=O)C4=CC(=O)CC[C@@]4(C)[C@@H]3CC[C@@]21C)C(C)C
REMARK SMILES IDX 4 1 3 2 2 3 1 4 29 5 30 6 31 7 5 8 6 9 7 10 8 11 9 12 27 13
REMARK SMILES IDX 10 14 11 15 26 16 28 17 12 18 25 19 24 20 13 21 22 22 14 23
REMARK SMILES IDX 16 24 21 25 23 26 15 27 17 28 20 29 18 30 19 31
REMARK H PARENT
REMARK Flexibility Score: inf
ROOT
ATOM      1  C   UNL     1      76.010  -7.913  28.507  1.00  0.00     0.004 C 
ENDROOT
BRANCH   1   2
ATOM      2  C   UNL     1      76.430  -7.133  29.803  1.00  0.00    -0.009 C 
BRANCH   2   3
ATOM      3  C   UNL     1      77.570  -6.107  29.515  1.00  0.00     0.000 C 
ATOM      4  C   UNL     1      77.206  -5.079  28.436  1.00  0.00     0.004 C 
ENDBRANCH   2   3
BRANCH   2   5
ATOM      5  C   UNL     1      76.697  -8.052  31.057  1.00  0.00    -0.014 C 
ATOM      6  C   UNL     1      75.573  -7.946  32.108  1.00  0.00     0.007 C 
ATOM      7  C   UNL     1      78.034  -7.725  31.746  1.00  0.00     0.007 C 
ENDBRANCH   2   5
ENDBRANCH   1   2
BRANCH   1   8
ATOM      8  C   UNL     1      76.391  -9.410  28.342  1.00  0.00     0.004 C 
BRANCH   8   9
ATOM      9  C   UNL     1      76.669  -9.894  26.897  1.00  0.00    -0.011 C 
ATOM     10  C   UNL     1      75.574  -9.441  25.901  1.00  0.00     0.008 C 
BRANCH   9  11
ATOM     11  C   UNL     1      78.154  -9.645  26.431  1.00  0.00    -0.002 C 
ATOM     12  C   UNL     1      78.229  -8.469  25.447  1.00  0.00     0.005 C 
ATOM     13  C   UNL     1      79.309  -9.368  27.468  1.00  0.00    -0.026 C 
ATOM     14  C   UNL     1      78.778  -7.280  26.212  1.00  0.00     0.005 C 
ATOM     15  C   UNL     1      79.567  -7.827  27.417  1.00  0.00    -0.001 C 
ATOM     16  C   UNL     1      80.579 -10.123  26.990  1.00  0.00     0.007 C 
ATOM     17  C   UNL     1      78.989  -9.828  28.915  1.00  0.00     0.012 C 
ATOM     18  C   UNL     1      81.075  -7.394  27.334  1.00  0.00     0.004 C 
ATOM     19  C   UNL     1      81.823  -9.820  27.837  1.00  0.00     0.005 C 
ATOM     20  C   UNL     1      82.010  -8.309  28.180  1.00  0.00     0.003 C 
ATOM     21  C   UNL     1      81.194  -5.917  27.775  1.00  0.00     0.085 C 
ATOM     22  C   UNL     1      83.527  -7.860  28.151  1.00  0.00    -0.000 C 
ATOM     23  C   UNL     1      82.611  -5.460  27.882  1.00  0.00     0.159 C 
ATOM     24  C   UNL     1      83.630  -6.364  28.447  1.00  0.00     0.005 C 
ATOM     25  C   UNL     1      84.303  -8.665  29.242  1.00  0.00     0.020 C 
ATOM     26  C   UNL     1      84.189  -8.093  26.762  1.00  0.00     0.017 C 
ATOM     27  O   UNL     1      82.906  -4.277  27.565  1.00  0.00    -0.295 OA
ATOM     28  C   UNL     1      84.694  -5.842  29.088  1.00  0.00     0.055 C 
ATOM     29  C   UNL     1      85.741  -8.172  29.438  1.00  0.00     0.081 C 
ATOM     30  C   UNL     1      85.768  -6.687  29.629  1.00  0.00     0.156 C 
ATOM     31  O   UNL     1      86.742  -6.153  30.221  1.00  0.00    -0.295 OA
ENDBRANCH   9  11
ENDBRANCH   8   9
ENDBRANCH   1   8
TORSDOF 6
ENDMDL
MODEL 9
REMARK VINA RESULT:    -5.039      1.850      3.210
REMARK INTER + INTRA:          -7.960
REMARK INTER:                  -6.037
REMARK INTRA:                  -1.923
REMARK UNBOUND:                -1.153
REMARK SMILES CC[C@@H](CC[C@@H](C)[C@H]1CC[C@@H]2[C@H]3CC(=O)C4=CC(=O)CC[C@@]4(C)[C@@H]3CC[C@@]21C)C(C)C
REMARK SMILES IDX 4 1 3 2 2 3 1 4 29 5 30 6 31 7 5 8 6 9 7 10 8 11 9 12 27 13
REMARK SMILES IDX 10 14 11 15 26 16 28 17 12 18 25 19 24 20 13 21 22 22 14 23
REMARK SMILES IDX 16 24 21 25 23 26 15 27 17 28 20 29 18 30 19 31
REMARK H PARENT
REMARK Flexibility Score: inf
ROOT
ATOM      1  C   UNL     1      83.133  -5.247  31.119  1.00  0.00     0.004 C 
ENDROOT
BRANCH   1   2
ATOM      2  C   UNL     1      84.516  -5.080  30.396  1.00  0.00    -0.009 C 
BRANCH   2   3
ATOM      3  C   UNL     1      84.396  -5.314  28.859  1.00  0.00     0.000 C 
ATOM      4  C   UNL     1      83.039  -4.889  28.281  1.00  0.00     0.004 C 
ENDBRANCH   2   3
BRANCH   2   5
ATOM      5  C   UNL     1      85.703  -5.867  31.073  1.00  0.00    -0.014 C 
ATOM      6  C   UNL     1      86.454  -5.009  32.113  1.00  0.00     0.007 C 
ATOM      7  C   UNL     1      86.725  -6.381  30.044  1.00  0.00     0.007 C 
ENDBRANCH   2   5
ENDBRANCH   1   2
BRANCH   1   8
ATOM      8  C   UNL     1      82.843  -6.523  31.958  1.00  0.00     0.004 C 
BRANCH   8   9
ATOM      9  C   UNL     1      82.990  -7.878  31.221  1.00  0.00    -0.011 C 
ATOM     10  C   UNL     1      83.843  -8.895  32.017  1.00  0.00     0.008 C 
BRANCH   9  11
ATOM     11  C   UNL     1      81.626  -8.431  30.657  1.00  0.00    -0.002 C 
ATOM     12  C   UNL     1      80.439  -7.638  31.221  1.00  0.00     0.005 C 
ATOM     13  C   UNL     1      81.347  -8.514  29.108  1.00  0.00    -0.026 C 
ATOM     14  C   UNL     1      79.961  -6.706  30.124  1.00  0.00     0.005 C 
ATOM     15  C   UNL     1      80.413  -7.305  28.778  1.00  0.00    -0.001 C 
ATOM     16  C   UNL     1      80.595  -9.843  28.822  1.00  0.00     0.007 C 
ATOM     17  C   UNL     1      82.624  -8.483  28.227  1.00  0.00     0.012 C 
ATOM     18  C   UNL     1      79.170  -7.633  27.874  1.00  0.00     0.004 C 
ATOM     19  C   UNL     1      80.133  -9.981  27.365  1.00  0.00     0.005 C 
ATOM     20  C   UNL     1      79.491  -8.687  26.773  1.00  0.00     0.003 C 
ATOM     21  C   UNL     1      78.647  -6.319  27.250  1.00  0.00     0.085 C 
ATOM     22  C   UNL     1      78.267  -8.997  25.818  1.00  0.00    -0.000 C 
ATOM     23  C   UNL     1      77.564  -6.548  26.248  1.00  0.00     0.159 C 
ATOM     24  C   UNL     1      77.660  -7.686  25.315  1.00  0.00     0.005 C 
ATOM     25  C   UNL     1      78.784  -9.834  24.605  1.00  0.00     0.020 C 
ATOM     26  C   UNL     1      77.130  -9.773  26.542  1.00  0.00     0.017 C 
ATOM     27  O   UNL     1      76.621  -5.718  26.155  1.00  0.00    -0.295 OA
ATOM     28  C   UNL     1      77.090  -7.593  24.098  1.00  0.00     0.055 C 
ATOM     29  C   UNL     1      77.722 -10.024  23.516  1.00  0.00     0.081 C 
ATOM     30  C   UNL     1      77.108  -8.711  23.144  1.00  0.00     0.156 C 
ATOM     31  O   UNL     1      76.563  -8.575  22.017  1.00  0.00    -0.295 OA
ENDBRANCH   9  11
ENDBRANCH   8   9
ENDBRANCH   1   8
TORSDOF 6
ENDMDL
