MODEL 1
REMARK VINA RESULT:    -3.005      0.000      0.000
REMARK INTER + INTRA:          -3.005
REMARK INTER:                  -3.005
REMARK INTRA:                   0.000
REMARK UNBOUND:                 0.000
REMARK SMILES CC1=CC(=O)[C@H]2C[C@@H]1C2(C)C
REMARK SMILES IDX 1 1 2 2 3 3 4 4 5 5 6 6 7 7 8 8 9 9 10 10 11 11
REMARK H PARENT
REMARK Flexibility Score: inf
ROOT
ATOM      1  C   UNL     1     -27.905  39.245 -24.861  1.00  0.00     0.040 C 
ATOM      2  C   UNL     1     -29.381  39.177 -25.096  1.00  0.00    -0.066 C 
ATOM      3  C   UNL     1     -29.934  38.183 -25.845  1.00  0.00     0.047 C 
ATOM      4  C   UNL     1     -31.421  38.243 -26.032  1.00  0.00     0.159 C 
ATOM      5  O   UNL     1     -32.044  37.406 -26.734  1.00  0.00    -0.295 OA
ATOM      6  C   UNL     1     -32.125  39.392 -25.310  1.00  0.00     0.067 C 
ATOM      7  C   UNL     1     -31.509  39.384 -23.894  1.00  0.00     0.021 C 
ATOM      8  C   UNL     1     -30.349  40.215 -24.488  1.00  0.00     0.022 C 
ATOM      9  C   UNL     1     -31.338  40.706 -25.584  1.00  0.00    -0.019 C 
ATOM     10  C   UNL     1     -30.784  40.950 -27.016  1.00  0.00     0.012 C 
ATOM     11  C   UNL     1     -32.125  41.967 -25.147  1.00  0.00     0.012 C 
ENDROOT
TORSDOF 0
ENDMDL
MODEL 2
REMARK VINA RESULT:    -2.415      1.610      3.364
REMARK INTER + INTRA:          -2.415
REMARK INTER:                  -2.415
REMARK INTRA:                   0.000
REMARK UNBOUND:                 0.000
REMARK SMILES CC1=CC(=O)[C@H]2C[C@@H]1C2(C)C
REMARK SMILES IDX 1 1 2 2 3 3 4 4 5 5 6 6 7 7 8 8 9 9 10 10 11 11
REMARK H PARENT
REMARK Flexibility Score: inf
ROOT
ATOM      1  C   UNL     1     -31.847  41.808 -26.833  1.00  0.00     0.040 C 
ATOM      2  C   UNL     1     -31.445  40.696 -25.917  1.00  0.00    -0.066 C 
ATOM      3  C   UNL     1     -32.125  40.446 -24.764  1.00  0.00     0.047 C 
ATOM      4  C   UNL     1     -31.604  39.324 -23.917  1.00  0.00     0.159 C 
ATOM      5  O   UNL     1     -32.122  39.022 -22.811  1.00  0.00    -0.295 OA
ATOM      6  C   UNL     1     -30.401  38.576 -24.490  1.00  0.00     0.067 C 
ATOM      7  C   UNL     1     -30.774  38.338 -25.970  1.00  0.00     0.021 C 
ATOM      8  C   UNL     1     -30.254  39.768 -26.241  1.00  0.00     0.022 C 
ATOM      9  C   UNL     1     -29.355  39.619 -24.979  1.00  0.00    -0.019 C 
ATOM     10  C   UNL     1     -29.104  40.879 -24.104  1.00  0.00     0.012 C 
ATOM     11  C   UNL     1     -27.985  38.973 -25.304  1.00  0.00     0.012 C 
ENDROOT
TORSDOF 0
ENDMDL
MODEL 3
REMARK VINA RESULT:    -1.498      1.785      3.062
REMARK INTER + INTRA:          -1.498
REMARK INTER:                  -1.498
REMARK INTRA:                   0.000
REMARK UNBOUND:                 0.000
REMARK SMILES CC1=CC(=O)[C@H]2C[C@@H]1C2(C)C
REMARK SMILES IDX 1 1 2 2 3 3 4 4 5 5 6 6 7 7 8 8 9 9 10 10 11 11
REMARK H PARENT
REMARK Flexibility Score: inf
ROOT
ATOM      1  C   UNL     1     -29.079  41.906 -25.460  1.00  0.00     0.040 C 
ATOM      2  C   UNL     1     -30.047  40.797 -25.196  1.00  0.00    -0.066 C 
ATOM      3  C   UNL     1     -30.490  40.528 -23.937  1.00  0.00     0.047 C 
ATOM      4  C   UNL     1     -31.434  39.370 -23.799  1.00  0.00     0.159 C 
ATOM      5  O   UNL     1     -31.882  38.998 -22.684  1.00  0.00    -0.295 OA
ATOM      6  C   UNL     1     -31.811  38.675 -25.107  1.00  0.00     0.067 C 
ATOM      7  C   UNL     1     -32.124  39.836 -26.076  1.00  0.00     0.021 C 
ATOM      8  C   UNL     1     -30.603  39.916 -26.335  1.00  0.00     0.022 C 
ATOM      9  C   UNL     1     -30.512  38.417 -25.924  1.00  0.00    -0.019 C 
ATOM     10  C   UNL     1     -29.243  37.941 -25.163  1.00  0.00     0.012 C 
ATOM     11  C   UNL     1     -30.748  37.462 -27.120  1.00  0.00     0.012 C 
ENDROOT
TORSDOF 0
ENDMDL
MODEL 4
REMARK VINA RESULT:    -1.414      1.800      2.265
REMARK INTER + INTRA:          -1.414
REMARK INTER:                  -1.414
REMARK INTRA:                   0.000
REMARK UNBOUND:                 0.000
REMARK SMILES CC1=CC(=O)[C@H]2C[C@@H]1C2(C)C
REMARK SMILES IDX 1 1 2 2 3 3 4 4 5 5 6 6 7 7 8 8 9 9 10 10 11 11
REMARK H PARENT
REMARK Flexibility Score: inf
ROOT
ATOM      1  C   UNL     1     -29.073  37.465 -26.086  1.00  0.00     0.040 C 
ATOM      2  C   UNL     1     -29.762  38.548 -25.320  1.00  0.00    -0.066 C 
ATOM      3  C   UNL     1     -30.628  38.260 -24.308  1.00  0.00     0.047 C 
ATOM      4  C   UNL     1     -31.278  39.434 -23.638  1.00  0.00     0.159 C 
ATOM      5  O   UNL     1     -32.125  39.296 -22.718  1.00  0.00    -0.295 OA
ATOM      6  C   UNL     1     -30.842  40.805 -24.152  1.00  0.00     0.067 C 
ATOM      7  C   UNL     1     -29.303  40.703 -24.242  1.00  0.00     0.021 C 
ATOM      8  C   UNL     1     -29.515  40.041 -25.623  1.00  0.00     0.022 C 
ATOM      9  C   UNL     1     -30.879  40.786 -25.707  1.00  0.00    -0.019 C 
ATOM     10  C   UNL     1     -32.065  40.068 -26.410  1.00  0.00     0.012 C 
ATOM     11  C   UNL     1     -30.740  42.204 -26.318  1.00  0.00     0.012 C 
ENDROOT
TORSDOF 0
ENDMDL
MODEL 5
REMARK VINA RESULT:    -1.026      1.938      3.069
REMARK INTER + INTRA:          -1.026
REMARK INTER:                  -1.026
REMARK INTRA:                   0.000
REMARK UNBOUND:                 0.000
REMARK SMILES CC1=CC(=O)[C@H]2C[C@@H]1C2(C)C
REMARK SMILES IDX 1 1 2 2 3 3 4 4 5 5 6 6 7 7 8 8 9 9 10 10 11 11
REMARK H PARENT
REMARK Flexibility Score: inf
ROOT
ATOM      1  C   UNL     1     -30.793  36.950 -26.783  1.00  0.00     0.040 C 
ATOM      2  C   UNL     1     -30.273  38.166 -26.086  1.00  0.00    -0.066 C 
ATOM      3  C   UNL     1     -29.047  38.172 -25.491  1.00  0.00     0.047 C 
ATOM      4  C   UNL     1     -28.653  39.442 -24.797  1.00  0.00     0.159 C 
ATOM      5  O   UNL     1     -27.565  39.559 -24.178  1.00  0.00    -0.295 OA
ATOM      6  C   UNL     1     -29.667  40.582 -24.895  1.00  0.00     0.067 C 
ATOM      7  C   UNL     1     -30.082  40.593 -26.383  1.00  0.00     0.021 C 
ATOM      8  C   UNL     1     -31.087  39.475 -26.021  1.00  0.00     0.022 C 
ATOM      9  C   UNL     1     -31.079  40.020 -24.562  1.00  0.00    -0.019 C 
ATOM     10  C   UNL     1     -31.212  38.999 -23.397  1.00  0.00     0.012 C 
ATOM     11  C   UNL     1     -32.125  41.142 -24.346  1.00  0.00     0.012 C 
ENDROOT
TORSDOF 0
ENDMDL
MODEL 6
REMARK VINA RESULT:    -1.022     16.591     18.117
REMARK INTER + INTRA:          -1.022
REMARK INTER:                  -1.022
REMARK INTRA:                   0.000
REMARK UNBOUND:                 0.000
REMARK SMILES CC1=CC(=O)[C@H]2C[C@@H]1C2(C)C
REMARK SMILES IDX 1 1 2 2 3 3 4 4 5 5 6 6 7 7 8 8 9 9 10 10 11 11
REMARK H PARENT
REMARK Flexibility Score: inf
ROOT
ATOM      1  C   UNL     1     -12.190  39.395 -24.081  1.00  0.00     0.040 C 
ATOM      2  C   UNL     1     -12.722  38.424 -25.086  1.00  0.00    -0.066 C 
ATOM      3  C   UNL     1     -13.969  38.562 -25.615  1.00  0.00     0.047 C 
ATOM      4  C   UNL     1     -14.398  37.506 -26.589  1.00  0.00     0.159 C 
ATOM      5  O   UNL     1     -15.540  37.502 -27.115  1.00  0.00    -0.295 OA
ATOM      6  C   UNL     1     -13.350  36.436 -26.895  1.00  0.00     0.067 C 
ATOM      7  C   UNL     1     -12.048  37.235 -27.122  1.00  0.00     0.021 C 
ATOM      8  C   UNL     1     -11.880  37.231 -25.586  1.00  0.00     0.022 C 
ATOM      9  C   UNL     1     -12.744  35.936 -25.552  1.00  0.00    -0.019 C 
ATOM     10  C   UNL     1     -13.700  35.723 -24.344  1.00  0.00     0.012 C 
ATOM     11  C   UNL     1     -11.893  34.654 -25.730  1.00  0.00     0.012 C 
ENDROOT
TORSDOF 0
ENDMDL
MODEL 7
REMARK VINA RESULT:    -0.580      1.861      3.124
REMARK INTER + INTRA:          -0.580
REMARK INTER:                  -0.580
REMARK INTRA:                   0.000
REMARK UNBOUND:                 0.000
REMARK SMILES CC1=CC(=O)[C@H]2C[C@@H]1C2(C)C
REMARK SMILES IDX 1 1 2 2 3 3 4 4 5 5 6 6 7 7 8 8 9 9 10 10 11 11
REMARK H PARENT
REMARK Flexibility Score: inf
ROOT
ATOM      1  C   UNL     1     -27.963  40.116 -24.223  1.00  0.00     0.040 C 
ATOM      2  C   UNL     1     -29.322  40.343 -24.803  1.00  0.00    -0.066 C 
ATOM      3  C   UNL     1     -30.010  41.495 -24.568  1.00  0.00     0.047 C 
ATOM      4  C   UNL     1     -31.376  41.589 -25.180  1.00  0.00     0.159 C 
ATOM      5  O   UNL     1     -32.123  42.585 -25.003  1.00  0.00    -0.295 OA
ATOM      6  C   UNL     1     -31.794  40.392 -26.033  1.00  0.00     0.067 C 
ATOM      7  C   UNL     1     -30.556  40.101 -26.909  1.00  0.00     0.021 C 
ATOM      8  C   UNL     1     -30.004  39.296 -25.710  1.00  0.00     0.022 C 
ATOM      9  C   UNL     1     -31.475  39.088 -25.246  1.00  0.00    -0.019 C 
ATOM     10  C   UNL     1     -31.766  39.056 -23.719  1.00  0.00     0.012 C 
ATOM     11  C   UNL     1     -32.125  37.837 -25.890  1.00  0.00     0.012 C 
ENDROOT
TORSDOF 0
ENDMDL
