MODEL 1
REMARK VINA RESULT:    -5.658      0.000      0.000
REMARK INTER + INTRA:          -6.456
REMARK INTER:                  -6.319
REMARK INTRA:                  -0.137
REMARK UNBOUND:                -0.137
REMARK SMILES O=C([O-])C=Cc1ccccc1
REMARK SMILES IDX 4 1 5 2 2 3 1 4 3 5 6 6 7 7 11 8 8 9 10 10 9 11
REMARK H PARENT
REMARK Flexibility Score: inf
ROOT
ATOM      1  C   UNL     1     -39.469  56.919  33.735  1.00  0.00     0.025 C 
ATOM      2  C   UNL     1     -39.593  56.279  32.562  1.00  0.00     0.010 C 
ENDROOT
BRANCH   1   3
ATOM      3  C   UNL     1     -39.188  56.206  34.992  1.00  0.00     0.064 C 
ATOM      4  O   UNL     1     -40.115  55.887  35.785  1.00  0.00    -0.545 OA
ATOM      5  O   UNL     1     -37.878  55.876  35.311  1.00  0.00    -0.545 OA
ENDBRANCH   1   3
BRANCH   2   6
ATOM      6  C   UNL     1     -39.875  56.938  31.259  1.00  0.00    -0.026 A 
ATOM      7  C   UNL     1     -39.177  56.637  30.069  1.00  0.00     0.008 A 
ATOM      8  C   UNL     1     -40.891  57.912  31.214  1.00  0.00     0.008 A 
ATOM      9  C   UNL     1     -39.494  57.296  28.876  1.00  0.00     0.001 A 
ATOM     10  C   UNL     1     -41.202  58.566  30.019  1.00  0.00     0.001 A 
ATOM     11  C   UNL     1     -40.504  58.259  28.851  1.00  0.00     0.000 A 
ENDBRANCH   2   6
TORSDOF 2
ENDMDL
MODEL 2
REMARK VINA RESULT:    -5.637      0.538      1.522
REMARK INTER + INTRA:          -6.433
REMARK INTER:                  -6.294
REMARK INTRA:                  -0.138
REMARK UNBOUND:                -0.137
REMARK SMILES O=C([O-])C=Cc1ccccc1
REMARK SMILES IDX 4 1 5 2 2 3 1 4 3 5 6 6 7 7 11 8 8 9 10 10 9 11
REMARK H PARENT
REMARK Flexibility Score: inf
ROOT
ATOM      1  C   UNL     1     -39.065  56.567  33.848  1.00  0.00     0.025 C 
ATOM      2  C   UNL     1     -40.179  56.650  33.104  1.00  0.00     0.010 C 
ENDROOT
BRANCH   1   3
ATOM      3  C   UNL     1     -39.087  56.093  35.242  1.00  0.00     0.064 C 
ATOM      4  O   UNL     1     -40.173  55.879  35.843  1.00  0.00    -0.545 OA
ATOM      5  O   UNL     1     -37.887  55.876  35.907  1.00  0.00    -0.545 OA
ENDBRANCH   1   3
BRANCH   2   6
ATOM      6  C   UNL     1     -40.226  57.119  31.692  1.00  0.00    -0.026 A 
ATOM      7  C   UNL     1     -41.132  58.100  31.230  1.00  0.00     0.008 A 
ATOM      8  C   UNL     1     -39.321  56.555  30.775  1.00  0.00     0.008 A 
ATOM      9  C   UNL     1     -41.122  58.496  29.889  1.00  0.00     0.001 A 
ATOM     10  C   UNL     1     -39.317  56.956  29.436  1.00  0.00     0.001 A 
ATOM     11  C   UNL     1     -40.217  57.925  28.993  1.00  0.00     0.000 A 
ENDBRANCH   2   6
TORSDOF 2
ENDMDL
MODEL 3
REMARK VINA RESULT:    -5.613      4.136      5.526
REMARK INTER + INTRA:          -6.405
REMARK INTER:                  -6.277
REMARK INTRA:                  -0.128
REMARK UNBOUND:                -0.137
REMARK SMILES O=C([O-])C=Cc1ccccc1
REMARK SMILES IDX 4 1 5 2 2 3 1 4 3 5 6 6 7 7 11 8 8 9 10 10 9 11
REMARK H PARENT
REMARK Flexibility Score: inf
ROOT
ATOM      1  C   UNL     1     -37.412  56.918  28.317  1.00  0.00     0.025 C 
ATOM      2  C   UNL     1     -38.752  56.976  28.376  1.00  0.00     0.010 C 
ENDROOT
BRANCH   1   3
ATOM      3  C   UNL     1     -36.693  56.649  27.060  1.00  0.00     0.064 C 
ATOM      4  O   UNL     1     -35.683  55.896  27.033  1.00  0.00    -0.545 OA
ATOM      5  O   UNL     1     -37.137  57.235  25.882  1.00  0.00    -0.545 OA
ENDBRANCH   1   3
BRANCH   2   6
ATOM      6  C   UNL     1     -39.538  57.243  29.611  1.00  0.00    -0.026 A 
ATOM      7  C   UNL     1     -39.382  56.505  30.805  1.00  0.00     0.008 A 
ATOM      8  C   UNL     1     -40.485  58.284  29.582  1.00  0.00     0.008 A 
ATOM      9  C   UNL     1     -40.154  56.809  31.931  1.00  0.00     0.001 A 
ATOM     10  C   UNL     1     -41.253  58.581  30.711  1.00  0.00     0.001 A 
ATOM     11  C   UNL     1     -41.089  57.845  31.884  1.00  0.00     0.000 A 
ENDBRANCH   2   6
TORSDOF 2
ENDMDL
MODEL 4
REMARK VINA RESULT:    -5.568      4.639      6.041
REMARK INTER + INTRA:          -6.355
REMARK INTER:                  -6.217
REMARK INTRA:                  -0.138
REMARK UNBOUND:                -0.137
REMARK SMILES O=C([O-])C=Cc1ccccc1
REMARK SMILES IDX 4 1 5 2 2 3 1 4 3 5 6 6 7 7 11 8 8 9 10 10 9 11
REMARK H PARENT
REMARK Flexibility Score: inf
ROOT
ATOM      1  C   UNL     1     -42.099  59.162  28.405  1.00  0.00     0.025 C 
ATOM      2  C   UNL     1     -40.867  58.858  28.844  1.00  0.00     0.010 C 
ENDROOT
BRANCH   1   3
ATOM      3  C   UNL     1     -42.322  59.969  27.193  1.00  0.00     0.064 C 
ATOM      4  O   UNL     1     -43.475  60.369  26.878  1.00  0.00    -0.545 OA
ATOM      5  O   UNL     1     -41.243  60.297  26.384  1.00  0.00    -0.545 OA
ENDBRANCH   1   3
BRANCH   2   6
ATOM      6  C   UNL     1     -40.573  58.049  30.057  1.00  0.00    -0.026 A 
ATOM      7  C   UNL     1     -39.636  56.992  30.077  1.00  0.00     0.008 A 
ATOM      8  C   UNL     1     -41.265  58.356  31.243  1.00  0.00     0.008 A 
ATOM      9  C   UNL     1     -39.408  56.271  31.253  1.00  0.00     0.001 A 
ATOM     10  C   UNL     1     -41.031  57.631  32.415  1.00  0.00     0.001 A 
ATOM     11  C   UNL     1     -40.104  56.589  32.421  1.00  0.00     0.000 A 
ENDBRANCH   2   6
TORSDOF 2
ENDMDL
MODEL 5
REMARK VINA RESULT:    -5.554      4.583      6.236
REMARK INTER + INTRA:          -6.340
REMARK INTER:                  -6.194
REMARK INTRA:                  -0.146
REMARK UNBOUND:                -0.137
REMARK SMILES O=C([O-])C=Cc1ccccc1
REMARK SMILES IDX 4 1 5 2 2 3 1 4 3 5 6 6 7 7 11 8 8 9 10 10 9 11
REMARK H PARENT
REMARK Flexibility Score: inf
ROOT
ATOM      1  C   UNL     1     -41.200  58.923  28.018  1.00  0.00     0.025 C 
ATOM      2  C   UNL     1     -41.460  59.005  29.332  1.00  0.00     0.010 C 
ENDROOT
BRANCH   1   3
ATOM      3  C   UNL     1     -41.833  59.819  27.036  1.00  0.00     0.064 C 
ATOM      4  O   UNL     1     -41.275  60.084  25.938  1.00  0.00    -0.545 OA
ATOM      5  O   UNL     1     -43.068  60.384  27.325  1.00  0.00    -0.545 OA
ENDBRANCH   1   3
BRANCH   2   6
ATOM      6  C   UNL     1     -40.856  58.131  30.374  1.00  0.00    -0.026 A 
ATOM      7  C   UNL     1     -41.270  58.134  31.725  1.00  0.00     0.008 A 
ATOM      8  C   UNL     1     -39.820  57.259  29.991  1.00  0.00     0.008 A 
ATOM      9  C   UNL     1     -40.659  57.286  32.654  1.00  0.00     0.001 A 
ATOM     10  C   UNL     1     -39.214  56.415  30.925  1.00  0.00     0.001 A 
ATOM     11  C   UNL     1     -39.632  56.428  32.255  1.00  0.00     0.000 A 
ENDBRANCH   2   6
TORSDOF 2
ENDMDL
MODEL 6
REMARK VINA RESULT:    -5.542      4.581      6.144
REMARK INTER + INTRA:          -6.327
REMARK INTER:                  -6.197
REMARK INTRA:                  -0.130
REMARK UNBOUND:                -0.137
REMARK SMILES O=C([O-])C=Cc1ccccc1
REMARK SMILES IDX 4 1 5 2 2 3 1 4 3 5 6 6 7 7 11 8 8 9 10 10 9 11
REMARK H PARENT
REMARK Flexibility Score: inf
ROOT
ATOM      1  C   UNL     1     -42.128  59.157  28.564  1.00  0.00     0.025 C 
ATOM      2  C   UNL     1     -40.892  58.867  28.998  1.00  0.00     0.010 C 
ENDROOT
BRANCH   1   3
ATOM      3  C   UNL     1     -42.367  59.995  27.377  1.00  0.00     0.064 C 
ATOM      4  O   UNL     1     -43.523  60.402  27.086  1.00  0.00    -0.545 OA
ATOM      5  O   UNL     1     -41.297  60.344  26.563  1.00  0.00    -0.545 OA
ENDBRANCH   1   3
BRANCH   2   6
ATOM      6  C   UNL     1     -40.582  58.028  30.188  1.00  0.00    -0.026 A 
ATOM      7  C   UNL     1     -41.186  58.220  31.450  1.00  0.00     0.008 A 
ATOM      8  C   UNL     1     -39.639  56.994  30.043  1.00  0.00     0.008 A 
ATOM      9  C   UNL     1     -40.850  57.394  32.528  1.00  0.00     0.001 A 
ATOM     10  C   UNL     1     -39.308  56.173  31.124  1.00  0.00     0.001 A 
ATOM     11  C   UNL     1     -39.912  56.372  32.366  1.00  0.00     0.000 A 
ENDBRANCH   2   6
TORSDOF 2
ENDMDL
MODEL 7
REMARK VINA RESULT:    -5.379     15.691     16.340
REMARK INTER + INTRA:          -6.145
REMARK INTER:                  -6.007
REMARK INTRA:                  -0.138
REMARK UNBOUND:                -0.137
REMARK SMILES O=C([O-])C=Cc1ccccc1
REMARK SMILES IDX 4 1 5 2 2 3 1 4 3 5 6 6 7 7 11 8 8 9 10 10 9 11
REMARK H PARENT
REMARK Flexibility Score: inf
ROOT
ATOM      1  C   UNL     1     -28.583  67.618  33.701  1.00  0.00     0.025 C 
ATOM      2  C   UNL     1     -29.537  68.525  33.438  1.00  0.00     0.010 C 
ENDROOT
BRANCH   1   3
ATOM      3  C   UNL     1     -28.002  66.764  32.651  1.00  0.00     0.064 C 
ATOM      4  O   UNL     1     -28.727  66.014  31.943  1.00  0.00    -0.545 OA
ATOM      5  O   UNL     1     -26.631  66.787  32.435  1.00  0.00    -0.545 OA
ENDBRANCH   1   3
BRANCH   2   6
ATOM      6  C   UNL     1     -30.164  69.417  34.451  1.00  0.00    -0.026 A 
ATOM      7  C   UNL     1     -31.547  69.702  34.484  1.00  0.00     0.008 A 
ATOM      8  C   UNL     1     -29.334  70.004  35.423  1.00  0.00     0.008 A 
ATOM      9  C   UNL     1     -32.072  70.549  35.465  1.00  0.00     0.001 A 
ATOM     10  C   UNL     1     -29.865  70.850  36.400  1.00  0.00     0.001 A 
ATOM     11  C   UNL     1     -31.233  71.123  36.422  1.00  0.00     0.000 A 
ENDBRANCH   2   6
TORSDOF 2
ENDMDL
MODEL 8
REMARK VINA RESULT:    -5.185      2.170      3.276
REMARK INTER + INTRA:          -5.927
REMARK INTER:                  -5.781
REMARK INTRA:                  -0.146
REMARK UNBOUND:                -0.137
REMARK SMILES O=C([O-])C=Cc1ccccc1
REMARK SMILES IDX 4 1 5 2 2 3 1 4 3 5 6 6 7 7 11 8 8 9 10 10 9 11
REMARK H PARENT
REMARK Flexibility Score: inf
ROOT
ATOM      1  C   UNL     1     -41.267  57.430  31.300  1.00  0.00     0.025 C 
ATOM      2  C   UNL     1     -40.611  57.948  30.250  1.00  0.00     0.010 C 
ENDROOT
BRANCH   1   3
ATOM      3  C   UNL     1     -40.579  56.672  32.359  1.00  0.00     0.064 C 
ATOM      4  O   UNL     1     -39.321  56.635  32.424  1.00  0.00    -0.545 OA
ATOM      5  O   UNL     1     -41.329  55.984  33.303  1.00  0.00    -0.545 OA
ENDBRANCH   1   3
BRANCH   2   6
ATOM      6  C   UNL     1     -41.246  58.722  29.149  1.00  0.00    -0.026 A 
ATOM      7  C   UNL     1     -40.618  58.961  27.907  1.00  0.00     0.008 A 
ATOM      8  C   UNL     1     -42.536  59.241  29.361  1.00  0.00     0.008 A 
ATOM      9  C   UNL     1     -41.272  59.698  26.914  1.00  0.00     0.001 A 
ATOM     10  C   UNL     1     -43.183  59.977  28.365  1.00  0.00     0.001 A 
ATOM     11  C   UNL     1     -42.553  60.206  27.142  1.00  0.00     0.000 A 
ENDBRANCH   2   6
TORSDOF 2
ENDMDL
MODEL 9
REMARK VINA RESULT:    -5.131      5.343      7.040
REMARK INTER + INTRA:          -5.868
REMARK INTER:                  -5.739
REMARK INTRA:                  -0.129
REMARK UNBOUND:                -0.137
REMARK SMILES O=C([O-])C=Cc1ccccc1
REMARK SMILES IDX 4 1 5 2 2 3 1 4 3 5 6 6 7 7 11 8 8 9 10 10 9 11
REMARK H PARENT
REMARK Flexibility Score: inf
ROOT
ATOM      1  C   UNL     1     -41.674  58.580  26.423  1.00  0.00     0.025 C 
ATOM      2  C   UNL     1     -40.963  59.119  27.427  1.00  0.00     0.010 C 
ENDROOT
BRANCH   1   3
ATOM      3  C   UNL     1     -41.889  59.285  25.148  1.00  0.00     0.064 C 
ATOM      4  O   UNL     1     -43.038  59.378  24.639  1.00  0.00    -0.545 OA
ATOM      5  O   UNL     1     -40.806  59.858  24.495  1.00  0.00    -0.545 OA
ENDBRANCH   1   3
BRANCH   2   6
ATOM      6  C   UNL     1     -40.709  58.461  28.737  1.00  0.00    -0.026 A 
ATOM      7  C   UNL     1     -41.430  58.768  29.912  1.00  0.00     0.008 A 
ATOM      8  C   UNL     1     -39.697  57.485  28.804  1.00  0.00     0.008 A 
ATOM      9  C   UNL     1     -41.139  58.111  31.112  1.00  0.00     0.001 A 
ATOM     10  C   UNL     1     -39.412  56.834  30.007  1.00  0.00     0.001 A 
ATOM     11  C   UNL     1     -40.131  57.146  31.161  1.00  0.00     0.000 A 
ENDBRANCH   2   6
TORSDOF 2
ENDMDL
