MODEL 1
REMARK VINA RESULT:    -5.411      0.000      0.000
REMARK INTER + INTRA:          -8.231
REMARK INTER:                  -7.309
REMARK INTRA:                  -0.921
REMARK UNBOUND:                -0.921
REMARK SMILES O=c1c(-c2ccc(O)cc2)coc2c([C@H]3O[C@H](CO)[C@H](O)[C@@H](O)[C@@H]3O)c(O)ccc12
REMARK SMILES IDX 3 1 11 2 12 3 13 4 30 5 2 6 1 7 29 8 28 9 26 10 14 11 4 12
REMARK SMILES IDX 5 13 6 14 7 15 10 16 9 17 8 18 15 20 24 21 16 22 22 23 17 24
REMARK SMILES IDX 20 25 25 26 23 28 18 30 19 31 21 33 27 35
REMARK H PARENT 8 19 25 27 23 29 19 32 21 34 27 36
REMARK Flexibility Score: inf
ROOT
ATOM      1  C   UNL     1      -2.450 -10.718   5.791  1.00  0.00     0.065 A 
ATOM      2  C   UNL     1      -2.317 -12.017   6.206  1.00  0.00     0.208 A 
ATOM      3  O   UNL     1      -1.150 -12.632   6.212  1.00  0.00    -0.463 OA
ATOM      4  C   UNL     1      -0.047 -12.015   5.813  1.00  0.00     0.147 A 
ATOM      5  C   UNL     1      -0.134 -10.734   5.400  1.00  0.00     0.066 A 
ATOM      6  C   UNL     1      -1.331 -10.035   5.372  1.00  0.00     0.200 A 
ATOM      7  O   UNL     1      -1.360  -8.825   4.974  1.00  0.00    -0.288 OA
ATOM      8  C   UNL     1       1.003 -10.073   4.971  1.00  0.00     0.020 A 
ATOM      9  C   UNL     1       2.210 -10.731   4.966  1.00  0.00     0.047 A 
ATOM     10  C   UNL     1       2.265 -12.061   5.401  1.00  0.00     0.125 A 
ATOM     11  C   UNL     1       1.147 -12.745   5.837  1.00  0.00     0.069 A 
ENDROOT
BRANCH   1  12
ATOM     12  C   UNL     1      -3.747 -10.068   5.720  1.00  0.00    -0.011 A 
ATOM     13  C   UNL     1      -4.228  -9.263   6.702  1.00  0.00     0.013 A 
ATOM     14  C   UNL     1      -5.457  -8.651   6.519  1.00  0.00     0.047 A 
ATOM     15  C   UNL     1      -6.228  -8.815   5.382  1.00  0.00     0.115 A 
ATOM     16  C   UNL     1      -4.504 -10.252   4.563  1.00  0.00     0.013 A 
ATOM     17  C   UNL     1      -5.724  -9.638   4.390  1.00  0.00     0.047 A 
BRANCH  15  18
ATOM     18  O   UNL     1      -7.471  -8.187   5.211  1.00  0.00    -0.508 OA
ATOM     19  H   UNL     1      -7.523  -7.367   4.587  1.00  0.00     0.293 HD
ENDBRANCH  15  18
ENDBRANCH   1  12
BRANCH  11  20
ATOM     20  C   UNL     1       1.123 -14.130   6.295  1.00  0.00     0.188 C 
ATOM     21  C   UNL     1       1.530 -14.240   7.832  1.00  0.00     0.179 C 
ATOM     22  O   UNL     1       2.070 -14.839   5.946  1.00  0.00    -0.362 OA
ATOM     23  C   UNL     1       2.013 -15.793   8.156  1.00  0.00     0.177 C 
ATOM     24  C   UNL     1       2.924 -15.478   5.631  1.00  0.00     0.176 C 
ATOM     25  C   UNL     1       3.338 -15.611   7.253  1.00  0.00     0.177 C 
BRANCH  21  26
ATOM     26  O   UNL     1       0.421 -14.117   8.605  1.00  0.00    -0.387 OA
ATOM     27  H   UNL     1       0.312 -14.837   9.273  1.00  0.00     0.211 HD
ENDBRANCH  21  26
BRANCH  23  28
ATOM     28  O   UNL     1       2.423 -15.796   9.412  1.00  0.00    -0.387 OA
ATOM     29  H   UNL     1       2.114 -15.033   9.958  1.00  0.00     0.211 HD
ENDBRANCH  23  28
BRANCH  24  30
ATOM     30  C   UNL     1       2.778 -16.945   5.289  1.00  0.00     0.191 C 
BRANCH  30  31
ATOM     31  O   UNL     1       3.854 -17.404   4.535  1.00  0.00    -0.394 OA
ATOM     32  H   UNL     1       4.021 -18.337   4.874  1.00  0.00     0.210 HD
ENDBRANCH  30  31
ENDBRANCH  24  30
BRANCH  25  33
ATOM     33  O   UNL     1       4.019 -16.759   7.376  1.00  0.00    -0.388 OA
ATOM     34  H   UNL     1       3.899 -17.453   6.714  1.00  0.00     0.211 HD
ENDBRANCH  25  33
ENDBRANCH  11  20
BRANCH  10  35
ATOM     35  O   UNL     1       3.524 -12.646   5.359  1.00  0.00    -0.507 OA
ATOM     36  H   UNL     1       4.297 -12.023   5.174  1.00  0.00     0.293 HD
ENDBRANCH  10  35
TORSDOF 9
ENDMDL
MODEL 2
REMARK VINA RESULT:    -4.649     12.837     14.930
REMARK INTER + INTRA:          -7.201
REMARK INTER:                  -6.457
REMARK INTRA:                  -0.744
REMARK UNBOUND:                -0.921
REMARK SMILES O=c1c(-c2ccc(O)cc2)coc2c([C@H]3O[C@H](CO)[C@H](O)[C@@H](O)[C@@H]3O)c(O)ccc12
REMARK SMILES IDX 3 1 11 2 12 3 13 4 30 5 2 6 1 7 29 8 28 9 26 10 14 11 4 12
REMARK SMILES IDX 5 13 6 14 7 15 10 16 9 17 8 18 15 20 24 21 16 22 22 23 17 24
REMARK SMILES IDX 20 25 25 26 23 28 18 30 19 31 21 33 27 35
REMARK H PARENT 8 19 25 27 23 29 19 32 21 34 27 36
REMARK Flexibility Score: inf
ROOT
ATOM      1  C   UNL     1     -14.325 -11.675   1.168  1.00  0.00     0.065 A 
ATOM      2  C   UNL     1     -14.455 -10.767   2.185  1.00  0.00     0.208 A 
ATOM      3  O   UNL     1     -14.224 -11.088   3.443  1.00  0.00    -0.463 OA
ATOM      4  C   UNL     1     -13.854 -12.315   3.781  1.00  0.00     0.147 A 
ATOM      5  C   UNL     1     -13.710 -13.240   2.809  1.00  0.00     0.066 A 
ATOM      6  C   UNL     1     -13.938 -12.961   1.470  1.00  0.00     0.200 A 
ATOM      7  O   UNL     1     -13.788 -13.870   0.590  1.00  0.00    -0.288 OA
ATOM      8  C   UNL     1     -13.333 -14.529   3.139  1.00  0.00     0.020 A 
ATOM      9  C   UNL     1     -13.112 -14.856   4.456  1.00  0.00     0.047 A 
ATOM     10  C   UNL     1     -13.270 -13.872   5.440  1.00  0.00     0.125 A 
ATOM     11  C   UNL     1     -13.642 -12.576   5.140  1.00  0.00     0.069 A 
ENDROOT
BRANCH   1  12
ATOM     12  C   UNL     1     -14.649 -11.335  -0.207  1.00  0.00    -0.011 A 
ATOM     13  C   UNL     1     -15.911 -11.378  -0.704  1.00  0.00     0.013 A 
ATOM     14  C   UNL     1     -16.125 -10.990  -2.016  1.00  0.00     0.047 A 
ATOM     15  C   UNL     1     -15.115 -10.556  -2.855  1.00  0.00     0.115 A 
ATOM     16  C   UNL     1     -13.610 -10.903  -1.031  1.00  0.00     0.013 A 
ATOM     17  C   UNL     1     -13.833 -10.517  -2.334  1.00  0.00     0.047 A 
BRANCH  15  18
ATOM     18  O   UNL     1     -15.346 -10.164  -4.182  1.00  0.00    -0.508 OA
ATOM     19  H   UNL     1     -15.203 -10.860  -4.930  1.00  0.00     0.293 HD
ENDBRANCH  15  18
ENDBRANCH   1  12
BRANCH  11  20
ATOM     20  C   UNL     1     -13.836 -11.501   6.107  1.00  0.00     0.188 C 
ATOM     21  C   UNL     1     -12.457 -10.786   6.462  1.00  0.00     0.179 C 
ATOM     22  O   UNL     1     -14.013 -11.844   7.279  1.00  0.00    -0.362 OA
ATOM     23  C   UNL     1     -12.616  -9.986   7.906  1.00  0.00     0.177 C 
ATOM     24  C   UNL     1     -14.173 -12.152   8.335  1.00  0.00     0.176 C 
ATOM     25  C   UNL     1     -12.732 -11.380   8.711  1.00  0.00     0.177 C 
BRANCH  21  26
ATOM     26  O   UNL     1     -12.236  -9.768   5.593  1.00  0.00    -0.387 OA
ATOM     27  H   UNL     1     -12.586  -9.928   4.683  1.00  0.00     0.211 HD
ENDBRANCH  21  26
BRANCH  23  28
ATOM     28  O   UNL     1     -11.422  -9.496   8.190  1.00  0.00    -0.387 OA
ATOM     29  H   UNL     1     -10.820 -10.111   8.674  1.00  0.00     0.211 HD
ENDBRANCH  23  28
BRANCH  24  30
ATOM     30  C   UNL     1     -15.104 -11.422   9.279  1.00  0.00     0.191 C 
BRANCH  30  31
ATOM     31  O   UNL     1     -16.059 -12.277   9.819  1.00  0.00    -0.394 OA
ATOM     32  H   UNL     1     -15.781 -13.194   9.513  1.00  0.00     0.210 HD
ENDBRANCH  30  31
ENDBRANCH  24  30
BRANCH  25  33
ATOM     33  O   UNL     1     -12.811 -11.043  10.006  1.00  0.00    -0.388 OA
ATOM     34  H   UNL     1     -13.118 -11.697  10.647  1.00  0.00     0.211 HD
ENDBRANCH  25  33
ENDBRANCH  11  20
BRANCH  10  35
ATOM     35  O   UNL     1     -13.028 -14.292   6.741  1.00  0.00    -0.507 OA
ATOM     36  H   UNL     1     -12.475 -13.670   7.314  1.00  0.00     0.293 HD
ENDBRANCH  10  35
TORSDOF 9
ENDMDL
MODEL 3
REMARK VINA RESULT:    -4.502      1.880      3.569
REMARK INTER + INTRA:          -7.003
REMARK INTER:                  -6.439
REMARK INTRA:                  -0.563
REMARK UNBOUND:                -0.921
REMARK SMILES O=c1c(-c2ccc(O)cc2)coc2c([C@H]3O[C@H](CO)[C@H](O)[C@@H](O)[C@@H]3O)c(O)ccc12
REMARK SMILES IDX 3 1 11 2 12 3 13 4 30 5 2 6 1 7 29 8 28 9 26 10 14 11 4 12
REMARK SMILES IDX 5 13 6 14 7 15 10 16 9 17 8 18 15 20 24 21 16 22 22 23 17 24
REMARK SMILES IDX 20 25 25 26 23 28 18 30 19 31 21 33 27 35
REMARK H PARENT 8 19 25 27 23 29 19 32 21 34 27 36
REMARK Flexibility Score: inf
ROOT
ATOM      1  C   UNL     1      -3.591 -11.483   6.483  1.00  0.00     0.065 A 
ATOM      2  C   UNL     1      -2.310 -11.449   5.998  1.00  0.00     0.208 A 
ATOM      3  O   UNL     1      -1.368 -12.250   6.457  1.00  0.00    -0.463 OA
ATOM      4  C   UNL     1      -1.621 -13.128   7.417  1.00  0.00     0.147 A 
ATOM      5  C   UNL     1      -2.871 -13.196   7.920  1.00  0.00     0.066 A 
ATOM      6  C   UNL     1      -3.902 -12.382   7.477  1.00  0.00     0.200 A 
ATOM      7  O   UNL     1      -5.066 -12.486   7.985  1.00  0.00    -0.288 OA
ATOM      8  C   UNL     1      -3.156 -14.099   8.928  1.00  0.00     0.020 A 
ATOM      9  C   UNL     1      -2.161 -14.916   9.410  1.00  0.00     0.047 A 
ATOM     10  C   UNL     1      -0.875 -14.819   8.865  1.00  0.00     0.125 A 
ATOM     11  C   UNL     1      -0.561 -13.930   7.856  1.00  0.00     0.069 A 
ENDROOT
BRANCH   1  12
ATOM     12  C   UNL     1      -4.607 -10.551   6.024  1.00  0.00    -0.011 A 
ATOM     13  C   UNL     1      -5.175  -9.618   6.829  1.00  0.00     0.013 A 
ATOM     14  C   UNL     1      -6.101  -8.743   6.285  1.00  0.00     0.047 A 
ATOM     15  C   UNL     1      -6.482  -8.768   4.956  1.00  0.00     0.115 A 
ATOM     16  C   UNL     1      -4.973 -10.600   4.679  1.00  0.00     0.013 A 
ATOM     17  C   UNL     1      -5.893  -9.725   4.147  1.00  0.00     0.047 A 
BRANCH  15  18
ATOM     18  O   UNL     1      -7.421  -7.875   4.418  1.00  0.00    -0.508 OA
ATOM     19  H   UNL     1      -7.085  -7.135   3.783  1.00  0.00     0.293 HD
ENDBRANCH  15  18
ENDBRANCH   1  12
BRANCH  11  20
ATOM     20  C   UNL     1       0.754 -13.765   7.246  1.00  0.00     0.188 C 
ATOM     21  C   UNL     1       0.972 -14.796   6.052  1.00  0.00     0.179 C 
ATOM     22  O   UNL     1       1.712 -14.221   7.876  1.00  0.00    -0.362 OA
ATOM     23  C   UNL     1       2.597 -14.956   5.761  1.00  0.00     0.177 C 
ATOM     24  C   UNL     1       2.574 -14.631   8.444  1.00  0.00     0.176 C 
ATOM     25  C   UNL     1       2.816 -15.703   7.175  1.00  0.00     0.177 C 
BRANCH  21  26
ATOM     26  O   UNL     1       0.526 -14.251   4.892  1.00  0.00    -0.387 OA
ATOM     27  H   UNL     1       1.234 -13.837   4.340  1.00  0.00     0.211 HD
ENDBRANCH  21  26
BRANCH  23  28
ATOM     28  O   UNL     1       2.716 -15.887   4.831  1.00  0.00    -0.387 OA
ATOM     29  H   UNL     1       2.494 -16.804   5.124  1.00  0.00     0.211 HD
ENDBRANCH  23  28
BRANCH  24  30
ATOM     30  C   UNL     1       3.935 -13.970   8.476  1.00  0.00     0.191 C 
BRANCH  30  31
ATOM     31  O   UNL     1       3.881 -12.665   7.995  1.00  0.00    -0.394 OA
ATOM     32  H   UNL     1       4.447 -12.135   8.635  1.00  0.00     0.210 HD
ENDBRANCH  30  31
ENDBRANCH  24  30
BRANCH  25  33
ATOM     33  O   UNL     1       4.113 -16.040   7.207  1.00  0.00    -0.388 OA
ATOM     34  H   UNL     1       4.426 -16.653   7.885  1.00  0.00     0.211 HD
ENDBRANCH  25  33
ENDBRANCH  11  20
BRANCH  10  35
ATOM     35  O   UNL     1       0.067 -15.681   9.414  1.00  0.00    -0.507 OA
ATOM     36  H   UNL     1       0.168 -15.648  10.418  1.00  0.00     0.293 HD
ENDBRANCH  10  35
TORSDOF 9
ENDMDL
MODEL 4
REMARK VINA RESULT:    -4.169      8.354     12.102
REMARK INTER + INTRA:          -6.552
REMARK INTER:                  -5.583
REMARK INTRA:                  -0.970
REMARK UNBOUND:                -0.921
REMARK SMILES O=c1c(-c2ccc(O)cc2)coc2c([C@H]3O[C@H](CO)[C@H](O)[C@@H](O)[C@@H]3O)c(O)ccc12
REMARK SMILES IDX 3 1 11 2 12 3 13 4 30 5 2 6 1 7 29 8 28 9 26 10 14 11 4 12
REMARK SMILES IDX 5 13 6 14 7 15 10 16 9 17 8 18 15 20 24 21 16 22 22 23 17 24
REMARK SMILES IDX 20 25 25 26 23 28 18 30 19 31 21 33 27 35
REMARK H PARENT 8 19 25 27 23 29 19 32 21 34 27 36
REMARK Flexibility Score: inf
ROOT
ATOM      1  C   UNL     1       1.142 -20.340   8.239  1.00  0.00     0.065 A 
ATOM      2  C   UNL     1      -0.150 -20.588   7.855  1.00  0.00     0.208 A 
ATOM      3  O   UNL     1      -0.736 -21.747   8.083  1.00  0.00    -0.463 OA
ATOM      4  C   UNL     1      -0.095 -22.730   8.698  1.00  0.00     0.147 A 
ATOM      5  C   UNL     1       1.177 -22.527   9.097  1.00  0.00     0.066 A 
ATOM      6  C   UNL     1       1.846 -21.331   8.885  1.00  0.00     0.200 A 
ATOM      7  O   UNL     1       3.049 -21.188   9.281  1.00  0.00    -0.288 OA
ATOM      8  C   UNL     1       1.868 -23.542   9.732  1.00  0.00     0.020 A 
ATOM      9  C   UNL     1       1.251 -24.751   9.949  1.00  0.00     0.047 A 
ATOM     10  C   UNL     1      -0.071 -24.929   9.523  1.00  0.00     0.125 A 
ATOM     11  C   UNL     1      -0.786 -23.933   8.889  1.00  0.00     0.069 A 
ENDROOT
BRANCH   1  12
ATOM     12  C   UNL     1       1.807 -19.087   7.922  1.00  0.00    -0.011 A 
ATOM     13  C   UNL     1       1.731 -17.987   8.714  1.00  0.00     0.013 A 
ATOM     14  C   UNL     1       2.439 -16.854   8.350  1.00  0.00     0.047 A 
ATOM     15  C   UNL     1       3.227 -16.781   7.215  1.00  0.00     0.115 A 
ATOM     16  C   UNL     1       2.592 -19.041   6.771  1.00  0.00     0.013 A 
ATOM     17  C   UNL     1       3.295 -17.910   6.418  1.00  0.00     0.047 A 
BRANCH  15  18
ATOM     18  O   UNL     1       3.940 -15.626   6.859  1.00  0.00    -0.508 OA
ATOM     19  H   UNL     1       4.196 -14.960   7.604  1.00  0.00     0.293 HD
ENDBRANCH  15  18
ENDBRANCH   1  12
BRANCH  11  20
ATOM     20  C   UNL     1      -2.159 -24.046   8.409  1.00  0.00     0.188 C 
ATOM     21  C   UNL     1      -3.181 -24.241   9.616  1.00  0.00     0.179 C 
ATOM     22  O   UNL     1      -2.477 -25.126   7.904  1.00  0.00    -0.362 OA
ATOM     23  C   UNL     1      -4.590 -24.895   9.035  1.00  0.00     0.177 C 
ATOM     24  C   UNL     1      -2.763 -26.100   7.450  1.00  0.00     0.176 C 
ATOM     25  C   UNL     1      -3.854 -26.294   8.710  1.00  0.00     0.177 C 
BRANCH  21  26
ATOM     26  O   UNL     1      -3.592 -23.029  10.066  1.00  0.00    -0.387 OA
ATOM     27  H   UNL     1      -3.221 -22.776  10.946  1.00  0.00     0.211 HD
ENDBRANCH  21  26
BRANCH  23  28
ATOM     28  O   UNL     1      -5.355 -25.118  10.089  1.00  0.00    -0.387 OA
ATOM     29  H   UNL     1      -5.863 -24.335  10.413  1.00  0.00     0.211 HD
ENDBRANCH  23  28
BRANCH  24  30
ATOM     30  C   UNL     1      -3.711 -26.219   6.276  1.00  0.00     0.191 C 
BRANCH  30  31
ATOM     31  O   UNL     1      -3.422 -27.334   5.496  1.00  0.00    -0.394 OA
ATOM     32  H   UNL     1      -2.420 -27.323   5.399  1.00  0.00     0.210 HD
ENDBRANCH  30  31
ENDBRANCH  24  30
BRANCH  25  33
ATOM     33  O   UNL     1      -4.815 -27.110   8.255  1.00  0.00    -0.388 OA
ATOM     34  H   UNL     1      -4.624 -28.051   8.146  1.00  0.00     0.211 HD
ENDBRANCH  25  33
ENDBRANCH  11  20
BRANCH  10  35
ATOM     35  O   UNL     1      -0.613 -26.182   9.782  1.00  0.00    -0.507 OA
ATOM     36  H   UNL     1      -0.236 -26.949   9.243  1.00  0.00     0.293 HD
ENDBRANCH  10  35
TORSDOF 9
ENDMDL
MODEL 5
REMARK VINA RESULT:    -4.155      3.326      5.730
REMARK INTER + INTRA:          -6.533
REMARK INTER:                  -5.766
REMARK INTRA:                  -0.767
REMARK UNBOUND:                -0.921
REMARK SMILES O=c1c(-c2ccc(O)cc2)coc2c([C@H]3O[C@H](CO)[C@H](O)[C@@H](O)[C@@H]3O)c(O)ccc12
REMARK SMILES IDX 3 1 11 2 12 3 13 4 30 5 2 6 1 7 29 8 28 9 26 10 14 11 4 12
REMARK SMILES IDX 5 13 6 14 7 15 10 16 9 17 8 18 15 20 24 21 16 22 22 23 17 24
REMARK SMILES IDX 20 25 25 26 23 28 18 30 19 31 21 33 27 35
REMARK H PARENT 8 19 25 27 23 29 19 32 21 34 27 36
REMARK Flexibility Score: inf
ROOT
ATOM      1  C   UNL     1      -6.764 -10.567   8.022  1.00  0.00     0.065 A 
ATOM      2  C   UNL     1      -5.588 -11.134   8.439  1.00  0.00     0.208 A 
ATOM      3  O   UNL     1      -4.438 -10.868   7.852  1.00  0.00    -0.463 OA
ATOM      4  C   UNL     1      -4.369 -10.034   6.824  1.00  0.00     0.147 A 
ATOM      5  C   UNL     1      -5.503  -9.451   6.383  1.00  0.00     0.066 A 
ATOM      6  C   UNL     1      -6.740  -9.691   6.960  1.00  0.00     0.200 A 
ATOM      7  O   UNL     1      -7.783  -9.115   6.507  1.00  0.00    -0.288 OA
ATOM      8  C   UNL     1      -5.456  -8.585   5.306  1.00  0.00     0.020 A 
ATOM      9  C   UNL     1      -4.253  -8.329   4.692  1.00  0.00     0.047 A 
ATOM     10  C   UNL     1      -3.094  -8.951   5.175  1.00  0.00     0.125 A 
ATOM     11  C   UNL     1      -3.110  -9.817   6.250  1.00  0.00     0.069 A 
ENDROOT
BRANCH   1  12
ATOM     12  C   UNL     1      -8.038 -10.917   8.626  1.00  0.00    -0.011 A 
ATOM     13  C   UNL     1      -8.692 -10.109   9.498  1.00  0.00     0.013 A 
ATOM     14  C   UNL     1      -9.925 -10.511   9.983  1.00  0.00     0.047 A 
ATOM     15  C   UNL     1     -10.532 -11.701   9.626  1.00  0.00     0.115 A 
ATOM     16  C   UNL     1      -8.626 -12.124   8.249  1.00  0.00     0.013 A 
ATOM     17  C   UNL     1      -9.853 -12.515   8.736  1.00  0.00     0.047 A 
BRANCH  15  18
ATOM     18  O   UNL     1     -11.783 -12.096  10.125  1.00  0.00    -0.508 OA
ATOM     19  H   UNL     1     -12.116 -11.670  11.004  1.00  0.00     0.293 HD
ENDBRANCH  15  18
ENDBRANCH   1  12
BRANCH  11  20
ATOM     20  C   UNL     1      -1.950 -10.509   6.802  1.00  0.00     0.188 C 
ATOM     21  C   UNL     1      -0.668  -9.563   6.822  1.00  0.00     0.179 C 
ATOM     22  O   UNL     1      -1.394 -11.325   6.062  1.00  0.00    -0.362 OA
ATOM     23  C   UNL     1       0.697 -10.500   6.926  1.00  0.00     0.177 C 
ATOM     24  C   UNL     1      -0.894 -12.060   5.396  1.00  0.00     0.176 C 
ATOM     25  C   UNL     1       0.464 -11.074   5.435  1.00  0.00     0.177 C 
BRANCH  21  26
ATOM     26  O   UNL     1      -0.630  -8.872   7.990  1.00  0.00    -0.387 OA
ATOM     27  H   UNL     1      -1.518  -8.692   8.383  1.00  0.00     0.211 HD
ENDBRANCH  21  26
BRANCH  23  28
ATOM     28  O   UNL     1       1.722  -9.670   6.844  1.00  0.00    -0.387 OA
ATOM     29  H   UNL     1       2.142  -9.608   5.953  1.00  0.00     0.211 HD
ENDBRANCH  23  28
BRANCH  24  30
ATOM     30  C   UNL     1      -0.281 -13.350   5.897  1.00  0.00     0.191 C 
BRANCH  30  31
ATOM     31  O   UNL     1      -0.104 -14.267   4.866  1.00  0.00    -0.394 OA
ATOM     32  H   UNL     1       0.243 -13.719   4.096  1.00  0.00     0.210 HD
ENDBRANCH  30  31
ENDBRANCH  24  30
BRANCH  25  33
ATOM     33  O   UNL     1       1.515 -11.868   5.186  1.00  0.00    -0.388 OA
ATOM     34  H   UNL     1       1.864 -12.425   5.893  1.00  0.00     0.211 HD
ENDBRANCH  25  33
ENDBRANCH  11  20
BRANCH  10  35
ATOM     35  O   UNL     1      -1.926  -8.636   4.493  1.00  0.00    -0.507 OA
ATOM     36  H   UNL     1      -1.124  -8.412   5.065  1.00  0.00     0.293 HD
ENDBRANCH  10  35
TORSDOF 9
ENDMDL
MODEL 6
REMARK VINA RESULT:    -4.125      2.000      8.014
REMARK INTER + INTRA:          -6.493
REMARK INTER:                  -6.741
REMARK INTRA:                   0.248
REMARK UNBOUND:                -0.921
REMARK SMILES O=c1c(-c2ccc(O)cc2)coc2c([C@H]3O[C@H](CO)[C@H](O)[C@@H](O)[C@@H]3O)c(O)ccc12
REMARK SMILES IDX 3 1 11 2 12 3 13 4 30 5 2 6 1 7 29 8 28 9 26 10 14 11 4 12
REMARK SMILES IDX 5 13 6 14 7 15 10 16 9 17 8 18 15 20 24 21 16 22 22 23 17 24
REMARK SMILES IDX 20 25 25 26 23 28 18 30 19 31 21 33 27 35
REMARK H PARENT 8 19 25 27 23 29 19 32 21 34 27 36
REMARK Flexibility Score: inf
ROOT
ATOM      1  C   UNL     1       2.015 -14.396   5.997  1.00  0.00     0.065 A 
ATOM      2  C   UNL     1       0.661 -14.195   5.952  1.00  0.00     0.208 A 
ATOM      3  O   UNL     1       0.138 -12.995   5.794  1.00  0.00    -0.463 OA
ATOM      4  C   UNL     1       0.906 -11.922   5.671  1.00  0.00     0.147 A 
ATOM      5  C   UNL     1       2.246 -12.076   5.707  1.00  0.00     0.066 A 
ATOM      6  C   UNL     1       2.853 -13.312   5.870  1.00  0.00     0.200 A 
ATOM      7  O   UNL     1       4.124 -13.405   5.896  1.00  0.00    -0.288 OA
ATOM      8  C   UNL     1       3.068 -10.970   5.590  1.00  0.00     0.020 A 
ATOM      9  C   UNL     1       2.510  -9.722   5.443  1.00  0.00     0.047 A 
ATOM     10  C   UNL     1       1.115  -9.597   5.410  1.00  0.00     0.125 A 
ATOM     11  C   UNL     1       0.270 -10.684   5.521  1.00  0.00     0.069 A 
ENDROOT
BRANCH   1  12
ATOM     12  C   UNL     1       2.585 -15.710   6.242  1.00  0.00    -0.011 A 
ATOM     13  C   UNL     1       2.751 -16.226   7.487  1.00  0.00     0.013 A 
ATOM     14  C   UNL     1       3.259 -17.508   7.615  1.00  0.00     0.047 A 
ATOM     15  C   UNL     1       3.611 -18.298   6.536  1.00  0.00     0.115 A 
ATOM     16  C   UNL     1       2.932 -16.485   5.136  1.00  0.00     0.013 A 
ATOM     17  C   UNL     1       3.436 -17.759   5.273  1.00  0.00     0.047 A 
BRANCH  15  18
ATOM     18  O   UNL     1       4.124 -19.595   6.680  1.00  0.00    -0.508 OA
ATOM     19  H   UNL     1       3.472 -20.392   6.607  1.00  0.00     0.293 HD
ENDBRANCH  15  18
ENDBRANCH   1  12
BRANCH  11  20
ATOM     20  C   UNL     1      -1.188 -10.633   5.505  1.00  0.00     0.188 C 
ATOM     21  C   UNL     1      -1.715  -9.132   5.599  1.00  0.00     0.179 C 
ATOM     22  O   UNL     1      -1.759 -10.948   6.552  1.00  0.00    -0.362 OA
ATOM     23  C   UNL     1      -3.291  -9.142   6.117  1.00  0.00     0.177 C 
ATOM     24  C   UNL     1      -2.273 -11.232   7.495  1.00  0.00     0.176 C 
ATOM     25  C   UNL     1      -2.846  -9.657   7.581  1.00  0.00     0.177 C 
BRANCH  21  26
ATOM     26  O   UNL     1      -1.828  -8.611   4.351  1.00  0.00    -0.387 OA
ATOM     27  H   UNL     1      -1.045  -8.775   3.771  1.00  0.00     0.211 HD
ENDBRANCH  21  26
BRANCH  23  28
ATOM     28  O   UNL     1      -3.638  -7.875   6.264  1.00  0.00    -0.387 OA
ATOM     29  H   UNL     1      -4.019  -7.448   5.459  1.00  0.00     0.211 HD
ENDBRANCH  23  28
BRANCH  24  30
ATOM     30  C   UNL     1      -3.589 -11.980   7.529  1.00  0.00     0.191 C 
BRANCH  30  31
ATOM     31  O   UNL     1      -3.407 -13.321   7.852  1.00  0.00    -0.394 OA
ATOM     32  H   UNL     1      -3.214 -13.320   8.839  1.00  0.00     0.210 HD
ENDBRANCH  30  31
ENDBRANCH  24  30
BRANCH  25  33
ATOM     33  O   UNL     1      -3.974  -9.704   8.304  1.00  0.00    -0.388 OA
ATOM     34  H   UNL     1      -4.311 -10.560   8.599  1.00  0.00     0.211 HD
ENDBRANCH  25  33
ENDBRANCH  11  20
BRANCH  10  35
ATOM     35  O   UNL     1       0.640  -8.301   5.260  1.00  0.00    -0.507 OA
ATOM     36  H   UNL     1       1.295  -7.628   4.886  1.00  0.00     0.293 HD
ENDBRANCH  10  35
TORSDOF 9
ENDMDL
MODEL 7
REMARK VINA RESULT:    -4.088      2.164      3.858
REMARK INTER + INTRA:          -6.443
REMARK INTER:                  -6.843
REMARK INTRA:                   0.399
REMARK UNBOUND:                -0.921
REMARK SMILES O=c1c(-c2ccc(O)cc2)coc2c([C@H]3O[C@H](CO)[C@H](O)[C@@H](O)[C@@H]3O)c(O)ccc12
REMARK SMILES IDX 3 1 11 2 12 3 13 4 30 5 2 6 1 7 29 8 28 9 26 10 14 11 4 12
REMARK SMILES IDX 5 13 6 14 7 15 10 16 9 17 8 18 15 20 24 21 16 22 22 23 17 24
REMARK SMILES IDX 20 25 25 26 23 28 18 30 19 31 21 33 27 35
REMARK H PARENT 8 19 25 27 23 29 19 32 21 34 27 36
REMARK Flexibility Score: inf
ROOT
ATOM      1  C   UNL     1      -3.694 -11.612   6.752  1.00  0.00     0.065 A 
ATOM      2  C   UNL     1      -2.355 -11.603   6.463  1.00  0.00     0.208 A 
ATOM      3  O   UNL     1      -1.511 -12.440   7.033  1.00  0.00    -0.463 OA
ATOM      4  C   UNL     1      -1.926 -13.335   7.919  1.00  0.00     0.147 A 
ATOM      5  C   UNL     1      -3.238 -13.381   8.229  1.00  0.00     0.066 A 
ATOM      6  C   UNL     1      -4.172 -12.527   7.662  1.00  0.00     0.200 A 
ATOM      7  O   UNL     1      -5.401 -12.611   7.989  1.00  0.00    -0.288 OA
ATOM      8  C   UNL     1      -3.692 -14.301   9.157  1.00  0.00     0.020 A 
ATOM      9  C   UNL     1      -2.800 -15.157   9.757  1.00  0.00     0.047 A 
ATOM     10  C   UNL     1      -1.444 -15.083   9.412  1.00  0.00     0.125 A 
ATOM     11  C   UNL     1      -0.963 -14.178   8.487  1.00  0.00     0.069 A 
ENDROOT
BRANCH   1  12
ATOM     12  C   UNL     1      -4.608 -10.641   6.174  1.00  0.00    -0.011 A 
ATOM     13  C   UNL     1      -5.163  -9.630   6.889  1.00  0.00     0.013 A 
ATOM     14  C   UNL     1      -5.986  -8.726   6.237  1.00  0.00     0.047 A 
ATOM     15  C   UNL     1      -6.275  -8.798   4.886  1.00  0.00     0.115 A 
ATOM     16  C   UNL     1      -4.883 -10.739   4.811  1.00  0.00     0.013 A 
ATOM     17  C   UNL     1      -5.701  -9.835   4.170  1.00  0.00     0.047 A 
BRANCH  15  18
ATOM     18  O   UNL     1      -7.109  -7.875   4.238  1.00  0.00    -0.508 OA
ATOM     19  H   UNL     1      -7.943  -7.532   4.740  1.00  0.00     0.293 HD
ENDBRANCH  15  18
ENDBRANCH   1  12
BRANCH  11  20
ATOM     20  C   UNL     1       0.432 -14.034   8.084  1.00  0.00     0.188 C 
ATOM     21  C   UNL     1       0.890 -12.509   8.115  1.00  0.00     0.179 C 
ATOM     22  O   UNL     1       0.666 -14.128   6.876  1.00  0.00    -0.362 OA
ATOM     23  C   UNL     1       2.237 -12.326   7.165  1.00  0.00     0.177 C 
ATOM     24  C   UNL     1       0.877 -14.213   5.788  1.00  0.00     0.176 C 
ATOM     25  C   UNL     1       1.380 -12.612   5.827  1.00  0.00     0.177 C 
BRANCH  21  26
ATOM     26  O   UNL     1       1.366 -12.201   9.348  1.00  0.00    -0.387 OA
ATOM     27  H   UNL     1       0.742 -12.408  10.086  1.00  0.00     0.211 HD
ENDBRANCH  21  26
BRANCH  23  28
ATOM     28  O   UNL     1       2.510 -11.033   7.156  1.00  0.00    -0.387 OA
ATOM     29  H   UNL     1       2.636 -10.625   8.047  1.00  0.00     0.211 HD
ENDBRANCH  23  28
BRANCH  24  30
ATOM     30  C   UNL     1       2.131 -14.856   5.235  1.00  0.00     0.191 C 
BRANCH  30  31
ATOM     31  O   UNL     1       1.856 -16.084   4.640  1.00  0.00    -0.394 OA
ATOM     32  H   UNL     1       1.669 -16.703   5.411  1.00  0.00     0.210 HD
ENDBRANCH  30  31
ENDBRANCH  24  30
BRANCH  25  33
ATOM     33  O   UNL     1       2.239 -12.461   4.810  1.00  0.00    -0.388 OA
ATOM     34  H   UNL     1       3.188 -12.526   4.978  1.00  0.00     0.211 HD
ENDBRANCH  25  33
ENDBRANCH  11  20
BRANCH  10  35
ATOM     35  O   UNL     1      -0.616 -15.984  10.069  1.00  0.00    -0.507 OA
ATOM     36  H   UNL     1      -0.380 -15.757  11.024  1.00  0.00     0.293 HD
ENDBRANCH  10  35
TORSDOF 9
ENDMDL
MODEL 8
REMARK VINA RESULT:    -3.951      1.814      2.011
REMARK INTER + INTRA:          -6.258
REMARK INTER:                  -5.498
REMARK INTRA:                  -0.761
REMARK UNBOUND:                -0.921
REMARK SMILES O=c1c(-c2ccc(O)cc2)coc2c([C@H]3O[C@H](CO)[C@H](O)[C@@H](O)[C@@H]3O)c(O)ccc12
REMARK SMILES IDX 3 1 11 2 12 3 13 4 30 5 2 6 1 7 29 8 28 9 26 10 14 11 4 12
REMARK SMILES IDX 5 13 6 14 7 15 10 16 9 17 8 18 15 20 24 21 16 22 22 23 17 24
REMARK SMILES IDX 20 25 25 26 23 28 18 30 19 31 21 33 27 35
REMARK H PARENT 8 19 25 27 23 29 19 32 21 34 27 36
REMARK Flexibility Score: inf
ROOT
ATOM      1  C   UNL     1      -2.534 -11.397   6.882  1.00  0.00     0.065 A 
ATOM      2  C   UNL     1      -2.334 -12.751   6.820  1.00  0.00     0.208 A 
ATOM      3  O   UNL     1      -1.191 -13.305   7.173  1.00  0.00    -0.463 OA
ATOM      4  C   UNL     1      -0.177 -12.570   7.606  1.00  0.00     0.147 A 
ATOM      5  C   UNL     1      -0.333 -11.233   7.686  1.00  0.00     0.066 A 
ATOM      6  C   UNL     1      -1.510 -10.593   7.329  1.00  0.00     0.200 A 
ATOM      7  O   UNL     1      -1.607  -9.326   7.424  1.00  0.00    -0.288 OA
ATOM      8  C   UNL     1       0.715 -10.445   8.126  1.00  0.00     0.020 A 
ATOM      9  C   UNL     1       1.907 -11.033   8.475  1.00  0.00     0.047 A 
ATOM     10  C   UNL     1       2.036 -12.425   8.380  1.00  0.00     0.125 A 
ATOM     11  C   UNL     1       1.006 -13.237   7.947  1.00  0.00     0.069 A 
ENDROOT
BRANCH   1  12
ATOM     12  C   UNL     1      -3.770 -10.785   6.425  1.00  0.00    -0.011 A 
ATOM     13  C   UNL     1      -4.059 -10.588   5.113  1.00  0.00     0.013 A 
ATOM     14  C   UNL     1      -5.285 -10.039   4.776  1.00  0.00     0.047 A 
ATOM     15  C   UNL     1      -6.240  -9.678   5.710  1.00  0.00     0.115 A 
ATOM     16  C   UNL     1      -4.713 -10.428   7.388  1.00  0.00     0.013 A 
ATOM     17  C   UNL     1      -5.931  -9.885   7.043  1.00  0.00     0.047 A 
BRANCH  15  18
ATOM     18  O   UNL     1      -7.478  -9.124   5.354  1.00  0.00    -0.508 OA
ATOM     19  H   UNL     1      -8.304  -9.743   5.331  1.00  0.00     0.293 HD
ENDBRANCH  15  18
ENDBRANCH   1  12
BRANCH  11  20
ATOM     20  C   UNL     1       1.066 -14.688   7.813  1.00  0.00     0.188 C 
ATOM     21  C   UNL     1       1.665 -15.367   9.125  1.00  0.00     0.179 C 
ATOM     22  O   UNL     1       1.976 -15.137   7.110  1.00  0.00    -0.362 OA
ATOM     23  C   UNL     1       2.216 -16.885   8.748  1.00  0.00     0.177 C 
ATOM     24  C   UNL     1       2.795 -15.541   6.476  1.00  0.00     0.176 C 
ATOM     25  C   UNL     1       3.412 -16.273   7.855  1.00  0.00     0.177 C 
BRANCH  21  26
ATOM     26  O   UNL     1       0.661 -15.634   9.998  1.00  0.00    -0.387 OA
ATOM     27  H   UNL     1       0.231 -14.831  10.380  1.00  0.00     0.211 HD
ENDBRANCH  21  26
BRANCH  23  28
ATOM     28  O   UNL     1       2.781 -17.356   9.846  1.00  0.00    -0.387 OA
ATOM     29  H   UNL     1       3.127 -18.278   9.778  1.00  0.00     0.211 HD
ENDBRANCH  23  28
BRANCH  24  30
ATOM     30  C   UNL     1       2.635 -16.760   5.595  1.00  0.00     0.191 C 
BRANCH  30  31
ATOM     31  O   UNL     1       1.862 -16.482   4.472  1.00  0.00    -0.394 OA
ATOM     32  H   UNL     1       2.251 -17.060   3.746  1.00  0.00     0.210 HD
ENDBRANCH  30  31
ENDBRANCH  24  30
BRANCH  25  33
ATOM     33  O   UNL     1       4.125 -17.327   7.435  1.00  0.00    -0.388 OA
ATOM     34  H   UNL     1       4.027 -18.175   7.887  1.00  0.00     0.211 HD
ENDBRANCH  25  33
ENDBRANCH  11  20
BRANCH  10  35
ATOM     35  O   UNL     1       3.274 -12.932   8.751  1.00  0.00    -0.507 OA
ATOM     36  H   UNL     1       3.349 -13.938   8.792  1.00  0.00     0.293 HD
ENDBRANCH  10  35
TORSDOF 9
ENDMDL
