MODEL 1
REMARK VINA RESULT:    -5.412      0.000      0.000
REMARK INTER + INTRA:          -6.021
REMARK INTER:                  -5.729
REMARK INTRA:                  -0.293
REMARK UNBOUND:                -0.293
REMARK SMILES CC1=C[C@@H]2C(=C(C)CC[C@H]2C(C)C)CC1
REMARK SMILES IDX 1 1 2 2 3 3 4 4 10 5 9 6 8 7 6 8 5 9 14 10 15 11 7 12 11 13
REMARK SMILES IDX 12 14 13 15
REMARK H PARENT
REMARK Flexibility Score: inf
ROOT
ATOM      1  C   UNL     1     134.565 134.115 136.838  1.00  0.00     0.039 C 
ATOM      2  C   UNL     1     134.733 134.768 135.494  1.00  0.00    -0.076 C 
ATOM      3  C   UNL     1     135.306 134.092 134.481  1.00  0.00    -0.020 C 
ATOM      4  C   UNL     1     135.431 134.741 133.115  1.00  0.00     0.041 C 
ATOM      5  C   UNL     1     135.890 133.724 132.035  1.00  0.00     0.003 C 
ATOM      6  C   UNL     1     135.667 134.332 130.639  1.00  0.00     0.009 C 
ATOM      7  C   UNL     1     134.182 134.605 130.419  1.00  0.00     0.031 C 
ATOM      8  C   UNL     1     133.568 135.423 131.536  1.00  0.00    -0.073 C 
ATOM      9  C   UNL     1     134.105 135.439 132.789  1.00  0.00    -0.064 C 
ATOM     10  C   UNL     1     133.420 136.208 133.919  1.00  0.00     0.036 C 
ATOM     11  C   UNL     1     134.217 136.164 135.234  1.00  0.00     0.035 C 
ATOM     12  C   UNL     1     132.261 136.121 131.236  1.00  0.00     0.039 C 
ENDROOT
BRANCH   5  13
ATOM     13  C   UNL     1     137.365 133.236 132.249  1.00  0.00    -0.013 C 
ATOM     14  C   UNL     1     137.777 132.211 131.181  1.00  0.00     0.007 C 
ATOM     15  C   UNL     1     138.401 134.373 132.310  1.00  0.00     0.007 C 
ENDBRANCH   5  13
TORSDOF 1
ENDMDL
MODEL 2
REMARK VINA RESULT:    -5.404      3.470      4.782
REMARK INTER + INTRA:          -6.012
REMARK INTER:                  -5.727
REMARK INTRA:                  -0.285
REMARK UNBOUND:                -0.293
REMARK SMILES CC1=C[C@@H]2C(=C(C)CC[C@H]2C(C)C)CC1
REMARK SMILES IDX 1 1 2 2 3 3 4 4 10 5 9 6 8 7 6 8 5 9 14 10 15 11 7 12 11 13
REMARK SMILES IDX 12 14 13 15
REMARK H PARENT
REMARK Flexibility Score: inf
ROOT
ATOM      1  C   UNL     1     134.079 139.022 136.798  1.00  0.00     0.039 C 
ATOM      2  C   UNL     1     134.735 138.874 135.453  1.00  0.00    -0.076 C 
ATOM      3  C   UNL     1     134.063 138.308 134.433  1.00  0.00    -0.020 C 
ATOM      4  C   UNL     1     134.715 138.203 133.066  1.00  0.00     0.041 C 
ATOM      5  C   UNL     1     133.701 137.749 131.979  1.00  0.00     0.003 C 
ATOM      6  C   UNL     1     134.309 137.993 130.587  1.00  0.00     0.009 C 
ATOM      7  C   UNL     1     134.573 139.481 130.384  1.00  0.00     0.031 C 
ATOM      8  C   UNL     1     135.386 140.088 131.509  1.00  0.00    -0.073 C 
ATOM      9  C   UNL     1     135.405 139.536 132.756  1.00  0.00    -0.064 C 
ATOM     10  C   UNL     1     136.168 140.214 133.894  1.00  0.00     0.036 C 
ATOM     11  C   UNL     1     136.128 139.401 135.200  1.00  0.00     0.035 C 
ATOM     12  C   UNL     1     136.076 141.402 131.224  1.00  0.00     0.039 C 
ENDROOT
BRANCH   5  13
ATOM     13  C   UNL     1     133.223 136.269 132.176  1.00  0.00    -0.013 C 
ATOM     14  C   UNL     1     132.328 135.810 131.014  1.00  0.00     0.007 C 
ATOM     15  C   UNL     1     134.367 135.261 132.386  1.00  0.00     0.007 C 
ENDBRANCH   5  13
TORSDOF 1
ENDMDL
MODEL 3
REMARK VINA RESULT:    -5.403      3.529      4.891
REMARK INTER + INTRA:          -6.011
REMARK INTER:                  -5.718
REMARK INTRA:                  -0.293
REMARK UNBOUND:                -0.293
REMARK SMILES CC1=C[C@@H]2C(=C(C)CC[C@H]2C(C)C)CC1
REMARK SMILES IDX 1 1 2 2 3 3 4 4 10 5 9 6 8 7 6 8 5 9 14 10 15 11 7 12 11 13
REMARK SMILES IDX 12 14 13 15
REMARK H PARENT
REMARK Flexibility Score: inf
ROOT
ATOM      1  C   UNL     1     139.602 134.701 136.771  1.00  0.00     0.039 C 
ATOM      2  C   UNL     1     138.957 134.841 135.420  1.00  0.00    -0.076 C 
ATOM      3  C   UNL     1     139.636 135.401 134.402  1.00  0.00    -0.020 C 
ATOM      4  C   UNL     1     138.995 135.497 133.030  1.00  0.00     0.041 C 
ATOM      5  C   UNL     1     140.017 135.945 131.948  1.00  0.00     0.003 C 
ATOM      6  C   UNL     1     139.420 135.693 130.552  1.00  0.00     0.009 C 
ATOM      7  C   UNL     1     139.159 134.203 130.357  1.00  0.00     0.031 C 
ATOM      8  C   UNL     1     138.338 133.602 131.479  1.00  0.00    -0.073 C 
ATOM      9  C   UNL     1     138.309 134.161 132.722  1.00  0.00    -0.064 C 
ATOM     10  C   UNL     1     137.538 133.490 133.858  1.00  0.00     0.036 C 
ATOM     11  C   UNL     1     137.566 134.310 135.160  1.00  0.00     0.035 C 
ATOM     12  C   UNL     1     137.651 132.286 131.197  1.00  0.00     0.039 C 
ENDROOT
BRANCH   5  13
ATOM     13  C   UNL     1     140.493 137.427 132.140  1.00  0.00    -0.013 C 
ATOM     14  C   UNL     1     141.513 137.832 131.064  1.00  0.00     0.007 C 
ATOM     15  C   UNL     1     139.347 138.454 132.188  1.00  0.00     0.007 C 
ENDBRANCH   5  13
TORSDOF 1
ENDMDL
MODEL 4
REMARK VINA RESULT:    -5.383      5.117      6.906
REMARK INTER + INTRA:          -5.991
REMARK INTER:                  -5.698
REMARK INTRA:                  -0.292
REMARK UNBOUND:                -0.293
REMARK SMILES CC1=C[C@@H]2C(=C(C)CC[C@H]2C(C)C)CC1
REMARK SMILES IDX 1 1 2 2 3 3 4 4 10 5 9 6 8 7 6 8 5 9 14 10 15 11 7 12 11 13
REMARK SMILES IDX 12 14 13 15
REMARK H PARENT
REMARK Flexibility Score: inf
ROOT
ATOM      1  C   UNL     1     139.119 139.537 136.872  1.00  0.00     0.039 C 
ATOM      2  C   UNL     1     138.976 138.911 135.512  1.00  0.00    -0.076 C 
ATOM      3  C   UNL     1     138.427 139.609 134.501  1.00  0.00    -0.020 C 
ATOM      4  C   UNL     1     138.328 138.988 133.121  1.00  0.00     0.041 C 
ATOM      5  C   UNL     1     137.895 140.028 132.051  1.00  0.00     0.003 C 
ATOM      6  C   UNL     1     138.146 139.447 130.648  1.00  0.00     0.009 C 
ATOM      7  C   UNL     1     139.633 139.172 130.454  1.00  0.00     0.031 C 
ATOM      8  C   UNL     1     140.221 138.330 131.567  1.00  0.00    -0.073 C 
ATOM      9  C   UNL     1     139.658 138.291 132.808  1.00  0.00    -0.064 C 
ATOM     10  C   UNL     1     140.316 137.497 133.936  1.00  0.00     0.036 C 
ATOM     11  C   UNL     1     139.492 137.518 135.235  1.00  0.00     0.035 C 
ATOM     12  C   UNL     1     141.531 137.632 131.280  1.00  0.00     0.039 C 
ENDROOT
BRANCH   5  13
ATOM     13  C   UNL     1     136.418 140.518 132.244  1.00  0.00    -0.013 C 
ATOM     14  C   UNL     1     136.015 141.527 131.158  1.00  0.00     0.007 C 
ATOM     15  C   UNL     1     135.382 139.381 132.312  1.00  0.00     0.007 C 
ENDBRANCH   5  13
TORSDOF 1
ENDMDL
MODEL 5
REMARK VINA RESULT:    -5.143      1.127      4.806
REMARK INTER + INTRA:          -5.736
REMARK INTER:                  -5.469
REMARK INTRA:                  -0.266
REMARK UNBOUND:                -0.293
REMARK SMILES CC1=C[C@@H]2C(=C(C)CC[C@H]2C(C)C)CC1
REMARK SMILES IDX 1 1 2 2 3 3 4 4 10 5 9 6 8 7 6 8 5 9 14 10 15 11 7 12 11 13
REMARK SMILES IDX 12 14 13 15
REMARK H PARENT
REMARK Flexibility Score: inf
ROOT
ATOM      1  C   UNL     1     137.291 132.509 131.590  1.00  0.00     0.039 C 
ATOM      2  C   UNL     1     136.892 133.522 132.627  1.00  0.00    -0.076 C 
ATOM      3  C   UNL     1     135.722 134.177 132.516  1.00  0.00    -0.020 C 
ATOM      4  C   UNL     1     135.305 135.164 133.590  1.00  0.00     0.041 C 
ATOM      5  C   UNL     1     133.832 135.626 133.407  1.00  0.00     0.003 C 
ATOM      6  C   UNL     1     133.360 136.335 134.689  1.00  0.00     0.009 C 
ATOM      7  C   UNL     1     133.400 135.366 135.866  1.00  0.00     0.031 C 
ATOM      8  C   UNL     1     134.745 134.686 136.017  1.00  0.00    -0.073 C 
ATOM      9  C   UNL     1     135.595 134.539 134.960  1.00  0.00    -0.064 C 
ATOM     10  C   UNL     1     136.910 133.777 135.120  1.00  0.00     0.036 C 
ATOM     11  C   UNL     1     137.758 133.784 133.837  1.00  0.00     0.035 C 
ATOM     12  C   UNL     1     135.053 134.063 137.359  1.00  0.00     0.039 C 
ENDROOT
BRANCH   5  13
ATOM     13  C   UNL     1     133.628 136.505 132.125  1.00  0.00    -0.013 C 
ATOM     14  C   UNL     1     132.528 135.928 131.219  1.00  0.00     0.007 C 
ATOM     15  C   UNL     1     133.340 137.989 132.417  1.00  0.00     0.007 C 
ENDBRANCH   5  13
TORSDOF 1
ENDMDL
MODEL 6
REMARK VINA RESULT:    -5.135      5.159      6.666
REMARK INTER + INTRA:          -5.728
REMARK INTER:                  -5.462
REMARK INTRA:                  -0.266
REMARK UNBOUND:                -0.293
REMARK SMILES CC1=C[C@@H]2C(=C(C)CC[C@H]2C(C)C)CC1
REMARK SMILES IDX 1 1 2 2 3 3 4 4 10 5 9 6 8 7 6 8 5 9 14 10 15 11 7 12 11 13
REMARK SMILES IDX 12 14 13 15
REMARK H PARENT
REMARK Flexibility Score: inf
ROOT
ATOM      1  C   UNL     1     136.494 141.264 131.569  1.00  0.00     0.039 C 
ATOM      2  C   UNL     1     136.871 140.249 132.612  1.00  0.00    -0.076 C 
ATOM      3  C   UNL     1     138.036 139.582 132.517  1.00  0.00    -0.020 C 
ATOM      4  C   UNL     1     138.430 138.593 133.597  1.00  0.00     0.041 C 
ATOM      5  C   UNL     1     139.900 138.116 133.433  1.00  0.00     0.003 C 
ATOM      6  C   UNL     1     140.349 137.405 134.721  1.00  0.00     0.009 C 
ATOM      7  C   UNL     1     140.304 138.376 135.897  1.00  0.00     0.031 C 
ATOM      8  C   UNL     1     138.964 139.070 136.029  1.00  0.00    -0.073 C 
ATOM      9  C   UNL     1     138.129 139.223 134.962  1.00  0.00    -0.064 C 
ATOM     10  C   UNL     1     136.820 139.998 135.105  1.00  0.00     0.036 C 
ATOM     11  C   UNL     1     135.987 139.997 133.811  1.00  0.00     0.035 C 
ATOM     12  C   UNL     1     138.647 139.697 137.367  1.00  0.00     0.039 C 
ENDROOT
BRANCH   5  13
ATOM     13  C   UNL     1     140.111 137.233 132.154  1.00  0.00    -0.013 C 
ATOM     14  C   UNL     1     141.244 137.785 131.273  1.00  0.00     0.007 C 
ATOM     15  C   UNL     1     140.358 135.743 132.452  1.00  0.00     0.007 C 
ENDBRANCH   5  13
TORSDOF 1
ENDMDL
MODEL 7
REMARK VINA RESULT:    -5.117      3.675      5.801
REMARK INTER + INTRA:          -5.709
REMARK INTER:                  -5.442
REMARK INTRA:                  -0.266
REMARK UNBOUND:                -0.293
REMARK SMILES CC1=C[C@@H]2C(=C(C)CC[C@H]2C(C)C)CC1
REMARK SMILES IDX 1 1 2 2 3 3 4 4 10 5 9 6 8 7 6 8 5 9 14 10 15 11 7 12 11 13
REMARK SMILES IDX 12 14 13 15
REMARK H PARENT
REMARK Flexibility Score: inf
ROOT
ATOM      1  C   UNL     1     132.542 136.418 131.617  1.00  0.00     0.039 C 
ATOM      2  C   UNL     1     133.544 136.819 132.663  1.00  0.00    -0.076 C 
ATOM      3  C   UNL     1     134.214 137.980 132.548  1.00  0.00    -0.020 C 
ATOM      4  C   UNL     1     135.190 138.400 133.631  1.00  0.00     0.041 C 
ATOM      5  C   UNL     1     135.671 139.865 133.436  1.00  0.00     0.003 C 
ATOM      6  C   UNL     1     136.366 140.345 134.722  1.00  0.00     0.009 C 
ATOM      7  C   UNL     1     135.380 140.330 135.886  1.00  0.00     0.031 C 
ATOM      8  C   UNL     1     134.683 138.994 136.043  1.00  0.00    -0.073 C 
ATOM      9  C   UNL     1     134.543 138.133 134.995  1.00  0.00    -0.064 C 
ATOM     10  C   UNL     1     133.764 136.829 135.159  1.00  0.00     0.036 C 
ATOM     11  C   UNL     1     133.780 135.964 133.887  1.00  0.00     0.035 C 
ATOM     12  C   UNL     1     134.039 138.710 137.380  1.00  0.00     0.039 C 
ENDROOT
BRANCH   5  13
ATOM     13  C   UNL     1     136.569 140.044 132.164  1.00  0.00    -0.013 C 
ATOM     14  C   UNL     1     136.000 141.117 131.222  1.00  0.00     0.007 C 
ATOM     15  C   UNL     1     138.046 140.350 132.474  1.00  0.00     0.007 C 
ENDBRANCH   5  13
TORSDOF 1
ENDMDL
MODEL 8
REMARK VINA RESULT:    -5.113      3.083      5.860
REMARK INTER + INTRA:          -5.704
REMARK INTER:                  -5.438
REMARK INTRA:                  -0.267
REMARK UNBOUND:                -0.293
REMARK SMILES CC1=C[C@@H]2C(=C(C)CC[C@H]2C(C)C)CC1
REMARK SMILES IDX 1 1 2 2 3 3 4 4 10 5 9 6 8 7 6 8 5 9 14 10 15 11 7 12 11 13
REMARK SMILES IDX 12 14 13 15
REMARK H PARENT
REMARK Flexibility Score: inf
ROOT
ATOM      1  C   UNL     1     141.176 137.276 131.615  1.00  0.00     0.039 C 
ATOM      2  C   UNL     1     140.209 136.891 132.700  1.00  0.00    -0.076 C 
ATOM      3  C   UNL     1     139.533 135.730 132.622  1.00  0.00    -0.020 C 
ATOM      4  C   UNL     1     138.594 135.325 133.743  1.00  0.00     0.041 C 
ATOM      5  C   UNL     1     138.104 133.859 133.583  1.00  0.00     0.003 C 
ATOM      6  C   UNL     1     137.452 133.397 134.898  1.00  0.00     0.009 C 
ATOM      7  C   UNL     1     138.477 133.424 136.027  1.00  0.00     0.031 C 
ATOM      8  C   UNL     1     139.181 134.760 136.143  1.00  0.00    -0.073 C 
ATOM      9  C   UNL     1     139.288 135.607 135.080  1.00  0.00    -0.064 C 
ATOM     10  C   UNL     1     140.074 136.912 135.202  1.00  0.00     0.036 C 
ATOM     11  C   UNL     1     140.016 137.761 133.920  1.00  0.00     0.035 C 
ATOM     12  C   UNL     1     139.871 135.059 137.455  1.00  0.00     0.039 C 
ENDROOT
BRANCH   5  13
ATOM     13  C   UNL     1     137.162 133.666 132.344  1.00  0.00    -0.013 C 
ATOM     14  C   UNL     1     137.713 132.603 131.381  1.00  0.00     0.007 C 
ATOM     15  C   UNL     1     135.703 133.337 132.708  1.00  0.00     0.007 C 
ENDBRANCH   5  13
TORSDOF 1
ENDMDL
MODEL 9
REMARK VINA RESULT:    -5.095      4.125      5.793
REMARK INTER + INTRA:          -5.686
REMARK INTER:                  -5.420
REMARK INTRA:                  -0.266
REMARK UNBOUND:                -0.293
REMARK SMILES CC1=C[C@@H]2C(=C(C)CC[C@H]2C(C)C)CC1
REMARK SMILES IDX 1 1 2 2 3 3 4 4 10 5 9 6 8 7 6 8 5 9 14 10 15 11 7 12 11 13
REMARK SMILES IDX 12 14 13 15
REMARK H PARENT
REMARK Flexibility Score: inf
ROOT
ATOM      1  C   UNL     1     137.757 141.085 136.077  1.00  0.00     0.039 C 
ATOM      2  C   UNL     1     137.291 140.240 134.924  1.00  0.00    -0.076 C 
ATOM      3  C   UNL     1     136.087 139.640 134.969  1.00  0.00    -0.020 C 
ATOM      4  C   UNL     1     135.604 138.827 133.783  1.00  0.00     0.041 C 
ATOM      5  C   UNL     1     134.110 138.426 133.930  1.00  0.00     0.003 C 
ATOM      6  C   UNL     1     133.585 137.919 132.576  1.00  0.00     0.009 C 
ATOM      7  C   UNL     1     133.667 139.030 131.534  1.00  0.00     0.031 C 
ATOM      8  C   UNL     1     135.047 139.650 131.450  1.00  0.00    -0.073 C 
ATOM      9  C   UNL     1     135.914 139.610 132.502  1.00  0.00    -0.064 C 
ATOM     10  C   UNL     1     137.268 140.314 132.420  1.00  0.00     0.036 C 
ATOM     11  C   UNL     1     138.129 140.092 133.676  1.00  0.00     0.035 C 
ATOM     12  C   UNL     1     135.375 140.426 130.195  1.00  0.00     0.039 C 
ENDROOT
BRANCH   5  13
ATOM     13  C   UNL     1     133.870 137.399 135.091  1.00  0.00    -0.013 C 
ATOM     14  C   UNL     1     132.788 137.895 136.063  1.00  0.00     0.007 C 
ATOM     15  C   UNL     1     133.529 135.976 134.611  1.00  0.00     0.007 C 
ENDBRANCH   5  13
TORSDOF 1
ENDMDL
