MODEL 1
REMARK VINA RESULT:    12.953      0.000      0.000
REMARK INTER + INTRA:          15.534
REMARK INTER:                  15.982
REMARK INTRA:                  -0.448
REMARK UNBOUND:                -0.448
REMARK SMILES CC(C)=CCC[C@@H](C)c1ccc(C)cc1
REMARK SMILES IDX 6 1 7 2 8 3 9 4 13 5 12 6 11 7 14 8 10 9 15 10 5 11 4 12
REMARK SMILES IDX 2 13 1 14 3 15
REMARK H PARENT
REMARK Flexibility Score: inf
ROOT
ATOM      1  C   UNL     1      24.503 -42.355 -16.635  1.00  0.00     0.012 C 
ENDROOT
BRANCH   1   2
ATOM      2  C   UNL     1      24.744 -41.488 -17.891  1.00  0.00     0.016 C 
ATOM      3  C   UNL     1      25.886 -42.028 -18.770  1.00  0.00     0.013 C 
BRANCH   2   4
ATOM      4  C   UNL     1      23.449 -41.230 -18.650  1.00  0.00    -0.045 A 
ATOM      5  C   UNL     1      19.885 -40.392 -20.949  1.00  0.00     0.044 C 
ATOM      6  C   UNL     1      21.131 -40.654 -20.157  1.00  0.00    -0.051 A 
ATOM      7  C   UNL     1      21.155 -40.414 -18.776  1.00  0.00     0.004 A 
ATOM      8  C   UNL     1      22.263 -41.198 -20.779  1.00  0.00     0.004 A 
ATOM      9  C   UNL     1      22.304 -40.688 -18.031  1.00  0.00     0.004 A 
ATOM     10  C   UNL     1      23.414 -41.473 -20.035  1.00  0.00     0.004 A 
ENDBRANCH   2   4
ENDBRANCH   1   2
BRANCH   1  11
ATOM     11  C   UNL     1      25.440 -42.036 -15.457  1.00  0.00     0.028 C 
BRANCH  11  12
ATOM     12  C   UNL     1      24.713 -42.173 -14.143  1.00  0.00    -0.028 C 
ATOM     13  C   UNL     1      25.267 -42.675 -13.018  1.00  0.00    -0.080 C 
ATOM     14  C   UNL     1      26.715 -43.108 -12.963  1.00  0.00     0.039 C 
ATOM     15  C   UNL     1      24.413 -42.786 -11.783  1.00  0.00     0.039 C 
ENDBRANCH  11  12
ENDBRANCH   1  11
TORSDOF 4
ENDMDL
MODEL 2
REMARK VINA RESULT:    15.091      9.886     14.278
REMARK INTER + INTRA:          18.172
REMARK INTER:                  18.644
REMARK INTRA:                  -0.472
REMARK UNBOUND:                -0.448
REMARK SMILES CC(C)=CCC[C@@H](C)c1ccc(C)cc1
REMARK SMILES IDX 6 1 7 2 8 3 9 4 13 5 12 6 11 7 14 8 10 9 15 10 5 11 4 12
REMARK SMILES IDX 2 13 1 14 3 15
REMARK H PARENT
REMARK Flexibility Score: inf
ROOT
ATOM      1  C   UNL     1      18.733 -35.234 -28.361  1.00  0.00     0.012 C 
ENDROOT
BRANCH   1   2
ATOM      2  C   UNL     1      18.135 -33.810 -28.399  1.00  0.00     0.016 C 
ATOM      3  C   UNL     1      18.618 -32.999 -29.614  1.00  0.00     0.013 C 
BRANCH   2   4
ATOM      4  C   UNL     1      16.622 -33.833 -28.234  1.00  0.00    -0.045 A 
ATOM      5  C   UNL     1      12.345 -33.764 -27.604  1.00  0.00     0.044 C 
ATOM      6  C   UNL     1      13.833 -33.789 -27.792  1.00  0.00    -0.051 A 
ATOM      7  C   UNL     1      14.508 -35.009 -27.924  1.00  0.00     0.004 A 
ATOM      8  C   UNL     1      14.552 -32.590 -27.898  1.00  0.00     0.004 A 
ATOM      9  C   UNL     1      15.890 -35.034 -28.132  1.00  0.00     0.004 A 
ATOM     10  C   UNL     1      15.934 -32.613 -28.105  1.00  0.00     0.004 A 
ENDBRANCH   2   4
ENDBRANCH   1   2
BRANCH   1  11
ATOM     11  C   UNL     1      20.239 -35.280 -28.049  1.00  0.00     0.028 C 
BRANCH  11  12
ATOM     12  C   UNL     1      20.488 -35.944 -26.718  1.00  0.00    -0.028 C 
ATOM     13  C   UNL     1      21.366 -36.953 -26.526  1.00  0.00    -0.080 C 
ATOM     14  C   UNL     1      22.233 -37.483 -27.647  1.00  0.00     0.039 C 
ATOM     15  C   UNL     1      21.490 -37.547 -25.148  1.00  0.00     0.039 C 
ENDBRANCH  11  12
ENDBRANCH   1  11
TORSDOF 4
ENDMDL
