MODEL 1
REMARK VINA RESULT:    -4.272      0.000      0.000
REMARK INTER + INTRA:          -6.200
REMARK INTER:                  -6.021
REMARK INTRA:                  -0.179
REMARK UNBOUND:                -0.179
REMARK SMILES CCCCCCCCC(=O)[O-]
REMARK SMILES IDX 6 1 7 2 8 3 9 4 10 5 11 6 5 7 4 8 3 9 2 10 1 11
REMARK H PARENT
REMARK Flexibility Score: inf
ROOT
ATOM      1  C   UNL     1      43.960  12.182 -34.666  1.00  0.00     0.000 C 
ENDROOT
BRANCH   1   2
ATOM      2  C   UNL     1      42.480  12.016 -35.027  1.00  0.00     0.006 C 
BRANCH   2   3
ATOM      3  C   UNL     1      42.129  12.805 -36.292  1.00  0.00     0.053 C 
BRANCH   3   4
ATOM      4  C   UNL     1      41.095  13.843 -35.992  1.00  0.00     0.041 C 
ATOM      5  O   UNL     1      41.435  14.958 -35.516  1.00  0.00    -0.550 OA
ATOM      6  O   UNL     1      39.749  13.562 -36.192  1.00  0.00    -0.550 OA
ENDBRANCH   3   4
ENDBRANCH   2   3
ENDBRANCH   1   2
BRANCH   1   7
ATOM      7  C   UNL     1      44.136  12.408 -33.156  1.00  0.00     0.000 C 
BRANCH   7   8
ATOM      8  C   UNL     1      45.596  12.687 -32.762  1.00  0.00    -0.000 C 
BRANCH   8   9
ATOM      9  C   UNL     1      45.826  12.589 -31.245  1.00  0.00    -0.000 C 
BRANCH   9  10
ATOM     10  C   UNL     1      46.548  11.293 -30.842  1.00  0.00    -0.003 C 
ATOM     11  C   UNL     1      46.511  11.035 -29.337  1.00  0.00     0.004 C 
ENDBRANCH   9  10
ENDBRANCH   8   9
ENDBRANCH   7   8
ENDBRANCH   1   7
TORSDOF 7
ENDMDL
MODEL 2
REMARK VINA RESULT:    -3.649      3.843      6.559
REMARK INTER + INTRA:          -5.320
REMARK INTER:                  -5.119
REMARK INTRA:                  -0.202
REMARK UNBOUND:                -0.179
REMARK SMILES CCCCCCCCC(=O)[O-]
REMARK SMILES IDX 6 1 7 2 8 3 9 4 10 5 11 6 5 7 4 8 3 9 2 10 1 11
REMARK H PARENT
REMARK Flexibility Score: inf
ROOT
ATOM      1  C   UNL     1      45.556  12.453 -33.423  1.00  0.00     0.000 C 
ENDROOT
BRANCH   1   2
ATOM      2  C   UNL     1      45.878  13.112 -32.077  1.00  0.00     0.006 C 
BRANCH   2   3
ATOM      3  C   UNL     1      45.192  12.374 -30.924  1.00  0.00     0.053 C 
BRANCH   3   4
ATOM      4  C   UNL     1      46.159  11.468 -30.231  1.00  0.00     0.041 C 
ATOM      5  O   UNL     1      47.054  10.875 -30.889  1.00  0.00    -0.550 OA
ATOM      6  O   UNL     1      46.042  11.237 -28.866  1.00  0.00    -0.550 OA
ENDBRANCH   3   4
ENDBRANCH   2   3
ENDBRANCH   1   2
BRANCH   1   7
ATOM      7  C   UNL     1      44.039  12.391 -33.656  1.00  0.00     0.000 C 
BRANCH   7   8
ATOM      8  C   UNL     1      43.673  12.012 -35.100  1.00  0.00    -0.000 C 
BRANCH   8   9
ATOM      9  C   UNL     1      42.153  11.986 -35.336  1.00  0.00    -0.000 C 
BRANCH   9  10
ATOM     10  C   UNL     1      41.698  13.041 -36.357  1.00  0.00    -0.003 C 
ATOM     11  C   UNL     1      41.266  14.353 -35.702  1.00  0.00     0.004 C 
ENDBRANCH   9  10
ENDBRANCH   8   9
ENDBRANCH   7   8
ENDBRANCH   1   7
TORSDOF 7
ENDMDL
MODEL 3
REMARK VINA RESULT:    -3.607     19.592     20.782
REMARK INTER + INTRA:          -5.262
REMARK INTER:                  -4.880
REMARK INTRA:                  -0.382
REMARK UNBOUND:                -0.179
REMARK SMILES CCCCCCCCC(=O)[O-]
REMARK SMILES IDX 6 1 7 2 8 3 9 4 10 5 11 6 5 7 4 8 3 9 2 10 1 11
REMARK H PARENT
REMARK Flexibility Score: inf
ROOT
ATOM      1  C   UNL     1      56.451  26.639 -34.371  1.00  0.00     0.000 C 
ENDROOT
BRANCH   1   2
ATOM      2  C   UNL     1      57.100  27.679 -33.451  1.00  0.00     0.006 C 
BRANCH   2   3
ATOM      3  C   UNL     1      56.475  27.645 -32.053  1.00  0.00     0.053 C 
BRANCH   3   4
ATOM      4  C   UNL     1      56.102  29.024 -31.611  1.00  0.00     0.041 C 
ATOM      5  O   UNL     1      55.929  29.272 -30.389  1.00  0.00    -0.550 OA
ATOM      6  O   UNL     1      55.898  30.024 -32.553  1.00  0.00    -0.550 OA
ENDBRANCH   3   4
ENDBRANCH   2   3
ENDBRANCH   1   2
BRANCH   1   7
ATOM      7  C   UNL     1      55.597  27.319 -35.452  1.00  0.00     0.000 C 
BRANCH   7   8
ATOM      8  C   UNL     1      56.199  28.647 -35.938  1.00  0.00    -0.000 C 
BRANCH   8   9
ATOM      9  C   UNL     1      55.285  29.379 -36.935  1.00  0.00    -0.000 C 
BRANCH   9  10
ATOM     10  C   UNL     1      55.409  28.825 -38.363  1.00  0.00    -0.003 C 
ATOM     11  C   UNL     1      54.190  28.009 -38.792  1.00  0.00     0.004 C 
ENDBRANCH   9  10
ENDBRANCH   8   9
ENDBRANCH   7   8
ENDBRANCH   1   7
TORSDOF 7
ENDMDL
MODEL 4
REMARK VINA RESULT:    -3.471     19.092     20.125
REMARK INTER + INTRA:          -5.071
REMARK INTER:                  -4.587
REMARK INTRA:                  -0.484
REMARK UNBOUND:                -0.179
REMARK SMILES CCCCCCCCC(=O)[O-]
REMARK SMILES IDX 6 1 7 2 8 3 9 4 10 5 11 6 5 7 4 8 3 9 2 10 1 11
REMARK H PARENT
REMARK Flexibility Score: inf
ROOT
ATOM      1  C   UNL     1      55.587  27.142 -35.499  1.00  0.00     0.000 C 
ENDROOT
BRANCH   1   2
ATOM      2  C   UNL     1      55.902  28.621 -35.756  1.00  0.00     0.006 C 
BRANCH   2   3
ATOM      3  C   UNL     1      56.005  28.909 -37.257  1.00  0.00     0.053 C 
BRANCH   3   4
ATOM      4  C   UNL     1      54.662  29.246 -37.820  1.00  0.00     0.041 C 
ATOM      5  O   UNL     1      54.024  28.394 -38.491  1.00  0.00    -0.550 OA
ATOM      6  O   UNL     1      54.134  30.520 -37.645  1.00  0.00    -0.550 OA
ENDBRANCH   3   4
ENDBRANCH   2   3
ENDBRANCH   1   2
BRANCH   1   7
ATOM      7  C   UNL     1      56.200  26.672 -34.171  1.00  0.00     0.000 C 
BRANCH   7   8
ATOM      8  C   UNL     1      56.742  27.834 -33.322  1.00  0.00    -0.000 C 
BRANCH   8   9
ATOM      9  C   UNL     1      56.274  27.763 -31.858  1.00  0.00    -0.000 C 
BRANCH   9  10
ATOM     10  C   UNL     1      55.904  29.143 -31.291  1.00  0.00    -0.003 C 
ATOM     11  C   UNL     1      55.944  30.248 -32.346  1.00  0.00     0.004 C 
ENDBRANCH   9  10
ENDBRANCH   8   9
ENDBRANCH   7   8
ENDBRANCH   1   7
TORSDOF 7
ENDMDL
MODEL 5
REMARK VINA RESULT:    -3.437      1.469      2.451
REMARK INTER + INTRA:          -5.022
REMARK INTER:                  -4.825
REMARK INTRA:                  -0.196
REMARK UNBOUND:                -0.179
REMARK SMILES CCCCCCCCC(=O)[O-]
REMARK SMILES IDX 6 1 7 2 8 3 9 4 10 5 11 6 5 7 4 8 3 9 2 10 1 11
REMARK H PARENT
REMARK Flexibility Score: inf
ROOT
ATOM      1  C   UNL     1      41.737  12.138 -35.686  1.00  0.00     0.000 C 
ENDROOT
BRANCH   1   2
ATOM      2  C   UNL     1      41.403  13.403 -36.487  1.00  0.00     0.006 C 
BRANCH   2   3
ATOM      3  C   UNL     1      40.582  14.386 -35.647  1.00  0.00     0.053 C 
BRANCH   3   4
ATOM      4  C   UNL     1      39.120  14.119 -35.810  1.00  0.00     0.041 C 
ATOM      5  O   UNL     1      38.709  13.387 -36.748  1.00  0.00    -0.550 OA
ATOM      6  O   UNL     1      38.204  14.720 -34.955  1.00  0.00    -0.550 OA
ENDBRANCH   3   4
ENDBRANCH   2   3
ENDBRANCH   1   2
BRANCH   1   7
ATOM      7  C   UNL     1      43.245  12.050 -35.403  1.00  0.00     0.000 C 
BRANCH   7   8
ATOM      8  C   UNL     1      43.570  12.087 -33.900  1.00  0.00    -0.000 C 
BRANCH   8   9
ATOM      9  C   UNL     1      45.025  12.501 -33.623  1.00  0.00    -0.000 C 
BRANCH   9  10
ATOM     10  C   UNL     1      45.285  12.774 -32.132  1.00  0.00    -0.003 C 
ATOM     11  C   UNL     1      46.298  11.808 -31.519  1.00  0.00     0.004 C 
ENDBRANCH   9  10
ENDBRANCH   8   9
ENDBRANCH   7   8
ENDBRANCH   1   7
TORSDOF 7
ENDMDL
MODEL 6
REMARK VINA RESULT:    -2.874     18.640     20.013
REMARK INTER + INTRA:          -4.229
REMARK INTER:                  -3.835
REMARK INTRA:                  -0.394
REMARK UNBOUND:                -0.179
REMARK SMILES CCCCCCCCC(=O)[O-]
REMARK SMILES IDX 6 1 7 2 8 3 9 4 10 5 11 6 5 7 4 8 3 9 2 10 1 11
REMARK H PARENT
REMARK Flexibility Score: inf
ROOT
ATOM      1  C   UNL     1      56.801  28.580 -33.899  1.00  0.00     0.000 C 
ENDROOT
BRANCH   1   2
ATOM      2  C   UNL     1      56.843  27.262 -34.683  1.00  0.00     0.006 C 
BRANCH   2   3
ATOM      3  C   UNL     1      55.640  26.379 -34.339  1.00  0.00     0.053 C 
BRANCH   3   4
ATOM      4  C   UNL     1      55.263  25.528 -35.510  1.00  0.00     0.041 C 
ATOM      5  O   UNL     1      55.206  26.028 -36.664  1.00  0.00    -0.550 OA
ATOM      6  O   UNL     1      54.925  24.194 -35.320  1.00  0.00    -0.550 OA
ENDBRANCH   3   4
ENDBRANCH   2   3
ENDBRANCH   1   2
BRANCH   1   7
ATOM      7  C   UNL     1      56.478  29.761 -34.826  1.00  0.00     0.000 C 
BRANCH   7   8
ATOM      8  C   UNL     1      56.590  29.396 -36.316  1.00  0.00    -0.000 C 
BRANCH   8   9
ATOM      9  C   UNL     1      55.246  29.517 -37.055  1.00  0.00    -0.000 C 
BRANCH   9  10
ATOM     10  C   UNL     1      55.311  28.963 -38.487  1.00  0.00    -0.003 C 
ATOM     11  C   UNL     1      54.070  28.158 -38.869  1.00  0.00     0.004 C 
ENDBRANCH   9  10
ENDBRANCH   8   9
ENDBRANCH   7   8
ENDBRANCH   1   7
TORSDOF 7
ENDMDL
MODEL 7
REMARK VINA RESULT:    -2.834     19.184     20.121
REMARK INTER + INTRA:          -4.172
REMARK INTER:                  -4.092
REMARK INTRA:                  -0.080
REMARK UNBOUND:                -0.179
REMARK SMILES CCCCCCCCC(=O)[O-]
REMARK SMILES IDX 6 1 7 2 8 3 9 4 10 5 11 6 5 7 4 8 3 9 2 10 1 11
REMARK H PARENT
REMARK Flexibility Score: inf
ROOT
ATOM      1  C   UNL     1      54.797  27.212 -38.015  1.00  0.00     0.000 C 
ENDROOT
BRANCH   1   2
ATOM      2  C   UNL     1      54.214  28.456 -38.697  1.00  0.00     0.006 C 
BRANCH   2   3
ATOM      3  C   UNL     1      55.175  29.644 -38.591  1.00  0.00     0.053 C 
BRANCH   3   4
ATOM      4  C   UNL     1      54.709  30.603 -37.543  1.00  0.00     0.041 C 
ATOM      5  O   UNL     1      53.566  31.125 -37.625  1.00  0.00    -0.550 OA
ATOM      6  O   UNL     1      55.556  30.960 -36.502  1.00  0.00    -0.550 OA
ENDBRANCH   3   4
ENDBRANCH   2   3
ENDBRANCH   1   2
BRANCH   1   7
ATOM      7  C   UNL     1      55.180  27.514 -36.558  1.00  0.00     0.000 C 
BRANCH   7   8
ATOM      8  C   UNL     1      55.327  26.242 -35.706  1.00  0.00    -0.000 C 
BRANCH   8   9
ATOM      9  C   UNL     1      55.951  26.524 -34.329  1.00  0.00    -0.000 C 
BRANCH   9  10
ATOM     10  C   UNL     1      57.124  27.514 -34.407  1.00  0.00    -0.003 C 
ATOM     11  C   UNL     1      56.869  28.800 -33.622  1.00  0.00     0.004 C 
ENDBRANCH   9  10
ENDBRANCH   8   9
ENDBRANCH   7   8
ENDBRANCH   1   7
TORSDOF 7
ENDMDL
MODEL 8
REMARK VINA RESULT:    -2.822     19.144     20.016
REMARK INTER + INTRA:          -4.156
REMARK INTER:                  -3.917
REMARK INTRA:                  -0.239
REMARK UNBOUND:                -0.179
REMARK SMILES CCCCCCCCC(=O)[O-]
REMARK SMILES IDX 6 1 7 2 8 3 9 4 10 5 11 6 5 7 4 8 3 9 2 10 1 11
REMARK H PARENT
REMARK Flexibility Score: inf
ROOT
ATOM      1  C   UNL     1      55.919  28.809 -36.326  1.00  0.00     0.000 C 
ENDROOT
BRANCH   1   2
ATOM      2  C   UNL     1      55.240  29.609 -37.444  1.00  0.00     0.006 C 
BRANCH   2   3
ATOM      3  C   UNL     1      55.233  28.823 -38.759  1.00  0.00     0.053 C 
BRANCH   3   4
ATOM      4  C   UNL     1      54.226  27.718 -38.703  1.00  0.00     0.041 C 
ATOM      5  O   UNL     1      53.004  27.965 -38.878  1.00  0.00    -0.550 OA
ATOM      6  O   UNL     1      54.631  26.422 -38.410  1.00  0.00    -0.550 OA
ENDBRANCH   3   4
ENDBRANCH   2   3
ENDBRANCH   1   2
BRANCH   1   7
ATOM      7  C   UNL     1      56.710  29.736 -35.390  1.00  0.00     0.000 C 
BRANCH   7   8
ATOM      8  C   UNL     1      56.475  29.420 -33.904  1.00  0.00    -0.000 C 
BRANCH   8   9
ATOM      9  C   UNL     1      56.512  27.911 -33.608  1.00  0.00    -0.000 C 
BRANCH   9  10
ATOM     10  C   UNL     1      56.929  27.605 -32.161  1.00  0.00    -0.003 C 
ATOM     11  C   UNL     1      56.188  28.463 -31.135  1.00  0.00     0.004 C 
ENDBRANCH   9  10
ENDBRANCH   8   9
ENDBRANCH   7   8
ENDBRANCH   1   7
TORSDOF 7
ENDMDL
MODEL 9
REMARK VINA RESULT:    -2.802      3.887      6.434
REMARK INTER + INTRA:          -4.127
REMARK INTER:                  -3.913
REMARK INTRA:                  -0.213
REMARK UNBOUND:                -0.179
REMARK SMILES CCCCCCCCC(=O)[O-]
REMARK SMILES IDX 6 1 7 2 8 3 9 4 10 5 11 6 5 7 4 8 3 9 2 10 1 11
REMARK H PARENT
REMARK Flexibility Score: inf
ROOT
ATOM      1  C   UNL     1      40.456  14.331 -35.698  1.00  0.00     0.000 C 
ENDROOT
BRANCH   1   2
ATOM      2  C   UNL     1      41.496  13.507 -36.467  1.00  0.00     0.006 C 
BRANCH   2   3
ATOM      3  C   UNL     1      41.740  12.156 -35.788  1.00  0.00     0.053 C 
BRANCH   3   4
ATOM      4  C   UNL     1      43.187  11.994 -35.449  1.00  0.00     0.041 C 
ATOM      5  O   UNL     1      43.560  11.984 -34.247  1.00  0.00    -0.550 OA
ATOM      6  O   UNL     1      44.133  11.902 -36.463  1.00  0.00    -0.550 OA
ENDBRANCH   3   4
ENDBRANCH   2   3
ENDBRANCH   1   2
BRANCH   1   7
ATOM      7  C   UNL     1      39.048  13.740 -35.874  1.00  0.00     0.000 C 
BRANCH   7   8
ATOM      8  C   UNL     1      38.000  14.423 -34.979  1.00  0.00    -0.000 C 
BRANCH   8   9
ATOM      9  C   UNL     1      37.253  13.424 -34.079  1.00  0.00    -0.000 C 
BRANCH   9  10
ATOM     10  C   UNL     1      36.996  13.981 -32.670  1.00  0.00    -0.003 C 
ATOM     11  C   UNL     1      36.875  12.886 -31.611  1.00  0.00     0.004 C 
ENDBRANCH   9  10
ENDBRANCH   8   9
ENDBRANCH   7   8
ENDBRANCH   1   7
TORSDOF 7
ENDMDL
