MODEL 1
REMARK VINA RESULT:    -6.102      0.000      0.000
REMARK INTER + INTRA:          -6.627
REMARK INTER:                  -6.458
REMARK INTRA:                  -0.168
REMARK UNBOUND:                -0.168
REMARK SMILES CC1=CC=C(C(C)C)CC1
REMARK SMILES IDX 1 1 2 2 3 3 4 4 5 5 9 6 10 7 6 8 7 9 8 10
REMARK H PARENT
REMARK Flexibility Score: inf
ROOT
ATOM      1  C   UNL     1      14.688  30.938  22.346  1.00  0.00     0.039 C 
ATOM      2  C   UNL     1      15.785  30.599  23.311  1.00  0.00    -0.073 C 
ATOM      3  C   UNL     1      15.822  29.386  23.885  1.00  0.00    -0.001 C 
ATOM      4  C   UNL     1      16.895  29.032  24.834  1.00  0.00    -0.001 C 
ATOM      5  C   UNL     1      17.982  29.812  24.972  1.00  0.00    -0.067 C 
ATOM      6  C   UNL     1      18.151  31.005  24.050  1.00  0.00     0.035 C 
ATOM      7  C   UNL     1      16.797  31.647  23.716  1.00  0.00     0.035 C 
ENDROOT
BRANCH   5   8
ATOM      8  C   UNL     1      19.044  29.466  26.002  1.00  0.00     0.009 C 
ATOM      9  C   UNL     1      19.006  30.440  27.186  1.00  0.00     0.012 C 
ATOM     10  C   UNL     1      18.890  28.017  26.476  1.00  0.00     0.012 C 
ENDBRANCH   5   8
TORSDOF 1
ENDMDL
MODEL 2
REMARK VINA RESULT:    -5.974      1.188      4.712
REMARK INTER + INTRA:          -6.492
REMARK INTER:                  -6.320
REMARK INTRA:                  -0.172
REMARK UNBOUND:                -0.168
REMARK SMILES CC1=CC=C(C(C)C)CC1
REMARK SMILES IDX 1 1 2 2 3 3 4 4 5 5 9 6 10 7 6 8 7 9 8 10
REMARK H PARENT
REMARK Flexibility Score: inf
ROOT
ATOM      1  C   UNL     1      20.129  29.171  28.643  1.00  0.00     0.039 C 
ATOM      2  C   UNL     1      19.275  29.402  27.431  1.00  0.00    -0.073 C 
ATOM      3  C   UNL     1      19.202  30.626  26.886  1.00  0.00    -0.001 C 
ATOM      4  C   UNL     1      18.370  30.873  25.693  1.00  0.00    -0.001 C 
ATOM      5  C   UNL     1      17.856  29.852  24.984  1.00  0.00    -0.067 C 
ATOM      6  C   UNL     1      18.240  28.433  25.357  1.00  0.00     0.035 C 
ATOM      7  C   UNL     1      18.420  28.286  26.876  1.00  0.00     0.035 C 
ENDROOT
BRANCH   5   8
ATOM      8  C   UNL     1      16.947  30.127  23.798  1.00  0.00     0.009 C 
ATOM      9  C   UNL     1      15.569  29.485  23.994  1.00  0.00     0.012 C 
ATOM     10  C   UNL     1      16.822  31.633  23.547  1.00  0.00     0.012 C 
ENDBRANCH   5   8
TORSDOF 1
ENDMDL
MODEL 3
REMARK VINA RESULT:    -5.327      7.061      8.462
REMARK INTER + INTRA:          -5.807
REMARK INTER:                  -5.634
REMARK INTRA:                  -0.173
REMARK UNBOUND:                -0.168
REMARK SMILES CC1=CC=C(C(C)C)CC1
REMARK SMILES IDX 1 1 2 2 3 3 4 4 5 5 9 6 10 7 6 8 7 9 8 10
REMARK H PARENT
REMARK Flexibility Score: inf
ROOT
ATOM      1  C   UNL     1      11.873  33.566  19.959  1.00  0.00     0.039 C 
ATOM      2  C   UNL     1      11.175  33.517  21.286  1.00  0.00    -0.073 C 
ATOM      3  C   UNL     1      11.851  33.145  22.384  1.00  0.00    -0.001 C 
ATOM      4  C   UNL     1      11.184  33.093  23.699  1.00  0.00    -0.001 C 
ATOM      5  C   UNL     1       9.966  33.634  23.880  1.00  0.00    -0.067 C 
ATOM      6  C   UNL     1       9.330  34.407  22.740  1.00  0.00     0.035 C 
ATOM      7  C   UNL     1       9.691  33.791  21.380  1.00  0.00     0.035 C 
ENDROOT
BRANCH   5   8
ATOM      8  C   UNL     1       9.267  33.512  25.223  1.00  0.00     0.009 C 
ATOM      9  C   UNL     1       7.835  32.990  25.059  1.00  0.00     0.012 C 
ATOM     10  C   UNL     1      10.072  32.621  26.175  1.00  0.00     0.012 C 
ENDBRANCH   5   8
TORSDOF 1
ENDMDL
MODEL 4
REMARK VINA RESULT:    -5.126      7.743      9.831
REMARK INTER + INTRA:          -5.594
REMARK INTER:                  -5.428
REMARK INTRA:                  -0.166
REMARK UNBOUND:                -0.168
REMARK SMILES CC1=CC=C(C(C)C)CC1
REMARK SMILES IDX 1 1 2 2 3 3 4 4 5 5 9 6 10 7 6 8 7 9 8 10
REMARK H PARENT
REMARK Flexibility Score: inf
ROOT
ATOM      1  C   UNL     1       5.962  29.194  24.346  1.00  0.00     0.039 C 
ATOM      2  C   UNL     1       6.887  30.361  24.167  1.00  0.00    -0.073 C 
ATOM      3  C   UNL     1       7.329  30.684  22.941  1.00  0.00    -0.001 C 
ATOM      4  C   UNL     1       8.236  31.830  22.743  1.00  0.00    -0.001 C 
ATOM      5  C   UNL     1       8.458  32.716  23.730  1.00  0.00    -0.067 C 
ATOM      6  C   UNL     1       7.669  32.591  25.020  1.00  0.00     0.035 C 
ATOM      7  C   UNL     1       7.403  31.119  25.369  1.00  0.00     0.035 C 
ENDROOT
BRANCH   5   8
ATOM      8  C   UNL     1       9.448  33.851  23.529  1.00  0.00     0.009 C 
ATOM      9  C   UNL     1       9.492  34.772  24.754  1.00  0.00     0.012 C 
ATOM     10  C   UNL     1      10.841  33.305  23.199  1.00  0.00     0.012 C 
ENDBRANCH   5   8
TORSDOF 1
ENDMDL
MODEL 5
REMARK VINA RESULT:    -5.105      0.796      4.452
REMARK INTER + INTRA:          -5.571
REMARK INTER:                  -5.403
REMARK INTRA:                  -0.168
REMARK UNBOUND:                -0.168
REMARK SMILES CC1=CC=C(C(C)C)CC1
REMARK SMILES IDX 1 1 2 2 3 3 4 4 5 5 9 6 10 7 6 8 7 9 8 10
REMARK H PARENT
REMARK Flexibility Score: inf
ROOT
ATOM      1  C   UNL     1      18.729  29.066  25.872  1.00  0.00     0.039 C 
ATOM      2  C   UNL     1      17.724  29.623  24.908  1.00  0.00    -0.073 C 
ATOM      3  C   UNL     1      16.529  29.027  24.768  1.00  0.00    -0.001 C 
ATOM      4  C   UNL     1      15.525  29.561  23.828  1.00  0.00    -0.001 C 
ATOM      5  C   UNL     1      15.678  30.773  23.266  1.00  0.00    -0.067 C 
ATOM      6  C   UNL     1      16.843  31.642  23.702  1.00  0.00     0.035 C 
ATOM      7  C   UNL     1      18.083  30.793  24.021  1.00  0.00     0.035 C 
ENDROOT
BRANCH   5   8
ATOM      8  C   UNL     1      14.669  31.277  22.249  1.00  0.00     0.009 C 
ATOM      9  C   UNL     1      15.102  32.622  21.655  1.00  0.00     0.012 C 
ATOM     10  C   UNL     1      14.443  30.237  21.146  1.00  0.00     0.012 C 
ENDBRANCH   5   8
TORSDOF 1
ENDMDL
MODEL 6
REMARK VINA RESULT:    -5.098      6.875      8.377
REMARK INTER + INTRA:          -5.565
REMARK INTER:                  -5.421
REMARK INTRA:                  -0.144
REMARK UNBOUND:                -0.168
REMARK SMILES CC1=CC=C(C(C)C)CC1
REMARK SMILES IDX 1 1 2 2 3 3 4 4 5 5 9 6 10 7 6 8 7 9 8 10
REMARK H PARENT
REMARK Flexibility Score: inf
ROOT
ATOM      1  C   UNL     1      11.879  33.438  19.833  1.00  0.00     0.039 C 
ATOM      2  C   UNL     1      11.260  33.487  21.199  1.00  0.00    -0.073 C 
ATOM      3  C   UNL     1      10.000  33.923  21.347  1.00  0.00    -0.001 C 
ATOM      4  C   UNL     1       9.371  33.976  22.682  1.00  0.00    -0.001 C 
ATOM      5  C   UNL     1       9.945  33.378  23.741  1.00  0.00    -0.067 C 
ATOM      6  C   UNL     1      11.193  32.544  23.526  1.00  0.00     0.035 C 
ATOM      7  C   UNL     1      12.079  33.140  22.422  1.00  0.00     0.035 C 
ENDROOT
BRANCH   5   8
ATOM      8  C   UNL     1       9.318  33.501  25.119  1.00  0.00     0.009 C 
ATOM      9  C   UNL     1       7.870  32.998  25.117  1.00  0.00     0.012 C 
ATOM     10  C   UNL     1      10.156  32.760  26.166  1.00  0.00     0.012 C 
ENDBRANCH   5   8
TORSDOF 1
ENDMDL
MODEL 7
REMARK VINA RESULT:    -5.076      6.026      8.156
REMARK INTER + INTRA:          -5.542
REMARK INTER:                  -5.370
REMARK INTRA:                  -0.172
REMARK UNBOUND:                -0.168
REMARK SMILES CC1=CC=C(C(C)C)CC1
REMARK SMILES IDX 1 1 2 2 3 3 4 4 5 5 9 6 10 7 6 8 7 9 8 10
REMARK H PARENT
REMARK Flexibility Score: inf
ROOT
ATOM      1  C   UNL     1       8.115  33.529  24.682  1.00  0.00     0.039 C 
ATOM      2  C   UNL     1       9.275  33.455  23.733  1.00  0.00    -0.073 C 
ATOM      3  C   UNL     1      10.343  32.702  24.039  1.00  0.00    -0.001 C 
ATOM      4  C   UNL     1      11.492  32.613  23.118  1.00  0.00    -0.001 C 
ATOM      5  C   UNL     1      11.410  33.084  21.861  1.00  0.00    -0.067 C 
ATOM      6  C   UNL     1      10.077  33.604  21.357  1.00  0.00     0.035 C 
ATOM      7  C   UNL     1       9.291  34.299  22.479  1.00  0.00     0.035 C 
ENDROOT
BRANCH   5   8
ATOM      8  C   UNL     1      12.625  33.044  20.950  1.00  0.00     0.009 C 
ATOM      9  C   UNL     1      12.473  34.020  19.778  1.00  0.00     0.012 C 
ATOM     10  C   UNL     1      13.907  33.328  21.740  1.00  0.00     0.012 C 
ENDBRANCH   5   8
TORSDOF 1
ENDMDL
MODEL 8
REMARK VINA RESULT:    -4.977      8.529      9.840
REMARK INTER + INTRA:          -5.437
REMARK INTER:                  -5.263
REMARK INTRA:                  -0.173
REMARK UNBOUND:                -0.168
REMARK SMILES CC1=CC=C(C(C)C)CC1
REMARK SMILES IDX 1 1 2 2 3 3 4 4 5 5 9 6 10 7 6 8 7 9 8 10
REMARK H PARENT
REMARK Flexibility Score: inf
ROOT
ATOM      1  C   UNL     1       8.817  34.603  19.906  1.00  0.00     0.039 C 
ATOM      2  C   UNL     1       8.648  34.027  21.281  1.00  0.00    -0.073 C 
ATOM      3  C   UNL     1       9.558  34.286  22.232  1.00  0.00    -0.001 C 
ATOM      4  C   UNL     1       9.409  33.733  23.592  1.00  0.00    -0.001 C 
ATOM      5  C   UNL     1       8.257  33.158  23.982  1.00  0.00    -0.067 C 
ATOM      6  C   UNL     1       7.066  33.190  23.044  1.00  0.00     0.035 C 
ATOM      7  C   UNL     1       7.509  33.078  21.577  1.00  0.00     0.035 C 
ENDROOT
BRANCH   5   8
ATOM      8  C   UNL     1       8.145  32.534  25.363  1.00  0.00     0.009 C 
ATOM      9  C   UNL     1       7.442  31.173  25.301  1.00  0.00     0.012 C 
ATOM     10  C   UNL     1       9.525  32.411  26.017  1.00  0.00     0.012 C 
ENDBRANCH   5   8
TORSDOF 1
ENDMDL
MODEL 9
REMARK VINA RESULT:    -4.940      7.908     10.178
REMARK INTER + INTRA:          -5.397
REMARK INTER:                  -5.225
REMARK INTRA:                  -0.173
REMARK UNBOUND:                -0.168
REMARK SMILES CC1=CC=C(C(C)C)CC1
REMARK SMILES IDX 1 1 2 2 3 3 4 4 5 5 9 6 10 7 6 8 7 9 8 10
REMARK H PARENT
REMARK Flexibility Score: inf
ROOT
ATOM      1  C   UNL     1      10.035  32.464  26.488  1.00  0.00     0.039 C 
ATOM      2  C   UNL     1       9.476  32.794  25.135  1.00  0.00    -0.073 C 
ATOM      3  C   UNL     1       8.187  32.540  24.864  1.00  0.00    -0.001 C 
ATOM      4  C   UNL     1       7.617  32.860  23.540  1.00  0.00    -0.001 C 
ATOM      5  C   UNL     1       8.294  33.618  22.660  1.00  0.00    -0.067 C 
ATOM      6  C   UNL     1       9.608  34.244  23.088  1.00  0.00     0.035 C 
ATOM      7  C   UNL     1      10.379  33.321  24.043  1.00  0.00     0.035 C 
ENDROOT
BRANCH   5   8
ATOM      8  C   UNL     1       7.720  33.880  21.278  1.00  0.00     0.009 C 
ATOM      9  C   UNL     1       8.820  34.273  20.285  1.00  0.00     0.012 C 
ATOM     10  C   UNL     1       6.935  32.663  20.776  1.00  0.00     0.012 C 
ENDBRANCH   5   8
TORSDOF 1
ENDMDL
