MODEL 1
REMARK VINA RESULT:    -1.142      0.000      0.000
REMARK INTER + INTRA:          -1.131
REMARK INTER:                  -1.543
REMARK INTRA:                   0.412
REMARK UNBOUND:                 0.412
REMARK SMILES CC[C@H](CC[C@H](C)[C@H]1CC[C@@H]2[C@@H]3CC(=O)C4=CC(=O)CC[C@@]4(C)[C@H]3CC[C@@]21C)C(C)C
REMARK SMILES IDX 4 1 3 2 2 3 1 4 29 5 30 6 31 7 5 8 6 9 7 10 8 11 9 12 27 13
REMARK SMILES IDX 10 14 11 15 26 16 28 17 12 18 25 19 24 20 13 21 22 22 14 23
REMARK SMILES IDX 16 24 21 25 23 26 15 27 17 28 20 29 18 30 19 31
REMARK H PARENT
REMARK Flexibility Score: inf
ROOT
ATOM      1  C   UNL     1      18.793 199.632  16.661  1.00  0.00     0.004 C 
ENDROOT
BRANCH   1   2
ATOM      2  C   UNL     1      19.308 198.175  16.461  1.00  0.00    -0.009 C 
BRANCH   2   3
ATOM      3  C   UNL     1      20.817 198.207  16.076  1.00  0.00     0.000 C 
ATOM      4  C   UNL     1      21.301 196.982  15.300  1.00  0.00     0.004 C 
ENDBRANCH   2   3
BRANCH   2   5
ATOM      5  C   UNL     1      18.961 197.298  17.716  1.00  0.00    -0.014 C 
ATOM      6  C   UNL     1      17.764 197.823  18.524  1.00  0.00     0.007 C 
ATOM      7  C   UNL     1      20.167 197.036  18.633  1.00  0.00     0.007 C 
ENDBRANCH   2   5
ENDBRANCH   1   2
BRANCH   1   8
ATOM      8  C   UNL     1      19.655 200.677  15.921  1.00  0.00     0.004 C 
BRANCH   8   9
ATOM      9  C   UNL     1      19.013 201.165  14.592  1.00  0.00    -0.011 C 
ATOM     10  C   UNL     1      19.238 200.133  13.464  1.00  0.00     0.008 C 
BRANCH   9  11
ATOM     11  C   UNL     1      19.514 202.617  14.237  1.00  0.00    -0.002 C 
ATOM     12  C   UNL     1      18.417 203.675  14.404  1.00  0.00     0.005 C 
ATOM     13  C   UNL     1      20.765 203.179  15.016  1.00  0.00    -0.026 C 
ATOM     14  C   UNL     1      18.692 204.385  15.718  1.00  0.00     0.005 C 
ATOM     15  C   UNL     1      20.205 204.270  15.990  1.00  0.00    -0.001 C 
ATOM     16  C   UNL     1      21.805 203.778  14.004  1.00  0.00     0.007 C 
ATOM     17  C   UNL     1      21.546 202.105  15.823  1.00  0.00     0.012 C 
ATOM     18  C   UNL     1      20.967 205.622  15.869  1.00  0.00     0.004 C 
ATOM     19  C   UNL     1      21.425 205.137  13.387  1.00  0.00     0.005 C 
ATOM     20  C   UNL     1      20.898 206.193  14.414  1.00  0.00     0.003 C 
ATOM     21  C   UNL     1      20.538 206.656  16.933  1.00  0.00     0.085 C 
ATOM     22  C   UNL     1      21.429 207.705  14.292  1.00  0.00    -0.000 C 
ATOM     23  C   UNL     1      21.457 207.838  16.865  1.00  0.00     0.159 C 
ATOM     24  C   UNL     1      22.149 208.119  15.589  1.00  0.00     0.005 C 
ATOM     25  C   UNL     1      22.302 208.018  13.021  1.00  0.00     0.020 C 
ATOM     26  C   UNL     1      20.191 208.643  14.173  1.00  0.00     0.017 C 
ATOM     27  O   UNL     1      21.643 208.559  17.883  1.00  0.00    -0.295 OA
ATOM     28  C   UNL     1      23.409 208.587  15.617  1.00  0.00     0.055 C 
ATOM     29  C   UNL     1      23.802 207.791  13.228  1.00  0.00     0.081 C 
ATOM     30  C   UNL     1      24.251 208.569  14.418  1.00  0.00     0.156 C 
ATOM     31  O   UNL     1      25.382 209.125  14.430  1.00  0.00    -0.295 OA
ENDBRANCH   9  11
ENDBRANCH   8   9
ENDBRANCH   1   8
TORSDOF 6
ENDMDL
MODEL 2
REMARK VINA RESULT:    -0.676      0.451      1.466
REMARK INTER + INTRA:          -0.501
REMARK INTER:                  -0.864
REMARK INTRA:                   0.363
REMARK UNBOUND:                 0.412
REMARK SMILES CC[C@H](CC[C@H](C)[C@H]1CC[C@@H]2[C@@H]3CC(=O)C4=CC(=O)CC[C@@]4(C)[C@H]3CC[C@@]21C)C(C)C
REMARK SMILES IDX 4 1 3 2 2 3 1 4 29 5 30 6 31 7 5 8 6 9 7 10 8 11 9 12 27 13
REMARK SMILES IDX 10 14 11 15 26 16 28 17 12 18 25 19 24 20 13 21 22 22 14 23
REMARK SMILES IDX 16 24 21 25 23 26 15 27 17 28 20 29 18 30 19 31
REMARK H PARENT
REMARK Flexibility Score: inf
ROOT
ATOM      1  C   UNL     1      18.907 199.324  16.114  1.00  0.00     0.004 C 
ENDROOT
BRANCH   1   2
ATOM      2  C   UNL     1      19.813 198.437  17.020  1.00  0.00    -0.009 C 
BRANCH   2   3
ATOM      3  C   UNL     1      18.937 197.374  17.747  1.00  0.00     0.000 C 
ATOM      4  C   UNL     1      17.569 197.883  18.202  1.00  0.00     0.004 C 
ENDBRANCH   2   3
BRANCH   2   5
ATOM      5  C   UNL     1      21.009 197.852  16.187  1.00  0.00    -0.014 C 
ATOM      6  C   UNL     1      20.736 196.453  15.615  1.00  0.00     0.007 C 
ATOM      7  C   UNL     1      22.352 197.885  16.936  1.00  0.00     0.007 C 
ENDBRANCH   2   5
ENDBRANCH   1   2
BRANCH   1   8
ATOM      8  C   UNL     1      19.639 200.574  15.581  1.00  0.00     0.004 C 
BRANCH   8   9
ATOM      9  C   UNL     1      19.036 201.114  14.254  1.00  0.00    -0.011 C 
ATOM     10  C   UNL     1      19.306 200.132  13.091  1.00  0.00     0.008 C 
BRANCH   9  11
ATOM     11  C   UNL     1      19.535 202.583  13.977  1.00  0.00    -0.002 C 
ATOM     12  C   UNL     1      18.422 203.625  14.150  1.00  0.00     0.005 C 
ATOM     13  C   UNL     1      20.754 203.122  14.821  1.00  0.00    -0.026 C 
ATOM     14  C   UNL     1      18.646 204.281  15.501  1.00  0.00     0.005 C 
ATOM     15  C   UNL     1      20.150 204.167  15.820  1.00  0.00    -0.001 C 
ATOM     16  C   UNL     1      21.822 203.771  13.871  1.00  0.00     0.007 C 
ATOM     17  C   UNL     1      21.517 202.021  15.609  1.00  0.00     0.012 C 
ATOM     18  C   UNL     1      20.903 205.529  15.781  1.00  0.00     0.004 C 
ATOM     19  C   UNL     1      21.449 205.152  13.298  1.00  0.00     0.005 C 
ATOM     20  C   UNL     1      20.878 206.160  14.349  1.00  0.00     0.003 C 
ATOM     21  C   UNL     1      20.428 206.514  16.872  1.00  0.00     0.085 C 
ATOM     22  C   UNL     1      21.398 207.680  14.309  1.00  0.00    -0.000 C 
ATOM     23  C   UNL     1      21.338 207.706  16.884  1.00  0.00     0.159 C 
ATOM     24  C   UNL     1      22.070 208.045  15.646  1.00  0.00     0.005 C 
ATOM     25  C   UNL     1      22.310 208.053  13.083  1.00  0.00     0.020 C 
ATOM     26  C   UNL     1      20.157 208.612  14.187  1.00  0.00     0.017 C 
ATOM     27  O   UNL     1      21.483 208.385  17.937  1.00  0.00    -0.295 OA
ATOM     28  C   UNL     1      23.324 208.522  15.736  1.00  0.00     0.055 C 
ATOM     29  C   UNL     1      23.805 207.830  13.331  1.00  0.00     0.081 C 
ATOM     30  C   UNL     1      24.206 208.561  14.567  1.00  0.00     0.156 C 
ATOM     31  O   UNL     1      25.330 209.125  14.641  1.00  0.00    -0.295 OA
ENDBRANCH   9  11
ENDBRANCH   8   9
ENDBRANCH   1   8
TORSDOF 6
ENDMDL
