MODEL 1
REMARK VINA RESULT:    -5.328      0.000      0.000
REMARK INTER + INTRA:          -6.397
REMARK INTER:                  -6.262
REMARK INTRA:                  -0.134
REMARK UNBOUND:                -0.134
REMARK SMILES O=C([O-])C=Cc1ccc(O)c(O)c1
REMARK SMILES IDX 6 1 13 2 7 3 11 4 8 5 9 6 5 7 4 8 2 9 1 10 3 11 12 12 10 14
REMARK H PARENT 12 13 10 15
REMARK Flexibility Score: inf
ROOT
ATOM      1  C   UNL     1      -6.043  37.868  19.727  1.00  0.00    -0.022 A 
ATOM      2  C   UNL     1      -7.038  38.795  20.077  1.00  0.00     0.058 A 
ATOM      3  C   UNL     1      -5.476  37.065  20.737  1.00  0.00     0.012 A 
ATOM      4  C   UNL     1      -7.482  38.904  21.403  1.00  0.00     0.157 A 
ATOM      5  C   UNL     1      -5.918  37.174  22.058  1.00  0.00     0.051 A 
ATOM      6  C   UNL     1      -6.922  38.090  22.394  1.00  0.00     0.157 A 
ENDROOT
BRANCH   1   7
ATOM      7  C   UNL     1      -5.602  37.800  18.312  1.00  0.00     0.010 C 
ATOM      8  C   UNL     1      -4.318  37.740  17.933  1.00  0.00     0.025 C 
BRANCH   8   9
ATOM      9  C   UNL     1      -3.926  37.661  16.518  1.00  0.00     0.064 C 
ATOM     10  O   UNL     1      -3.699  38.719  15.875  1.00  0.00    -0.545 OA
ATOM     11  O   UNL     1      -3.802  36.434  15.876  1.00  0.00    -0.545 OA
ENDBRANCH   8   9
ENDBRANCH   1   7
BRANCH   4  12
ATOM     12  O   UNL     1      -8.477  39.819  21.741  1.00  0.00    -0.504 OA
ATOM     13  H   UNL     1      -8.261  40.790  21.939  1.00  0.00     0.293 HD
ENDBRANCH   4  12
BRANCH   6  14
ATOM     14  O   UNL     1      -7.365  38.201  23.711  1.00  0.00    -0.504 OA
ATOM     15  H   UNL     1      -7.782  39.057  24.060  1.00  0.00     0.293 HD
ENDBRANCH   6  14
TORSDOF 4
ENDMDL
MODEL 2
REMARK VINA RESULT:    -5.308      1.704      2.602
REMARK INTER + INTRA:          -6.373
REMARK INTER:                  -6.235
REMARK INTRA:                  -0.138
REMARK UNBOUND:                -0.134
REMARK SMILES O=C([O-])C=Cc1ccc(O)c(O)c1
REMARK SMILES IDX 6 1 13 2 7 3 11 4 8 5 9 6 5 7 4 8 2 9 1 10 3 11 12 12 10 14
REMARK H PARENT 12 13 10 15
REMARK Flexibility Score: inf
ROOT
ATOM      1  C   UNL     1      -5.013  37.839  20.325  1.00  0.00    -0.022 A 
ATOM      2  C   UNL     1      -5.506  37.482  21.590  1.00  0.00     0.058 A 
ATOM      3  C   UNL     1      -5.720  38.791  19.563  1.00  0.00     0.012 A 
ATOM      4  C   UNL     1      -6.668  38.078  22.101  1.00  0.00     0.157 A 
ATOM      5  C   UNL     1      -6.878  39.385  20.072  1.00  0.00     0.051 A 
ATOM      6  C   UNL     1      -7.353  39.034  21.341  1.00  0.00     0.157 A 
ENDROOT
BRANCH   1   7
ATOM      7  C   UNL     1      -3.786  37.170  19.826  1.00  0.00     0.010 C 
ATOM      8  C   UNL     1      -3.256  37.392  18.615  1.00  0.00     0.025 C 
BRANCH   8   9
ATOM      9  C   UNL     1      -2.029  36.715  18.166  1.00  0.00     0.064 C 
ATOM     10  O   UNL     1      -2.088  35.524  17.764  1.00  0.00    -0.545 OA
ATOM     11  O   UNL     1      -0.803  37.370  18.180  1.00  0.00    -0.545 OA
ENDBRANCH   8   9
ENDBRANCH   1   7
BRANCH   4  12
ATOM     12  O   UNL     1      -7.147  37.726  23.362  1.00  0.00    -0.504 OA
ATOM     13  H   UNL     1      -8.114  37.877  23.624  1.00  0.00     0.293 HD
ENDBRANCH   4  12
BRANCH   6  14
ATOM     14  O   UNL     1      -8.507  39.625  21.852  1.00  0.00    -0.504 OA
ATOM     15  H   UNL     1      -8.957  39.273  22.690  1.00  0.00     0.293 HD
ENDBRANCH   6  14
TORSDOF 4
ENDMDL
MODEL 3
REMARK VINA RESULT:    -4.892     13.010     15.104
REMARK INTER + INTRA:          -5.885
REMARK INTER:                  -5.753
REMARK INTRA:                  -0.132
REMARK UNBOUND:                -0.134
REMARK SMILES O=C([O-])C=Cc1ccc(O)c(O)c1
REMARK SMILES IDX 6 1 13 2 7 3 11 4 8 5 9 6 5 7 4 8 2 9 1 10 3 11 12 12 10 14
REMARK H PARENT 12 13 10 15
REMARK Flexibility Score: inf
ROOT
ATOM      1  C   UNL     1      -5.213  35.704  34.660  1.00  0.00    -0.022 A 
ATOM      2  C   UNL     1      -4.887  34.366  34.383  1.00  0.00     0.058 A 
ATOM      3  C   UNL     1      -6.372  35.980  35.414  1.00  0.00     0.012 A 
ATOM      4  C   UNL     1      -5.684  33.319  34.870  1.00  0.00     0.157 A 
ATOM      5  C   UNL     1      -7.165  34.936  35.898  1.00  0.00     0.051 A 
ATOM      6  C   UNL     1      -6.823  33.605  35.631  1.00  0.00     0.157 A 
ENDROOT
BRANCH   1   7
ATOM      7  C   UNL     1      -4.344  36.775  34.112  1.00  0.00     0.010 C 
ATOM      8  C   UNL     1      -3.867  36.780  32.860  1.00  0.00     0.025 C 
BRANCH   8   9
ATOM      9  C   UNL     1      -3.018  37.870  32.354  1.00  0.00     0.064 C 
ATOM     10  O   UNL     1      -2.930  38.943  33.005  1.00  0.00    -0.545 OA
ATOM     11  O   UNL     1      -2.310  37.733  31.165  1.00  0.00    -0.545 OA
ENDBRANCH   8   9
ENDBRANCH   1   7
BRANCH   4  12
ATOM     12  O   UNL     1      -5.348  31.993  34.600  1.00  0.00    -0.504 OA
ATOM     13  H   UNL     1      -4.570  31.538  35.063  1.00  0.00     0.293 HD
ENDBRANCH   4  12
BRANCH   6  14
ATOM     14  O   UNL     1      -7.611  32.563  36.113  1.00  0.00    -0.504 OA
ATOM     15  H   UNL     1      -7.259  31.906  36.802  1.00  0.00     0.293 HD
ENDBRANCH   6  14
TORSDOF 4
ENDMDL
MODEL 4
REMARK VINA RESULT:    -4.803      2.031      2.602
REMARK INTER + INTRA:          -5.779
REMARK INTER:                  -5.654
REMARK INTRA:                  -0.125
REMARK UNBOUND:                -0.134
REMARK SMILES O=C([O-])C=Cc1ccc(O)c(O)c1
REMARK SMILES IDX 6 1 13 2 7 3 11 4 8 5 9 6 5 7 4 8 2 9 1 10 3 11 12 12 10 14
REMARK H PARENT 12 13 10 15
REMARK Flexibility Score: inf
ROOT
ATOM      1  C   UNL     1      -5.116  38.667  19.479  1.00  0.00    -0.022 A 
ATOM      2  C   UNL     1      -4.948  39.632  20.486  1.00  0.00     0.058 A 
ATOM      3  C   UNL     1      -6.393  38.104  19.283  1.00  0.00     0.012 A 
ATOM      4  C   UNL     1      -6.035  40.050  21.267  1.00  0.00     0.157 A 
ATOM      5  C   UNL     1      -7.476  38.521  20.061  1.00  0.00     0.051 A 
ATOM      6  C   UNL     1      -7.302  39.495  21.051  1.00  0.00     0.157 A 
ENDROOT
BRANCH   1   7
ATOM      7  C   UNL     1      -3.931  38.251  18.689  1.00  0.00     0.010 C 
ATOM      8  C   UNL     1      -3.006  37.388  19.130  1.00  0.00     0.025 C 
BRANCH   8   9
ATOM      9  C   UNL     1      -1.852  36.993  18.307  1.00  0.00     0.064 C 
ATOM     10  O   UNL     1      -1.903  35.932  17.633  1.00  0.00    -0.545 OA
ATOM     11  O   UNL     1      -0.703  37.775  18.262  1.00  0.00    -0.545 OA
ENDBRANCH   8   9
ENDBRANCH   1   7
BRANCH   4  12
ATOM     12  O   UNL     1      -5.863  41.016  22.257  1.00  0.00    -0.504 OA
ATOM     13  H   UNL     1      -5.449  41.918  22.053  1.00  0.00     0.293 HD
ENDBRANCH   4  12
BRANCH   6  14
ATOM     14  O   UNL     1      -8.380  39.914  21.829  1.00  0.00    -0.504 OA
ATOM     15  H   UNL     1      -9.300  40.059  21.426  1.00  0.00     0.293 HD
ENDBRANCH   6  14
TORSDOF 4
ENDMDL
MODEL 5
REMARK VINA RESULT:    -4.773     17.362     19.017
REMARK INTER + INTRA:          -5.744
REMARK INTER:                  -5.609
REMARK INTRA:                  -0.135
REMARK UNBOUND:                -0.134
REMARK SMILES O=C([O-])C=Cc1ccc(O)c(O)c1
REMARK SMILES IDX 6 1 13 2 7 3 11 4 8 5 9 6 5 7 4 8 2 9 1 10 3 11 12 12 10 14
REMARK H PARENT 12 13 10 15
REMARK Flexibility Score: inf
ROOT
ATOM      1  C   UNL     1      -6.330  25.512  33.832  1.00  0.00    -0.022 A 
ATOM      2  C   UNL     1      -7.343  26.076  34.625  1.00  0.00     0.058 A 
ATOM      3  C   UNL     1      -5.381  26.366  33.233  1.00  0.00     0.012 A 
ATOM      4  C   UNL     1      -7.399  27.461  34.840  1.00  0.00     0.157 A 
ATOM      5  C   UNL     1      -5.437  27.745  33.447  1.00  0.00     0.051 A 
ATOM      6  C   UNL     1      -6.442  28.296  34.252  1.00  0.00     0.157 A 
ENDROOT
BRANCH   1   7
ATOM      7  C   UNL     1      -6.323  24.043  33.627  1.00  0.00     0.010 C 
ATOM      8  C   UNL     1      -6.292  23.459  32.421  1.00  0.00     0.025 C 
BRANCH   8   9
ATOM      9  C   UNL     1      -6.273  21.996  32.264  1.00  0.00     0.064 C 
ATOM     10  O   UNL     1      -5.700  21.285  33.129  1.00  0.00    -0.545 OA
ATOM     11  O   UNL     1      -6.880  21.385  31.172  1.00  0.00    -0.545 OA
ENDBRANCH   8   9
ENDBRANCH   1   7
BRANCH   4  12
ATOM     12  O   UNL     1      -8.401  28.011  35.636  1.00  0.00    -0.504 OA
ATOM     13  H   UNL     1      -8.517  27.742  36.606  1.00  0.00     0.293 HD
ENDBRANCH   4  12
BRANCH   6  14
ATOM     14  O   UNL     1      -6.499  29.671  34.469  1.00  0.00    -0.504 OA
ATOM     15  H   UNL     1      -7.365  30.189  34.364  1.00  0.00     0.293 HD
ENDBRANCH   6  14
TORSDOF 4
ENDMDL
MODEL 6
REMARK VINA RESULT:    -4.741      1.642      1.894
REMARK INTER + INTRA:          -5.706
REMARK INTER:                  -5.566
REMARK INTRA:                  -0.140
REMARK UNBOUND:                -0.134
REMARK SMILES O=C([O-])C=Cc1ccc(O)c(O)c1
REMARK SMILES IDX 6 1 13 2 7 3 11 4 8 5 9 6 5 7 4 8 2 9 1 10 3 11 12 12 10 14
REMARK H PARENT 12 13 10 15
REMARK Flexibility Score: inf
ROOT
ATOM      1  C   UNL     1      -4.654  37.540  19.947  1.00  0.00    -0.022 A 
ATOM      2  C   UNL     1      -5.830  38.308  19.925  1.00  0.00     0.058 A 
ATOM      3  C   UNL     1      -4.343  36.805  21.109  1.00  0.00     0.012 A 
ATOM      4  C   UNL     1      -6.696  38.325  21.028  1.00  0.00     0.157 A 
ATOM      5  C   UNL     1      -5.207  36.822  22.208  1.00  0.00     0.051 A 
ATOM      6  C   UNL     1      -6.385  37.577  22.170  1.00  0.00     0.157 A 
ENDROOT
BRANCH   1   7
ATOM      7  C   UNL     1      -3.766  37.567  18.758  1.00  0.00     0.010 C 
ATOM      8  C   UNL     1      -2.560  36.983  18.716  1.00  0.00     0.025 C 
BRANCH   8   9
ATOM      9  C   UNL     1      -1.718  37.024  17.510  1.00  0.00     0.064 C 
ATOM     10  O   UNL     1      -0.687  36.304  17.447  1.00  0.00    -0.545 OA
ATOM     11  O   UNL     1      -2.041  37.847  16.437  1.00  0.00    -0.545 OA
ENDBRANCH   8   9
ENDBRANCH   1   7
BRANCH   4  12
ATOM     12  O   UNL     1      -7.866  39.081  20.995  1.00  0.00    -0.504 OA
ATOM     13  H   UNL     1      -8.564  38.948  20.271  1.00  0.00     0.293 HD
ENDBRANCH   4  12
BRANCH   6  14
ATOM     14  O   UNL     1      -7.248  37.595  23.263  1.00  0.00    -0.504 OA
ATOM     15  H   UNL     1      -7.940  36.868  23.405  1.00  0.00     0.293 HD
ENDBRANCH   6  14
TORSDOF 4
ENDMDL
MODEL 7
REMARK VINA RESULT:    -4.653      1.350      2.223
REMARK INTER + INTRA:          -5.603
REMARK INTER:                  -5.478
REMARK INTRA:                  -0.125
REMARK UNBOUND:                -0.134
REMARK SMILES O=C([O-])C=Cc1ccc(O)c(O)c1
REMARK SMILES IDX 6 1 13 2 7 3 11 4 8 5 9 6 5 7 4 8 2 9 1 10 3 11 12 12 10 14
REMARK H PARENT 12 13 10 15
REMARK Flexibility Score: inf
ROOT
ATOM      1  C   UNL     1      -5.420  38.124  19.470  1.00  0.00    -0.022 A 
ATOM      2  C   UNL     1      -4.846  37.238  20.396  1.00  0.00     0.058 A 
ATOM      3  C   UNL     1      -6.583  38.832  19.836  1.00  0.00     0.012 A 
ATOM      4  C   UNL     1      -5.402  37.078  21.674  1.00  0.00     0.157 A 
ATOM      5  C   UNL     1      -7.137  38.671  21.109  1.00  0.00     0.051 A 
ATOM      6  C   UNL     1      -6.548  37.798  22.031  1.00  0.00     0.157 A 
ENDROOT
BRANCH   1   7
ATOM      7  C   UNL     1      -4.800  38.249  18.128  1.00  0.00     0.010 C 
ATOM      8  C   UNL     1      -3.599  38.803  17.910  1.00  0.00     0.025 C 
BRANCH   8   9
ATOM      9  C   UNL     1      -3.016  38.895  16.563  1.00  0.00     0.064 C 
ATOM     10  O   UNL     1      -3.124  39.966  15.910  1.00  0.00    -0.545 OA
ATOM     11  O   UNL     1      -2.348  37.816  15.996  1.00  0.00    -0.545 OA
ENDBRANCH   8   9
ENDBRANCH   1   7
BRANCH   4  12
ATOM     12  O   UNL     1      -4.821  36.205  22.592  1.00  0.00    -0.504 OA
ATOM     13  H   UNL     1      -4.097  35.550  22.317  1.00  0.00     0.293 HD
ENDBRANCH   4  12
BRANCH   6  14
ATOM     14  O   UNL     1      -7.097  37.636  23.301  1.00  0.00    -0.504 OA
ATOM     15  H   UNL     1      -8.098  37.556  23.440  1.00  0.00     0.293 HD
ENDBRANCH   6  14
TORSDOF 4
ENDMDL
MODEL 8
REMARK VINA RESULT:    -4.613     11.307     14.187
REMARK INTER + INTRA:          -5.557
REMARK INTER:                  -5.415
REMARK INTRA:                  -0.142
REMARK UNBOUND:                -0.134
REMARK SMILES O=C([O-])C=Cc1ccc(O)c(O)c1
REMARK SMILES IDX 6 1 13 2 7 3 11 4 8 5 9 6 5 7 4 8 2 9 1 10 3 11 12 12 10 14
REMARK H PARENT 12 13 10 15
REMARK Flexibility Score: inf
ROOT
ATOM      1  C   UNL     1      -3.777  36.299  32.539  1.00  0.00    -0.022 A 
ATOM      2  C   UNL     1      -3.335  37.625  32.684  1.00  0.00     0.058 A 
ATOM      3  C   UNL     1      -3.560  35.640  31.312  1.00  0.00     0.012 A 
ATOM      4  C   UNL     1      -2.664  38.275  31.638  1.00  0.00     0.157 A 
ATOM      5  C   UNL     1      -2.891  36.288  30.270  1.00  0.00     0.051 A 
ATOM      6  C   UNL     1      -2.439  37.604  30.430  1.00  0.00     0.157 A 
ENDROOT
BRANCH   1   7
ATOM      7  C   UNL     1      -4.492  35.661  33.672  1.00  0.00     0.010 C 
ATOM      8  C   UNL     1      -4.827  34.364  33.706  1.00  0.00     0.025 C 
BRANCH   8   9
ATOM      9  C   UNL     1      -5.524  33.770  34.857  1.00  0.00     0.064 C 
ATOM     10  O   UNL     1      -6.009  34.519  35.745  1.00  0.00    -0.545 OA
ATOM     11  O   UNL     1      -5.656  32.391  34.981  1.00  0.00    -0.545 OA
ENDBRANCH   8   9
ENDBRANCH   1   7
BRANCH   4  12
ATOM     12  O   UNL     1      -2.218  39.586  31.793  1.00  0.00    -0.504 OA
ATOM     13  H   UNL     1      -2.865  40.354  31.933  1.00  0.00     0.293 HD
ENDBRANCH   4  12
BRANCH   6  14
ATOM     14  O   UNL     1      -1.772  38.252  29.393  1.00  0.00    -0.504 OA
ATOM     15  H   UNL     1      -1.893  37.971  28.427  1.00  0.00     0.293 HD
ENDBRANCH   6  14
TORSDOF 4
ENDMDL
MODEL 9
REMARK VINA RESULT:    -4.536      2.109      2.360
REMARK INTER + INTRA:          -5.466
REMARK INTER:                  -5.327
REMARK INTRA:                  -0.138
REMARK UNBOUND:                -0.134
REMARK SMILES O=C([O-])C=Cc1ccc(O)c(O)c1
REMARK SMILES IDX 6 1 13 2 7 3 11 4 8 5 9 6 5 7 4 8 2 9 1 10 3 11 12 12 10 14
REMARK H PARENT 12 13 10 15
REMARK Flexibility Score: inf
ROOT
ATOM      1  C   UNL     1      -4.991  39.064  20.274  1.00  0.00    -0.022 A 
ATOM      2  C   UNL     1      -6.238  39.618  20.608  1.00  0.00     0.058 A 
ATOM      3  C   UNL     1      -4.509  37.973  21.025  1.00  0.00     0.012 A 
ATOM      4  C   UNL     1      -7.005  39.081  21.652  1.00  0.00     0.157 A 
ATOM      5  C   UNL     1      -5.273  37.438  22.066  1.00  0.00     0.051 A 
ATOM      6  C   UNL     1      -6.522  37.987  22.380  1.00  0.00     0.157 A 
ENDROOT
BRANCH   1   7
ATOM      7  C   UNL     1      -4.215  39.677  19.168  1.00  0.00     0.010 C 
ATOM      8  C   UNL     1      -2.880  39.792  19.169  1.00  0.00     0.025 C 
BRANCH   8   9
ATOM      9  C   UNL     1      -2.149  40.396  18.044  1.00  0.00     0.064 C 
ATOM     10  O   UNL     1      -0.900  40.535  18.117  1.00  0.00    -0.545 OA
ATOM     11  O   UNL     1      -2.817  40.818  16.900  1.00  0.00    -0.545 OA
ENDBRANCH   8   9
ENDBRANCH   1   7
BRANCH   4  12
ATOM     12  O   UNL     1      -8.246  39.629  21.971  1.00  0.00    -0.504 OA
ATOM     13  H   UNL     1      -8.358  40.619  22.156  1.00  0.00     0.293 HD
ENDBRANCH   4  12
BRANCH   6  14
ATOM     14  O   UNL     1      -7.287  37.455  23.416  1.00  0.00    -0.504 OA
ATOM     15  H   UNL     1      -7.022  36.595  23.883  1.00  0.00     0.293 HD
ENDBRANCH   6  14
TORSDOF 4
ENDMDL
