MODEL 1
REMARK VINA RESULT:    -4.472      0.000      0.000
REMARK INTER + INTRA:          -4.237
REMARK INTER:                  -6.302
REMARK INTRA:                   2.064
REMARK UNBOUND:                 2.064
REMARK SMILES CC1=CCC(=C(C)C)C(=O)CC(C)=CCC1
REMARK SMILES IDX 12 1 14 2 13 3 15 4 16 5 2 6 1 7 3 8 11 10 9 11 10 12 5 13
REMARK SMILES IDX 6 14 7 15 8 16 4 17
REMARK H PARENT
REMARK Flexibility Score: 60.00
ROOT
ATOM      1  C   UNL     1      72.731  61.419  28.184  1.00  0.00    -0.070 C 
ATOM      2  C   UNL     1      72.862  62.508  27.383  1.00  0.00    -0.027 C 
ATOM      3  C   UNL     1      73.984  60.640  28.502  1.00  0.00     0.039 C 
ENDROOT
BRANCH   2   4
ATOM      4  C   UNL     1      71.739  63.368  26.857  1.00  0.00     0.032 C 
BRANCH   4   5
ATOM      5  C   UNL     1      70.538  62.556  26.355  1.00  0.00     0.034 C 
BRANCH   5   6
ATOM      6  C   UNL     1      70.900  61.815  25.082  1.00  0.00    -0.077 C 
ATOM      7  C   UNL     1      71.753  62.524  24.061  1.00  0.00     0.039 C 
ATOM      8  C   UNL     1      70.564  60.525  24.849  1.00  0.00    -0.023 CG0
ATOM      9  G   UNL     1      69.705  59.661  25.742  1.00  0.00     0.000 G0
ENDBRANCH   5   6
ENDBRANCH   4   5
ENDBRANCH   2   4
BRANCH   1  10
ATOM     10  C   UNL     1      71.425  60.985  28.842  1.00  0.00     0.111 C 
BRANCH  10  11
ATOM     11  C   UNL     1      70.714  59.872  28.114  1.00  0.00     0.163 C 
ATOM     12  O   UNL     1      71.069  58.688  28.366  1.00  0.00    -0.294 OA
BRANCH  11  13
ATOM     13  C   UNL     1      69.578  60.120  27.164  1.00  0.00    -0.002 C 
ATOM     14  C   UNL     1      68.431  60.734  27.590  1.00  0.00    -0.069 C 
ATOM     15  C   UNL     1      67.236  60.909  26.677  1.00  0.00     0.039 C 
ATOM     16  C   UNL     1      68.310  61.321  28.979  1.00  0.00     0.039 C 
BRANCH  13  17
ATOM     17  C   UNL     1      69.702  59.621  25.725  1.00  0.00     0.066 CG0
ATOM     18  G   UNL     1      70.567  60.527  24.879  1.00  0.00     0.000 G0
ENDBRANCH  13  17
ENDBRANCH  11  13
ENDBRANCH  10  11
ENDBRANCH   1  10
TORSDOF 0
ENDMDL
MODEL 2
REMARK VINA RESULT:    -4.137     12.232     14.300
REMARK INTER + INTRA:          -3.765
REMARK INTER:                  -3.927
REMARK INTRA:                   0.162
REMARK UNBOUND:                 2.064
REMARK SMILES CC1=CCC(=C(C)C)C(=O)CC(C)=CCC1
REMARK SMILES IDX 12 1 14 2 13 3 15 4 16 5 2 6 1 7 3 8 11 10 9 11 10 12 5 13
REMARK SMILES IDX 6 14 7 15 8 16 4 17
REMARK H PARENT
REMARK Flexibility Score: 60.00
ROOT
ATOM      1  C   UNL     1      72.639  72.872  24.725  1.00  0.00    -0.070 C 
ATOM      2  C   UNL     1      73.644  71.962  24.821  1.00  0.00    -0.027 C 
ATOM      3  C   UNL     1      71.325  72.521  25.379  1.00  0.00     0.039 C 
ENDROOT
BRANCH   2   4
ATOM      4  C   UNL     1      74.998  72.057  24.161  1.00  0.00     0.032 C 
BRANCH   4   5
ATOM      5  C   UNL     1      75.001  71.566  22.708  1.00  0.00     0.034 C 
BRANCH   5   6
ATOM      6  C   UNL     1      75.810  72.508  21.838  1.00  0.00    -0.077 C 
ATOM      7  C   UNL     1      77.313  72.462  21.940  1.00  0.00     0.039 C 
ATOM      8  C   UNL     1      75.257  73.333  20.917  1.00  0.00    -0.023 CG0
ATOM      9  G   UNL     1      73.778  73.527  20.681  1.00  0.00     0.000 G0
ENDBRANCH   5   6
ENDBRANCH   4   5
ENDBRANCH   2   4
BRANCH   1  10
ATOM     10  C   UNL     1      72.778  74.244  24.074  1.00  0.00     0.111 C 
BRANCH  10  11
ATOM     11  C   UNL     1      72.285  74.299  22.650  1.00  0.00     0.163 C 
ATOM     12  O   UNL     1      71.059  74.077  22.447  1.00  0.00    -0.294 OA
BRANCH  11  13
ATOM     13  C   UNL     1      73.174  74.662  21.496  1.00  0.00    -0.002 C 
ATOM     14  C   UNL     1      73.397  75.973  21.170  1.00  0.00    -0.069 C 
ATOM     15  C   UNL     1      74.210  76.363  19.954  1.00  0.00     0.039 C 
ATOM     16  C   UNL     1      72.889  77.106  22.034  1.00  0.00     0.039 C 
BRANCH  13  17
ATOM     17  C   UNL     1      73.780  73.540  20.655  1.00  0.00     0.066 CG0
ATOM     18  G   UNL     1      75.253  73.351  20.931  1.00  0.00     0.000 G0
ENDBRANCH  13  17
ENDBRANCH  11  13
ENDBRANCH  10  11
ENDBRANCH   1  10
TORSDOF 0
ENDMDL
MODEL 3
REMARK VINA RESULT:    -4.135     10.639     12.700
REMARK INTER + INTRA:          -3.763
REMARK INTER:                  -3.983
REMARK INTRA:                   0.220
REMARK UNBOUND:                 2.064
REMARK SMILES CC1=CCC(=C(C)C)C(=O)CC(C)=CCC1
REMARK SMILES IDX 12 1 14 2 13 3 15 4 16 5 2 6 1 7 3 8 11 10 9 11 10 12 5 13
REMARK SMILES IDX 6 14 7 15 8 16 4 17
REMARK H PARENT
REMARK Flexibility Score: 60.00
ROOT
ATOM      1  C   UNL     1      74.025  71.167  26.269  1.00  0.00    -0.070 C 
ATOM      2  C   UNL     1      72.725  70.845  26.045  1.00  0.00    -0.027 C 
ATOM      3  C   UNL     1      74.805  70.277  27.207  1.00  0.00     0.039 C 
ENDROOT
BRANCH   2   4
ATOM      4  C   UNL     1      71.737  71.645  25.231  1.00  0.00     0.032 C 
BRANCH   4   5
ATOM      5  C   UNL     1      71.739  71.277  23.741  1.00  0.00     0.034 C 
BRANCH   5   6
ATOM      6  C   UNL     1      71.858  72.528  22.893  1.00  0.00    -0.077 C 
ATOM      7  C   UNL     1      70.701  73.494  22.877  1.00  0.00     0.039 C 
ATOM      8  C   UNL     1      72.978  72.862  22.210  1.00  0.00    -0.023 CG0
ATOM      9  G   UNL     1      74.226  72.018  22.094  1.00  0.00     0.000 G0
ENDBRANCH   5   6
ENDBRANCH   4   5
ENDBRANCH   2   4
BRANCH   1  10
ATOM     10  C   UNL     1      74.762  72.310  25.579  1.00  0.00     0.111 C 
BRANCH  10  11
ATOM     11  C   UNL     1      75.545  71.886  24.361  1.00  0.00     0.163 C 
ATOM     12  O   UNL     1      76.350  70.923  24.490  1.00  0.00    -0.294 OA
BRANCH  11  13
ATOM     13  C   UNL     1      75.355  72.521  23.014  1.00  0.00    -0.002 C 
ATOM     14  C   UNL     1      76.131  73.580  22.624  1.00  0.00    -0.069 C 
ATOM     15  C   UNL     1      75.896  74.299  21.313  1.00  0.00     0.039 C 
ATOM     16  C   UNL     1      77.301  74.059  23.456  1.00  0.00     0.039 C 
BRANCH  13  17
ATOM     17  C   UNL     1      74.240  72.002  22.108  1.00  0.00     0.066 CG0
ATOM     18  G   UNL     1      72.989  72.844  22.202  1.00  0.00     0.000 G0
ENDBRANCH  13  17
ENDBRANCH  11  13
ENDBRANCH  10  11
ENDBRANCH   1  10
TORSDOF 0
ENDMDL
MODEL 4
REMARK VINA RESULT:    -4.097     12.355     14.122
REMARK INTER + INTRA:          -3.709
REMARK INTER:                  -4.066
REMARK INTRA:                   0.357
REMARK UNBOUND:                 2.064
REMARK SMILES CC1=CCC(=C(C)C)C(=O)CC(C)=CCC1
REMARK SMILES IDX 12 1 14 2 13 3 15 4 16 5 2 6 1 7 3 8 11 10 9 11 10 12 5 13
REMARK SMILES IDX 6 14 7 15 8 16 4 17
REMARK H PARENT
REMARK Flexibility Score: 60.00
ROOT
ATOM      1  C   UNL     1      74.437  72.062  22.929  1.00  0.00    -0.070 C 
ATOM      2  C   UNL     1      75.035  72.369  21.749  1.00  0.00    -0.027 C 
ATOM      3  C   UNL     1      75.321  71.983  24.151  1.00  0.00     0.039 C 
ENDROOT
BRANCH   2   4
ATOM      4  C   UNL     1      74.369  72.401  20.394  1.00  0.00     0.032 C 
BRANCH   4   5
ATOM      5  C   UNL     1      73.294  73.488  20.272  1.00  0.00     0.034 C 
BRANCH   5   6
ATOM      6  C   UNL     1      73.831  74.816  20.771  1.00  0.00    -0.077 C 
ATOM      7  C   UNL     1      75.012  75.422  20.057  1.00  0.00     0.039 C 
ATOM      8  C   UNL     1      73.259  75.523  21.774  1.00  0.00    -0.023 CG0
ATOM      9  G   UNL     1      72.086  75.073  22.612  1.00  0.00     0.000 G0
ENDBRANCH   5   6
ENDBRANCH   4   5
ENDBRANCH   2   4
BRANCH   1  10
ATOM     10  C   UNL     1      72.935  71.872  23.112  1.00  0.00     0.111 C 
BRANCH  10  11
ATOM     11  C   UNL     1      72.299  72.880  24.036  1.00  0.00     0.163 C 
ATOM     12  O   UNL     1      71.576  72.440  24.972  1.00  0.00    -0.294 OA
BRANCH  11  13
ATOM     13  C   UNL     1      72.541  74.357  23.917  1.00  0.00    -0.002 C 
ATOM     14  C   UNL     1      73.100  75.059  24.950  1.00  0.00    -0.069 C 
ATOM     15  C   UNL     1      73.266  76.563  24.893  1.00  0.00     0.039 C 
ATOM     16  C   UNL     1      73.633  74.369  26.187  1.00  0.00     0.039 C 
BRANCH  13  17
ATOM     17  C   UNL     1      72.098  75.073  22.642  1.00  0.00     0.066 CG0
ATOM     18  G   UNL     1      73.271  75.495  21.788  1.00  0.00     0.000 G0
ENDBRANCH  13  17
ENDBRANCH  11  13
ENDBRANCH  10  11
ENDBRANCH   1  10
TORSDOF 0
ENDMDL
MODEL 5
REMARK VINA RESULT:    -4.085     10.968     12.184
REMARK INTER + INTRA:          -3.693
REMARK INTER:                  -3.835
REMARK INTRA:                   0.143
REMARK UNBOUND:                 2.064
REMARK SMILES CC1=CCC(=C(C)C)C(=O)CC(C)=CCC1
REMARK SMILES IDX 12 1 14 2 13 3 15 4 16 5 2 6 1 7 3 8 11 10 9 11 10 12 5 13
REMARK SMILES IDX 6 14 7 15 8 16 4 17
REMARK H PARENT
REMARK Flexibility Score: 60.00
ROOT
ATOM      1  C   UNL     1      75.283  71.532  26.427  1.00  0.00    -0.070 C 
ATOM      2  C   UNL     1      76.485  71.548  25.795  1.00  0.00    -0.027 C 
ATOM      3  C   UNL     1      75.141  70.616  27.619  1.00  0.00     0.039 C 
ENDROOT
BRANCH   2   4
ATOM      4  C   UNL     1      76.817  72.304  24.532  1.00  0.00     0.032 C 
BRANCH   4   5
ATOM      5  C   UNL     1      76.121  71.740  23.286  1.00  0.00     0.034 C 
BRANCH   5   6
ATOM      6  C   UNL     1      75.440  72.855  22.515  1.00  0.00    -0.077 C 
ATOM      7  C   UNL     1      76.296  73.959  21.949  1.00  0.00     0.039 C 
ATOM      8  C   UNL     1      74.114  72.871  22.242  1.00  0.00    -0.023 CG0
ATOM      9  G   UNL     1      73.100  71.865  22.734  1.00  0.00     0.000 G0
ENDBRANCH   5   6
ENDBRANCH   4   5
ENDBRANCH   2   4
BRANCH   1  10
ATOM     10  C   UNL     1      74.105  72.430  26.064  1.00  0.00     0.111 C 
BRANCH  10  11
ATOM     11  C   UNL     1      72.998  71.720  25.327  1.00  0.00     0.163 C 
ATOM     12  O   UNL     1      72.517  70.679  25.855  1.00  0.00    -0.294 OA
BRANCH  11  13
ATOM     13  C   UNL     1      72.419  72.234  24.041  1.00  0.00    -0.002 C 
ATOM     14  C   UNL     1      71.277  72.990  24.040  1.00  0.00    -0.069 C 
ATOM     15  C   UNL     1      70.620  73.439  22.753  1.00  0.00     0.039 C 
ATOM     16  C   UNL     1      70.636  73.466  25.326  1.00  0.00     0.039 C 
BRANCH  13  17
ATOM     17  C   UNL     1      73.094  71.849  22.725  1.00  0.00     0.066 CG0
ATOM     18  G   UNL     1      74.107  72.878  22.281  1.00  0.00     0.000 G0
ENDBRANCH  13  17
ENDBRANCH  11  13
ENDBRANCH  10  11
ENDBRANCH   1  10
TORSDOF 0
ENDMDL
MODEL 6
REMARK VINA RESULT:    -4.065     11.416     13.508
REMARK INTER + INTRA:          -3.664
REMARK INTER:                  -4.181
REMARK INTRA:                   0.517
REMARK UNBOUND:                 2.064
REMARK SMILES CC1=CCC(=C(C)C)C(=O)CC(C)=CCC1
REMARK SMILES IDX 12 1 14 2 13 3 15 4 16 5 2 6 1 7 3 8 11 10 9 11 10 12 5 13
REMARK SMILES IDX 6 14 7 15 8 16 4 17
REMARK H PARENT
REMARK Flexibility Score: 60.00
ROOT
ATOM      1  C   UNL     1      70.965  73.077  24.421  1.00  0.00    -0.070 C 
ATOM      2  C   UNL     1      71.518  72.411  25.467  1.00  0.00    -0.027 C 
ATOM      3  C   UNL     1      69.879  74.078  24.736  1.00  0.00     0.039 C 
ENDROOT
BRANCH   2   4
ATOM      4  C   UNL     1      72.538  71.302  25.378  1.00  0.00     0.032 C 
BRANCH   4   5
ATOM      5  C   UNL     1      73.790  71.559  26.227  1.00  0.00     0.034 C 
BRANCH   5   6
ATOM      6  C   UNL     1      74.390  72.908  25.883  1.00  0.00    -0.077 C 
ATOM      7  C   UNL     1      74.532  73.929  26.983  1.00  0.00     0.039 C 
ATOM      8  C   UNL     1      74.876  73.218  24.658  1.00  0.00    -0.023 CG0
ATOM      9  G   UNL     1      74.809  72.335  23.433  1.00  0.00     0.000 G0
ENDBRANCH   5   6
ENDBRANCH   4   5
ENDBRANCH   2   4
BRANCH   1  10
ATOM     10  C   UNL     1      71.421  72.939  22.972  1.00  0.00     0.111 C 
BRANCH  10  11
ATOM     11  C   UNL     1      72.691  73.688  22.656  1.00  0.00     0.163 C 
ATOM     12  O   UNL     1      72.663  74.947  22.740  1.00  0.00    -0.294 OA
BRANCH  11  13
ATOM     13  C   UNL     1      73.977  72.996  22.311  1.00  0.00    -0.002 C 
ATOM     14  C   UNL     1      74.395  72.903  21.010  1.00  0.00    -0.069 C 
ATOM     15  C   UNL     1      75.637  72.127  20.627  1.00  0.00     0.039 C 
ATOM     16  C   UNL     1      73.671  73.615  19.889  1.00  0.00     0.039 C 
BRANCH  13  17
ATOM     17  C   UNL     1      74.784  72.343  23.433  1.00  0.00     0.066 CG0
ATOM     18  G   UNL     1      74.885  73.228  24.653  1.00  0.00     0.000 G0
ENDBRANCH  13  17
ENDBRANCH  11  13
ENDBRANCH  10  11
ENDBRANCH   1  10
TORSDOF 0
ENDMDL
MODEL 7
REMARK VINA RESULT:    -3.985     11.515     13.290
REMARK INTER + INTRA:          -3.552
REMARK INTER:                  -3.735
REMARK INTRA:                   0.183
REMARK UNBOUND:                 2.064
REMARK SMILES CC1=CCC(=C(C)C)C(=O)CC(C)=CCC1
REMARK SMILES IDX 12 1 14 2 13 3 15 4 16 5 2 6 1 7 3 8 11 10 9 11 10 12 5 13
REMARK SMILES IDX 6 14 7 15 8 16 4 17
REMARK H PARENT
REMARK Flexibility Score: 60.00
ROOT
ATOM      1  C   UNL     1      76.009  72.408  26.041  1.00  0.00    -0.070 C 
ATOM      2  C   UNL     1      74.785  72.147  26.570  1.00  0.00    -0.027 C 
ATOM      3  C   UNL     1      77.033  73.043  26.950  1.00  0.00     0.039 C 
ENDROOT
BRANCH   2   4
ATOM      4  C   UNL     1      73.587  71.614  25.822  1.00  0.00     0.032 C 
BRANCH   4   5
ATOM      5  C   UNL     1      72.739  72.714  25.171  1.00  0.00     0.034 C 
BRANCH   5   6
ATOM      6  C   UNL     1      72.320  72.297  23.775  1.00  0.00    -0.077 C 
ATOM      7  C   UNL     1      71.180  71.321  23.633  1.00  0.00     0.039 C 
ATOM      8  C   UNL     1      72.863  72.813  22.648  1.00  0.00    -0.023 CG0
ATOM      9  G   UNL     1      74.017  73.785  22.590  1.00  0.00     0.000 G0
ENDBRANCH   5   6
ENDBRANCH   4   5
ENDBRANCH   2   4
BRANCH   1  10
ATOM     10  C   UNL     1      76.436  72.030  24.627  1.00  0.00     0.111 C 
BRANCH  10  11
ATOM     11  C   UNL     1      76.315  73.154  23.629  1.00  0.00     0.163 C 
ATOM     12  O   UNL     1      77.073  74.152  23.778  1.00  0.00    -0.294 OA
BRANCH  11  13
ATOM     13  C   UNL     1      75.383  73.099  22.454  1.00  0.00    -0.002 C 
ATOM     14  C   UNL     1      75.763  72.492  21.287  1.00  0.00    -0.069 C 
ATOM     15  C   UNL     1      74.881  72.508  20.057  1.00  0.00     0.039 C 
ATOM     16  C   UNL     1      77.062  71.724  21.176  1.00  0.00     0.039 C 
BRANCH  13  17
ATOM     17  C   UNL     1      74.023  73.787  22.562  1.00  0.00     0.066 CG0
ATOM     18  G   UNL     1      72.886  72.794  22.641  1.00  0.00     0.000 G0
ENDBRANCH  13  17
ENDBRANCH  11  13
ENDBRANCH  10  11
ENDBRANCH   1  10
TORSDOF 0
ENDMDL
MODEL 8
REMARK VINA RESULT:    -3.876     11.922     13.721
REMARK INTER + INTRA:          -3.397
REMARK INTER:                  -3.693
REMARK INTRA:                   0.295
REMARK UNBOUND:                 2.064
REMARK SMILES CC1=CCC(=C(C)C)C(=O)CC(C)=CCC1
REMARK SMILES IDX 12 1 14 2 13 3 15 4 16 5 2 6 1 7 3 8 11 10 9 11 10 12 5 13
REMARK SMILES IDX 6 14 7 15 8 16 4 17
REMARK H PARENT
REMARK Flexibility Score: 60.00
ROOT
ATOM      1  C   UNL     1      73.746  75.690  23.868  1.00  0.00    -0.070 C 
ATOM      2  C   UNL     1      75.065  75.365  23.856  1.00  0.00    -0.027 C 
ATOM      3  C   UNL     1      73.171  76.194  25.170  1.00  0.00     0.039 C 
ENDROOT
BRANCH   2   4
ATOM      4  C   UNL     1      75.820  74.750  22.702  1.00  0.00     0.032 C 
BRANCH   4   5
ATOM      5  C   UNL     1      75.967  73.227  22.817  1.00  0.00     0.034 C 
BRANCH   5   6
ATOM      6  C   UNL     1      75.066  72.535  21.813  1.00  0.00    -0.077 C 
ATOM      7  C   UNL     1      75.588  72.320  20.415  1.00  0.00     0.039 C 
ATOM      8  C   UNL     1      73.849  72.031  22.125  1.00  0.00    -0.023 CG0
ATOM      9  G   UNL     1      73.157  72.161  23.462  1.00  0.00     0.000 G0
ENDBRANCH   5   6
ENDBRANCH   4   5
ENDBRANCH   2   4
BRANCH   1  10
ATOM     10  C   UNL     1      72.838  75.656  22.644  1.00  0.00     0.111 C 
BRANCH  10  11
ATOM     11  C   UNL     1      72.154  74.330  22.426  1.00  0.00     0.163 C 
ATOM     12  O   UNL     1      71.665  74.105  21.284  1.00  0.00    -0.294 OA
BRANCH  11  13
ATOM     13  C   UNL     1      72.090  73.266  23.483  1.00  0.00    -0.002 C 
ATOM     14  C   UNL     1      71.134  73.309  24.463  1.00  0.00    -0.069 C 
ATOM     15  C   UNL     1      71.108  72.304  25.594  1.00  0.00     0.039 C 
ATOM     16  C   UNL     1      70.019  74.331  24.442  1.00  0.00     0.039 C 
BRANCH  13  17
ATOM     17  C   UNL     1      73.149  72.164  23.481  1.00  0.00     0.066 CG0
ATOM     18  G   UNL     1      73.839  72.039  22.143  1.00  0.00     0.000 G0
ENDBRANCH  13  17
ENDBRANCH  11  13
ENDBRANCH  10  11
ENDBRANCH   1  10
TORSDOF 0
ENDMDL
MODEL 9
REMARK VINA RESULT:    -3.762     11.988     13.620
REMARK INTER + INTRA:          -3.237
REMARK INTER:                  -3.430
REMARK INTRA:                   0.194
REMARK UNBOUND:                 2.064
REMARK SMILES CC1=CCC(=C(C)C)C(=O)CC(C)=CCC1
REMARK SMILES IDX 12 1 14 2 13 3 15 4 16 5 2 6 1 7 3 8 11 10 9 11 10 12 5 13
REMARK SMILES IDX 6 14 7 15 8 16 4 17
REMARK H PARENT
REMARK Flexibility Score: 60.00
ROOT
ATOM      1  C   UNL     1      71.663  72.921  24.105  1.00  0.00    -0.070 C 
ATOM      2  C   UNL     1      71.289  73.439  22.906  1.00  0.00    -0.027 C 
ATOM      3  C   UNL     1      70.728  73.133  25.271  1.00  0.00     0.039 C 
ENDROOT
BRANCH   2   4
ATOM      4  C   UNL     1      72.109  73.436  21.639  1.00  0.00     0.032 C 
BRANCH   4   5
ATOM      5  C   UNL     1      73.312  74.388  21.692  1.00  0.00     0.034 C 
BRANCH   5   6
ATOM      6  C   UNL     1      74.581  73.650  21.316  1.00  0.00    -0.077 C 
ATOM      7  C   UNL     1      74.698  73.096  19.919  1.00  0.00     0.039 C 
ATOM      8  C   UNL     1      75.647  73.530  22.142  1.00  0.00    -0.023 CG0
ATOM      9  G   UNL     1      75.711  74.004  23.575  1.00  0.00     0.000 G0
ENDBRANCH   5   6
ENDBRANCH   4   5
ENDBRANCH   2   4
BRANCH   1  10
ATOM     10  C   UNL     1      72.916  72.080  24.328  1.00  0.00     0.111 C 
BRANCH  10  11
ATOM     11  C   UNL     1      74.000  72.789  25.099  1.00  0.00     0.163 C 
ATOM     12  O   UNL     1      73.705  73.243  26.240  1.00  0.00    -0.294 OA
BRANCH  11  13
ATOM     13  C   UNL     1      75.407  72.917  24.591  1.00  0.00    -0.002 C 
ATOM     14  C   UNL     1      76.398  72.096  25.060  1.00  0.00    -0.069 C 
ATOM     15  C   UNL     1      77.841  72.268  24.636  1.00  0.00     0.039 C 
ATOM     16  C   UNL     1      76.100  70.938  25.987  1.00  0.00     0.039 C 
BRANCH  13  17
ATOM     17  C   UNL     1      75.726  74.020  23.582  1.00  0.00     0.066 CG0
ATOM     18  G   UNL     1      75.641  73.530  22.156  1.00  0.00     0.000 G0
ENDBRANCH  13  17
ENDBRANCH  11  13
ENDBRANCH  10  11
ENDBRANCH   1  10
TORSDOF 0
ENDMDL
