MODEL 1
REMARK VINA RESULT:    -6.964      0.000      0.000
REMARK INTER + INTRA:          -7.575
REMARK INTER:                  -7.575
REMARK INTRA:                   0.000
REMARK UNBOUND:                 0.000
REMARK SMILES Cc1cc(O)c2c(c1)C(=O)c1cc(O)cc(O)c1C2=O
REMARK SMILES IDX 1 1 2 2 8 3 7 4 6 5 4 6 3 7 19 8 20 9 18 10 11 11 9 12 10 13
REMARK SMILES IDX 12 14 13 15 15 16 16 17 5 18 17 20 14 22
REMARK H PARENT 5 19 17 21 14 23
REMARK Flexibility Score: inf
ROOT
ATOM      1  C   UNL     1       9.086 -19.021 -27.494  1.00  0.00     0.044 C 
ATOM      2  C   UNL     1       9.183 -17.865 -26.543  1.00  0.00    -0.047 A 
ATOM      3  C   UNL     1       9.774 -18.034 -25.287  1.00  0.00     0.016 A 
ATOM      4  C   UNL     1       9.909 -16.947 -24.406  1.00  0.00     0.038 A 
ATOM      5  C   UNL     1       9.469 -15.663 -24.800  1.00  0.00     0.076 A 
ATOM      6  C   UNL     1       8.828 -15.507 -26.057  1.00  0.00     0.127 A 
ATOM      7  C   UNL     1       8.723 -16.600 -26.923  1.00  0.00     0.050 A 
ATOM      8  C   UNL     1       9.762 -14.514 -23.904  1.00  0.00     0.201 C 
ATOM      9  O   UNL     1       9.933 -13.366 -24.393  1.00  0.00    -0.288 OA
ATOM     10  C   UNL     1      10.041 -14.755 -22.464  1.00  0.00     0.076 A 
ATOM     11  C   UNL     1      10.481 -16.040 -22.075  1.00  0.00     0.041 A 
ATOM     12  C   UNL     1      10.509 -17.142 -23.065  1.00  0.00     0.194 C 
ATOM     13  O   UNL     1      11.021 -18.253 -22.758  1.00  0.00    -0.289 OA
ATOM     14  C   UNL     1      10.885 -16.267 -20.748  1.00  0.00     0.059 A 
ATOM     15  C   UNL     1      10.842 -15.239 -19.808  1.00  0.00     0.120 A 
ATOM     16  C   UNL     1      10.369 -13.978 -20.177  1.00  0.00     0.093 A 
ATOM     17  C   UNL     1       9.942 -13.731 -21.485  1.00  0.00     0.131 A 
ENDROOT
BRANCH   6  18
ATOM     18  O   UNL     1       8.256 -14.301 -26.468  1.00  0.00    -0.507 OA
ATOM     19  H   UNL     1       8.592 -13.763 -27.254  1.00  0.00     0.293 HD
ENDBRANCH   6  18
BRANCH  17  20
ATOM     20  O   UNL     1       9.396 -12.474 -21.759  1.00  0.00    -0.507 OA
ATOM     21  H   UNL     1       9.654 -11.916 -22.561  1.00  0.00     0.293 HD
ENDBRANCH  17  20
BRANCH  15  22
ATOM     22  O   UNL     1      11.260 -15.485 -18.501  1.00  0.00    -0.508 OA
ATOM     23  H   UNL     1      11.207 -14.771 -17.784  1.00  0.00     0.293 HD
ENDBRANCH  15  22
TORSDOF 3
ENDMDL
MODEL 2
REMARK VINA RESULT:    -6.904      2.954      4.470
REMARK INTER + INTRA:          -7.509
REMARK INTER:                  -7.509
REMARK INTRA:                   0.000
REMARK UNBOUND:                 0.000
REMARK SMILES Cc1cc(O)c2c(c1)C(=O)c1cc(O)cc(O)c1C2=O
REMARK SMILES IDX 1 1 2 2 8 3 7 4 6 5 4 6 3 7 19 8 20 9 18 10 11 11 9 12 10 13
REMARK SMILES IDX 12 14 13 15 15 16 16 17 5 18 17 20 14 22
REMARK H PARENT 5 19 17 21 14 23
REMARK Flexibility Score: inf
ROOT
ATOM      1  C   UNL     1       7.875 -10.688 -28.191  1.00  0.00     0.044 C 
ATOM      2  C   UNL     1       8.400 -10.944 -26.808  1.00  0.00    -0.047 A 
ATOM      3  C   UNL     1       8.466 -12.249 -26.311  1.00  0.00     0.016 A 
ATOM      4  C   UNL     1       8.997 -12.504 -25.035  1.00  0.00     0.038 A 
ATOM      5  C   UNL     1       9.495 -11.437 -24.254  1.00  0.00     0.076 A 
ATOM      6  C   UNL     1       9.383 -10.110 -24.745  1.00  0.00     0.127 A 
ATOM      7  C   UNL     1       8.869  -9.884 -26.026  1.00  0.00     0.050 A 
ATOM      8  C   UNL     1      10.181 -11.760 -22.977  1.00  0.00     0.201 C 
ATOM      9  O   UNL     1      11.098 -11.010 -22.549  1.00  0.00    -0.288 OA
ATOM     10  C   UNL     1       9.919 -13.062 -22.309  1.00  0.00     0.076 A 
ATOM     11  C   UNL     1       9.421 -14.127 -23.093  1.00  0.00     0.041 A 
ATOM     12  C   UNL     1       9.035 -13.887 -24.503  1.00  0.00     0.194 C 
ATOM     13  O   UNL     1       8.713 -14.857 -25.243  1.00  0.00    -0.289 OA
ATOM     14  C   UNL     1       9.292 -15.408 -22.529  1.00  0.00     0.059 A 
ATOM     15  C   UNL     1       9.635 -15.635 -21.198  1.00  0.00     0.120 A 
ATOM     16  C   UNL     1      10.088 -14.577 -20.407  1.00  0.00     0.093 A 
ATOM     17  C   UNL     1      10.208 -13.289 -20.937  1.00  0.00     0.131 A 
ENDROOT
BRANCH   6  18
ATOM     18  O   UNL     1       9.737  -8.991 -23.987  1.00  0.00    -0.507 OA
ATOM     19  H   UNL     1       9.740  -8.048 -24.350  1.00  0.00     0.293 HD
ENDBRANCH   6  18
BRANCH  17  20
ATOM     20  O   UNL     1      10.580 -12.263 -20.064  1.00  0.00    -0.507 OA
ATOM     21  H   UNL     1      11.487 -11.818 -20.080  1.00  0.00     0.293 HD
ENDBRANCH  17  20
BRANCH  15  22
ATOM     22  O   UNL     1       9.510 -16.917 -20.665  1.00  0.00    -0.508 OA
ATOM     23  H   UNL     1      10.319 -17.448 -20.367  1.00  0.00     0.293 HD
ENDBRANCH  15  22
TORSDOF 3
ENDMDL
MODEL 3
REMARK VINA RESULT:    -6.707      2.423      5.165
REMARK INTER + INTRA:          -7.295
REMARK INTER:                  -7.295
REMARK INTRA:                   0.000
REMARK UNBOUND:                 0.000
REMARK SMILES Cc1cc(O)c2c(c1)C(=O)c1cc(O)cc(O)c1C2=O
REMARK SMILES IDX 1 1 2 2 8 3 7 4 6 5 4 6 3 7 19 8 20 9 18 10 11 11 9 12 10 13
REMARK SMILES IDX 12 14 13 15 15 16 16 17 5 18 17 20 14 22
REMARK H PARENT 5 19 17 21 14 23
REMARK Flexibility Score: inf
ROOT
ATOM      1  C   UNL     1       9.290 -18.770 -22.284  1.00  0.00     0.044 C 
ATOM      2  C   UNL     1       9.526 -17.291 -22.373  1.00  0.00    -0.047 A 
ATOM      3  C   UNL     1       8.987 -16.554 -23.432  1.00  0.00     0.016 A 
ATOM      4  C   UNL     1       9.165 -15.162 -23.501  1.00  0.00     0.038 A 
ATOM      5  C   UNL     1       9.872 -14.491 -22.478  1.00  0.00     0.076 A 
ATOM      6  C   UNL     1      10.456 -15.250 -21.430  1.00  0.00     0.127 A 
ATOM      7  C   UNL     1      10.248 -16.631 -21.373  1.00  0.00     0.050 A 
ATOM      8  C   UNL     1       9.912 -13.006 -22.508  1.00  0.00     0.201 C 
ATOM      9  O   UNL     1       9.989 -12.359 -21.430  1.00  0.00    -0.288 OA
ATOM     10  C   UNL     1       9.670 -12.288 -23.786  1.00  0.00     0.076 A 
ATOM     11  C   UNL     1       8.963 -12.962 -24.807  1.00  0.00     0.041 A 
ATOM     12  C   UNL     1       8.616 -14.394 -24.644  1.00  0.00     0.194 C 
ATOM     13  O   UNL     1       7.875 -14.964 -25.491  1.00  0.00    -0.289 OA
ATOM     14  C   UNL     1       8.595 -12.272 -25.974  1.00  0.00     0.059 A 
ATOM     15  C   UNL     1       8.935 -10.930 -26.142  1.00  0.00     0.120 A 
ATOM     16  C   UNL     1       9.671 -10.271 -25.155  1.00  0.00     0.093 A 
ATOM     17  C   UNL     1      10.066 -10.940 -23.993  1.00  0.00     0.131 A 
ENDROOT
BRANCH   6  18
ATOM     18  O   UNL     1      11.271 -14.680 -20.449  1.00  0.00    -0.507 OA
ATOM     19  H   UNL     1      12.275 -14.600 -20.535  1.00  0.00     0.293 HD
ENDBRANCH   6  18
BRANCH  17  20
ATOM     20  O   UNL     1      10.876 -10.245 -23.091  1.00  0.00    -0.507 OA
ATOM     21  H   UNL     1      11.023 -10.534 -22.134  1.00  0.00     0.293 HD
ENDBRANCH  17  20
BRANCH  15  22
ATOM     22  O   UNL     1       8.549 -10.263 -27.303  1.00  0.00    -0.508 OA
ATOM     23  H   UNL     1       8.697  -9.267 -27.417  1.00  0.00     0.293 HD
ENDBRANCH  15  22
TORSDOF 3
ENDMDL
MODEL 4
REMARK VINA RESULT:    -6.334      1.245      3.360
REMARK INTER + INTRA:          -6.889
REMARK INTER:                  -6.889
REMARK INTRA:                   0.000
REMARK UNBOUND:                 0.000
REMARK SMILES Cc1cc(O)c2c(c1)C(=O)c1cc(O)cc(O)c1C2=O
REMARK SMILES IDX 1 1 2 2 8 3 7 4 6 5 4 6 3 7 19 8 20 9 18 10 11 11 9 12 10 13
REMARK SMILES IDX 12 14 13 15 15 16 16 17 5 18 17 20 14 22
REMARK H PARENT 5 19 17 21 14 23
REMARK Flexibility Score: inf
ROOT
ATOM      1  C   UNL     1      10.504 -17.552 -28.354  1.00  0.00     0.044 C 
ATOM      2  C   UNL     1      10.612 -17.431 -26.862  1.00  0.00    -0.047 A 
ATOM      3  C   UNL     1      10.205 -16.258 -26.219  1.00  0.00     0.016 A 
ATOM      4  C   UNL     1      10.261 -16.152 -24.819  1.00  0.00     0.038 A 
ATOM      5  C   UNL     1      10.707 -17.249 -24.047  1.00  0.00     0.076 A 
ATOM      6  C   UNL     1      11.161 -18.420 -24.708  1.00  0.00     0.127 A 
ATOM      7  C   UNL     1      11.077 -18.508 -26.101  1.00  0.00     0.050 A 
ATOM      8  C   UNL     1      10.612 -17.152 -22.568  1.00  0.00     0.201 C 
ATOM      9  O   UNL     1      10.432 -18.193 -21.881  1.00  0.00    -0.288 OA
ATOM     10  C   UNL     1      10.537 -15.817 -21.920  1.00  0.00     0.076 A 
ATOM     11  C   UNL     1      10.091 -14.722 -22.695  1.00  0.00     0.041 A 
ATOM     12  C   UNL     1       9.857 -14.894 -24.148  1.00  0.00     0.194 C 
ATOM     13  O   UNL     1       9.337 -13.960 -24.818  1.00  0.00    -0.289 OA
ATOM     14  C   UNL     1       9.876 -13.475 -22.083  1.00  0.00     0.059 A 
ATOM     15  C   UNL     1      10.113 -13.303 -20.721  1.00  0.00     0.120 A 
ATOM     16  C   UNL     1      10.594 -14.370 -19.959  1.00  0.00     0.093 A 
ATOM     17  C   UNL     1      10.835 -15.616 -20.546  1.00  0.00     0.131 A 
ENDROOT
BRANCH   6  18
ATOM     18  O   UNL     1      11.730 -19.498 -24.027  1.00  0.00    -0.507 OA
ATOM     19  H   UNL     1      11.299 -19.946 -23.230  1.00  0.00     0.293 HD
ENDBRANCH   6  18
BRANCH  17  20
ATOM     20  O   UNL     1      11.401 -16.609 -19.743  1.00  0.00    -0.507 OA
ATOM     21  H   UNL     1      11.620 -16.480 -18.765  1.00  0.00     0.293 HD
ENDBRANCH  17  20
BRANCH  15  22
ATOM     22  O   UNL     1       9.881 -12.060 -20.135  1.00  0.00    -0.508 OA
ATOM     23  H   UNL     1       9.484 -11.291 -20.662  1.00  0.00     0.293 HD
ENDBRANCH  15  22
TORSDOF 3
ENDMDL
MODEL 5
REMARK VINA RESULT:    -6.295      2.389      4.831
REMARK INTER + INTRA:          -6.847
REMARK INTER:                  -6.847
REMARK INTRA:                   0.000
REMARK UNBOUND:                 0.000
REMARK SMILES Cc1cc(O)c2c(c1)C(=O)c1cc(O)cc(O)c1C2=O
REMARK SMILES IDX 1 1 2 2 8 3 7 4 6 5 4 6 3 7 19 8 20 9 18 10 11 11 9 12 10 13
REMARK SMILES IDX 12 14 13 15 15 16 16 17 5 18 17 20 14 22
REMARK H PARENT 5 19 17 21 14 23
REMARK Flexibility Score: inf
ROOT
ATOM      1  C   UNL     1       8.610 -10.209 -26.124  1.00  0.00     0.044 C 
ATOM      2  C   UNL     1       9.044 -11.300 -25.190  1.00  0.00    -0.047 A 
ATOM      3  C   UNL     1       8.619 -12.615 -25.398  1.00  0.00     0.016 A 
ATOM      4  C   UNL     1       9.055 -13.652 -24.555  1.00  0.00     0.038 A 
ATOM      5  C   UNL     1       9.956 -13.371 -23.503  1.00  0.00     0.076 A 
ATOM      6  C   UNL     1      10.348 -12.027 -23.270  1.00  0.00     0.127 A 
ATOM      7  C   UNL     1       9.916 -11.017 -24.134  1.00  0.00     0.050 A 
ATOM      8  C   UNL     1      10.509 -14.511 -22.728  1.00  0.00     0.201 C 
ATOM      9  O   UNL     1      11.660 -14.427 -22.223  1.00  0.00    -0.288 OA
ATOM     10  C   UNL     1       9.788 -15.811 -22.712  1.00  0.00     0.076 A 
ATOM     11  C   UNL     1       8.889 -16.088 -23.766  1.00  0.00     0.041 A 
ATOM     12  C   UNL     1       8.574 -15.038 -24.763  1.00  0.00     0.194 C 
ATOM     13  O   UNL     1       7.875 -15.318 -25.776  1.00  0.00    -0.289 OA
ATOM     14  C   UNL     1       8.294 -17.358 -23.861  1.00  0.00     0.059 A 
ATOM     15  C   UNL     1       8.571 -18.343 -22.914  1.00  0.00     0.120 A 
ATOM     16  C   UNL     1       9.427 -18.061 -21.847  1.00  0.00     0.093 A 
ATOM     17  C   UNL     1      10.016 -16.800 -21.719  1.00  0.00     0.131 A 
ENDROOT
BRANCH   6  18
ATOM     18  O   UNL     1      11.136 -11.649 -22.179  1.00  0.00    -0.507 OA
ATOM     19  H   UNL     1      11.487 -10.711 -22.042  1.00  0.00     0.293 HD
ENDBRANCH   6  18
BRANCH  17  20
ATOM     20  O   UNL     1      10.788 -16.561 -20.579  1.00  0.00    -0.507 OA
ATOM     21  H   UNL     1      11.691 -16.108 -20.601  1.00  0.00     0.293 HD
ENDBRANCH  17  20
BRANCH  15  22
ATOM     22  O   UNL     1       7.978 -19.599 -23.036  1.00  0.00    -0.508 OA
ATOM     23  H   UNL     1       8.367 -20.415 -22.578  1.00  0.00     0.293 HD
ENDBRANCH  15  22
TORSDOF 3
ENDMDL
MODEL 6
REMARK VINA RESULT:    -6.229      2.356      4.301
REMARK INTER + INTRA:          -6.776
REMARK INTER:                  -6.776
REMARK INTRA:                   0.000
REMARK UNBOUND:                 0.000
REMARK SMILES Cc1cc(O)c2c(c1)C(=O)c1cc(O)cc(O)c1C2=O
REMARK SMILES IDX 1 1 2 2 8 3 7 4 6 5 4 6 3 7 19 8 20 9 18 10 11 11 9 12 10 13
REMARK SMILES IDX 12 14 13 15 15 16 16 17 5 18 17 20 14 22
REMARK H PARENT 5 19 17 21 14 23
REMARK Flexibility Score: inf
ROOT
ATOM      1  C   UNL     1       9.093  -9.591 -25.882  1.00  0.00     0.044 C 
ATOM      2  C   UNL     1       9.086 -10.977 -25.307  1.00  0.00    -0.047 A 
ATOM      3  C   UNL     1       9.523 -11.199 -23.998  1.00  0.00     0.016 A 
ATOM      4  C   UNL     1       9.479 -12.486 -23.436  1.00  0.00     0.038 A 
ATOM      5  C   UNL     1       8.963 -13.566 -24.188  1.00  0.00     0.076 A 
ATOM      6  C   UNL     1       8.564 -13.343 -25.532  1.00  0.00     0.127 A 
ATOM      7  C   UNL     1       8.599 -12.050 -26.062  1.00  0.00     0.050 A 
ATOM      8  C   UNL     1       8.795 -14.877 -23.511  1.00  0.00     0.201 C 
ATOM      9  O   UNL     1       7.877 -15.659 -23.876  1.00  0.00    -0.288 OA
ATOM     10  C   UNL     1       9.583 -15.182 -22.288  1.00  0.00     0.076 A 
ATOM     11  C   UNL     1      10.097 -14.100 -21.539  1.00  0.00     0.041 A 
ATOM     12  C   UNL     1       9.973 -12.717 -22.058  1.00  0.00     0.194 C 
ATOM     13  O   UNL     1      10.313 -11.740 -21.336  1.00  0.00    -0.289 OA
ATOM     14  C   UNL     1      10.726 -14.341 -20.306  1.00  0.00     0.059 A 
ATOM     15  C   UNL     1      10.863 -15.641 -19.821  1.00  0.00     0.120 A 
ATOM     16  C   UNL     1      10.394 -16.717 -20.578  1.00  0.00     0.093 A 
ATOM     17  C   UNL     1       9.781 -16.506 -21.817  1.00  0.00     0.131 A 
ENDROOT
BRANCH   6  18
ATOM     18  O   UNL     1       8.159 -14.376 -26.380  1.00  0.00    -0.507 OA
ATOM     19  H   UNL     1       8.095 -14.282 -27.384  1.00  0.00     0.293 HD
ENDBRANCH   6  18
BRANCH  17  20
ATOM     20  O   UNL     1       9.419 -17.634 -22.558  1.00  0.00    -0.507 OA
ATOM     21  H   UNL     1       8.558 -17.705 -23.082  1.00  0.00     0.293 HD
ENDBRANCH  17  20
BRANCH  15  22
ATOM     22  O   UNL     1      11.480 -15.855 -18.590  1.00  0.00    -0.508 OA
ATOM     23  H   UNL     1      12.477 -15.722 -18.467  1.00  0.00     0.293 HD
ENDBRANCH  15  22
TORSDOF 3
ENDMDL
MODEL 7
REMARK VINA RESULT:    -5.878     17.617     18.723
REMARK INTER + INTRA:          -6.393
REMARK INTER:                  -6.393
REMARK INTRA:                   0.000
REMARK UNBOUND:                 0.000
REMARK SMILES Cc1cc(O)c2c(c1)C(=O)c1cc(O)cc(O)c1C2=O
REMARK SMILES IDX 1 1 2 2 8 3 7 4 6 5 4 6 3 7 19 8 20 9 18 10 11 11 9 12 10 13
REMARK SMILES IDX 12 14 13 15 15 16 16 17 5 18 17 20 14 22
REMARK H PARENT 5 19 17 21 14 23
REMARK Flexibility Score: inf
ROOT
ATOM      1  C   UNL     1      22.115  -1.490 -33.317  1.00  0.00     0.044 C 
ATOM      2  C   UNL     1      22.436  -2.146 -32.006  1.00  0.00    -0.047 A 
ATOM      3  C   UNL     1      22.706  -3.517 -31.951  1.00  0.00     0.016 A 
ATOM      4  C   UNL     1      23.049  -4.132 -30.735  1.00  0.00     0.038 A 
ATOM      5  C   UNL     1      23.151  -3.356 -29.559  1.00  0.00     0.076 A 
ATOM      6  C   UNL     1      22.832  -1.974 -29.612  1.00  0.00     0.127 A 
ATOM      7  C   UNL     1      22.511  -1.382 -30.837  1.00  0.00     0.050 A 
ATOM      8  C   UNL     1      23.660  -4.012 -28.326  1.00  0.00     0.201 C 
ATOM      9  O   UNL     1      24.297  -3.338 -27.474  1.00  0.00    -0.288 OA
ATOM     10  C   UNL     1      23.585  -5.490 -28.194  1.00  0.00     0.076 A 
ATOM     11  C   UNL     1      23.483  -6.262 -29.373  1.00  0.00     0.041 A 
ATOM     12  C   UNL     1      23.303  -5.591 -30.681  1.00  0.00     0.194 C 
ATOM     13  O   UNL     1      23.341  -6.265 -31.747  1.00  0.00    -0.289 OA
ATOM     14  C   UNL     1      23.548  -7.664 -29.297  1.00  0.00     0.059 A 
ATOM     15  C   UNL     1      23.697  -8.302 -28.067  1.00  0.00     0.120 A 
ATOM     16  C   UNL     1      23.756  -7.546 -26.894  1.00  0.00     0.093 A 
ATOM     17  C   UNL     1      23.674  -6.151 -26.940  1.00  0.00     0.131 A 
ENDROOT
BRANCH   6  18
ATOM     18  O   UNL     1      22.789  -1.165 -28.474  1.00  0.00    -0.507 OA
ATOM     19  H   UNL     1      23.561  -1.065 -27.829  1.00  0.00     0.293 HD
ENDBRANCH   6  18
BRANCH  17  20
ATOM     20  O   UNL     1      23.649  -5.466 -25.722  1.00  0.00    -0.507 OA
ATOM     21  H   UNL     1      24.180  -4.625 -25.543  1.00  0.00     0.293 HD
ENDBRANCH  17  20
BRANCH  15  22
ATOM     22  O   UNL     1      23.771  -9.693 -28.019  1.00  0.00    -0.508 OA
ATOM     23  H   UNL     1      22.955 -10.261 -27.821  1.00  0.00     0.293 HD
ENDBRANCH  15  22
TORSDOF 3
ENDMDL
MODEL 8
REMARK VINA RESULT:    -5.639     16.673     17.776
REMARK INTER + INTRA:          -6.134
REMARK INTER:                  -6.134
REMARK INTRA:                   0.000
REMARK UNBOUND:                 0.000
REMARK SMILES Cc1cc(O)c2c(c1)C(=O)c1cc(O)cc(O)c1C2=O
REMARK SMILES IDX 1 1 2 2 8 3 7 4 6 5 4 6 3 7 19 8 20 9 18 10 11 11 9 12 10 13
REMARK SMILES IDX 12 14 13 15 15 16 16 17 5 18 17 20 14 22
REMARK H PARENT 5 19 17 21 14 23
REMARK Flexibility Score: inf
ROOT
ATOM      1  C   UNL     1      23.143 -11.481 -30.801  1.00  0.00     0.044 C 
ATOM      2  C   UNL     1      23.306 -10.138 -30.151  1.00  0.00    -0.047 A 
ATOM      3  C   UNL     1      22.734  -9.001 -30.729  1.00  0.00     0.016 A 
ATOM      4  C   UNL     1      22.844  -7.747 -30.105  1.00  0.00     0.038 A 
ATOM      5  C   UNL     1      23.514  -7.633 -28.866  1.00  0.00     0.076 A 
ATOM      6  C   UNL     1      24.132  -8.782 -28.307  1.00  0.00     0.127 A 
ATOM      7  C   UNL     1      23.993 -10.022 -28.937  1.00  0.00     0.050 A 
ATOM      8  C   UNL     1      23.482  -6.323 -28.166  1.00  0.00     0.201 C 
ATOM      9  O   UNL     1      23.524  -6.283 -26.908  1.00  0.00    -0.288 OA
ATOM     10  C   UNL     1      23.208  -5.083 -28.937  1.00  0.00     0.076 A 
ATOM     11  C   UNL     1      22.537  -5.200 -30.175  1.00  0.00     0.041 A 
ATOM     12  C   UNL     1      22.261  -6.542 -30.741  1.00  0.00     0.194 C 
ATOM     13  O   UNL     1      21.551  -6.655 -31.777  1.00  0.00    -0.289 OA
ATOM     14  C   UNL     1      22.138  -4.043 -30.866  1.00  0.00     0.059 A 
ATOM     15  C   UNL     1      22.413  -2.778 -30.349  1.00  0.00     0.120 A 
ATOM     16  C   UNL     1      23.113  -2.656 -29.146  1.00  0.00     0.093 A 
ATOM     17  C   UNL     1      23.537  -3.790 -28.449  1.00  0.00     0.131 A 
ENDROOT
BRANCH   6  18
ATOM     18  O   UNL     1      24.916  -8.731 -27.152  1.00  0.00    -0.507 OA
ATOM     19  H   UNL     1      25.891  -8.466 -27.150  1.00  0.00     0.293 HD
ENDBRANCH   6  18
BRANCH  17  20
ATOM     20  O   UNL     1      24.310  -3.591 -27.302  1.00  0.00    -0.507 OA
ATOM     21  H   UNL     1      24.643  -2.685 -27.003  1.00  0.00     0.293 HD
ENDBRANCH  17  20
BRANCH  15  22
ATOM     22  O   UNL     1      21.997  -1.645 -31.046  1.00  0.00    -0.508 OA
ATOM     23  H   UNL     1      21.590  -0.849 -30.569  1.00  0.00     0.293 HD
ENDBRANCH  15  22
TORSDOF 3
ENDMDL
MODEL 9
REMARK VINA RESULT:    -5.631      2.106      5.363
REMARK INTER + INTRA:          -6.125
REMARK INTER:                  -6.125
REMARK INTRA:                   0.000
REMARK UNBOUND:                 0.000
REMARK SMILES Cc1cc(O)c2c(c1)C(=O)c1cc(O)cc(O)c1C2=O
REMARK SMILES IDX 1 1 2 2 8 3 7 4 6 5 4 6 3 7 19 8 20 9 18 10 11 11 9 12 10 13
REMARK SMILES IDX 12 14 13 15 15 16 16 17 5 18 17 20 14 22
REMARK H PARENT 5 19 17 21 14 23
REMARK Flexibility Score: inf
ROOT
ATOM      1  C   UNL     1       9.759 -10.967 -24.599  1.00  0.00     0.044 C 
ATOM      2  C   UNL     1       9.679 -12.313 -23.939  1.00  0.00    -0.047 A 
ATOM      3  C   UNL     1       9.538 -13.469 -24.713  1.00  0.00     0.016 A 
ATOM      4  C   UNL     1       9.506 -14.737 -24.107  1.00  0.00     0.038 A 
ATOM      5  C   UNL     1       9.645 -14.852 -22.706  1.00  0.00     0.076 A 
ATOM      6  C   UNL     1       9.742 -13.672 -21.922  1.00  0.00     0.127 A 
ATOM      7  C   UNL     1       9.791 -12.423 -22.549  1.00  0.00     0.050 A 
ATOM      8  C   UNL     1       9.755 -16.212 -22.119  1.00  0.00     0.201 C 
ATOM      9  O   UNL     1      10.421 -16.388 -21.063  1.00  0.00    -0.288 OA
ATOM     10  C   UNL     1       9.245 -17.385 -22.876  1.00  0.00     0.076 A 
ATOM     11  C   UNL     1       9.108 -17.267 -24.277  1.00  0.00     0.041 A 
ATOM     12  C   UNL     1       9.326 -15.955 -24.932  1.00  0.00     0.194 C 
ATOM     13  O   UNL     1       9.332 -15.872 -26.191  1.00  0.00    -0.289 OA
ATOM     14  C   UNL     1       8.761 -18.393 -25.042  1.00  0.00     0.059 A 
ATOM     15  C   UNL     1       8.536 -19.625 -24.430  1.00  0.00     0.120 A 
ATOM     16  C   UNL     1       8.630 -19.737 -23.041  1.00  0.00     0.093 A 
ATOM     17  C   UNL     1       8.954 -18.628 -22.255  1.00  0.00     0.131 A 
ENDROOT
BRANCH   6  18
ATOM     18  O   UNL     1       9.759 -13.692 -20.526  1.00  0.00    -0.507 OA
ATOM     19  H   UNL     1       9.076 -13.218 -19.952  1.00  0.00     0.293 HD
ENDBRANCH   6  18
BRANCH  17  20
ATOM     20  O   UNL     1       8.940 -18.794 -20.867  1.00  0.00    -0.507 OA
ATOM     21  H   UNL     1       9.772 -18.768 -20.294  1.00  0.00     0.293 HD
ENDBRANCH  17  20
BRANCH  15  22
ATOM     22  O   UNL     1       8.205 -20.731 -25.211  1.00  0.00    -0.508 OA
ATOM     23  H   UNL     1       7.830 -21.577 -24.799  1.00  0.00     0.293 HD
ENDBRANCH  15  22
TORSDOF 3
ENDMDL
