MODEL 1
REMARK VINA RESULT:    -3.922      0.000      0.000
REMARK INTER + INTRA:          -5.212
REMARK INTER:                  -5.069
REMARK INTRA:                  -0.143
REMARK UNBOUND:                -0.143
REMARK SMILES CCO[C@@H]1O[C@@H](CO)[C@@H](O)[C@H](O)[C@H]1O
REMARK SMILES IDX 4 1 13 2 11 3 9 4 6 5 5 6 3 7 2 8 1 9 14 10 12 12 7 14 8 15
REMARK SMILES IDX 10 17
REMARK H PARENT 14 11 12 13 8 16 10 18
REMARK Flexibility Score: inf
ROOT
ATOM      1  C   UNL     1       7.772  -3.389  -1.203  1.00  0.00     0.281 C 
ATOM      2  C   UNL     1       6.714  -4.046  -2.148  1.00  0.00     0.202 C 
ATOM      3  C   UNL     1       6.766  -5.585  -2.034  1.00  0.00     0.179 C 
ATOM      4  C   UNL     1       8.196  -6.119  -2.310  1.00  0.00     0.177 C 
ATOM      5  C   UNL     1       9.258  -5.045  -1.950  1.00  0.00     0.178 C 
ATOM      6  O   UNL     1       8.818  -4.284  -0.839  1.00  0.00    -0.341 OA
ENDROOT
BRANCH   1   7
ATOM      7  O   UNL     1       8.347  -2.248  -1.824  1.00  0.00    -0.350 OA
BRANCH   7   8
ATOM      8  C   UNL     1       7.711  -1.967  -3.053  1.00  0.00     0.160 C 
ATOM      9  C   UNL     1       7.237  -0.522  -3.049  1.00  0.00     0.035 C 
ENDBRANCH   7   8
ENDBRANCH   1   7
BRANCH   2  10
ATOM     10  O   UNL     1       5.421  -3.564  -1.878  1.00  0.00    -0.385 OA
ATOM     11  H   UNL     1       5.425  -2.582  -2.030  1.00  0.00     0.211 HD
ENDBRANCH   2  10
BRANCH   3  12
ATOM     12  O   UNL     1       5.829  -6.190  -2.888  1.00  0.00    -0.387 OA
ATOM     13  H   UNL     1       5.322  -5.466  -3.340  1.00  0.00     0.211 HD
ENDBRANCH   3  12
BRANCH   5  14
ATOM     14  C   UNL     1      10.633  -5.655  -1.637  1.00  0.00     0.191 C 
BRANCH  14  15
ATOM     15  O   UNL     1      10.754  -5.908  -0.263  1.00  0.00    -0.394 OA
ATOM     16  H   UNL     1       9.844  -6.131   0.066  1.00  0.00     0.210 HD
ENDBRANCH  14  15
ENDBRANCH   5  14
BRANCH   4  17
ATOM     17  O   UNL     1       8.401  -7.294  -1.567  1.00  0.00    -0.387 OA
ATOM     18  H   UNL     1       8.338  -7.042  -0.609  1.00  0.00     0.211 HD
ENDBRANCH   4  17
TORSDOF 7
ENDMDL
MODEL 2
REMARK VINA RESULT:    -3.675      1.733      4.902
REMARK INTER + INTRA:          -4.893
REMARK INTER:                  -4.578
REMARK INTRA:                  -0.315
REMARK UNBOUND:                -0.143
REMARK SMILES CCO[C@@H]1O[C@@H](CO)[C@@H](O)[C@H](O)[C@H]1O
REMARK SMILES IDX 4 1 13 2 11 3 9 4 6 5 5 6 3 7 2 8 1 9 14 10 12 12 7 14 8 15
REMARK SMILES IDX 10 17
REMARK H PARENT 14 11 12 13 8 16 10 18
REMARK Flexibility Score: inf
ROOT
ATOM      1  C   UNL     1       7.238  -6.566  -1.705  1.00  0.00     0.281 C 
ATOM      2  C   UNL     1       8.798  -6.673  -1.705  1.00  0.00     0.202 C 
ATOM      3  C   UNL     1       9.434  -5.331  -1.283  1.00  0.00     0.179 C 
ATOM      4  C   UNL     1       8.935  -4.168  -2.180  1.00  0.00     0.177 C 
ATOM      5  C   UNL     1       7.523  -4.481  -2.743  1.00  0.00     0.178 C 
ATOM      6  O   UNL     1       6.777  -5.222  -1.793  1.00  0.00    -0.341 OA
ENDROOT
BRANCH   1   7
ATOM      7  O   UNL     1       6.693  -7.306  -2.787  1.00  0.00    -0.350 OA
BRANCH   7   8
ATOM      8  C   UNL     1       6.392  -8.629  -2.395  1.00  0.00     0.160 C 
ATOM      9  C   UNL     1       5.117  -9.077  -3.091  1.00  0.00     0.035 C 
ENDBRANCH   7   8
ENDBRANCH   1   7
BRANCH   2  10
ATOM     10  O   UNL     1       9.237  -7.721  -0.876  1.00  0.00    -0.385 OA
ATOM     11  H   UNL     1       8.832  -7.588   0.021  1.00  0.00     0.211 HD
ENDBRANCH   2  10
BRANCH   3  12
ATOM     12  O   UNL     1      10.837  -5.407  -1.292  1.00  0.00    -0.387 OA
ATOM     13  H   UNL     1      11.186  -4.500  -1.495  1.00  0.00     0.211 HD
ENDBRANCH   3  12
BRANCH   5  14
ATOM     14  C   UNL     1       6.743  -3.213  -3.125  1.00  0.00     0.191 C 
BRANCH  14  15
ATOM     15  O   UNL     1       6.020  -2.734  -2.024  1.00  0.00    -0.394 OA
ATOM     16  H   UNL     1       5.066  -2.952  -2.193  1.00  0.00     0.210 HD
ENDBRANCH  14  15
ENDBRANCH   5  14
BRANCH   4  17
ATOM     17  O   UNL     1       8.923  -2.979  -1.431  1.00  0.00    -0.387 OA
ATOM     18  H   UNL     1       7.969  -2.751  -1.271  1.00  0.00     0.211 HD
ENDBRANCH   4  17
TORSDOF 7
ENDMDL
MODEL 3
REMARK VINA RESULT:    -3.657      1.641      4.046
REMARK INTER + INTRA:          -4.870
REMARK INTER:                  -4.532
REMARK INTRA:                  -0.337
REMARK UNBOUND:                -0.143
REMARK SMILES CCO[C@@H]1O[C@@H](CO)[C@@H](O)[C@H](O)[C@H]1O
REMARK SMILES IDX 4 1 13 2 11 3 9 4 6 5 5 6 3 7 2 8 1 9 14 10 12 12 7 14 8 15
REMARK SMILES IDX 10 17
REMARK H PARENT 14 11 12 13 8 16 10 18
REMARK Flexibility Score: inf
ROOT
ATOM      1  C   UNL     1       9.905  -5.484  -2.925  1.00  0.00     0.281 C 
ATOM      2  C   UNL     1       9.025  -6.610  -2.289  1.00  0.00     0.202 C 
ATOM      3  C   UNL     1       7.551  -6.161  -2.199  1.00  0.00     0.179 C 
ATOM      4  C   UNL     1       7.420  -4.822  -1.427  1.00  0.00     0.177 C 
ATOM      5  C   UNL     1       8.722  -3.986  -1.560  1.00  0.00     0.178 C 
ATOM      6  O   UNL     1       9.304  -4.197  -2.835  1.00  0.00    -0.341 OA
ENDROOT
BRANCH   1   7
ATOM      7  O   UNL     1      11.176  -5.437  -2.295  1.00  0.00    -0.350 OA
BRANCH   7   8
ATOM      8  C   UNL     1      12.082  -4.651  -3.041  1.00  0.00     0.160 C 
ATOM      9  C   UNL     1      13.428  -4.637  -2.334  1.00  0.00     0.035 C 
ENDBRANCH   7   8
ENDBRANCH   1   7
BRANCH   2  10
ATOM     10  O   UNL     1       9.142  -7.814  -3.007  1.00  0.00    -0.385 OA
ATOM     11  H   UNL     1       9.480  -7.594  -3.915  1.00  0.00     0.211 HD
ENDBRANCH   2  10
BRANCH   3  12
ATOM     12  O   UNL     1       6.750  -7.157  -1.617  1.00  0.00    -0.387 OA
ATOM     13  H   UNL     1       6.090  -6.707  -1.027  1.00  0.00     0.211 HD
ENDBRANCH   3  12
BRANCH   5  14
ATOM     14  C   UNL     1       8.484  -2.483  -1.352  1.00  0.00     0.191 C 
BRANCH  14  15
ATOM     15  O   UNL     1       7.881  -1.922  -2.487  1.00  0.00    -0.394 OA
ATOM     16  H   UNL     1       7.962  -0.936  -2.394  1.00  0.00     0.210 HD
ENDBRANCH  14  15
ENDBRANCH   5  14
BRANCH   4  17
ATOM     17  O   UNL     1       6.315  -4.108  -1.925  1.00  0.00    -0.387 OA
ATOM     18  H   UNL     1       5.546  -4.737  -1.928  1.00  0.00     0.211 HD
ENDBRANCH   4  17
TORSDOF 7
ENDMDL
MODEL 4
REMARK VINA RESULT:    -3.579      1.544      3.873
REMARK INTER + INTRA:          -4.769
REMARK INTER:                  -4.572
REMARK INTRA:                  -0.197
REMARK UNBOUND:                -0.143
REMARK SMILES CCO[C@@H]1O[C@@H](CO)[C@@H](O)[C@H](O)[C@H]1O
REMARK SMILES IDX 4 1 13 2 11 3 9 4 6 5 5 6 3 7 2 8 1 9 14 10 12 12 7 14 8 15
REMARK SMILES IDX 10 17
REMARK H PARENT 14 11 12 13 8 16 10 18
REMARK Flexibility Score: inf
ROOT
ATOM      1  C   UNL     1       6.970  -5.899  -2.824  1.00  0.00     0.281 C 
ATOM      2  C   UNL     1       6.389  -4.521  -2.365  1.00  0.00     0.202 C 
ATOM      3  C   UNL     1       7.457  -3.414  -2.488  1.00  0.00     0.179 C 
ATOM      4  C   UNL     1       8.743  -3.786  -1.704  1.00  0.00     0.177 C 
ATOM      5  C   UNL     1       8.896  -5.329  -1.610  1.00  0.00     0.178 C 
ATOM      6  O   UNL     1       8.392  -5.937  -2.787  1.00  0.00    -0.341 OA
ENDROOT
BRANCH   1   7
ATOM      7  O   UNL     1       6.465  -6.943  -2.005  1.00  0.00    -0.350 OA
BRANCH   7   8
ATOM      8  C   UNL     1       6.824  -8.208  -2.521  1.00  0.00     0.160 C 
ATOM      9  C   UNL     1       7.307  -9.092  -1.382  1.00  0.00     0.035 C 
ENDBRANCH   7   8
ENDBRANCH   1   7
BRANCH   2  10
ATOM     10  O   UNL     1       5.232  -4.188  -3.094  1.00  0.00    -0.385 OA
ATOM     11  H   UNL     1       4.562  -4.907  -2.944  1.00  0.00     0.211 HD
ENDBRANCH   2  10
BRANCH   3  12
ATOM     12  O   UNL     1       6.954  -2.172  -2.066  1.00  0.00    -0.387 OA
ATOM     13  H   UNL     1       5.966  -2.253  -2.003  1.00  0.00     0.211 HD
ENDBRANCH   3  12
BRANCH   5  14
ATOM     14  C   UNL     1      10.353  -5.767  -1.394  1.00  0.00     0.191 C 
BRANCH  14  15
ATOM     15  O   UNL     1      10.667  -5.762  -0.028  1.00  0.00    -0.394 OA
ATOM     16  H   UNL     1      11.029  -4.860   0.178  1.00  0.00     0.210 HD
ENDBRANCH  14  15
ENDBRANCH   5  14
BRANCH   4  17
ATOM     17  O   UNL     1       9.856  -3.211  -2.342  1.00  0.00    -0.387 OA
ATOM     18  H   UNL     1      10.403  -3.961  -2.695  1.00  0.00     0.211 HD
ENDBRANCH   4  17
TORSDOF 7
ENDMDL
MODEL 5
REMARK VINA RESULT:    -3.323      1.857      3.731
REMARK INTER + INTRA:          -4.437
REMARK INTER:                  -4.254
REMARK INTRA:                  -0.184
REMARK UNBOUND:                -0.143
REMARK SMILES CCO[C@@H]1O[C@@H](CO)[C@@H](O)[C@H](O)[C@H]1O
REMARK SMILES IDX 4 1 13 2 11 3 9 4 6 5 5 6 3 7 2 8 1 9 14 10 12 12 7 14 8 15
REMARK SMILES IDX 10 17
REMARK H PARENT 14 11 12 13 8 16 10 18
REMARK Flexibility Score: inf
ROOT
ATOM      1  C   UNL     1      10.275  -5.217  -2.088  1.00  0.00     0.281 C 
ATOM      2  C   UNL     1       9.270  -4.134  -2.599  1.00  0.00     0.202 C 
ATOM      3  C   UNL     1       7.822  -4.519  -2.226  1.00  0.00     0.179 C 
ATOM      4  C   UNL     1       7.464  -5.932  -2.755  1.00  0.00     0.177 C 
ATOM      5  C   UNL     1       8.740  -6.808  -2.876  1.00  0.00     0.178 C 
ATOM      6  O   UNL     1       9.655  -6.475  -1.845  1.00  0.00    -0.341 OA
ENDROOT
BRANCH   1   7
ATOM      7  O   UNL     1      11.322  -5.401  -3.028  1.00  0.00    -0.350 OA
BRANCH   7   8
ATOM      8  C   UNL     1      12.253  -4.340  -2.964  1.00  0.00     0.160 C 
ATOM      9  C   UNL     1      13.460  -4.785  -2.155  1.00  0.00     0.035 C 
ENDBRANCH   7   8
ENDBRANCH   1   7
BRANCH   2  10
ATOM     10  O   UNL     1       9.596  -2.860  -2.100  1.00  0.00    -0.385 OA
ATOM     11  H   UNL     1      10.419  -2.554  -2.565  1.00  0.00     0.211 HD
ENDBRANCH   2  10
BRANCH   3  12
ATOM     12  O   UNL     1       6.905  -3.561  -2.691  1.00  0.00    -0.387 OA
ATOM     13  H   UNL     1       7.196  -2.675  -2.349  1.00  0.00     0.211 HD
ENDBRANCH   3  12
BRANCH   5  14
ATOM     14  C   UNL     1       8.434  -8.313  -2.817  1.00  0.00     0.191 C 
BRANCH  14  15
ATOM     15  O   UNL     1       8.138  -8.700  -1.503  1.00  0.00    -0.394 OA
ATOM     16  H   UNL     1       7.229  -8.355  -1.302  1.00  0.00     0.210 HD
ENDBRANCH  14  15
ENDBRANCH   5  14
BRANCH   4  17
ATOM     17  O   UNL     1       6.530  -6.527  -1.889  1.00  0.00    -0.387 OA
ATOM     18  H   UNL     1       6.213  -5.813  -1.276  1.00  0.00     0.211 HD
ENDBRANCH   4  17
TORSDOF 7
ENDMDL
MODEL 6
REMARK VINA RESULT:    -3.263      1.598      3.477
REMARK INTER + INTRA:          -4.360
REMARK INTER:                  -4.002
REMARK INTRA:                  -0.358
REMARK UNBOUND:                -0.143
REMARK SMILES CCO[C@@H]1O[C@@H](CO)[C@@H](O)[C@H](O)[C@H]1O
REMARK SMILES IDX 4 1 13 2 11 3 9 4 6 5 5 6 3 7 2 8 1 9 14 10 12 12 7 14 8 15
REMARK SMILES IDX 10 17
REMARK H PARENT 14 11 12 13 8 16 10 18
REMARK Flexibility Score: inf
ROOT
ATOM      1  C   UNL     1       7.348  -4.434  -2.602  1.00  0.00     0.281 C 
ATOM      2  C   UNL     1       8.483  -4.386  -1.528  1.00  0.00     0.202 C 
ATOM      3  C   UNL     1       9.386  -5.634  -1.636  1.00  0.00     0.179 C 
ATOM      4  C   UNL     1       8.552  -6.938  -1.534  1.00  0.00     0.177 C 
ATOM      5  C   UNL     1       7.101  -6.697  -2.031  1.00  0.00     0.178 C 
ATOM      6  O   UNL     1       7.102  -5.751  -3.086  1.00  0.00    -0.341 OA
ENDROOT
BRANCH   1   7
ATOM      7  O   UNL     1       6.140  -3.914  -2.067  1.00  0.00    -0.350 OA
BRANCH   7   8
ATOM      8  C   UNL     1       5.291  -3.446  -3.094  1.00  0.00     0.160 C 
ATOM      9  C   UNL     1       4.032  -4.297  -3.125  1.00  0.00     0.035 C 
ENDBRANCH   7   8
ENDBRANCH   1   7
BRANCH   2  10
ATOM     10  O   UNL     1       9.241  -3.206  -1.641  1.00  0.00    -0.385 OA
ATOM     11  H   UNL     1       8.813  -2.636  -2.334  1.00  0.00     0.211 HD
ENDBRANCH   2  10
BRANCH   3  12
ATOM     12  O   UNL     1      10.404  -5.611  -0.667  1.00  0.00    -0.387 OA
ATOM     13  H   UNL     1      11.211  -5.216  -1.089  1.00  0.00     0.211 HD
ENDBRANCH   3  12
BRANCH   5  14
ATOM     14  C   UNL     1       6.417  -7.988  -2.507  1.00  0.00     0.191 C 
BRANCH  14  15
ATOM     15  O   UNL     1       6.391  -8.937  -1.475  1.00  0.00    -0.394 OA
ATOM     16  H   UNL     1       5.435  -9.131  -1.290  1.00  0.00     0.210 HD
ENDBRANCH  14  15
ENDBRANCH   5  14
BRANCH   4  17
ATOM     17  O   UNL     1       9.178  -7.946  -2.287  1.00  0.00    -0.387 OA
ATOM     18  H   UNL     1      10.050  -8.130  -1.850  1.00  0.00     0.211 HD
ENDBRANCH   4  17
TORSDOF 7
ENDMDL
MODEL 7
REMARK VINA RESULT:    -3.142      1.251      3.424
REMARK INTER + INTRA:          -4.204
REMARK INTER:                  -4.056
REMARK INTRA:                  -0.148
REMARK UNBOUND:                -0.143
REMARK SMILES CCO[C@@H]1O[C@@H](CO)[C@@H](O)[C@H](O)[C@H]1O
REMARK SMILES IDX 4 1 13 2 11 3 9 4 6 5 5 6 3 7 2 8 1 9 14 10 12 12 7 14 8 15
REMARK SMILES IDX 10 17
REMARK H PARENT 14 11 12 13 8 16 10 18
REMARK Flexibility Score: inf
ROOT
ATOM      1  C   UNL     1       8.847  -4.240  -2.298  1.00  0.00     0.281 C 
ATOM      2  C   UNL     1       9.190  -5.389  -1.293  1.00  0.00     0.202 C 
ATOM      3  C   UNL     1       8.567  -6.722  -1.760  1.00  0.00     0.179 C 
ATOM      4  C   UNL     1       7.037  -6.580  -1.974  1.00  0.00     0.177 C 
ATOM      5  C   UNL     1       6.670  -5.116  -2.335  1.00  0.00     0.178 C 
ATOM      6  O   UNL     1       7.709  -4.532  -3.102  1.00  0.00    -0.341 OA
ENDROOT
BRANCH   1   7
ATOM      7  O   UNL     1       8.612  -3.028  -1.599  1.00  0.00    -0.350 OA
BRANCH   7   8
ATOM      8  C   UNL     1       8.713  -1.916  -2.464  1.00  0.00     0.160 C 
ATOM      9  C   UNL     1       7.332  -1.312  -2.662  1.00  0.00     0.035 C 
ENDBRANCH   7   8
ENDBRANCH   1   7
BRANCH   2  10
ATOM     10  O   UNL     1      10.580  -5.516  -1.120  1.00  0.00    -0.385 OA
ATOM     11  H   UNL     1      10.951  -4.607  -0.968  1.00  0.00     0.211 HD
ENDBRANCH   2  10
BRANCH   3  12
ATOM     12  O   UNL     1       8.855  -7.761  -0.860  1.00  0.00    -0.387 OA
ATOM     13  H   UNL     1       8.740  -8.621  -1.345  1.00  0.00     0.211 HD
ENDBRANCH   3  12
BRANCH   5  14
ATOM     14  C   UNL     1       5.346  -5.010  -3.107  1.00  0.00     0.191 C 
BRANCH  14  15
ATOM     15  O   UNL     1       4.736  -3.771  -2.865  1.00  0.00    -0.394 OA
ATOM     16  H   UNL     1       5.256  -3.094  -3.372  1.00  0.00     0.210 HD
ENDBRANCH  14  15
ENDBRANCH   5  14
BRANCH   4  17
ATOM     17  O   UNL     1       6.629  -7.463  -2.990  1.00  0.00    -0.387 OA
ATOM     18  H   UNL     1       7.308  -7.401  -3.712  1.00  0.00     0.211 HD
ENDBRANCH   4  17
TORSDOF 7
ENDMDL
MODEL 8
REMARK VINA RESULT:    -3.027      1.595      3.995
REMARK INTER + INTRA:          -4.055
REMARK INTER:                  -3.812
REMARK INTRA:                  -0.243
REMARK UNBOUND:                -0.143
REMARK SMILES CCO[C@@H]1O[C@@H](CO)[C@@H](O)[C@H](O)[C@H]1O
REMARK SMILES IDX 4 1 13 2 11 3 9 4 6 5 5 6 3 7 2 8 1 9 14 10 12 12 7 14 8 15
REMARK SMILES IDX 10 17
REMARK H PARENT 14 11 12 13 8 16 10 18
REMARK Flexibility Score: inf
ROOT
ATOM      1  C   UNL     1       8.776  -4.649  -1.939  1.00  0.00     0.281 C 
ATOM      2  C   UNL     1       8.454  -3.237  -2.527  1.00  0.00     0.202 C 
ATOM      3  C   UNL     1       6.947  -2.926  -2.400  1.00  0.00     0.179 C 
ATOM      4  C   UNL     1       6.089  -4.035  -3.063  1.00  0.00     0.177 C 
ATOM      5  C   UNL     1       6.843  -5.392  -3.044  1.00  0.00     0.178 C 
ATOM      6  O   UNL     1       7.630  -5.492  -1.870  1.00  0.00    -0.341 OA
ENDROOT
BRANCH   1   7
ATOM      7  O   UNL     1       9.768  -5.295  -2.722  1.00  0.00    -0.350 OA
BRANCH   7   8
ATOM      8  C   UNL     1      10.995  -5.368  -2.025  1.00  0.00     0.160 C 
ATOM      9  C   UNL     1      12.068  -4.653  -2.829  1.00  0.00     0.035 C 
ENDBRANCH   7   8
ENDBRANCH   1   7
BRANCH   2  10
ATOM     10  O   UNL     1       9.228  -2.239  -1.908  1.00  0.00    -0.385 OA
ATOM     11  H   UNL     1       8.621  -1.488  -1.673  1.00  0.00     0.211 HD
ENDBRANCH   2  10
BRANCH   3  12
ATOM     12  O   UNL     1       6.640  -1.665  -2.937  1.00  0.00    -0.387 OA
ATOM     13  H   UNL     1       6.482  -1.044  -2.178  1.00  0.00     0.211 HD
ENDBRANCH   3  12
BRANCH   5  14
ATOM     14  C   UNL     1       5.894  -6.598  -3.125  1.00  0.00     0.191 C 
BRANCH  14  15
ATOM     15  O   UNL     1       6.232  -7.551  -2.154  1.00  0.00    -0.394 OA
ATOM     16  H   UNL     1       6.944  -7.146  -1.593  1.00  0.00     0.210 HD
ENDBRANCH  14  15
ENDBRANCH   5  14
BRANCH   4  17
ATOM     17  O   UNL     1       4.861  -4.137  -2.384  1.00  0.00    -0.387 OA
ATOM     18  H   UNL     1       4.779  -5.078  -2.080  1.00  0.00     0.211 HD
ENDBRANCH   4  17
TORSDOF 7
ENDMDL
MODEL 9
REMARK VINA RESULT:    -2.980      1.833      3.136
REMARK INTER + INTRA:          -3.994
REMARK INTER:                  -3.686
REMARK INTRA:                  -0.308
REMARK UNBOUND:                -0.143
REMARK SMILES CCO[C@@H]1O[C@@H](CO)[C@@H](O)[C@H](O)[C@H]1O
REMARK SMILES IDX 4 1 13 2 11 3 9 4 6 5 5 6 3 7 2 8 1 9 14 10 12 12 7 14 8 15
REMARK SMILES IDX 10 17
REMARK H PARENT 14 11 12 13 8 16 10 18
REMARK Flexibility Score: inf
ROOT
ATOM      1  C   UNL     1       6.568  -5.472  -1.914  1.00  0.00     0.281 C 
ATOM      2  C   UNL     1       7.126  -6.929  -2.017  1.00  0.00     0.202 C 
ATOM      3  C   UNL     1       8.487  -7.041  -1.297  1.00  0.00     0.179 C 
ATOM      4  C   UNL     1       9.496  -5.997  -1.844  1.00  0.00     0.177 C 
ATOM      5  C   UNL     1       8.749  -4.755  -2.400  1.00  0.00     0.178 C 
ATOM      6  O   UNL     1       7.581  -4.512  -1.635  1.00  0.00    -0.341 OA
ENDROOT
BRANCH   1   7
ATOM      7  O   UNL     1       5.916  -5.108  -3.122  1.00  0.00    -0.350 OA
BRANCH   7   8
ATOM      8  C   UNL     1       5.174  -3.917  -2.957  1.00  0.00     0.160 C 
ATOM      9  C   UNL     1       3.695  -4.225  -3.125  1.00  0.00     0.035 C 
ENDBRANCH   7   8
ENDBRANCH   1   7
BRANCH   2  10
ATOM     10  O   UNL     1       6.207  -7.863  -1.504  1.00  0.00    -0.385 OA
ATOM     11  H   UNL     1       6.711  -8.500  -0.931  1.00  0.00     0.211 HD
ENDBRANCH   2  10
BRANCH   3  12
ATOM     12  O   UNL     1       9.008  -8.342  -1.393  1.00  0.00    -0.387 OA
ATOM     13  H   UNL     1       9.838  -8.375  -0.848  1.00  0.00     0.211 HD
ENDBRANCH   3  12
BRANCH   5  14
ATOM     14  C   UNL     1       9.624  -3.493  -2.409  1.00  0.00     0.191 C 
BRANCH  14  15
ATOM     15  O   UNL     1      10.949  -3.819  -2.730  1.00  0.00    -0.394 OA
ATOM     16  H   UNL     1      11.221  -3.215  -3.470  1.00  0.00     0.210 HD
ENDBRANCH  14  15
ENDBRANCH   5  14
BRANCH   4  17
ATOM     17  O   UNL     1      10.383  -5.629  -0.817  1.00  0.00    -0.387 OA
ATOM     18  H   UNL     1      10.379  -6.371  -0.157  1.00  0.00     0.211 HD
ENDBRANCH   4  17
TORSDOF 7
ENDMDL
