MODEL 1
REMARK VINA RESULT:    -2.991      0.000      0.000
REMARK INTER + INTRA:          -5.194
REMARK INTER:                  -4.391
REMARK INTRA:                  -0.803
REMARK UNBOUND:                -0.803
REMARK SMILES O=C([O-])CCCCCCCC(=O)[O-]
REMARK SMILES IDX 7 1 6 2 5 3 4 4 2 5 1 6 3 7 8 8 9 9 10 10 11 11 12 12 13 13
REMARK H PARENT
REMARK Flexibility Score: inf
ROOT
ATOM      1  C   UNL     1     -34.994  -5.533 -29.848  1.00  0.00     0.000 C 
ENDROOT
BRANCH   1   2
ATOM      2  C   UNL     1     -35.417  -6.360 -31.068  1.00  0.00     0.000 C 
BRANCH   2   3
ATOM      3  C   UNL     1     -34.288  -7.295 -31.518  1.00  0.00     0.006 C 
BRANCH   3   4
ATOM      4  C   UNL     1     -33.251  -7.479 -30.407  1.00  0.00     0.053 C 
BRANCH   4   5
ATOM      5  C   UNL     1     -31.873  -7.560 -30.984  1.00  0.00     0.041 C 
ATOM      6  O   UNL     1     -31.371  -6.564 -31.568  1.00  0.00    -0.550 OA
ATOM      7  O   UNL     1     -31.162  -8.751 -30.920  1.00  0.00    -0.550 OA
ENDBRANCH   4   5
ENDBRANCH   3   4
ENDBRANCH   2   3
ENDBRANCH   1   2
BRANCH   1   8
ATOM      8  C   UNL     1     -34.819  -4.052 -30.220  1.00  0.00     0.000 C 
BRANCH   8   9
ATOM      9  C   UNL     1     -33.423  -3.741 -30.789  1.00  0.00     0.006 C 
BRANCH   9  10
ATOM     10  C   UNL     1     -33.438  -2.994 -32.133  1.00  0.00     0.053 C 
BRANCH  10  11
ATOM     11  C   UNL     1     -33.265  -3.923 -33.295  1.00  0.00     0.041 C 
ATOM     12  O   UNL     1     -34.267  -4.474 -33.820  1.00  0.00    -0.550 OA
ATOM     13  O   UNL     1     -31.992  -4.207 -33.775  1.00  0.00    -0.550 OA
ENDBRANCH  10  11
ENDBRANCH   9  10
ENDBRANCH   8   9
ENDBRANCH   1   8
TORSDOF 8
ENDMDL
MODEL 2
REMARK VINA RESULT:    -2.945     12.698     14.190
REMARK INTER + INTRA:          -5.126
REMARK INTER:                  -4.744
REMARK INTRA:                  -0.382
REMARK UNBOUND:                -0.803
REMARK SMILES O=C([O-])CCCCCCCC(=O)[O-]
REMARK SMILES IDX 7 1 6 2 5 3 4 4 2 5 1 6 3 7 8 8 9 9 10 10 11 11 12 12 13 13
REMARK H PARENT
REMARK Flexibility Score: inf
ROOT
ATOM      1  C   UNL     1     -26.398   4.157 -34.435  1.00  0.00     0.000 C 
ENDROOT
BRANCH   1   2
ATOM      2  C   UNL     1     -26.715   5.532 -35.034  1.00  0.00     0.000 C 
BRANCH   2   3
ATOM      3  C   UNL     1     -26.618   5.503 -36.564  1.00  0.00     0.006 C 
BRANCH   3   4
ATOM      4  C   UNL     1     -27.222   4.215 -37.129  1.00  0.00     0.053 C 
BRANCH   4   5
ATOM      5  C   UNL     1     -28.171   4.525 -38.243  1.00  0.00     0.041 C 
ATOM      6  O   UNL     1     -28.493   3.632 -39.069  1.00  0.00    -0.550 OA
ATOM      7  O   UNL     1     -28.662   5.816 -38.397  1.00  0.00    -0.550 OA
ENDBRANCH   4   5
ENDBRANCH   3   4
ENDBRANCH   2   3
ENDBRANCH   1   2
BRANCH   1   8
ATOM      8  C   UNL     1     -24.932   4.078 -33.983  1.00  0.00     0.000 C 
BRANCH   8   9
ATOM      9  C   UNL     1     -24.503   5.289 -33.134  1.00  0.00     0.006 C 
BRANCH   9  10
ATOM     10  C   UNL     1     -24.981   5.240 -31.674  1.00  0.00     0.053 C 
BRANCH  10  11
ATOM     11  C   UNL     1     -23.842   5.334 -30.706  1.00  0.00     0.041 C 
ATOM     12  O   UNL     1     -23.416   6.460 -30.337  1.00  0.00    -0.550 OA
ATOM     13  O   UNL     1     -23.228   4.179 -30.239  1.00  0.00    -0.550 OA
ENDBRANCH  10  11
ENDBRANCH   9  10
ENDBRANCH   8   9
ENDBRANCH   1   8
TORSDOF 8
ENDMDL
MODEL 3
REMARK VINA RESULT:    -2.933     12.969     13.862
REMARK INTER + INTRA:          -5.108
REMARK INTER:                  -4.842
REMARK INTRA:                  -0.266
REMARK UNBOUND:                -0.803
REMARK SMILES O=C([O-])CCCCCCCC(=O)[O-]
REMARK SMILES IDX 7 1 6 2 5 3 4 4 2 5 1 6 3 7 8 8 9 9 10 10 11 11 12 12 13 13
REMARK H PARENT
REMARK Flexibility Score: inf
ROOT
ATOM      1  C   UNL     1     -25.828   5.234 -34.446  1.00  0.00     0.000 C 
ENDROOT
BRANCH   1   2
ATOM      2  C   UNL     1     -24.759   4.143 -34.314  1.00  0.00     0.000 C 
BRANCH   2   3
ATOM      3  C   UNL     1     -23.961   4.309 -33.015  1.00  0.00     0.006 C 
BRANCH   3   4
ATOM      4  C   UNL     1     -24.341   5.606 -32.297  1.00  0.00     0.053 C 
BRANCH   4   5
ATOM      5  C   UNL     1     -23.855   5.585 -30.882  1.00  0.00     0.041 C 
ATOM      6  O   UNL     1     -23.810   6.649 -30.212  1.00  0.00    -0.550 OA
ATOM      7  O   UNL     1     -23.406   4.397 -30.321  1.00  0.00    -0.550 OA
ENDBRANCH   4   5
ENDBRANCH   3   4
ENDBRANCH   2   3
ENDBRANCH   1   2
BRANCH   1   8
ATOM      8  C   UNL     1     -26.987   4.764 -35.339  1.00  0.00     0.000 C 
BRANCH   8   9
ATOM      9  C   UNL     1     -26.787   5.132 -36.820  1.00  0.00     0.006 C 
BRANCH   9  10
ATOM     10  C   UNL     1     -27.705   4.372 -37.791  1.00  0.00     0.053 C 
BRANCH  10  11
ATOM     11  C   UNL     1     -28.897   5.187 -38.191  1.00  0.00     0.041 C 
ATOM     12  O   UNL     1     -28.754   6.384 -38.552  1.00  0.00    -0.550 OA
ATOM     13  O   UNL     1     -30.170   4.633 -38.133  1.00  0.00    -0.550 OA
ENDBRANCH  10  11
ENDBRANCH   9  10
ENDBRANCH   8   9
ENDBRANCH   1   8
TORSDOF 8
ENDMDL
MODEL 4
REMARK VINA RESULT:    -2.929      1.193      4.483
REMARK INTER + INTRA:          -5.102
REMARK INTER:                  -4.529
REMARK INTRA:                  -0.573
REMARK UNBOUND:                -0.803
REMARK SMILES O=C([O-])CCCCCCCC(=O)[O-]
REMARK SMILES IDX 7 1 6 2 5 3 4 4 2 5 1 6 3 7 8 8 9 9 10 10 11 11 12 12 13 13
REMARK H PARENT
REMARK Flexibility Score: inf
ROOT
ATOM      1  C   UNL     1     -34.278  -5.442 -29.915  1.00  0.00     0.000 C 
ENDROOT
BRANCH   1   2
ATOM      2  C   UNL     1     -34.733  -3.978 -29.950  1.00  0.00     0.000 C 
BRANCH   2   3
ATOM      3  C   UNL     1     -33.979  -3.192 -31.030  1.00  0.00     0.006 C 
BRANCH   3   4
ATOM      4  C   UNL     1     -32.834  -4.023 -31.616  1.00  0.00     0.053 C 
BRANCH   4   5
ATOM      5  C   UNL     1     -32.952  -4.102 -33.105  1.00  0.00     0.041 C 
ATOM      6  O   UNL     1     -34.052  -4.400 -33.639  1.00  0.00    -0.550 OA
ATOM      7  O   UNL     1     -31.833  -3.896 -33.902  1.00  0.00    -0.550 OA
ENDBRANCH   4   5
ENDBRANCH   3   4
ENDBRANCH   2   3
ENDBRANCH   1   2
BRANCH   1   8
ATOM      8  C   UNL     1     -35.191  -6.322 -30.782  1.00  0.00     0.000 C 
BRANCH   8   9
ATOM      9  C   UNL     1     -34.419  -7.415 -31.544  1.00  0.00     0.006 C 
BRANCH   9  10
ATOM     10  C   UNL     1     -32.992  -7.659 -31.027  1.00  0.00     0.053 C 
BRANCH  10  11
ATOM     11  C   UNL     1     -32.684  -9.119 -30.897  1.00  0.00     0.041 C 
ATOM     12  O   UNL     1     -33.313  -9.963 -31.587  1.00  0.00    -0.550 OA
ATOM     13  O   UNL     1     -31.725  -9.550 -29.988  1.00  0.00    -0.550 OA
ENDBRANCH  10  11
ENDBRANCH   9  10
ENDBRANCH   8   9
ENDBRANCH   1   8
TORSDOF 8
ENDMDL
MODEL 5
REMARK VINA RESULT:    -2.876     13.228     14.730
REMARK INTER + INTRA:          -5.025
REMARK INTER:                  -4.395
REMARK INTRA:                  -0.629
REMARK UNBOUND:                -0.803
REMARK SMILES O=C([O-])CCCCCCCC(=O)[O-]
REMARK SMILES IDX 7 1 6 2 5 3 4 4 2 5 1 6 3 7 8 8 9 9 10 10 11 11 12 12 13 13
REMARK H PARENT
REMARK Flexibility Score: inf
ROOT
ATOM      1  C   UNL     1     -24.296   7.273 -29.742  1.00  0.00     0.000 C 
ENDROOT
BRANCH   1   2
ATOM      2  C   UNL     1     -24.517   8.062 -28.445  1.00  0.00     0.000 C 
BRANCH   2   3
ATOM      3  C   UNL     1     -25.836   7.661 -27.775  1.00  0.00     0.006 C 
BRANCH   3   4
ATOM      4  C   UNL     1     -27.037   8.125 -28.602  1.00  0.00     0.053 C 
BRANCH   4   5
ATOM      5  C   UNL     1     -27.960   6.979 -28.875  1.00  0.00     0.041 C 
ATOM      6  O   UNL     1     -27.600   6.042 -29.634  1.00  0.00    -0.550 OA
ATOM      7  O   UNL     1     -29.238   6.972 -28.330  1.00  0.00    -0.550 OA
ENDBRANCH   4   5
ENDBRANCH   3   4
ENDBRANCH   2   3
ENDBRANCH   1   2
BRANCH   1   8
ATOM      8  C   UNL     1     -24.056   5.785 -29.446  1.00  0.00     0.000 C 
BRANCH   8   9
ATOM      9  C   UNL     1     -24.328   4.882 -30.663  1.00  0.00     0.006 C 
BRANCH   9  10
ATOM     10  C   UNL     1     -24.389   5.630 -32.005  1.00  0.00     0.053 C 
BRANCH  10  11
ATOM     11  C   UNL     1     -25.460   5.089 -32.901  1.00  0.00     0.041 C 
ATOM     12  O   UNL     1     -25.444   5.345 -34.133  1.00  0.00    -0.550 OA
ATOM     13  O   UNL     1     -26.494   4.329 -32.370  1.00  0.00    -0.550 OA
ENDBRANCH  10  11
ENDBRANCH   9  10
ENDBRANCH   8   9
ENDBRANCH   1   8
TORSDOF 8
ENDMDL
MODEL 6
REMARK VINA RESULT:    -2.858      4.723      6.533
REMARK INTER + INTRA:          -4.998
REMARK INTER:                  -4.672
REMARK INTRA:                  -0.326
REMARK UNBOUND:                -0.803
REMARK SMILES O=C([O-])CCCCCCCC(=O)[O-]
REMARK SMILES IDX 7 1 6 2 5 3 4 4 2 5 1 6 3 7 8 8 9 9 10 10 11 11 12 12 13 13
REMARK H PARENT
REMARK Flexibility Score: inf
ROOT
ATOM      1  C   UNL     1     -31.256  -2.194 -34.866  1.00  0.00     0.000 C 
ENDROOT
BRANCH   1   2
ATOM      2  C   UNL     1     -32.428  -1.387 -34.295  1.00  0.00     0.000 C 
BRANCH   2   3
ATOM      3  C   UNL     1     -33.543  -2.313 -33.794  1.00  0.00     0.006 C 
BRANCH   3   4
ATOM      4  C   UNL     1     -32.990  -3.695 -33.437  1.00  0.00     0.053 C 
BRANCH   4   5
ATOM      5  C   UNL     1     -34.101  -4.622 -33.055  1.00  0.00     0.041 C 
ATOM      6  O   UNL     1     -34.875  -5.081 -33.935  1.00  0.00    -0.550 OA
ATOM      7  O   UNL     1     -34.312  -4.939 -31.719  1.00  0.00    -0.550 OA
ENDBRANCH   4   5
ENDBRANCH   3   4
ENDBRANCH   2   3
ENDBRANCH   1   2
BRANCH   1   8
ATOM      8  C   UNL     1     -30.534  -1.409 -35.971  1.00  0.00     0.000 C 
BRANCH   8   9
ATOM      9  C   UNL     1     -31.464  -0.436 -36.718  1.00  0.00     0.006 C 
BRANCH   9  10
ATOM     10  C   UNL     1     -31.444  -0.590 -38.248  1.00  0.00     0.053 C 
BRANCH  10  11
ATOM     11  C   UNL     1     -31.885   0.661 -38.944  1.00  0.00     0.041 C 
ATOM     12  O   UNL     1     -31.032   1.472 -39.388  1.00  0.00    -0.550 OA
ATOM     13  O   UNL     1     -33.239   0.946 -39.072  1.00  0.00    -0.550 OA
ENDBRANCH  10  11
ENDBRANCH   9  10
ENDBRANCH   8   9
ENDBRANCH   1   8
TORSDOF 8
ENDMDL
MODEL 7
REMARK VINA RESULT:    -2.845      2.530      3.524
REMARK INTER + INTRA:          -4.979
REMARK INTER:                  -4.638
REMARK INTRA:                  -0.341
REMARK UNBOUND:                -0.803
REMARK SMILES O=C([O-])CCCCCCCC(=O)[O-]
REMARK SMILES IDX 7 1 6 2 5 3 4 4 2 5 1 6 3 7 8 8 9 9 10 10 11 11 12 12 13 13
REMARK H PARENT
REMARK Flexibility Score: inf
ROOT
ATOM      1  C   UNL     1     -32.838  -7.773 -31.096  1.00  0.00     0.000 C 
ENDROOT
BRANCH   1   2
ATOM      2  C   UNL     1     -32.439  -9.096 -30.431  1.00  0.00     0.000 C 
BRANCH   2   3
ATOM      3  C   UNL     1     -31.175  -8.924 -29.579  1.00  0.00     0.006 C 
BRANCH   3   4
ATOM      4  C   UNL     1     -31.162  -9.914 -28.411  1.00  0.00     0.053 C 
BRANCH   4   5
ATOM      5  C   UNL     1     -32.312  -9.654 -27.490  1.00  0.00     0.041 C 
ATOM      6  O   UNL     1     -32.437  -8.532 -26.933  1.00  0.00    -0.550 OA
ATOM      7  O   UNL     1     -33.219 -10.667 -27.209  1.00  0.00    -0.550 OA
ENDBRANCH   4   5
ENDBRANCH   3   4
ENDBRANCH   2   3
ENDBRANCH   1   2
BRANCH   1   8
ATOM      8  C   UNL     1     -34.319  -7.789 -31.506  1.00  0.00     0.000 C 
BRANCH   8   9
ATOM      9  C   UNL     1     -34.940  -6.381 -31.554  1.00  0.00     0.006 C 
BRANCH   9  10
ATOM     10  C   UNL     1     -33.966  -5.273 -31.985  1.00  0.00     0.053 C 
BRANCH  10  11
ATOM     11  C   UNL     1     -34.306  -4.719 -33.334  1.00  0.00     0.041 C 
ATOM     12  O   UNL     1     -35.037  -5.374 -34.122  1.00  0.00    -0.550 OA
ATOM     13  O   UNL     1     -33.789  -3.494 -33.735  1.00  0.00    -0.550 OA
ENDBRANCH  10  11
ENDBRANCH   9  10
ENDBRANCH   8   9
ENDBRANCH   1   8
TORSDOF 8
ENDMDL
MODEL 8
REMARK VINA RESULT:    -2.845     13.238     13.962
REMARK INTER + INTRA:          -4.978
REMARK INTER:                  -4.408
REMARK INTRA:                  -0.571
REMARK UNBOUND:                -0.803
REMARK SMILES O=C([O-])CCCCCCCC(=O)[O-]
REMARK SMILES IDX 7 1 6 2 5 3 4 4 2 5 1 6 3 7 8 8 9 9 10 10 11 11 12 12 13 13
REMARK H PARENT
REMARK Flexibility Score: inf
ROOT
ATOM      1  C   UNL     1     -23.892   3.039 -34.262  1.00  0.00     0.000 C 
ENDROOT
BRANCH   1   2
ATOM      2  C   UNL     1     -23.479   1.800 -33.459  1.00  0.00     0.000 C 
BRANCH   2   3
ATOM      3  C   UNL     1     -22.209   2.070 -32.643  1.00  0.00     0.006 C 
BRANCH   3   4
ATOM      4  C   UNL     1     -21.796   0.833 -31.842  1.00  0.00     0.053 C 
BRANCH   4   5
ATOM      5  C   UNL     1     -20.501   0.285 -32.354  1.00  0.00     0.041 C 
ATOM      6  O   UNL     1     -20.164   0.471 -33.553  1.00  0.00    -0.550 OA
ATOM      7  O   UNL     1     -19.690  -0.473 -31.520  1.00  0.00    -0.550 OA
ENDBRANCH   4   5
ENDBRANCH   3   4
ENDBRANCH   2   3
ENDBRANCH   1   2
BRANCH   1   8
ATOM      8  C   UNL     1     -23.436   4.327 -33.559  1.00  0.00     0.000 C 
BRANCH   8   9
ATOM      9  C   UNL     1     -24.614   5.205 -33.099  1.00  0.00     0.006 C 
BRANCH   9  10
ATOM     10  C   UNL     1     -25.022   4.999 -31.631  1.00  0.00     0.053 C 
BRANCH  10  11
ATOM     11  C   UNL     1     -23.877   5.229 -30.693  1.00  0.00     0.041 C 
ATOM     12  O   UNL     1     -23.434   6.392 -30.507  1.00  0.00    -0.550 OA
ATOM     13  O   UNL     1     -23.278   4.153 -30.050  1.00  0.00    -0.550 OA
ENDBRANCH  10  11
ENDBRANCH   9  10
ENDBRANCH   8   9
ENDBRANCH   1   8
TORSDOF 8
ENDMDL
MODEL 9
REMARK VINA RESULT:    -2.813      2.778      5.926
REMARK INTER + INTRA:          -4.931
REMARK INTER:                  -4.585
REMARK INTRA:                  -0.346
REMARK UNBOUND:                -0.803
REMARK SMILES O=C([O-])CCCCCCCC(=O)[O-]
REMARK SMILES IDX 7 1 6 2 5 3 4 4 2 5 1 6 3 7 8 8 9 9 10 10 11 11 12 12 13 13
REMARK H PARENT
REMARK Flexibility Score: inf
ROOT
ATOM      1  C   UNL     1     -32.996  -7.788 -30.542  1.00  0.00     0.000 C 
ENDROOT
BRANCH   1   2
ATOM      2  C   UNL     1     -34.123  -7.671 -31.576  1.00  0.00     0.000 C 
BRANCH   2   3
ATOM      3  C   UNL     1     -35.010  -6.453 -31.289  1.00  0.00     0.006 C 
BRANCH   3   4
ATOM      4  C   UNL     1     -34.272  -5.149 -31.604  1.00  0.00     0.053 C 
BRANCH   4   5
ATOM      5  C   UNL     1     -34.058  -5.011 -33.078  1.00  0.00     0.041 C 
ATOM      6  O   UNL     1     -34.994  -5.263 -33.882  1.00  0.00    -0.550 OA
ATOM      7  O   UNL     1     -32.809  -4.651 -33.568  1.00  0.00    -0.550 OA
ENDBRANCH   4   5
ENDBRANCH   3   4
ENDBRANCH   2   3
ENDBRANCH   1   2
BRANCH   1   8
ATOM      8  C   UNL     1     -32.600  -9.256 -30.324  1.00  0.00     0.000 C 
BRANCH   8   9
ATOM      9  C   UNL     1     -31.758  -9.465 -29.052  1.00  0.00     0.006 C 
BRANCH   9  10
ATOM     10  C   UNL     1     -32.136  -8.540 -27.883  1.00  0.00     0.053 C 
BRANCH  10  11
ATOM     11  C   UNL     1     -32.613  -9.310 -26.690  1.00  0.00     0.041 C 
ATOM     12  O   UNL     1     -32.857 -10.541 -26.787  1.00  0.00    -0.550 OA
ATOM     13  O   UNL     1     -32.820  -8.661 -25.480  1.00  0.00    -0.550 OA
ENDBRANCH  10  11
ENDBRANCH   9  10
ENDBRANCH   8   9
ENDBRANCH   1   8
TORSDOF 8
ENDMDL
