MODEL 1
REMARK VINA RESULT:    -3.376      0.000      0.000
REMARK INTER + INTRA:          -7.545
REMARK INTER:                  -5.942
REMARK INTRA:                  -1.603
REMARK UNBOUND:                -1.603
REMARK SMILES CCCCCCCCCCCCCCC(=O)[O-]
REMARK SMILES IDX 9 1 10 2 11 3 12 4 13 5 14 6 15 7 16 8 17 9 8 10 7 11 6 12
REMARK SMILES IDX 5 13 4 14 3 15 2 16 1 17
REMARK H PARENT
REMARK Flexibility Score: inf
ROOT
ATOM      1  C   UNL     1       0.052   9.286   4.314  1.00  0.00     0.000 C 
ENDROOT
BRANCH   1   2
ATOM      2  C   UNL     1      -1.091   8.456   3.701  1.00  0.00     0.000 C 
BRANCH   2   3
ATOM      3  C   UNL     1      -1.917   9.249   2.673  1.00  0.00     0.000 C 
BRANCH   3   4
ATOM      4  C   UNL     1      -3.048  10.061   3.327  1.00  0.00     0.000 C 
BRANCH   4   5
ATOM      5  C   UNL     1      -3.878   9.230   4.321  1.00  0.00     0.006 C 
BRANCH   5   6
ATOM      6  C   UNL     1      -4.794   8.226   3.610  1.00  0.00     0.053 C 
BRANCH   6   7
ATOM      7  C   UNL     1      -5.692   8.898   2.618  1.00  0.00     0.041 C 
ATOM      8  O   UNL     1      -6.608   9.670   3.009  1.00  0.00    -0.550 OA
ATOM      9  O   UNL     1      -5.538   8.647   1.260  1.00  0.00    -0.550 OA
ENDBRANCH   6   7
ENDBRANCH   5   6
ENDBRANCH   4   5
ENDBRANCH   3   4
ENDBRANCH   2   3
ENDBRANCH   1   2
BRANCH   1  10
ATOM     10  C   UNL     1      -0.262   9.935   5.677  1.00  0.00     0.000 C 
BRANCH  10  11
ATOM     11  C   UNL     1       0.951  10.125   6.606  1.00  0.00    -0.000 C 
BRANCH  11  12
ATOM     12  C   UNL     1       2.261   9.614   5.988  1.00  0.00    -0.000 C 
BRANCH  12  13
ATOM     13  C   UNL     1       2.828   8.441   6.803  1.00  0.00    -0.000 C 
BRANCH  13  14
ATOM     14  C   UNL     1       3.155   7.217   5.931  1.00  0.00    -0.000 C 
BRANCH  14  15
ATOM     15  C   UNL     1       1.950   6.282   5.748  1.00  0.00    -0.000 C 
BRANCH  15  16
ATOM     16  C   UNL     1       1.710   5.983   4.264  1.00  0.00    -0.003 C 
ATOM     17  C   UNL     1       2.583   6.867   3.376  1.00  0.00     0.004 C 
ENDBRANCH  15  16
ENDBRANCH  14  15
ENDBRANCH  13  14
ENDBRANCH  12  13
ENDBRANCH  11  12
ENDBRANCH  10  11
ENDBRANCH   1  10
TORSDOF 13
ENDMDL
MODEL 2
REMARK VINA RESULT:    -3.292     17.092     19.177
REMARK INTER + INTRA:          -7.398
REMARK INTER:                  -5.300
REMARK INTRA:                  -2.098
REMARK UNBOUND:                -1.603
REMARK SMILES CCCCCCCCCCCCCCC(=O)[O-]
REMARK SMILES IDX 9 1 10 2 11 3 12 4 13 5 14 6 15 7 16 8 17 9 8 10 7 11 6 12
REMARK SMILES IDX 5 13 4 14 3 15 2 16 1 17
REMARK H PARENT
REMARK Flexibility Score: inf
ROOT
ATOM      1  C   UNL     1      -9.295  -7.728  -4.068  1.00  0.00     0.000 C 
ENDROOT
BRANCH   1   2
ATOM      2  C   UNL     1      -8.498  -8.833  -4.786  1.00  0.00     0.000 C 
BRANCH   2   3
ATOM      3  C   UNL     1      -6.976  -8.617  -4.704  1.00  0.00     0.000 C 
BRANCH   3   4
ATOM      4  C   UNL     1      -6.442  -8.724  -3.266  1.00  0.00     0.000 C 
BRANCH   4   5
ATOM      5  C   UNL     1      -5.818  -7.410  -2.766  1.00  0.00     0.006 C 
BRANCH   5   6
ATOM      6  C   UNL     1      -5.223  -6.580  -3.911  1.00  0.00     0.053 C 
BRANCH   6   7
ATOM      7  C   UNL     1      -3.726  -6.599  -3.893  1.00  0.00     0.041 C 
ATOM      8  O   UNL     1      -3.109  -7.490  -3.250  1.00  0.00    -0.550 OA
ATOM      9  O   UNL     1      -3.010  -5.614  -4.563  1.00  0.00    -0.550 OA
ENDBRANCH   6   7
ENDBRANCH   5   6
ENDBRANCH   4   5
ENDBRANCH   3   4
ENDBRANCH   2   3
ENDBRANCH   1   2
BRANCH   1  10
ATOM     10  C   UNL     1      -9.988  -6.709  -4.995  1.00  0.00     0.000 C 
BRANCH  10  11
ATOM     11  C   UNL     1      -9.835  -5.235  -4.576  1.00  0.00    -0.000 C 
BRANCH  11  12
ATOM     12  C   UNL     1      -8.486  -4.944  -3.903  1.00  0.00    -0.000 C 
BRANCH  12  13
ATOM     13  C   UNL     1      -8.691  -4.314  -2.517  1.00  0.00    -0.000 C 
BRANCH  13  14
ATOM     14  C   UNL     1     -10.069  -4.639  -1.916  1.00  0.00    -0.000 C 
BRANCH  14  15
ATOM     15  C   UNL     1      -9.971  -5.450  -0.615  1.00  0.00    -0.000 C 
BRANCH  15  16
ATOM     16  C   UNL     1      -8.570  -6.049  -0.448  1.00  0.00    -0.003 C 
ATOM     17  C   UNL     1      -8.622  -7.575  -0.423  1.00  0.00     0.004 C 
ENDBRANCH  15  16
ENDBRANCH  14  15
ENDBRANCH  13  14
ENDBRANCH  12  13
ENDBRANCH  11  12
ENDBRANCH  10  11
ENDBRANCH   1  10
TORSDOF 13
ENDMDL
MODEL 3
REMARK VINA RESULT:    -3.275      2.026      2.449
REMARK INTER + INTRA:          -7.367
REMARK INTER:                  -5.992
REMARK INTRA:                  -1.375
REMARK UNBOUND:                -1.603
REMARK SMILES CCCCCCCCCCCCCCC(=O)[O-]
REMARK SMILES IDX 9 1 10 2 11 3 12 4 13 5 14 6 15 7 16 8 17 9 8 10 7 11 6 12
REMARK SMILES IDX 5 13 4 14 3 15 2 16 1 17
REMARK H PARENT
REMARK Flexibility Score: inf
ROOT
ATOM      1  C   UNL     1      -0.991   8.791   4.457  1.00  0.00     0.000 C 
ENDROOT
BRANCH   1   2
ATOM      2  C   UNL     1      -2.033   9.701   3.780  1.00  0.00     0.000 C 
BRANCH   2   3
ATOM      3  C   UNL     1      -3.442   9.536   4.375  1.00  0.00     0.000 C 
BRANCH   3   4
ATOM      4  C   UNL     1      -3.899   8.068   4.410  1.00  0.00     0.000 C 
BRANCH   4   5
ATOM      5  C   UNL     1      -4.849   7.714   3.253  1.00  0.00     0.006 C 
BRANCH   5   6
ATOM      6  C   UNL     1      -4.193   6.774   2.234  1.00  0.00     0.053 C 
BRANCH   6   7
ATOM      7  C   UNL     1      -3.799   5.468   2.854  1.00  0.00     0.041 C 
ATOM      8  O   UNL     1      -4.668   4.733   3.394  1.00  0.00    -0.550 OA
ATOM      9  O   UNL     1      -2.466   5.076   2.862  1.00  0.00    -0.550 OA
ENDBRANCH   6   7
ENDBRANCH   5   6
ENDBRANCH   4   5
ENDBRANCH   3   4
ENDBRANCH   2   3
ENDBRANCH   1   2
BRANCH   1  10
ATOM     10  C   UNL     1       0.387   9.437   4.702  1.00  0.00     0.000 C 
BRANCH  10  11
ATOM     11  C   UNL     1       0.693   9.788   6.170  1.00  0.00    -0.000 C 
BRANCH  11  12
ATOM     12  C   UNL     1       1.890   9.007   6.733  1.00  0.00    -0.000 C 
BRANCH  12  13
ATOM     13  C   UNL     1       2.547   8.152   5.639  1.00  0.00    -0.000 C 
BRANCH  13  14
ATOM     14  C   UNL     1       2.936   6.750   6.137  1.00  0.00    -0.000 C 
BRANCH  14  15
ATOM     15  C   UNL     1       2.605   5.647   5.121  1.00  0.00    -0.000 C 
BRANCH  15  16
ATOM     16  C   UNL     1       1.160   5.776   4.625  1.00  0.00    -0.003 C 
ATOM     17  C   UNL     1       1.106   5.880   3.103  1.00  0.00     0.004 C 
ENDBRANCH  15  16
ENDBRANCH  14  15
ENDBRANCH  13  14
ENDBRANCH  12  13
ENDBRANCH  11  12
ENDBRANCH  10  11
ENDBRANCH   1  10
TORSDOF 13
ENDMDL
MODEL 4
REMARK VINA RESULT:    -3.272      3.816      6.584
REMARK INTER + INTRA:          -7.361
REMARK INTER:                  -5.533
REMARK INTRA:                  -1.828
REMARK UNBOUND:                -1.603
REMARK SMILES CCCCCCCCCCCCCCC(=O)[O-]
REMARK SMILES IDX 9 1 10 2 11 3 12 4 13 5 14 6 15 7 16 8 17 9 8 10 7 11 6 12
REMARK SMILES IDX 5 13 4 14 3 15 2 16 1 17
REMARK H PARENT
REMARK Flexibility Score: inf
ROOT
ATOM      1  C   UNL     1       0.535   8.235   2.828  1.00  0.00     0.000 C 
ENDROOT
BRANCH   1   2
ATOM      2  C   UNL     1      -0.002   6.835   3.175  1.00  0.00     0.000 C 
BRANCH   2   3
ATOM      3  C   UNL     1       0.824   6.135   4.269  1.00  0.00     0.000 C 
BRANCH   3   4
ATOM      4  C   UNL     1       2.235   6.729   4.412  1.00  0.00     0.000 C 
BRANCH   4   5
ATOM      5  C   UNL     1       2.638   6.954   5.880  1.00  0.00     0.006 C 
BRANCH   5   6
ATOM      6  C   UNL     1       1.954   8.186   6.485  1.00  0.00     0.053 C 
BRANCH   6   7
ATOM      7  C   UNL     1       2.819   9.406   6.389  1.00  0.00     0.041 C 
ATOM      8  O   UNL     1       2.796  10.121   5.352  1.00  0.00    -0.550 OA
ATOM      9  O   UNL     1       3.672   9.737   7.434  1.00  0.00    -0.550 OA
ENDBRANCH   6   7
ENDBRANCH   5   6
ENDBRANCH   4   5
ENDBRANCH   3   4
ENDBRANCH   2   3
ENDBRANCH   1   2
BRANCH   1  10
ATOM     10  C   UNL     1      -0.169   9.406   3.542  1.00  0.00     0.000 C 
BRANCH  10  11
ATOM     11  C   UNL     1      -1.189   8.995   4.621  1.00  0.00    -0.000 C 
BRANCH  11  12
ATOM     12  C   UNL     1      -2.201  10.105   4.938  1.00  0.00    -0.000 C 
BRANCH  12  13
ATOM     13  C   UNL     1      -3.632   9.649   4.615  1.00  0.00    -0.000 C 
BRANCH  13  14
ATOM     14  C   UNL     1      -3.699   8.180   4.166  1.00  0.00    -0.000 C 
BRANCH  14  15
ATOM     15  C   UNL     1      -4.322   8.014   2.772  1.00  0.00    -0.000 C 
BRANCH  15  16
ATOM     16  C   UNL     1      -3.234   7.864   1.701  1.00  0.00    -0.003 C 
ATOM     17  C   UNL     1      -3.261   6.469   1.081  1.00  0.00     0.004 C 
ENDBRANCH  15  16
ENDBRANCH  14  15
ENDBRANCH  13  14
ENDBRANCH  12  13
ENDBRANCH  11  12
ENDBRANCH  10  11
ENDBRANCH   1  10
TORSDOF 13
ENDMDL
MODEL 5
REMARK VINA RESULT:    -3.257     10.825     12.374
REMARK INTER + INTRA:          -7.336
REMARK INTER:                  -5.641
REMARK INTRA:                  -1.695
REMARK UNBOUND:                -1.603
REMARK SMILES CCCCCCCCCCCCCCC(=O)[O-]
REMARK SMILES IDX 9 1 10 2 11 3 12 4 13 5 14 6 15 7 16 8 17 9 8 10 7 11 6 12
REMARK SMILES IDX 5 13 4 14 3 15 2 16 1 17
REMARK H PARENT
REMARK Flexibility Score: inf
ROOT
ATOM      1  C   UNL     1      -9.511  -0.888  12.089  1.00  0.00     0.000 C 
ENDROOT
BRANCH   1   2
ATOM      2  C   UNL     1      -9.227  -2.223  11.376  1.00  0.00     0.000 C 
BRANCH   2   3
ATOM      3  C   UNL     1      -9.273  -2.100   9.843  1.00  0.00     0.000 C 
BRANCH   3   4
ATOM      4  C   UNL     1      -7.983  -2.602   9.173  1.00  0.00     0.000 C 
BRANCH   4   5
ATOM      5  C   UNL     1      -7.693  -1.894   7.838  1.00  0.00     0.006 C 
BRANCH   5   6
ATOM      6  C   UNL     1      -8.632  -0.706   7.598  1.00  0.00     0.053 C 
BRANCH   6   7
ATOM      7  C   UNL     1      -7.943   0.412   6.878  1.00  0.00     0.041 C 
ATOM      8  O   UNL     1      -8.301   1.606   7.066  1.00  0.00    -0.550 OA
ATOM      9  O   UNL     1      -6.923   0.135   5.977  1.00  0.00    -0.550 OA
ENDBRANCH   6   7
ENDBRANCH   5   6
ENDBRANCH   4   5
ENDBRANCH   3   4
ENDBRANCH   2   3
ENDBRANCH   1   2
BRANCH   1  10
ATOM     10  C   UNL     1      -9.276   0.376  11.239  1.00  0.00     0.000 C 
BRANCH  10  11
ATOM     11  C   UNL     1      -8.379   1.444  11.891  1.00  0.00    -0.000 C 
BRANCH  11  12
ATOM     12  C   UNL     1      -6.881   1.167  11.693  1.00  0.00    -0.000 C 
BRANCH  12  13
ATOM     13  C   UNL     1      -6.568   0.881  10.216  1.00  0.00    -0.000 C 
BRANCH  13  14
ATOM     14  C   UNL     1      -5.160   0.299  10.010  1.00  0.00    -0.000 C 
BRANCH  14  15
ATOM     15  C   UNL     1      -4.049   1.322  10.292  1.00  0.00    -0.000 C 
BRANCH  15  16
ATOM     16  C   UNL     1      -3.134   1.484   9.073  1.00  0.00    -0.003 C 
ATOM     17  C   UNL     1      -3.623   0.639   7.899  1.00  0.00     0.004 C 
ENDBRANCH  15  16
ENDBRANCH  14  15
ENDBRANCH  13  14
ENDBRANCH  12  13
ENDBRANCH  11  12
ENDBRANCH  10  11
ENDBRANCH   1  10
TORSDOF 13
ENDMDL
MODEL 6
REMARK VINA RESULT:    -3.220      4.255      7.509
REMARK INTER + INTRA:          -7.270
REMARK INTER:                  -6.500
REMARK INTRA:                  -0.770
REMARK UNBOUND:                -1.603
REMARK SMILES CCCCCCCCCCCCCCC(=O)[O-]
REMARK SMILES IDX 9 1 10 2 11 3 12 4 13 5 14 6 15 7 16 8 17 9 8 10 7 11 6 12
REMARK SMILES IDX 5 13 4 14 3 15 2 16 1 17
REMARK H PARENT
REMARK Flexibility Score: inf
ROOT
ATOM      1  C   UNL     1       1.565   9.707   6.903  1.00  0.00     0.000 C 
ENDROOT
BRANCH   1   2
ATOM      2  C   UNL     1       2.623   8.596   7.039  1.00  0.00     0.000 C 
BRANCH   2   3
ATOM      3  C   UNL     1       2.802   7.783   5.745  1.00  0.00     0.000 C 
BRANCH   3   4
ATOM      4  C   UNL     1       2.090   6.421   5.802  1.00  0.00     0.000 C 
BRANCH   4   5
ATOM      5  C   UNL     1       3.073   5.242   5.902  1.00  0.00     0.006 C 
BRANCH   5   6
ATOM      6  C   UNL     1       2.370   3.888   5.742  1.00  0.00     0.053 C 
BRANCH   6   7
ATOM      7  C   UNL     1       2.377   3.102   7.017  1.00  0.00     0.041 C 
ATOM      8  O   UNL     1       1.331   3.012   7.714  1.00  0.00    -0.550 OA
ATOM      9  O   UNL     1       3.548   2.494   7.452  1.00  0.00    -0.550 OA
ENDBRANCH   6   7
ENDBRANCH   5   6
ENDBRANCH   4   5
ENDBRANCH   3   4
ENDBRANCH   2   3
ENDBRANCH   1   2
BRANCH   1  10
ATOM     10  C   UNL     1       1.059   9.962   5.469  1.00  0.00     0.000 C 
BRANCH  10  11
ATOM     11  C   UNL     1      -0.440   9.690   5.247  1.00  0.00    -0.000 C 
BRANCH  11  12
ATOM     12  C   UNL     1      -0.707   8.752   4.061  1.00  0.00    -0.000 C 
BRANCH  12  13
ATOM     13  C   UNL     1      -2.128   8.955   3.512  1.00  0.00    -0.000 C 
BRANCH  13  14
ATOM     14  C   UNL     1      -3.203   8.297   4.392  1.00  0.00    -0.000 C 
BRANCH  14  15
ATOM     15  C   UNL     1      -4.589   8.293   3.731  1.00  0.00    -0.000 C 
BRANCH  15  16
ATOM     16  C   UNL     1      -5.032   9.718   3.381  1.00  0.00    -0.003 C 
ATOM     17  C   UNL     1      -6.276   9.706   2.495  1.00  0.00     0.004 C 
ENDBRANCH  15  16
ENDBRANCH  14  15
ENDBRANCH  13  14
ENDBRANCH  12  13
ENDBRANCH  11  12
ENDBRANCH  10  11
ENDBRANCH   1  10
TORSDOF 13
ENDMDL
MODEL 7
REMARK VINA RESULT:    -3.202     16.393     18.840
REMARK INTER + INTRA:          -7.239
REMARK INTER:                  -5.173
REMARK INTRA:                  -2.066
REMARK UNBOUND:                -1.603
REMARK SMILES CCCCCCCCCCCCCCC(=O)[O-]
REMARK SMILES IDX 9 1 10 2 11 3 12 4 13 5 14 6 15 7 16 8 17 9 8 10 7 11 6 12
REMARK SMILES IDX 5 13 4 14 3 15 2 16 1 17
REMARK H PARENT
REMARK Flexibility Score: inf
ROOT
ATOM      1  C   UNL     1      -6.546  -8.831  -4.078  1.00  0.00     0.000 C 
ENDROOT
BRANCH   1   2
ATOM      2  C   UNL     1      -5.789  -8.575  -2.762  1.00  0.00     0.000 C 
BRANCH   2   3
ATOM      3  C   UNL     1      -5.305  -7.121  -2.627  1.00  0.00     0.000 C 
BRANCH   3   4
ATOM      4  C   UNL     1      -5.051  -6.456  -3.990  1.00  0.00     0.000 C 
BRANCH   4   5
ATOM      5  C   UNL     1      -3.562  -6.447  -4.378  1.00  0.00     0.006 C 
BRANCH   5   6
ATOM      6  C   UNL     1      -2.741  -5.497  -3.497  1.00  0.00     0.053 C 
BRANCH   6   7
ATOM      7  C   UNL     1      -2.790  -4.088  -4.002  1.00  0.00     0.041 C 
ATOM      8  O   UNL     1      -2.552  -3.838  -5.214  1.00  0.00    -0.550 OA
ATOM      9  O   UNL     1      -3.069  -3.045  -3.127  1.00  0.00    -0.550 OA
ENDBRANCH   6   7
ENDBRANCH   5   6
ENDBRANCH   4   5
ENDBRANCH   3   4
ENDBRANCH   2   3
ENDBRANCH   1   2
BRANCH   1  10
ATOM     10  C   UNL     1      -8.067  -9.038  -3.933  1.00  0.00     0.000 C 
BRANCH  10  11
ATOM     11  C   UNL     1      -8.933  -8.229  -4.917  1.00  0.00    -0.000 C 
BRANCH  11  12
ATOM     12  C   UNL     1      -9.686  -7.075  -4.240  1.00  0.00    -0.000 C 
BRANCH  12  13
ATOM     13  C   UNL     1      -8.744  -5.892  -3.969  1.00  0.00    -0.000 C 
BRANCH  13  14
ATOM     14  C   UNL     1      -8.675  -5.518  -2.480  1.00  0.00    -0.000 C 
BRANCH  14  15
ATOM     15  C   UNL     1      -9.526  -6.442  -1.597  1.00  0.00    -0.000 C 
BRANCH  15  16
ATOM     16  C   UNL     1      -8.636  -7.323  -0.711  1.00  0.00    -0.003 C 
ATOM     17  C   UNL     1      -7.752  -6.475   0.199  1.00  0.00     0.004 C 
ENDBRANCH  15  16
ENDBRANCH  14  15
ENDBRANCH  13  14
ENDBRANCH  12  13
ENDBRANCH  11  12
ENDBRANCH  10  11
ENDBRANCH   1  10
TORSDOF 13
ENDMDL
MODEL 8
REMARK VINA RESULT:    -3.154     17.167     18.669
REMARK INTER + INTRA:          -7.155
REMARK INTER:                  -5.070
REMARK INTRA:                  -2.085
REMARK UNBOUND:                -1.603
REMARK SMILES CCCCCCCCCCCCCCC(=O)[O-]
REMARK SMILES IDX 9 1 10 2 11 3 12 4 13 5 14 6 15 7 16 8 17 9 8 10 7 11 6 12
REMARK SMILES IDX 5 13 4 14 3 15 2 16 1 17
REMARK H PARENT
REMARK Flexibility Score: inf
ROOT
ATOM      1  C   UNL     1      -8.662  -5.083   0.133  1.00  0.00     0.000 C 
ENDROOT
BRANCH   1   2
ATOM      2  C   UNL     1      -9.865  -5.415  -0.769  1.00  0.00     0.000 C 
BRANCH   2   3
ATOM      3  C   UNL     1      -9.485  -5.509  -2.257  1.00  0.00     0.000 C 
BRANCH   3   4
ATOM      4  C   UNL     1     -10.004  -6.798  -2.916  1.00  0.00     0.000 C 
BRANCH   4   5
ATOM      5  C   UNL     1      -9.255  -7.142  -4.216  1.00  0.00     0.006 C 
BRANCH   5   6
ATOM      6  C   UNL     1      -7.979  -7.951  -3.951  1.00  0.00     0.053 C 
BRANCH   6   7
ATOM      7  C   UNL     1      -7.924  -9.193  -4.785  1.00  0.00     0.041 C 
ATOM      8  O   UNL     1      -7.129 -10.124  -4.487  1.00  0.00    -0.550 OA
ATOM      9  O   UNL     1      -8.730  -9.312  -5.910  1.00  0.00    -0.550 OA
ENDBRANCH   6   7
ENDBRANCH   5   6
ENDBRANCH   4   5
ENDBRANCH   3   4
ENDBRANCH   2   3
ENDBRANCH   1   2
BRANCH   1  10
ATOM     10  C   UNL     1      -8.181  -6.235   1.038  1.00  0.00     0.000 C 
BRANCH  10  11
ATOM     11  C   UNL     1      -8.617  -7.643   0.591  1.00  0.00    -0.000 C 
BRANCH  11  12
ATOM     12  C   UNL     1      -7.670  -8.257  -0.450  1.00  0.00    -0.000 C 
BRANCH  12  13
ATOM     13  C   UNL     1      -6.205  -7.940  -0.112  1.00  0.00    -0.000 C 
BRANCH  13  14
ATOM     14  C   UNL     1      -5.397  -7.491  -1.340  1.00  0.00    -0.000 C 
BRANCH  14  15
ATOM     15  C   UNL     1      -5.547  -5.990  -1.632  1.00  0.00    -0.000 C 
BRANCH  15  16
ATOM     16  C   UNL     1      -5.321  -5.697  -3.120  1.00  0.00    -0.003 C 
ATOM     17  C   UNL     1      -6.212  -4.553  -3.598  1.00  0.00     0.004 C 
ENDBRANCH  15  16
ENDBRANCH  14  15
ENDBRANCH  13  14
ENDBRANCH  12  13
ENDBRANCH  11  12
ENDBRANCH  10  11
ENDBRANCH   1  10
TORSDOF 13
ENDMDL
MODEL 9
REMARK VINA RESULT:    -3.115      3.950      7.118
REMARK INTER + INTRA:          -7.086
REMARK INTER:                  -5.625
REMARK INTRA:                  -1.461
REMARK UNBOUND:                -1.603
REMARK SMILES CCCCCCCCCCCCCCC(=O)[O-]
REMARK SMILES IDX 9 1 10 2 11 3 12 4 13 5 14 6 15 7 16 8 17 9 8 10 7 11 6 12
REMARK SMILES IDX 5 13 4 14 3 15 2 16 1 17
REMARK H PARENT
REMARK Flexibility Score: inf
ROOT
ATOM      1  C   UNL     1      -0.312   6.213   2.545  1.00  0.00     0.000 C 
ENDROOT
BRANCH   1   2
ATOM      2  C   UNL     1       0.239   6.703   3.897  1.00  0.00     0.000 C 
BRANCH   2   3
ATOM      3  C   UNL     1       0.104   8.224   4.079  1.00  0.00     0.000 C 
BRANCH   3   4
ATOM      4  C   UNL     1       1.413   8.972   3.778  1.00  0.00     0.000 C 
BRANCH   4   5
ATOM      5  C   UNL     1       1.866   9.869   4.944  1.00  0.00     0.006 C 
BRANCH   5   6
ATOM      6  C   UNL     1       1.506   9.268   6.309  1.00  0.00     0.053 C 
BRANCH   6   7
ATOM      7  C   UNL     1       2.641   8.480   6.887  1.00  0.00     0.041 C 
ATOM      8  O   UNL     1       2.950   7.359   6.402  1.00  0.00    -0.550 OA
ATOM      9  O   UNL     1       3.340   8.972   7.983  1.00  0.00    -0.550 OA
ENDBRANCH   6   7
ENDBRANCH   5   6
ENDBRANCH   4   5
ENDBRANCH   3   4
ENDBRANCH   2   3
ENDBRANCH   1   2
BRANCH   1  10
ATOM     10  C   UNL     1      -1.025   7.287   1.697  1.00  0.00     0.000 C 
BRANCH  10  11
ATOM     11  C   UNL     1      -2.553   7.130   1.595  1.00  0.00    -0.000 C 
BRANCH  11  12
ATOM     12  C   UNL     1      -3.130   6.193   2.667  1.00  0.00    -0.000 C 
BRANCH  12  13
ATOM     13  C   UNL     1      -4.121   6.942   3.571  1.00  0.00    -0.000 C 
BRANCH  13  14
ATOM     14  C   UNL     1      -4.963   7.973   2.802  1.00  0.00    -0.000 C 
BRANCH  14  15
ATOM     15  C   UNL     1      -5.069   9.318   3.536  1.00  0.00    -0.000 C 
BRANCH  15  16
ATOM     16  C   UNL     1      -3.772  10.124   3.392  1.00  0.00    -0.003 C 
ATOM     17  C   UNL     1      -2.975  10.125   4.694  1.00  0.00     0.004 C 
ENDBRANCH  15  16
ENDBRANCH  14  15
ENDBRANCH  13  14
ENDBRANCH  12  13
ENDBRANCH  11  12
ENDBRANCH  10  11
ENDBRANCH   1  10
TORSDOF 13
ENDMDL
