MODEL 1
REMARK VINA RESULT:    -2.641      0.000      0.000
REMARK INTER + INTRA:          -3.183
REMARK INTER:                  -3.105
REMARK INTRA:                  -0.079
REMARK UNBOUND:                -0.079
REMARK SMILES O=C([O-])CCC(=O)[O-]
REMARK SMILES IDX 4 1 2 2 1 3 3 4 5 5 6 6 7 7 8 8
REMARK H PARENT
REMARK Flexibility Score: inf
ROOT
ATOM      1  C   UNL     1      19.207  -6.439   3.484  1.00  0.00     0.059 C 
ENDROOT
BRANCH   1   2
ATOM      2  C   UNL     1      20.496  -7.194   3.391  1.00  0.00     0.042 C 
ATOM      3  O   UNL     1      21.563  -6.678   3.812  1.00  0.00    -0.550 OA
ATOM      4  O   UNL     1      20.525  -8.448   2.794  1.00  0.00    -0.550 OA
ENDBRANCH   1   2
BRANCH   1   5
ATOM      5  C   UNL     1      19.475  -4.945   3.675  1.00  0.00     0.059 C 
BRANCH   5   6
ATOM      6  C   UNL     1      18.892  -4.160   2.542  1.00  0.00     0.042 C 
ATOM      7  O   UNL     1      18.833  -2.904   2.608  1.00  0.00    -0.550 OA
ATOM      8  O   UNL     1      18.461  -4.811   1.394  1.00  0.00    -0.550 OA
ENDBRANCH   5   6
ENDBRANCH   1   5
TORSDOF 3
ENDMDL
MODEL 2
REMARK VINA RESULT:    -2.638      0.068      3.794
REMARK INTER + INTRA:          -3.179
REMARK INTER:                  -3.102
REMARK INTRA:                  -0.077
REMARK UNBOUND:                -0.079
REMARK SMILES O=C([O-])CCC(=O)[O-]
REMARK SMILES IDX 4 1 2 2 1 3 3 4 5 5 6 6 7 7 8 8
REMARK H PARENT
REMARK Flexibility Score: inf
ROOT
ATOM      1  C   UNL     1      19.478  -4.965   3.673  1.00  0.00     0.059 C 
ENDROOT
BRANCH   1   2
ATOM      2  C   UNL     1      18.914  -4.148   2.554  1.00  0.00     0.042 C 
ATOM      3  O   UNL     1      18.816  -2.898   2.670  1.00  0.00    -0.550 OA
ATOM      4  O   UNL     1      18.450  -4.771   1.402  1.00  0.00    -0.550 OA
ENDBRANCH   1   2
BRANCH   1   5
ATOM      5  C   UNL     1      19.225  -6.454   3.429  1.00  0.00     0.059 C 
BRANCH   5   6
ATOM      6  C   UNL     1      20.521  -7.192   3.309  1.00  0.00     0.042 C 
ATOM      7  O   UNL     1      21.568  -6.720   3.824  1.00  0.00    -0.550 OA
ATOM      8  O   UNL     1      20.562  -8.426   2.672  1.00  0.00    -0.550 OA
ENDBRANCH   5   6
ENDBRANCH   1   5
TORSDOF 3
ENDMDL
MODEL 3
REMARK VINA RESULT:    -2.574      4.496      6.018
REMARK INTER + INTRA:          -3.104
REMARK INTER:                  -3.062
REMARK INTRA:                  -0.042
REMARK UNBOUND:                -0.079
REMARK SMILES O=C([O-])CCC(=O)[O-]
REMARK SMILES IDX 4 1 2 2 1 3 3 4 5 5 6 6 7 7 8 8
REMARK H PARENT
REMARK Flexibility Score: inf
ROOT
ATOM      1  C   UNL     1      19.049  -9.742   1.041  1.00  0.00     0.059 C 
ENDROOT
BRANCH   1   2
ATOM      2  C   UNL     1      20.365  -9.650   1.748  1.00  0.00     0.042 C 
ATOM      3  O   UNL     1      21.162 -10.624   1.731  1.00  0.00    -0.550 OA
ATOM      4  O   UNL     1      20.689  -8.506   2.467  1.00  0.00    -0.550 OA
ENDBRANCH   1   2
BRANCH   1   5
ATOM      5  C   UNL     1      18.687 -11.204   0.773  1.00  0.00     0.059 C 
BRANCH   5   6
ATOM      6  C   UNL     1      17.738 -11.305  -0.380  1.00  0.00     0.042 C 
ATOM      7  O   UNL     1      16.883 -10.402  -0.576  1.00  0.00    -0.550 OA
ATOM      8  O   UNL     1      17.830 -12.371  -1.266  1.00  0.00    -0.550 OA
ENDBRANCH   5   6
ENDBRANCH   1   5
TORSDOF 3
ENDMDL
MODEL 4
REMARK VINA RESULT:    -2.568      4.535      6.347
REMARK INTER + INTRA:          -3.097
REMARK INTER:                  -3.058
REMARK INTRA:                  -0.040
REMARK UNBOUND:                -0.079
REMARK SMILES O=C([O-])CCC(=O)[O-]
REMARK SMILES IDX 4 1 2 2 1 3 3 4 5 5 6 6 7 7 8 8
REMARK H PARENT
REMARK Flexibility Score: inf
ROOT
ATOM      1  C   UNL     1      18.625 -11.257   0.774  1.00  0.00     0.059 C 
ENDROOT
BRANCH   1   2
ATOM      2  C   UNL     1      17.730 -11.362  -0.420  1.00  0.00     0.042 C 
ATOM      3  O   UNL     1      17.845 -12.332  -1.214  1.00  0.00    -0.550 OA
ATOM      4  O   UNL     1      16.801 -10.362  -0.683  1.00  0.00    -0.550 OA
ENDBRANCH   1   2
BRANCH   1   5
ATOM      5  C   UNL     1      19.023  -9.801   1.019  1.00  0.00     0.059 C 
BRANCH   5   6
ATOM      6  C   UNL     1      20.301  -9.731   1.796  1.00  0.00     0.042 C 
ATOM      7  O   UNL     1      21.092 -10.710   1.802  1.00  0.00    -0.550 OA
ATOM      8  O   UNL     1      20.640  -8.565   2.471  1.00  0.00    -0.550 OA
ENDBRANCH   5   6
ENDBRANCH   1   5
TORSDOF 3
ENDMDL
MODEL 5
REMARK VINA RESULT:    -2.388      4.880      5.485
REMARK INTER + INTRA:          -2.886
REMARK INTER:                  -2.764
REMARK INTRA:                  -0.123
REMARK UNBOUND:                -0.079
REMARK SMILES O=C([O-])CCC(=O)[O-]
REMARK SMILES IDX 4 1 2 2 1 3 3 4 5 5 6 6 7 7 8 8
REMARK H PARENT
REMARK Flexibility Score: inf
ROOT
ATOM      1  C   UNL     1      19.101 -11.008   1.928  1.00  0.00     0.059 C 
ENDROOT
BRANCH   1   2
ATOM      2  C   UNL     1      20.559 -10.674   1.905  1.00  0.00     0.042 C 
ATOM      3  O   UNL     1      20.939  -9.522   1.565  1.00  0.00    -0.550 OA
ATOM      4  O   UNL     1      21.501 -11.648   2.209  1.00  0.00    -0.550 OA
ENDBRANCH   1   2
BRANCH   1   5
ATOM      5  C   UNL     1      18.567 -11.175   0.504  1.00  0.00     0.059 C 
BRANCH   5   6
ATOM      6  C   UNL     1      17.632 -10.058   0.162  1.00  0.00     0.042 C 
ATOM      7  O   UNL     1      16.860 -10.160  -0.827  1.00  0.00    -0.550 OA
ATOM      8  O   UNL     1      17.577  -8.925   0.964  1.00  0.00    -0.550 OA
ENDBRANCH   5   6
ENDBRANCH   1   5
TORSDOF 3
ENDMDL
MODEL 6
REMARK VINA RESULT:    -2.292      2.055      3.150
REMARK INTER + INTRA:          -2.773
REMARK INTER:                  -2.670
REMARK INTRA:                  -0.104
REMARK UNBOUND:                -0.079
REMARK SMILES O=C([O-])CCC(=O)[O-]
REMARK SMILES IDX 4 1 2 2 1 3 3 4 5 5 6 6 7 7 8 8
REMARK H PARENT
REMARK Flexibility Score: inf
ROOT
ATOM      1  C   UNL     1      19.532  -8.899   3.177  1.00  0.00     0.059 C 
ENDROOT
BRANCH   1   2
ATOM      2  C   UNL     1      19.929  -9.404   1.825  1.00  0.00     0.042 C 
ATOM      3  O   UNL     1      21.144  -9.577   1.546  1.00  0.00    -0.550 OA
ATOM      4  O   UNL     1      18.960  -9.635   0.857  1.00  0.00    -0.550 OA
ENDBRANCH   1   2
BRANCH   1   5
ATOM      5  C   UNL     1      19.111  -7.431   3.098  1.00  0.00     0.059 C 
BRANCH   5   6
ATOM      6  C   UNL     1      20.205  -6.545   3.604  1.00  0.00     0.042 C 
ATOM      7  O   UNL     1      19.979  -5.327   3.830  1.00  0.00    -0.550 OA
ATOM      8  O   UNL     1      21.461  -7.074   3.874  1.00  0.00    -0.550 OA
ENDBRANCH   5   6
ENDBRANCH   1   5
TORSDOF 3
ENDMDL
MODEL 7
REMARK VINA RESULT:    -2.291      2.660      5.356
REMARK INTER + INTRA:          -2.772
REMARK INTER:                  -2.660
REMARK INTRA:                  -0.112
REMARK UNBOUND:                -0.079
REMARK SMILES O=C([O-])CCC(=O)[O-]
REMARK SMILES IDX 4 1 2 2 1 3 3 4 5 5 6 6 7 7 8 8
REMARK H PARENT
REMARK Flexibility Score: inf
ROOT
ATOM      1  C   UNL     1      18.573  -1.454   3.767  1.00  0.00     0.059 C 
ENDROOT
BRANCH   1   2
ATOM      2  C   UNL     1      17.490  -0.731   3.030  1.00  0.00     0.042 C 
ATOM      3  O   UNL     1      16.557  -0.173   3.664  1.00  0.00    -0.550 OA
ATOM      4  O   UNL     1      17.484  -0.718   1.641  1.00  0.00    -0.550 OA
ENDBRANCH   1   2
BRANCH   1   5
ATOM      5  C   UNL     1      18.148  -2.892   4.069  1.00  0.00     0.059 C 
BRANCH   5   6
ATOM      6  C   UNL     1      18.962  -3.858   3.266  1.00  0.00     0.042 C 
ATOM      7  O   UNL     1      19.079  -3.706   2.022  1.00  0.00    -0.550 OA
ATOM      8  O   UNL     1      19.634  -4.896   3.900  1.00  0.00    -0.550 OA
ENDBRANCH   5   6
ENDBRANCH   1   5
TORSDOF 3
ENDMDL
MODEL 8
REMARK VINA RESULT:    -2.286     18.022     18.772
REMARK INTER + INTRA:          -2.765
REMARK INTER:                  -2.734
REMARK INTRA:                  -0.031
REMARK UNBOUND:                -0.079
REMARK SMILES O=C([O-])CCC(=O)[O-]
REMARK SMILES IDX 4 1 2 2 1 3 3 4 5 5 6 6 7 7 8 8
REMARK H PARENT
REMARK Flexibility Score: inf
ROOT
ATOM      1  C   UNL     1      14.250 -12.682 -12.941  1.00  0.00     0.059 C 
ENDROOT
BRANCH   1   2
ATOM      2  C   UNL     1      13.185 -13.536 -13.554  1.00  0.00     0.042 C 
ATOM      3  O   UNL     1      12.720 -13.249 -14.689  1.00  0.00    -0.550 OA
ATOM      4  O   UNL     1      12.671 -14.619 -12.852  1.00  0.00    -0.550 OA
ENDBRANCH   1   2
BRANCH   1   5
ATOM      5  C   UNL     1      15.283 -12.276 -13.993  1.00  0.00     0.059 C 
BRANCH   5   6
ATOM      6  C   UNL     1      16.601 -11.985 -13.347  1.00  0.00     0.042 C 
ATOM      7  O   UNL     1      17.474 -12.888 -13.256  1.00  0.00    -0.550 OA
ATOM      8  O   UNL     1      16.884 -10.704 -12.890  1.00  0.00    -0.550 OA
ENDBRANCH   5   6
ENDBRANCH   1   5
TORSDOF 3
ENDMDL
MODEL 9
REMARK VINA RESULT:    -2.257      2.885      4.433
REMARK INTER + INTRA:          -2.732
REMARK INTER:                  -2.623
REMARK INTRA:                  -0.108
REMARK UNBOUND:                -0.079
REMARK SMILES O=C([O-])CCC(=O)[O-]
REMARK SMILES IDX 4 1 2 2 1 3 3 4 5 5 6 6 7 7 8 8
REMARK H PARENT
REMARK Flexibility Score: inf
ROOT
ATOM      1  C   UNL     1      19.460  -8.921   2.929  1.00  0.00     0.059 C 
ENDROOT
BRANCH   1   2
ATOM      2  C   UNL     1      20.003  -7.528   3.004  1.00  0.00     0.042 C 
ATOM      3  O   UNL     1      21.170  -7.327   3.432  1.00  0.00    -0.550 OA
ATOM      4  O   UNL     1      19.203  -6.450   2.648  1.00  0.00    -0.550 OA
ENDBRANCH   1   2
BRANCH   1   5
ATOM      5  C   UNL     1      19.919  -9.606   1.641  1.00  0.00     0.059 C 
BRANCH   5   6
ATOM      6  C   UNL     1      18.756  -9.836   0.728  1.00  0.00     0.042 C 
ATOM      7  O   UNL     1      17.964  -8.894   0.463  1.00  0.00    -0.550 OA
ATOM      8  O   UNL     1      18.577 -11.076   0.129  1.00  0.00    -0.550 OA
ENDBRANCH   5   6
ENDBRANCH   1   5
TORSDOF 3
ENDMDL
