MODEL 1
REMARK VINA RESULT:    -3.475      0.000      0.000
REMARK INTER + INTRA:          -4.151
REMARK INTER:                  -4.084
REMARK INTRA:                  -0.067
REMARK UNBOUND:                -0.067
REMARK SMILES O=C([O-])CCC(=O)[O-]
REMARK SMILES IDX 4 1 2 2 1 3 3 4 5 5 6 6 7 7 8 8
REMARK H PARENT
REMARK Flexibility Score: inf
ROOT
ATOM      1  C   UNL     1      12.513 -30.683  22.284  1.00  0.00     0.059 C 
ENDROOT
BRANCH   1   2
ATOM      2  C   UNL     1      13.584 -31.065  21.313  1.00  0.00     0.042 C 
ATOM      3  O   UNL     1      14.621 -30.359  21.203  1.00  0.00    -0.550 OA
ATOM      4  O   UNL     1      13.415 -32.174  20.494  1.00  0.00    -0.550 OA
ENDBRANCH   1   2
BRANCH   1   5
ATOM      5  C   UNL     1      13.126 -30.074  23.547  1.00  0.00     0.059 C 
BRANCH   5   6
ATOM      6  C   UNL     1      12.559 -28.713  23.800  1.00  0.00     0.042 C 
ATOM      7  O   UNL     1      13.294 -27.792  24.243  1.00  0.00    -0.550 OA
ATOM      8  O   UNL     1      11.206 -28.474  23.594  1.00  0.00    -0.550 OA
ENDBRANCH   5   6
ENDBRANCH   1   5
TORSDOF 3
ENDMDL
MODEL 2
REMARK VINA RESULT:    -3.471      0.092      4.026
REMARK INTER + INTRA:          -4.146
REMARK INTER:                  -4.075
REMARK INTRA:                  -0.071
REMARK UNBOUND:                -0.067
REMARK SMILES O=C([O-])CCC(=O)[O-]
REMARK SMILES IDX 4 1 2 2 1 3 3 4 5 5 6 6 7 7 8 8
REMARK H PARENT
REMARK Flexibility Score: inf
ROOT
ATOM      1  C   UNL     1      13.087 -30.042  23.583  1.00  0.00     0.059 C 
ENDROOT
BRANCH   1   2
ATOM      2  C   UNL     1      12.536 -28.673  23.827  1.00  0.00     0.042 C 
ATOM      3  O   UNL     1      11.326 -28.425  23.581  1.00  0.00    -0.550 OA
ATOM      4  O   UNL     1      13.371 -27.659  24.277  1.00  0.00    -0.550 OA
ENDBRANCH   1   2
BRANCH   1   5
ATOM      5  C   UNL     1      12.472 -30.652  22.322  1.00  0.00     0.059 C 
BRANCH   5   6
ATOM      6  C   UNL     1      13.542 -31.029  21.347  1.00  0.00     0.042 C 
ATOM      7  O   UNL     1      14.590 -30.336  21.258  1.00  0.00    -0.550 OA
ATOM      8  O   UNL     1      13.362 -32.116  20.502  1.00  0.00    -0.550 OA
ENDBRANCH   5   6
ENDBRANCH   1   5
TORSDOF 3
ENDMDL
MODEL 3
REMARK VINA RESULT:    -3.359      9.420     10.373
REMARK INTER + INTRA:          -4.014
REMARK INTER:                  -3.906
REMARK INTRA:                  -0.108
REMARK UNBOUND:                -0.067
REMARK SMILES O=C([O-])CCC(=O)[O-]
REMARK SMILES IDX 4 1 2 2 1 3 3 4 5 5 6 6 7 7 8 8
REMARK H PARENT
REMARK Flexibility Score: inf
ROOT
ATOM      1  C   UNL     1      22.126 -25.063  20.763  1.00  0.00     0.059 C 
ENDROOT
BRANCH   1   2
ATOM      2  C   UNL     1      23.229 -25.012  19.753  1.00  0.00     0.042 C 
ATOM      3  O   UNL     1      23.447 -25.999  19.002  1.00  0.00    -0.550 OA
ATOM      4  O   UNL     1      24.048 -23.893  19.675  1.00  0.00    -0.550 OA
ENDBRANCH   1   2
BRANCH   1   5
ATOM      5  C   UNL     1      20.859 -25.654  20.143  1.00  0.00     0.059 C 
BRANCH   5   6
ATOM      6  C   UNL     1      20.561 -26.994  20.739  1.00  0.00     0.042 C 
ATOM      7  O   UNL     1      21.349 -27.504  21.578  1.00  0.00    -0.550 OA
ATOM      8  O   UNL     1      19.437 -27.702  20.333  1.00  0.00    -0.550 OA
ENDBRANCH   5   6
ENDBRANCH   1   5
TORSDOF 3
ENDMDL
MODEL 4
REMARK VINA RESULT:    -3.331      1.953      4.035
REMARK INTER + INTRA:          -3.981
REMARK INTER:                  -3.943
REMARK INTRA:                  -0.039
REMARK UNBOUND:                -0.067
REMARK SMILES O=C([O-])CCC(=O)[O-]
REMARK SMILES IDX 4 1 2 2 1 3 3 4 5 5 6 6 7 7 8 8
REMARK H PARENT
REMARK Flexibility Score: inf
ROOT
ATOM      1  C   UNL     1      12.750 -30.061  22.999  1.00  0.00     0.059 C 
ENDROOT
BRANCH   1   2
ATOM      2  C   UNL     1      12.173 -28.841  23.645  1.00  0.00     0.042 C 
ATOM      3  O   UNL     1      12.694 -28.372  24.691  1.00  0.00    -0.550 OA
ATOM      4  O   UNL     1      11.030 -28.252  23.120  1.00  0.00    -0.550 OA
ENDBRANCH   1   2
BRANCH   1   5
ATOM      5  C   UNL     1      13.906 -30.614  23.834  1.00  0.00     0.059 C 
BRANCH   5   6
ATOM      6  C   UNL     1      14.009 -32.097  23.668  1.00  0.00     0.042 C 
ATOM      7  O   UNL     1      13.847 -32.858  24.658  1.00  0.00    -0.550 OA
ATOM      8  O   UNL     1      14.331 -32.638  22.430  1.00  0.00    -0.550 OA
ENDBRANCH   5   6
ENDBRANCH   1   5
TORSDOF 3
ENDMDL
MODEL 5
REMARK VINA RESULT:    -3.323      9.454     10.412
REMARK INTER + INTRA:          -3.972
REMARK INTER:                  -3.860
REMARK INTRA:                  -0.112
REMARK UNBOUND:                -0.067
REMARK SMILES O=C([O-])CCC(=O)[O-]
REMARK SMILES IDX 4 1 2 2 1 3 3 4 5 5 6 6 7 7 8 8
REMARK H PARENT
REMARK Flexibility Score: inf
ROOT
ATOM      1  C   UNL     1      20.940 -25.712  20.139  1.00  0.00     0.059 C 
ENDROOT
BRANCH   1   2
ATOM      2  C   UNL     1      20.644 -27.031  20.779  1.00  0.00     0.042 C 
ATOM      3  O   UNL     1      21.479 -27.559  21.560  1.00  0.00    -0.550 OA
ATOM      4  O   UNL     1      19.467 -27.702  20.473  1.00  0.00    -0.550 OA
ENDBRANCH   1   2
BRANCH   1   5
ATOM      5  C   UNL     1      22.167 -25.066  20.786  1.00  0.00     0.059 C 
BRANCH   5   6
ATOM      6  C   UNL     1      23.286 -24.964  19.798  1.00  0.00     0.042 C 
ATOM      7  O   UNL     1      24.005 -23.931  19.759  1.00  0.00    -0.550 OA
ATOM      8  O   UNL     1      23.505 -25.988  18.886  1.00  0.00    -0.550 OA
ENDBRANCH   5   6
ENDBRANCH   1   5
TORSDOF 3
ENDMDL
MODEL 6
REMARK VINA RESULT:    -3.280      1.920      2.287
REMARK INTER + INTRA:          -3.922
REMARK INTER:                  -3.864
REMARK INTRA:                  -0.058
REMARK UNBOUND:                -0.067
REMARK SMILES O=C([O-])CCC(=O)[O-]
REMARK SMILES IDX 4 1 2 2 1 3 3 4 5 5 6 6 7 7 8 8
REMARK H PARENT
REMARK Flexibility Score: inf
ROOT
ATOM      1  C   UNL     1      13.992 -30.504  23.321  1.00  0.00     0.059 C 
ENDROOT
BRANCH   1   2
ATOM      2  C   UNL     1      14.023 -31.992  23.472  1.00  0.00     0.042 C 
ATOM      3  O   UNL     1      13.726 -32.523  24.574  1.00  0.00    -0.550 OA
ATOM      4  O   UNL     1      14.428 -32.790  22.409  1.00  0.00    -0.550 OA
ENDBRANCH   1   2
BRANCH   1   5
ATOM      5  C   UNL     1      12.636 -30.048  22.781  1.00  0.00     0.059 C 
BRANCH   5   6
ATOM      6  C   UNL     1      12.134 -28.871  23.555  1.00  0.00     0.042 C 
ATOM      7  O   UNL     1      11.131 -28.226  23.149  1.00  0.00    -0.550 OA
ATOM      8  O   UNL     1      12.802 -28.454  24.700  1.00  0.00    -0.550 OA
ENDBRANCH   5   6
ENDBRANCH   1   5
TORSDOF 3
ENDMDL
MODEL 7
REMARK VINA RESULT:    -3.243     10.510     11.370
REMARK INTER + INTRA:          -3.879
REMARK INTER:                  -3.760
REMARK INTRA:                  -0.118
REMARK UNBOUND:                -0.067
REMARK SMILES O=C([O-])CCC(=O)[O-]
REMARK SMILES IDX 4 1 2 2 1 3 3 4 5 5 6 6 7 7 8 8
REMARK H PARENT
REMARK Flexibility Score: inf
ROOT
ATOM      1  C   UNL     1      23.593 -26.736  20.196  1.00  0.00     0.059 C 
ENDROOT
BRANCH   1   2
ATOM      2  C   UNL     1      22.626 -27.337  21.167  1.00  0.00     0.042 C 
ATOM      3  O   UNL     1      21.660 -28.031  20.751  1.00  0.00    -0.550 OA
ATOM      4  O   UNL     1      22.762 -27.089  22.526  1.00  0.00    -0.550 OA
ENDBRANCH   1   2
BRANCH   1   5
ATOM      5  C   UNL     1      23.026 -25.445  19.604  1.00  0.00     0.059 C 
BRANCH   5   6
ATOM      6  C   UNL     1      23.624 -24.252  20.280  1.00  0.00     0.042 C 
ATOM      7  O   UNL     1      24.544 -23.600  19.719  1.00  0.00    -0.550 OA
ATOM      8  O   UNL     1      23.200 -23.888  21.552  1.00  0.00    -0.550 OA
ENDBRANCH   5   6
ENDBRANCH   1   5
TORSDOF 3
ENDMDL
MODEL 8
REMARK VINA RESULT:    -3.241      1.787      3.574
REMARK INTER + INTRA:          -3.876
REMARK INTER:                  -3.761
REMARK INTRA:                  -0.115
REMARK UNBOUND:                -0.067
REMARK SMILES O=C([O-])CCC(=O)[O-]
REMARK SMILES IDX 4 1 2 2 1 3 3 4 5 5 6 6 7 7 8 8
REMARK H PARENT
REMARK Flexibility Score: inf
ROOT
ATOM      1  C   UNL     1      13.013 -29.196  24.078  1.00  0.00     0.059 C 
ENDROOT
BRANCH   1   2
ATOM      2  C   UNL     1      11.857 -29.040  23.142  1.00  0.00     0.042 C 
ATOM      3  O   UNL     1      11.142 -28.005  23.186  1.00  0.00    -0.550 OA
ATOM      4  O   UNL     1      11.540 -30.060  22.254  1.00  0.00    -0.550 OA
ENDBRANCH   1   2
BRANCH   1   5
ATOM      5  C   UNL     1      13.635 -30.587  23.936  1.00  0.00     0.059 C 
BRANCH   5   6
ATOM      6  C   UNL     1      14.929 -30.507  23.189  1.00  0.00     0.042 C 
ATOM      7  O   UNL     1      14.933 -30.285  21.950  1.00  0.00    -0.550 OA
ATOM      8  O   UNL     1      16.130 -30.725  23.853  1.00  0.00    -0.550 OA
ENDBRANCH   5   6
ENDBRANCH   1   5
TORSDOF 3
ENDMDL
MODEL 9
REMARK VINA RESULT:    -3.210      9.866     10.899
REMARK INTER + INTRA:          -3.840
REMARK INTER:                  -3.718
REMARK INTRA:                  -0.122
REMARK UNBOUND:                -0.067
REMARK SMILES O=C([O-])CCC(=O)[O-]
REMARK SMILES IDX 4 1 2 2 1 3 3 4 5 5 6 6 7 7 8 8
REMARK H PARENT
REMARK Flexibility Score: inf
ROOT
ATOM      1  C   UNL     1      23.281 -26.109  19.732  1.00  0.00     0.059 C 
ENDROOT
BRANCH   1   2
ATOM      2  C   UNL     1      23.441 -24.675  20.126  1.00  0.00     0.042 C 
ATOM      3  O   UNL     1      24.104 -23.889  19.399  1.00  0.00    -0.550 OA
ATOM      4  O   UNL     1      22.901 -24.219  21.321  1.00  0.00    -0.550 OA
ENDBRANCH   1   2
BRANCH   1   5
ATOM      5  C   UNL     1      22.933 -26.965  20.951  1.00  0.00     0.059 C 
BRANCH   5   6
ATOM      6  C   UNL     1      21.542 -27.503  20.834  1.00  0.00     0.042 C 
ATOM      7  O   UNL     1      21.343 -28.746  20.810  1.00  0.00    -0.550 OA
ATOM      8  O   UNL     1      20.468 -26.632  20.702  1.00  0.00    -0.550 OA
ENDBRANCH   5   6
ENDBRANCH   1   5
TORSDOF 3
ENDMDL
