MODEL 1
REMARK VINA RESULT:    -4.249      0.000      0.000
REMARK INTER + INTRA:          -6.322
REMARK INTER:                  -5.740
REMARK INTRA:                  -0.582
REMARK UNBOUND:                -0.582
REMARK SMILES CC(=O)CCC=C(C)CCC=C(C)C
REMARK SMILES IDX 7 1 6 2 8 3 9 4 10 5 11 6 13 7 12 8 14 9 5 10 4 11 2 12 3 13
REMARK SMILES IDX 1 14
REMARK H PARENT
REMARK Flexibility Score: inf
ROOT
ATOM      1  C   UNL     1      -0.242 -21.274 -18.951  1.00  0.00    -0.077 C 
ATOM      2  C   UNL     1      -0.197 -20.048 -19.522  1.00  0.00    -0.028 C 
ATOM      3  C   UNL     1       1.004 -22.105 -18.747  1.00  0.00     0.039 C 
ENDROOT
BRANCH   1   4
ATOM      4  C   UNL     1      -1.576 -21.823 -18.494  1.00  0.00     0.034 C 
BRANCH   4   5
ATOM      5  C   UNL     1      -2.678 -20.767 -18.634  1.00  0.00     0.032 C 
BRANCH   5   6
ATOM      6  C   UNL     1      -4.005 -21.402 -18.977  1.00  0.00    -0.028 C 
ATOM      7  C   UNL     1      -6.321 -21.442 -19.802  1.00  0.00     0.039 C 
ATOM      8  C   UNL     1      -5.040 -20.709 -19.496  1.00  0.00    -0.080 C 
ATOM      9  C   UNL     1      -4.940 -19.228 -19.775  1.00  0.00     0.039 C 
ENDBRANCH   5   6
ENDBRANCH   4   5
ENDBRANCH   1   4
BRANCH   2  10
ATOM     10  C   UNL     1       1.056 -19.399 -20.055  1.00  0.00     0.035 C 
BRANCH  10  11
ATOM     11  C   UNL     1       1.784 -18.631 -18.947  1.00  0.00     0.079 C 
BRANCH  11  12
ATOM     12  C   UNL     1       3.099 -19.283 -18.622  1.00  0.00     0.130 C 
ATOM     13  O   UNL     1       3.474 -19.345 -17.460  1.00  0.00    -0.300 OA
ATOM     14  C   UNL     1       3.941 -19.879 -19.709  1.00  0.00     0.087 C 
ENDBRANCH  11  12
ENDBRANCH  10  11
ENDBRANCH   2  10
TORSDOF 6
ENDMDL
MODEL 2
REMARK VINA RESULT:    -4.048      2.974      6.738
REMARK INTER + INTRA:          -6.050
REMARK INTER:                  -5.198
REMARK INTRA:                  -0.852
REMARK UNBOUND:                -0.582
REMARK SMILES CC(=O)CCC=C(C)CCC=C(C)C
REMARK SMILES IDX 7 1 6 2 8 3 9 4 10 5 11 6 13 7 12 8 14 9 5 10 4 11 2 12 3 13
REMARK SMILES IDX 1 14
REMARK H PARENT
REMARK Flexibility Score: inf
ROOT
ATOM      1  C   UNL     1      -1.211 -21.348 -19.098  1.00  0.00    -0.077 C 
ATOM      2  C   UNL     1      -2.108 -21.686 -18.143  1.00  0.00    -0.028 C 
ATOM      3  C   UNL     1      -1.464 -20.213 -20.063  1.00  0.00     0.039 C 
ENDROOT
BRANCH   1   4
ATOM      4  C   UNL     1       0.086 -22.121 -19.194  1.00  0.00     0.034 C 
BRANCH   4   5
ATOM      5  C   UNL     1       1.178 -21.276 -19.861  1.00  0.00     0.032 C 
BRANCH   5   6
ATOM      6  C   UNL     1       2.229 -20.853 -18.862  1.00  0.00    -0.028 C 
ATOM      7  C   UNL     1       3.550 -19.250 -17.547  1.00  0.00     0.039 C 
ATOM      8  C   UNL     1       2.478 -19.562 -18.559  1.00  0.00    -0.080 C 
ATOM      9  C   UNL     1       1.710 -18.435 -19.209  1.00  0.00     0.039 C 
ENDBRANCH   5   6
ENDBRANCH   4   5
ENDBRANCH   1   4
BRANCH   2  10
ATOM     10  C   UNL     1      -3.452 -21.025 -17.959  1.00  0.00     0.035 C 
BRANCH  10  11
ATOM     11  C   UNL     1      -4.538 -21.780 -18.733  1.00  0.00     0.079 C 
BRANCH  11  12
ATOM     12  C   UNL     1      -5.485 -20.819 -19.395  1.00  0.00     0.130 C 
ATOM     13  O   UNL     1      -6.646 -21.149 -19.591  1.00  0.00    -0.300 OA
ATOM     14  C   UNL     1      -5.024 -19.450 -19.794  1.00  0.00     0.087 C 
ENDBRANCH  11  12
ENDBRANCH  10  11
ENDBRANCH   2  10
TORSDOF 6
ENDMDL
MODEL 3
REMARK VINA RESULT:    -3.946      1.081      1.909
REMARK INTER + INTRA:          -5.912
REMARK INTER:                  -5.198
REMARK INTRA:                  -0.714
REMARK UNBOUND:                -0.582
REMARK SMILES CC(=O)CCC=C(C)CCC=C(C)C
REMARK SMILES IDX 7 1 6 2 8 3 9 4 10 5 11 6 13 7 12 8 14 9 5 10 4 11 2 12 3 13
REMARK SMILES IDX 1 14
REMARK H PARENT
REMARK Flexibility Score: inf
ROOT
ATOM      1  C   UNL     1       0.612 -21.737 -19.260  1.00  0.00    -0.077 C 
ATOM      2  C   UNL     1       1.645 -21.435 -20.081  1.00  0.00    -0.028 C 
ATOM      3  C   UNL     1       0.829 -22.124 -17.816  1.00  0.00     0.039 C 
ENDROOT
BRANCH   1   4
ATOM      4  C   UNL     1      -0.800 -21.673 -19.802  1.00  0.00     0.034 C 
BRANCH   4   5
ATOM      5  C   UNL     1      -1.474 -20.353 -19.413  1.00  0.00     0.032 C 
BRANCH   5   6
ATOM      6  C   UNL     1      -2.935 -20.349 -19.799  1.00  0.00    -0.028 C 
ATOM      7  C   UNL     1      -5.341 -20.723 -19.460  1.00  0.00     0.039 C 
ATOM      8  C   UNL     1      -3.915 -20.770 -18.973  1.00  0.00    -0.080 C 
ATOM      9  C   UNL     1      -3.614 -21.281 -17.584  1.00  0.00     0.039 C 
ENDBRANCH   5   6
ENDBRANCH   4   5
ENDBRANCH   1   4
BRANCH   2  10
ATOM     10  C   UNL     1       3.099 -21.494 -19.684  1.00  0.00     0.035 C 
BRANCH  10  11
ATOM     11  C   UNL     1       3.704 -20.088 -19.627  1.00  0.00     0.079 C 
BRANCH  11  12
ATOM     12  C   UNL     1       3.116 -19.300 -18.490  1.00  0.00     0.130 C 
ATOM     13  O   UNL     1       3.501 -19.503 -17.348  1.00  0.00    -0.300 OA
ATOM     14  C   UNL     1       2.078 -18.250 -18.749  1.00  0.00     0.087 C 
ENDBRANCH  11  12
ENDBRANCH  10  11
ENDBRANCH   2  10
TORSDOF 6
ENDMDL
MODEL 4
REMARK VINA RESULT:    -3.902     21.312     22.775
REMARK INTER + INTRA:          -5.853
REMARK INTER:                  -5.173
REMARK INTRA:                  -0.679
REMARK UNBOUND:                -0.582
REMARK SMILES CC(=O)CCC=C(C)CCC=C(C)C
REMARK SMILES IDX 7 1 6 2 8 3 9 4 10 5 11 6 13 7 12 8 14 9 5 10 4 11 2 12 3 13
REMARK SMILES IDX 1 14
REMARK H PARENT
REMARK Flexibility Score: inf
ROOT
ATOM      1  C   UNL     1      -7.978  -6.177  -5.589  1.00  0.00    -0.077 C 
ATOM      2  C   UNL     1      -8.734  -5.136  -6.010  1.00  0.00    -0.028 C 
ATOM      3  C   UNL     1      -6.863  -6.746  -6.435  1.00  0.00     0.039 C 
ENDROOT
BRANCH   1   4
ATOM      4  C   UNL     1      -8.251  -6.779  -4.228  1.00  0.00     0.034 C 
BRANCH   4   5
ATOM      5  C   UNL     1      -9.029  -5.799  -3.343  1.00  0.00     0.032 C 
BRANCH   5   6
ATOM      6  C   UNL     1      -8.470  -5.764  -1.940  1.00  0.00    -0.028 C 
ATOM      7  C   UNL     1      -7.075  -4.904  -0.107  1.00  0.00     0.039 C 
ATOM      8  C   UNL     1      -7.567  -4.849  -1.530  1.00  0.00    -0.080 C 
ATOM      9  C   UNL     1      -7.046  -3.780  -2.462  1.00  0.00     0.039 C 
ENDBRANCH   5   6
ENDBRANCH   4   5
ENDBRANCH   1   4
BRANCH   2  10
ATOM     10  C   UNL     1      -8.595  -4.468  -7.355  1.00  0.00     0.035 C 
BRANCH  10  11
ATOM     11  C   UNL     1      -8.706  -2.946  -7.219  1.00  0.00     0.079 C 
BRANCH  11  12
ATOM     12  C   UNL     1      -7.725  -2.257  -8.126  1.00  0.00     0.130 C 
ATOM     13  O   UNL     1      -6.652  -1.875  -7.681  1.00  0.00    -0.300 OA
ATOM     14  C   UNL     1      -8.042  -2.056  -9.578  1.00  0.00     0.087 C 
ENDBRANCH  11  12
ENDBRANCH  10  11
ENDBRANCH   2  10
TORSDOF 6
ENDMDL
MODEL 5
REMARK VINA RESULT:    -3.813     21.131     22.653
REMARK INTER + INTRA:          -5.732
REMARK INTER:                  -4.979
REMARK INTRA:                  -0.754
REMARK UNBOUND:                -0.582
REMARK SMILES CC(=O)CCC=C(C)CCC=C(C)C
REMARK SMILES IDX 7 1 6 2 8 3 9 4 10 5 11 6 13 7 12 8 14 9 5 10 4 11 2 12 3 13
REMARK SMILES IDX 1 14
REMARK H PARENT
REMARK Flexibility Score: inf
ROOT
ATOM      1  C   UNL     1      -8.378  -6.116  -5.341  1.00  0.00    -0.077 C 
ATOM      2  C   UNL     1      -9.079  -5.960  -4.194  1.00  0.00    -0.028 C 
ATOM      3  C   UNL     1      -7.032  -6.802  -5.366  1.00  0.00     0.039 C 
ENDROOT
BRANCH   1   4
ATOM      4  C   UNL     1      -8.966  -5.601  -6.637  1.00  0.00     0.034 C 
BRANCH   4   5
ATOM      5  C   UNL     1      -8.860  -4.073  -6.715  1.00  0.00     0.032 C 
BRANCH   5   6
ATOM      6  C   UNL     1      -8.899  -3.594  -8.147  1.00  0.00    -0.028 C 
ATOM      7  C   UNL     1      -8.238  -2.197 -10.059  1.00  0.00     0.039 C 
ATOM      8  C   UNL     1      -8.119  -2.596  -8.611  1.00  0.00    -0.080 C 
ATOM      9  C   UNL     1      -7.136  -1.880  -7.715  1.00  0.00     0.039 C 
ENDBRANCH   5   6
ENDBRANCH   4   5
ENDBRANCH   1   4
BRANCH   2  10
ATOM     10  C   UNL     1      -8.596  -6.391  -2.832  1.00  0.00     0.035 C 
BRANCH  10  11
ATOM     11  C   UNL     1      -8.402  -5.179  -1.915  1.00  0.00     0.079 C 
BRANCH  11  12
ATOM     12  C   UNL     1      -7.244  -4.340  -2.378  1.00  0.00     0.130 C 
ATOM     13  O   UNL     1      -6.137  -4.844  -2.492  1.00  0.00    -0.300 OA
ATOM     14  C   UNL     1      -7.443  -2.895  -2.725  1.00  0.00     0.087 C 
ENDBRANCH  11  12
ENDBRANCH  10  11
ENDBRANCH   2  10
TORSDOF 6
ENDMDL
MODEL 6
REMARK VINA RESULT:    -3.640      1.300      1.781
REMARK INTER + INTRA:          -5.499
REMARK INTER:                  -4.807
REMARK INTRA:                  -0.692
REMARK UNBOUND:                -0.582
REMARK SMILES CC(=O)CCC=C(C)CCC=C(C)C
REMARK SMILES IDX 7 1 6 2 8 3 9 4 10 5 11 6 13 7 12 8 14 9 5 10 4 11 2 12 3 13
REMARK SMILES IDX 1 14
REMARK H PARENT
REMARK Flexibility Score: inf
ROOT
ATOM      1  C   UNL     1      -1.238 -21.344 -19.062  1.00  0.00    -0.077 C 
ATOM      2  C   UNL     1       0.000 -21.884 -19.135  1.00  0.00    -0.028 C 
ATOM      3  C   UNL     1      -1.700 -20.276 -20.027  1.00  0.00     0.039 C 
ENDROOT
BRANCH   1   4
ATOM      4  C   UNL     1      -2.191 -21.831 -17.992  1.00  0.00     0.034 C 
BRANCH   4   5
ATOM      5  C   UNL     1      -3.464 -20.978 -17.964  1.00  0.00     0.032 C 
BRANCH   5   6
ATOM      6  C   UNL     1      -4.627 -21.708 -18.594  1.00  0.00    -0.028 C 
ATOM      7  C   UNL     1      -6.590 -21.954 -20.053  1.00  0.00     0.039 C 
ATOM      8  C   UNL     1      -5.461 -21.133 -19.484  1.00  0.00    -0.080 C 
ATOM      9  C   UNL     1      -5.286 -19.697 -19.919  1.00  0.00     0.039 C 
ENDBRANCH   5   6
ENDBRANCH   4   5
ENDBRANCH   1   4
BRANCH   2  10
ATOM     10  C   UNL     1       1.059 -21.466 -20.125  1.00  0.00     0.035 C 
BRANCH  10  11
ATOM     11  C   UNL     1       2.369 -21.124 -19.407  1.00  0.00     0.079 C 
BRANCH  11  12
ATOM     12  C   UNL     1       2.391 -19.678 -18.999  1.00  0.00     0.130 C 
ATOM     13  O   UNL     1       1.674 -18.873 -19.575  1.00  0.00    -0.300 OA
ATOM     14  C   UNL     1       3.267 -19.218 -17.872  1.00  0.00     0.087 C 
ENDBRANCH  11  12
ENDBRANCH  10  11
ENDBRANCH   2  10
TORSDOF 6
ENDMDL
MODEL 7
REMARK VINA RESULT:    -2.800      2.502      6.514
REMARK INTER + INTRA:          -4.365
REMARK INTER:                  -4.364
REMARK INTRA:                  -0.001
REMARK UNBOUND:                -0.582
REMARK SMILES CC(=O)CCC=C(C)CCC=C(C)C
REMARK SMILES IDX 7 1 6 2 8 3 9 4 10 5 11 6 13 7 12 8 14 9 5 10 4 11 2 12 3 13
REMARK SMILES IDX 1 14
REMARK H PARENT
REMARK Flexibility Score: inf
ROOT
ATOM      1  C   UNL     1      -0.223 -20.452 -19.896  1.00  0.00    -0.077 C 
ATOM      2  C   UNL     1      -1.538 -20.753 -20.009  1.00  0.00    -0.028 C 
ATOM      3  C   UNL     1       0.810 -21.505 -19.568  1.00  0.00     0.039 C 
ENDROOT
BRANCH   1   4
ATOM      4  C   UNL     1       0.224 -19.023 -20.115  1.00  0.00     0.034 C 
BRANCH   4   5
ATOM      5  C   UNL     1       1.754 -18.925 -20.123  1.00  0.00     0.032 C 
BRANCH   5   6
ATOM      6  C   UNL     1       2.294 -18.651 -18.739  1.00  0.00    -0.028 C 
ATOM      7  C   UNL     1       3.681 -19.071 -16.753  1.00  0.00     0.039 C 
ATOM      8  C   UNL     1       3.210 -19.438 -18.137  1.00  0.00    -0.080 C 
ATOM      9  C   UNL     1       3.767 -20.665 -18.818  1.00  0.00     0.039 C 
ENDBRANCH   5   6
ENDBRANCH   4   5
ENDBRANCH   1   4
BRANCH   2  10
ATOM     10  C   UNL     1      -2.124 -22.124 -19.781  1.00  0.00     0.035 C 
BRANCH  10  11
ATOM     11  C   UNL     1      -3.606 -22.025 -19.401  1.00  0.00     0.079 C 
BRANCH  11  12
ATOM     12  C   UNL     1      -3.780 -21.227 -18.139  1.00  0.00     0.130 C 
ATOM     13  O   UNL     1      -4.069 -20.041 -18.206  1.00  0.00    -0.300 OA
ATOM     14  C   UNL     1      -3.626 -21.880 -16.799  1.00  0.00     0.087 C 
ENDBRANCH  11  12
ENDBRANCH  10  11
ENDBRANCH   2  10
TORSDOF 6
ENDMDL
MODEL 8
REMARK VINA RESULT:    -2.662     22.682     24.907
REMARK INTER + INTRA:          -4.178
REMARK INTER:                  -3.410
REMARK INTRA:                  -0.767
REMARK UNBOUND:                -0.582
REMARK SMILES CC(=O)CCC=C(C)CCC=C(C)C
REMARK SMILES IDX 7 1 6 2 8 3 9 4 10 5 11 6 13 7 12 8 14 9 5 10 4 11 2 12 3 13
REMARK SMILES IDX 1 14
REMARK H PARENT
REMARK Flexibility Score: inf
ROOT
ATOM      1  C   UNL     1       8.050  -3.156  -2.945  1.00  0.00    -0.077 C 
ATOM      2  C   UNL     1       9.179  -3.165  -3.691  1.00  0.00    -0.028 C 
ATOM      3  C   UNL     1       6.689  -2.938  -3.562  1.00  0.00     0.039 C 
ENDROOT
BRANCH   1   4
ATOM      4  C   UNL     1       8.155  -3.384  -1.452  1.00  0.00     0.034 C 
BRANCH   4   5
ATOM      5  C   UNL     1       9.554  -3.880  -1.071  1.00  0.00     0.032 C 
BRANCH   5   6
ATOM      6  C   UNL     1       9.490  -5.215  -0.368  1.00  0.00    -0.028 C 
ATOM      7  C   UNL     1       9.855  -7.633  -0.118  1.00  0.00     0.039 C 
ATOM      8  C   UNL     1       9.970  -6.355  -0.907  1.00  0.00    -0.080 C 
ATOM      9  C   UNL     1      10.616  -6.373  -2.272  1.00  0.00     0.039 C 
ENDBRANCH   5   6
ENDBRANCH   4   5
ENDBRANCH   1   4
BRANCH   2  10
ATOM     10  C   UNL     1       9.224  -2.915  -5.178  1.00  0.00     0.035 C 
BRANCH  10  11
ATOM     11  C   UNL     1      10.361  -3.710  -5.828  1.00  0.00     0.079 C 
BRANCH  11  12
ATOM     12  C   UNL     1       9.879  -4.416  -7.064  1.00  0.00     0.130 C 
ATOM     13  O   UNL     1       9.583  -5.600  -7.011  1.00  0.00    -0.300 OA
ATOM     14  C   UNL     1       9.736  -3.671  -8.358  1.00  0.00     0.087 C 
ENDBRANCH  11  12
ENDBRANCH  10  11
ENDBRANCH   2  10
TORSDOF 6
ENDMDL
MODEL 9
REMARK VINA RESULT:    -2.644     22.656     24.744
REMARK INTER + INTRA:          -4.153
REMARK INTER:                  -3.380
REMARK INTRA:                  -0.774
REMARK UNBOUND:                -0.582
REMARK SMILES CC(=O)CCC=C(C)CCC=C(C)C
REMARK SMILES IDX 7 1 6 2 8 3 9 4 10 5 11 6 13 7 12 8 14 9 5 10 4 11 2 12 3 13
REMARK SMILES IDX 1 14
REMARK H PARENT
REMARK Flexibility Score: inf
ROOT
ATOM      1  C   UNL     1      10.512  -5.812  -2.494  1.00  0.00    -0.077 C 
ATOM      2  C   UNL     1      10.404  -4.675  -3.221  1.00  0.00    -0.028 C 
ATOM      3  C   UNL     1      11.112  -7.072  -3.072  1.00  0.00     0.039 C 
ENDROOT
BRANCH   1   4
ATOM      4  C   UNL     1      10.029  -5.815  -1.060  1.00  0.00     0.034 C 
BRANCH   4   5
ATOM      5  C   UNL     1       9.599  -4.410  -0.625  1.00  0.00     0.032 C 
BRANCH   5   6
ATOM      6  C   UNL     1       8.182  -4.407  -0.103  1.00  0.00    -0.028 C 
ATOM      7  C   UNL     1       5.796  -3.812  -0.106  1.00  0.00     0.039 C 
ATOM      8  C   UNL     1       7.174  -3.747  -0.712  1.00  0.00    -0.080 C 
ATOM      9  C   UNL     1       7.400  -2.954  -1.977  1.00  0.00     0.039 C 
ENDBRANCH   5   6
ENDBRANCH   4   5
ENDBRANCH   1   4
BRANCH   2  10
ATOM     10  C   UNL     1      10.810  -4.543  -4.668  1.00  0.00     0.035 C 
BRANCH  10  11
ATOM     11  C   UNL     1       9.643  -4.025  -5.514  1.00  0.00     0.079 C 
BRANCH  11  12
ATOM     12  C   UNL     1       9.652  -4.657  -6.878  1.00  0.00     0.130 C 
ATOM     13  O   UNL     1       9.586  -5.872  -6.984  1.00  0.00    -0.300 OA
ATOM     14  C   UNL     1       9.715  -3.805  -8.110  1.00  0.00     0.087 C 
ENDBRANCH  11  12
ENDBRANCH  10  11
ENDBRANCH   2  10
TORSDOF 6
ENDMDL
