MODEL 1
REMARK VINA RESULT:    -5.287      0.000      0.000
REMARK INTER + INTRA:         -11.716
REMARK INTER:                  -9.769
REMARK INTRA:                  -1.946
REMARK UNBOUND:                -1.946
REMARK SMILES CCCCCCCCCCCCCCCCO
REMARK SMILES IDX 9 1 8 2 7 3 6 4 5 5 4 6 3 7 2 8 1 9 10 10 11 11 12 12 13 13
REMARK SMILES IDX 14 14 15 15 16 16 17 17
REMARK H PARENT 17 18
REMARK Flexibility Score: inf
ROOT
ATOM      1  C   UNL     1      10.173   2.895  -2.064  1.00  0.00     0.000 C 
ENDROOT
BRANCH   1   2
ATOM      2  C   UNL     1      10.329   3.680  -0.750  1.00  0.00    -0.000 C 
BRANCH   2   3
ATOM      3  C   UNL     1       9.097   4.545  -0.428  1.00  0.00    -0.000 C 
BRANCH   3   4
ATOM      4  C   UNL     1       8.184   4.748  -1.647  1.00  0.00    -0.000 C 
BRANCH   4   5
ATOM      5  C   UNL     1       8.485   6.049  -2.408  1.00  0.00    -0.000 C 
BRANCH   5   6
ATOM      6  C   UNL     1       8.868   7.175  -1.436  1.00  0.00    -0.000 C 
BRANCH   6   7
ATOM      7  C   UNL     1       7.678   8.079  -1.067  1.00  0.00    -0.000 C 
BRANCH   7   8
ATOM      8  C   UNL     1       7.365   9.185  -2.091  1.00  0.00    -0.003 C 
ATOM      9  C   UNL     1       5.914   9.161  -2.572  1.00  0.00     0.004 C 
ENDBRANCH   7   8
ENDBRANCH   6   7
ENDBRANCH   5   6
ENDBRANCH   4   5
ENDBRANCH   3   4
ENDBRANCH   2   3
ENDBRANCH   1   2
BRANCH   1  10
ATOM     10  C   UNL     1      11.212   3.303  -3.122  1.00  0.00     0.000 C 
BRANCH  10  11
ATOM     11  C   UNL     1      12.054   4.515  -2.689  1.00  0.00     0.000 C 
BRANCH  11  12
ATOM     12  C   UNL     1      11.916   5.707  -3.653  1.00  0.00     0.000 C 
BRANCH  12  13
ATOM     13  C   UNL     1      11.035   5.381  -4.871  1.00  0.00     0.000 C 
BRANCH  13  14
ATOM     14  C   UNL     1      10.965   6.544  -5.877  1.00  0.00     0.002 C 
BRANCH  14  15
ATOM     15  C   UNL     1       9.699   7.401  -5.703  1.00  0.00     0.028 C 
BRANCH  15  16
ATOM     16  C   UNL     1       9.987   8.847  -5.288  1.00  0.00     0.156 C 
BRANCH  16  17
ATOM     17  O   UNL     1      10.370   8.900  -3.942  1.00  0.00    -0.396 OA
ATOM     18  H   UNL     1      10.014   8.075  -3.522  1.00  0.00     0.210 HD
ENDBRANCH  16  17
ENDBRANCH  15  16
ENDBRANCH  14  15
ENDBRANCH  13  14
ENDBRANCH  12  13
ENDBRANCH  11  12
ENDBRANCH  10  11
ENDBRANCH   1  10
TORSDOF 15
ENDMDL
MODEL 2
REMARK VINA RESULT:    -5.150      1.429      3.847
REMARK INTER + INTRA:         -11.462
REMARK INTER:                  -9.060
REMARK INTRA:                  -2.402
REMARK UNBOUND:                -1.946
REMARK SMILES CCCCCCCCCCCCCCCCO
REMARK SMILES IDX 9 1 8 2 7 3 6 4 5 5 4 6 3 7 2 8 1 9 10 10 11 11 12 12 13 13
REMARK SMILES IDX 14 14 15 15 16 16 17 17
REMARK H PARENT 17 18
REMARK Flexibility Score: inf
ROOT
ATOM      1  C   UNL     1       8.787   4.382  -0.652  1.00  0.00     0.000 C 
ENDROOT
BRANCH   1   2
ATOM      2  C   UNL     1      10.220   3.825  -0.636  1.00  0.00    -0.000 C 
BRANCH   2   3
ATOM      3  C   UNL     1      10.496   2.870  -1.812  1.00  0.00    -0.000 C 
BRANCH   3   4
ATOM      4  C   UNL     1      11.577   3.405  -2.765  1.00  0.00    -0.000 C 
BRANCH   4   5
ATOM      5  C   UNL     1      11.932   4.876  -2.497  1.00  0.00    -0.000 C 
BRANCH   5   6
ATOM      6  C   UNL     1      11.468   5.771  -3.655  1.00  0.00    -0.000 C 
BRANCH   6   7
ATOM      7  C   UNL     1      10.715   4.995  -4.750  1.00  0.00    -0.000 C 
BRANCH   7   8
ATOM      8  C   UNL     1       9.203   5.273  -4.816  1.00  0.00    -0.003 C 
ATOM      9  C   UNL     1       8.356   4.085  -4.362  1.00  0.00     0.004 C 
ENDBRANCH   7   8
ENDBRANCH   6   7
ENDBRANCH   5   6
ENDBRANCH   4   5
ENDBRANCH   3   4
ENDBRANCH   2   3
ENDBRANCH   1   2
BRANCH   1  10
ATOM     10  C   UNL     1       8.744   5.904  -0.429  1.00  0.00     0.000 C 
BRANCH  10  11
ATOM     11  C   UNL     1       8.177   6.664  -1.641  1.00  0.00     0.000 C 
BRANCH  11  12
ATOM     12  C   UNL     1       8.946   7.964  -1.937  1.00  0.00     0.000 C 
BRANCH  12  13
ATOM     13  C   UNL     1       8.430   8.680  -3.197  1.00  0.00     0.000 C 
BRANCH  13  14
ATOM     14  C   UNL     1       9.533   8.890  -4.250  1.00  0.00     0.002 C 
BRANCH  14  15
ATOM     15  C   UNL     1       9.006   8.767  -5.690  1.00  0.00     0.028 C 
BRANCH  15  16
ATOM     16  C   UNL     1      10.012   9.218  -6.754  1.00  0.00     0.156 C 
BRANCH  16  17
ATOM     17  O   UNL     1      10.842   8.151  -7.124  1.00  0.00    -0.396 OA
ATOM     18  H   UNL     1      11.449   7.997  -6.355  1.00  0.00     0.210 HD
ENDBRANCH  16  17
ENDBRANCH  15  16
ENDBRANCH  14  15
ENDBRANCH  13  14
ENDBRANCH  12  13
ENDBRANCH  11  12
ENDBRANCH  10  11
ENDBRANCH   1  10
TORSDOF 15
ENDMDL
MODEL 3
REMARK VINA RESULT:    -5.148      2.124      4.867
REMARK INTER + INTRA:         -11.457
REMARK INTER:                  -9.471
REMARK INTRA:                  -1.986
REMARK UNBOUND:                -1.946
REMARK SMILES CCCCCCCCCCCCCCCCO
REMARK SMILES IDX 9 1 8 2 7 3 6 4 5 5 4 6 3 7 2 8 1 9 10 10 11 11 12 12 13 13
REMARK SMILES IDX 14 14 15 15 16 16 17 17
REMARK H PARENT 17 18
REMARK Flexibility Score: inf
ROOT
ATOM      1  C   UNL     1       8.777   4.757  -0.503  1.00  0.00     0.000 C 
ENDROOT
BRANCH   1   2
ATOM      2  C   UNL     1      10.291   4.637  -0.747  1.00  0.00    -0.000 C 
BRANCH   2   3
ATOM      3  C   UNL     1      10.667   3.351  -1.505  1.00  0.00    -0.000 C 
BRANCH   3   4
ATOM      4  C   UNL     1      11.664   3.609  -2.646  1.00  0.00    -0.000 C 
BRANCH   4   5
ATOM      5  C   UNL     1      12.111   5.078  -2.726  1.00  0.00    -0.000 C 
BRANCH   5   6
ATOM      6  C   UNL     1      11.671   5.713  -4.053  1.00  0.00    -0.000 C 
BRANCH   6   7
ATOM      7  C   UNL     1      10.697   4.826  -4.849  1.00  0.00    -0.000 C 
BRANCH   7   8
ATOM      8  C   UNL     1       9.218   5.239  -4.748  1.00  0.00    -0.003 C 
ATOM      9  C   UNL     1       8.317   4.117  -4.232  1.00  0.00     0.004 C 
ENDBRANCH   7   8
ENDBRANCH   6   7
ENDBRANCH   5   6
ENDBRANCH   4   5
ENDBRANCH   3   4
ENDBRANCH   2   3
ENDBRANCH   1   2
BRANCH   1  10
ATOM     10  C   UNL     1       8.267   6.200  -0.655  1.00  0.00     0.000 C 
BRANCH  10  11
ATOM     11  C   UNL     1       9.121   7.031  -1.628  1.00  0.00     0.000 C 
BRANCH  11  12
ATOM     12  C   UNL     1       8.415   8.322  -2.081  1.00  0.00     0.000 C 
BRANCH  12  13
ATOM     13  C   UNL     1       7.499   8.906  -0.992  1.00  0.00     0.000 C 
BRANCH  13  14
ATOM     14  C   UNL     1       6.225   9.545  -1.574  1.00  0.00     0.002 C 
BRANCH  14  15
ATOM     15  C   UNL     1       6.136   9.402  -3.103  1.00  0.00     0.028 C 
BRANCH  15  16
ATOM     16  C   UNL     1       4.753   9.735  -3.673  1.00  0.00     0.156 C 
BRANCH  16  17
ATOM     17  O   UNL     1       3.768   8.961  -3.044  1.00  0.00    -0.396 OA
ATOM     18  H   UNL     1       2.991   9.563  -2.909  1.00  0.00     0.210 HD
ENDBRANCH  16  17
ENDBRANCH  15  16
ENDBRANCH  14  15
ENDBRANCH  13  14
ENDBRANCH  12  13
ENDBRANCH  11  12
ENDBRANCH  10  11
ENDBRANCH   1  10
TORSDOF 15
ENDMDL
MODEL 4
REMARK VINA RESULT:    -5.123      1.580      4.315
REMARK INTER + INTRA:         -11.411
REMARK INTER:                  -9.572
REMARK INTRA:                  -1.839
REMARK UNBOUND:                -1.946
REMARK SMILES CCCCCCCCCCCCCCCCO
REMARK SMILES IDX 9 1 8 2 7 3 6 4 5 5 4 6 3 7 2 8 1 9 10 10 11 11 12 12 13 13
REMARK SMILES IDX 14 14 15 15 16 16 17 17
REMARK H PARENT 17 18
REMARK Flexibility Score: inf
ROOT
ATOM      1  C   UNL     1      10.213   2.994  -2.088  1.00  0.00     0.000 C 
ENDROOT
BRANCH   1   2
ATOM      2  C   UNL     1      11.411   3.345  -2.987  1.00  0.00    -0.000 C 
BRANCH   2   3
ATOM      3  C   UNL     1      12.033   4.709  -2.637  1.00  0.00    -0.000 C 
BRANCH   3   4
ATOM      4  C   UNL     1      11.717   5.787  -3.686  1.00  0.00    -0.000 C 
BRANCH   4   5
ATOM      5  C   UNL     1      10.854   5.260  -4.842  1.00  0.00    -0.000 C 
BRANCH   5   6
ATOM      6  C   UNL     1       9.590   6.115  -5.016  1.00  0.00    -0.000 C 
BRANCH   6   7
ATOM      7  C   UNL     1       9.891   7.622  -5.093  1.00  0.00    -0.000 C 
BRANCH   7   8
ATOM      8  C   UNL     1      10.288   8.131  -6.490  1.00  0.00    -0.003 C 
ATOM      9  C   UNL     1      10.563   9.635  -6.523  1.00  0.00     0.004 C 
ENDBRANCH   7   8
ENDBRANCH   6   7
ENDBRANCH   5   6
ENDBRANCH   4   5
ENDBRANCH   3   4
ENDBRANCH   2   3
ENDBRANCH   1   2
BRANCH   1  10
ATOM     10  C   UNL     1      10.268   3.710  -0.727  1.00  0.00     0.000 C 
BRANCH  10  11
ATOM     11  C   UNL     1       8.932   4.373  -0.352  1.00  0.00     0.000 C 
BRANCH  11  12
ATOM     12  C   UNL     1       8.365   5.245  -1.487  1.00  0.00     0.000 C 
BRANCH  12  13
ATOM     13  C   UNL     1       8.915   6.681  -1.458  1.00  0.00     0.000 C 
BRANCH  13  14
ATOM     14  C   UNL     1       7.820   7.737  -1.689  1.00  0.00     0.002 C 
BRANCH  14  15
ATOM     15  C   UNL     1       8.346   9.176  -1.546  1.00  0.00     0.028 C 
BRANCH  15  16
ATOM     16  C   UNL     1       7.424  10.090  -0.731  1.00  0.00     0.156 C 
BRANCH  16  17
ATOM     17  O   UNL     1       8.060  10.493   0.450  1.00  0.00    -0.396 OA
ATOM     18  H   UNL     1       8.478   9.678   0.829  1.00  0.00     0.210 HD
ENDBRANCH  16  17
ENDBRANCH  15  16
ENDBRANCH  14  15
ENDBRANCH  13  14
ENDBRANCH  12  13
ENDBRANCH  11  12
ENDBRANCH  10  11
ENDBRANCH   1  10
TORSDOF 15
ENDMDL
MODEL 5
REMARK VINA RESULT:    -5.101      1.545      4.431
REMARK INTER + INTRA:         -11.371
REMARK INTER:                  -9.500
REMARK INTRA:                  -1.871
REMARK UNBOUND:                -1.946
REMARK SMILES CCCCCCCCCCCCCCCCO
REMARK SMILES IDX 9 1 8 2 7 3 6 4 5 5 4 6 3 7 2 8 1 9 10 10 11 11 12 12 13 13
REMARK SMILES IDX 14 14 15 15 16 16 17 17
REMARK H PARENT 17 18
REMARK Flexibility Score: inf
ROOT
ATOM      1  C   UNL     1      10.194   3.647  -0.661  1.00  0.00     0.000 C 
ENDROOT
BRANCH   1   2
ATOM      2  C   UNL     1      10.190   2.906  -2.009  1.00  0.00    -0.000 C 
BRANCH   2   3
ATOM      3  C   UNL     1      11.373   3.307  -2.908  1.00  0.00    -0.000 C 
BRANCH   3   4
ATOM      4  C   UNL     1      12.017   4.635  -2.477  1.00  0.00    -0.000 C 
BRANCH   4   5
ATOM      5  C   UNL     1      12.014   5.689  -3.596  1.00  0.00    -0.000 C 
BRANCH   5   6
ATOM      6  C   UNL     1      11.032   5.301  -4.711  1.00  0.00    -0.000 C 
BRANCH   6   7
ATOM      7  C   UNL     1      10.849   6.411  -5.762  1.00  0.00    -0.000 C 
BRANCH   7   8
ATOM      8  C   UNL     1       9.639   7.332  -5.524  1.00  0.00    -0.003 C 
ATOM      9  C   UNL     1      10.002   8.613  -4.773  1.00  0.00     0.004 C 
ENDBRANCH   7   8
ENDBRANCH   6   7
ENDBRANCH   5   6
ENDBRANCH   4   5
ENDBRANCH   3   4
ENDBRANCH   2   3
ENDBRANCH   1   2
BRANCH   1  10
ATOM     10  C   UNL     1       8.896   4.439  -0.419  1.00  0.00     0.000 C 
BRANCH  10  11
ATOM     11  C   UNL     1       8.307   5.020  -1.715  1.00  0.00     0.000 C 
BRANCH  11  12
ATOM     12  C   UNL     1       8.741   6.476  -1.962  1.00  0.00     0.000 C 
BRANCH  12  13
ATOM     13  C   UNL     1       7.945   7.481  -1.111  1.00  0.00     0.000 C 
BRANCH  13  14
ATOM     14  C   UNL     1       7.939   8.894  -1.720  1.00  0.00     0.002 C 
BRANCH  14  15
ATOM     15  C   UNL     1       6.802   9.095  -2.738  1.00  0.00     0.028 C 
BRANCH  15  16
ATOM     16  C   UNL     1       5.492   9.582  -2.111  1.00  0.00     0.156 C 
BRANCH  16  17
ATOM     17  O   UNL     1       4.395   9.058  -2.807  1.00  0.00    -0.396 OA
ATOM     18  H   UNL     1       4.088   8.272  -2.284  1.00  0.00     0.210 HD
ENDBRANCH  16  17
ENDBRANCH  15  16
ENDBRANCH  14  15
ENDBRANCH  13  14
ENDBRANCH  12  13
ENDBRANCH  11  12
ENDBRANCH  10  11
ENDBRANCH   1  10
TORSDOF 15
ENDMDL
MODEL 6
REMARK VINA RESULT:    -5.083      1.621      3.922
REMARK INTER + INTRA:         -11.339
REMARK INTER:                  -9.008
REMARK INTRA:                  -2.331
REMARK UNBOUND:                -1.946
REMARK SMILES CCCCCCCCCCCCCCCCO
REMARK SMILES IDX 9 1 8 2 7 3 6 4 5 5 4 6 3 7 2 8 1 9 10 10 11 11 12 12 13 13
REMARK SMILES IDX 14 14 15 15 16 16 17 17
REMARK H PARENT 17 18
REMARK Flexibility Score: inf
ROOT
ATOM      1  C   UNL     1       8.363   5.193  -1.029  1.00  0.00     0.000 C 
ENDROOT
BRANCH   1   2
ATOM      2  C   UNL     1       9.737   4.739  -0.508  1.00  0.00    -0.000 C 
BRANCH   2   3
ATOM      3  C   UNL     1      10.150   3.361  -1.056  1.00  0.00    -0.000 C 
BRANCH   3   4
ATOM      4  C   UNL     1      11.183   3.463  -2.190  1.00  0.00    -0.000 C 
BRANCH   4   5
ATOM      5  C   UNL     1      11.834   4.852  -2.280  1.00  0.00    -0.000 C 
BRANCH   5   6
ATOM      6  C   UNL     1      11.653   5.453  -3.682  1.00  0.00    -0.000 C 
BRANCH   6   7
ATOM      7  C   UNL     1      10.753   4.596  -4.591  1.00  0.00    -0.000 C 
BRANCH   7   8
ATOM      8  C   UNL     1       9.295   5.077  -4.695  1.00  0.00    -0.003 C 
ATOM      9  C   UNL     1       8.281   3.997  -4.319  1.00  0.00     0.004 C 
ENDBRANCH   7   8
ENDBRANCH   6   7
ENDBRANCH   5   6
ENDBRANCH   4   5
ENDBRANCH   3   4
ENDBRANCH   2   3
ENDBRANCH   1   2
BRANCH   1  10
ATOM     10  C   UNL     1       8.187   6.721  -0.976  1.00  0.00     0.000 C 
BRANCH  10  11
ATOM     11  C   UNL     1       9.211   7.466  -1.849  1.00  0.00     0.000 C 
BRANCH  11  12
ATOM     12  C   UNL     1       8.605   8.689  -2.559  1.00  0.00     0.000 C 
BRANCH  12  13
ATOM     13  C   UNL     1       8.662   8.570  -4.092  1.00  0.00     0.000 C 
BRANCH  13  14
ATOM     14  C   UNL     1      10.094   8.704  -4.641  1.00  0.00     0.002 C 
BRANCH  14  15
ATOM     15  C   UNL     1      10.189   8.357  -6.137  1.00  0.00     0.028 C 
BRANCH  15  16
ATOM     16  C   UNL     1       8.894   8.622  -6.913  1.00  0.00     0.156 C 
BRANCH  16  17
ATOM     17  O   UNL     1       9.168   9.337  -8.086  1.00  0.00    -0.396 OA
ATOM     18  H   UNL     1      10.058   9.028  -8.395  1.00  0.00     0.210 HD
ENDBRANCH  16  17
ENDBRANCH  15  16
ENDBRANCH  14  15
ENDBRANCH  13  14
ENDBRANCH  12  13
ENDBRANCH  11  12
ENDBRANCH  10  11
ENDBRANCH   1  10
TORSDOF 15
ENDMDL
MODEL 7
REMARK VINA RESULT:    -4.796      1.393      4.043
REMARK INTER + INTRA:         -10.807
REMARK INTER:                  -8.903
REMARK INTRA:                  -1.904
REMARK UNBOUND:                -1.946
REMARK SMILES CCCCCCCCCCCCCCCCO
REMARK SMILES IDX 9 1 8 2 7 3 6 4 5 5 4 6 3 7 2 8 1 9 10 10 11 11 12 12 13 13
REMARK SMILES IDX 14 14 15 15 16 16 17 17
REMARK H PARENT 17 18
REMARK Flexibility Score: inf
ROOT
ATOM      1  C   UNL     1      10.449   3.852  -0.901  1.00  0.00     0.000 C 
ENDROOT
BRANCH   1   2
ATOM      2  C   UNL     1      10.415   2.864  -2.079  1.00  0.00    -0.000 C 
BRANCH   2   3
ATOM      3  C   UNL     1      10.521   3.567  -3.444  1.00  0.00    -0.000 C 
BRANCH   3   4
ATOM      4  C   UNL     1       9.146   3.893  -4.048  1.00  0.00    -0.000 C 
BRANCH   4   5
ATOM      5  C   UNL     1       9.122   5.245  -4.779  1.00  0.00    -0.000 C 
BRANCH   5   6
ATOM      6  C   UNL     1      10.547   5.725  -5.090  1.00  0.00    -0.000 C 
BRANCH   6   7
ATOM      7  C   UNL     1      10.578   7.070  -5.838  1.00  0.00    -0.000 C 
BRANCH   7   8
ATOM      8  C   UNL     1       9.240   7.830  -5.856  1.00  0.00    -0.003 C 
ATOM      9  C   UNL     1       9.083   8.735  -7.077  1.00  0.00     0.004 C 
ENDBRANCH   7   8
ENDBRANCH   6   7
ENDBRANCH   5   6
ENDBRANCH   4   5
ENDBRANCH   3   4
ENDBRANCH   2   3
ENDBRANCH   1   2
BRANCH   1  10
ATOM     10  C   UNL     1       9.064   4.056  -0.261  1.00  0.00     0.000 C 
BRANCH  10  11
ATOM     11  C   UNL     1       8.730   5.540  -0.034  1.00  0.00     0.000 C 
BRANCH  11  12
ATOM     12  C   UNL     1       8.275   6.249  -1.322  1.00  0.00     0.000 C 
BRANCH  12  13
ATOM     13  C   UNL     1       9.295   7.290  -1.813  1.00  0.00     0.000 C 
BRANCH  13  14
ATOM     14  C   UNL     1       8.632   8.617  -2.225  1.00  0.00     0.002 C 
BRANCH  14  15
ATOM     15  C   UNL     1       7.156   8.699  -1.797  1.00  0.00     0.028 C 
BRANCH  15  16
ATOM     16  C   UNL     1       6.258   9.406  -2.818  1.00  0.00     0.156 C 
BRANCH  16  17
ATOM     17  O   UNL     1       6.983   9.704  -3.979  1.00  0.00    -0.396 OA
ATOM     18  H   UNL     1       7.328  10.626  -3.858  1.00  0.00     0.210 HD
ENDBRANCH  16  17
ENDBRANCH  15  16
ENDBRANCH  14  15
ENDBRANCH  13  14
ENDBRANCH  12  13
ENDBRANCH  11  12
ENDBRANCH  10  11
ENDBRANCH   1  10
TORSDOF 15
ENDMDL
MODEL 8
REMARK VINA RESULT:    -4.793      1.936      4.946
REMARK INTER + INTRA:         -10.803
REMARK INTER:                  -8.941
REMARK INTRA:                  -1.862
REMARK UNBOUND:                -1.946
REMARK SMILES CCCCCCCCCCCCCCCCO
REMARK SMILES IDX 9 1 8 2 7 3 6 4 5 5 4 6 3 7 2 8 1 9 10 10 11 11 12 12 13 13
REMARK SMILES IDX 14 14 15 15 16 16 17 17
REMARK H PARENT 17 18
REMARK Flexibility Score: inf
ROOT
ATOM      1  C   UNL     1       8.720   5.452  -0.156  1.00  0.00     0.000 C 
ENDROOT
BRANCH   1   2
ATOM      2  C   UNL     1       9.096   3.984  -0.422  1.00  0.00    -0.000 C 
BRANCH   2   3
ATOM      3  C   UNL     1      10.473   3.839  -1.094  1.00  0.00    -0.000 C 
BRANCH   3   4
ATOM      4  C   UNL     1      11.261   5.158  -1.115  1.00  0.00    -0.000 C 
BRANCH   4   5
ATOM      5  C   UNL     1      11.897   5.450  -2.483  1.00  0.00    -0.000 C 
BRANCH   5   6
ATOM      6  C   UNL     1      11.390   4.464  -3.545  1.00  0.00    -0.000 C 
BRANCH   6   7
ATOM      7  C   UNL     1      10.768   5.165  -4.766  1.00  0.00    -0.000 C 
BRANCH   7   8
ATOM      8  C   UNL     1       9.232   5.262  -4.743  1.00  0.00    -0.003 C 
ATOM      9  C   UNL     1       8.558   3.971  -4.279  1.00  0.00     0.004 C 
ENDBRANCH   7   8
ENDBRANCH   6   7
ENDBRANCH   5   6
ENDBRANCH   4   5
ENDBRANCH   3   4
ENDBRANCH   2   3
ENDBRANCH   1   2
BRANCH   1  10
ATOM     10  C   UNL     1       8.025   6.110  -1.361  1.00  0.00     0.000 C 
BRANCH  10  11
ATOM     11  C   UNL     1       8.342   7.611  -1.480  1.00  0.00     0.000 C 
BRANCH  11  12
ATOM     12  C   UNL     1       8.186   8.136  -2.918  1.00  0.00     0.000 C 
BRANCH  12  13
ATOM     13  C   UNL     1       7.110   9.230  -3.033  1.00  0.00     0.000 C 
BRANCH  13  14
ATOM     14  C   UNL     1       6.168   9.261  -1.817  1.00  0.00     0.002 C 
BRANCH  14  15
ATOM     15  C   UNL     1       6.101  10.649  -1.155  1.00  0.00     0.028 C 
BRANCH  15  16
ATOM     16  C   UNL     1       6.559  10.656   0.307  1.00  0.00     0.156 C 
BRANCH  16  17
ATOM     17  O   UNL     1       7.952  10.521   0.381  1.00  0.00    -0.396 OA
ATOM     18  H   UNL     1       8.186  10.611   1.341  1.00  0.00     0.210 HD
ENDBRANCH  16  17
ENDBRANCH  15  16
ENDBRANCH  14  15
ENDBRANCH  13  14
ENDBRANCH  12  13
ENDBRANCH  11  12
ENDBRANCH  10  11
ENDBRANCH   1  10
TORSDOF 15
ENDMDL
MODEL 9
REMARK VINA RESULT:    -4.784      1.883      2.995
REMARK INTER + INTRA:         -10.785
REMARK INTER:                  -9.423
REMARK INTRA:                  -1.362
REMARK UNBOUND:                -1.946
REMARK SMILES CCCCCCCCCCCCCCCCO
REMARK SMILES IDX 9 1 8 2 7 3 6 4 5 5 4 6 3 7 2 8 1 9 10 10 11 11 12 12 13 13
REMARK SMILES IDX 14 14 15 15 16 16 17 17
REMARK H PARENT 17 18
REMARK Flexibility Score: inf
ROOT
ATOM      1  C   UNL     1       8.804   4.376  -0.761  1.00  0.00     0.000 C 
ENDROOT
BRANCH   1   2
ATOM      2  C   UNL     1       8.722   5.770  -0.117  1.00  0.00    -0.000 C 
BRANCH   2   3
ATOM      3  C   UNL     1       7.966   6.784  -0.996  1.00  0.00    -0.000 C 
BRANCH   3   4
ATOM      4  C   UNL     1       8.914   7.711  -1.774  1.00  0.00    -0.000 C 
BRANCH   4   5
ATOM      5  C   UNL     1       8.372   9.144  -1.903  1.00  0.00    -0.000 C 
BRANCH   5   6
ATOM      6  C   UNL     1       8.084   9.491  -3.371  1.00  0.00    -0.000 C 
BRANCH   6   7
ATOM      7  C   UNL     1       6.591   9.745  -3.646  1.00  0.00    -0.000 C 
BRANCH   7   8
ATOM      8  C   UNL     1       5.653   9.415  -2.472  1.00  0.00    -0.003 C 
ATOM      9  C   UNL     1       4.199   9.224  -2.904  1.00  0.00     0.004 C 
ENDBRANCH   7   8
ENDBRANCH   6   7
ENDBRANCH   5   6
ENDBRANCH   4   5
ENDBRANCH   3   4
ENDBRANCH   2   3
ENDBRANCH   1   2
BRANCH   1  10
ATOM     10  C   UNL     1      10.236   3.814  -0.771  1.00  0.00     0.000 C 
BRANCH  10  11
ATOM     11  C   UNL     1      10.484   2.846  -1.940  1.00  0.00     0.000 C 
BRANCH  11  12
ATOM     12  C   UNL     1      11.603   3.328  -2.881  1.00  0.00     0.000 C 
BRANCH  12  13
ATOM     13  C   UNL     1      11.947   4.813  -2.675  1.00  0.00     0.000 C 
BRANCH  13  14
ATOM     14  C   UNL     1      11.196   5.734  -3.653  1.00  0.00     0.002 C 
BRANCH  14  15
ATOM     15  C   UNL     1      10.525   4.958  -4.800  1.00  0.00     0.028 C 
BRANCH  15  16
ATOM     16  C   UNL     1       8.997   4.903  -4.694  1.00  0.00     0.156 C 
BRANCH  16  17
ATOM     17  O   UNL     1       8.561   3.572  -4.640  1.00  0.00    -0.396 OA
ATOM     18  H   UNL     1       7.996   3.501  -3.828  1.00  0.00     0.210 HD
ENDBRANCH  16  17
ENDBRANCH  15  16
ENDBRANCH  14  15
ENDBRANCH  13  14
ENDBRANCH  12  13
ENDBRANCH  11  12
ENDBRANCH  10  11
ENDBRANCH   1  10
TORSDOF 15
ENDMDL
