MODEL 1
REMARK VINA RESULT:    -4.417      0.000      0.000
REMARK INTER + INTRA:          -6.431
REMARK INTER:                  -5.708
REMARK INTRA:                  -0.724
REMARK UNBOUND:                -0.724
REMARK SMILES CCO[C@H]1O[C@@H](CO)[C@@H](O)[C@@H](O)[C@@H]1O
REMARK SMILES IDX 4 1 13 2 11 3 9 4 6 5 5 6 3 7 2 8 1 9 14 10 12 12 7 14 8 15
REMARK SMILES IDX 10 17
REMARK H PARENT 14 11 12 13 8 16 10 18
REMARK Flexibility Score: inf
ROOT
ATOM      1  C   UNL     1      60.818 -40.483  34.020  1.00  0.00     0.281 C 
ATOM      2  C   UNL     1      59.736 -39.393  34.089  1.00  0.00     0.202 C 
ATOM      3  C   UNL     1      58.343 -40.007  34.268  1.00  0.00     0.179 C 
ATOM      4  C   UNL     1      58.106 -41.095  33.205  1.00  0.00     0.177 C 
ATOM      5  C   UNL     1      59.313 -42.063  33.030  1.00  0.00     0.178 C 
ATOM      6  O   UNL     1      60.580 -41.414  32.973  1.00  0.00    -0.341 OA
ENDROOT
BRANCH   1   7
ATOM      7  O   UNL     1      60.952 -41.129  35.274  1.00  0.00    -0.350 OA
BRANCH   7   8
ATOM      8  C   UNL     1      61.767 -40.362  36.137  1.00  0.00     0.160 C 
ATOM      9  C   UNL     1      61.139 -40.330  37.521  1.00  0.00     0.035 C 
ENDBRANCH   7   8
ENDBRANCH   1   7
BRANCH   2  10
ATOM     10  O   UNL     1      59.779 -38.630  32.910  1.00  0.00    -0.385 OA
ATOM     11  H   UNL     1      60.599 -38.902  32.419  1.00  0.00     0.211 HD
ENDBRANCH   2  10
BRANCH   3  12
ATOM     12  O   UNL     1      58.214 -40.518  35.570  1.00  0.00    -0.387 OA
ATOM     13  H   UNL     1      58.753 -41.350  35.613  1.00  0.00     0.211 HD
ENDBRANCH   3  12
BRANCH   5  14
ATOM     14  C   UNL     1      59.323 -43.318  33.933  1.00  0.00     0.191 C 
BRANCH  14  15
ATOM     15  O   UNL     1      58.636 -43.112  35.134  1.00  0.00    -0.394 OA
ATOM     16  H   UNL     1      58.630 -43.986  35.603  1.00  0.00     0.210 HD
ENDBRANCH  14  15
ENDBRANCH   5  14
BRANCH   4  17
ATOM     17  O   UNL     1      56.925 -41.801  33.492  1.00  0.00    -0.387 OA
ATOM     18  H   UNL     1      56.172 -41.170  33.352  1.00  0.00     0.211 HD
ENDBRANCH   4  17
TORSDOF 7
ENDMDL
MODEL 2
REMARK VINA RESULT:    -4.073     11.498     13.330
REMARK INTER + INTRA:          -5.987
REMARK INTER:                  -5.284
REMARK INTRA:                  -0.703
REMARK UNBOUND:                -0.724
REMARK SMILES CCO[C@H]1O[C@@H](CO)[C@@H](O)[C@@H](O)[C@@H]1O
REMARK SMILES IDX 4 1 13 2 11 3 9 4 6 5 5 6 3 7 2 8 1 9 14 10 12 12 7 14 8 15
REMARK SMILES IDX 10 17
REMARK H PARENT 14 11 12 13 8 16 10 18
REMARK Flexibility Score: inf
ROOT
ATOM      1  C   UNL     1      58.042 -41.475  47.104  1.00  0.00     0.281 C 
ATOM      2  C   UNL     1      57.447 -41.064  45.748  1.00  0.00     0.202 C 
ATOM      3  C   UNL     1      56.166 -40.242  45.933  1.00  0.00     0.179 C 
ATOM      4  C   UNL     1      55.197 -40.980  46.874  1.00  0.00     0.177 C 
ATOM      5  C   UNL     1      55.886 -41.552  48.147  1.00  0.00     0.178 C 
ATOM      6  O   UNL     1      57.122 -42.215  47.896  1.00  0.00    -0.341 OA
ENDROOT
BRANCH   1   7
ATOM      7  O   UNL     1      58.532 -40.340  47.797  1.00  0.00    -0.350 OA
BRANCH   7   8
ATOM      8  C   UNL     1      59.834 -40.017  47.351  1.00  0.00     0.160 C 
ATOM      9  C   UNL     1      60.715 -41.253  47.443  1.00  0.00     0.035 C 
ENDBRANCH   7   8
ENDBRANCH   1   7
BRANCH   2  10
ATOM     10  O   UNL     1      57.174 -42.221  44.998  1.00  0.00    -0.385 OA
ATOM     11  H   UNL     1      57.316 -42.997  45.602  1.00  0.00     0.211 HD
ENDBRANCH   2  10
BRANCH   3  12
ATOM     12  O   UNL     1      56.489 -38.964  46.418  1.00  0.00    -0.387 OA
ATOM     13  H   UNL     1      56.685 -39.061  47.387  1.00  0.00     0.211 HD
ENDBRANCH   3  12
BRANCH   5  14
ATOM     14  C   UNL     1      55.948 -40.614  49.374  1.00  0.00     0.191 C 
BRANCH  14  15
ATOM     15  O   UNL     1      55.946 -39.264  49.010  1.00  0.00    -0.394 OA
ATOM     16  H   UNL     1      55.062 -38.905  49.280  1.00  0.00     0.210 HD
ENDBRANCH  14  15
ENDBRANCH   5  14
BRANCH   4  17
ATOM     17  O   UNL     1      54.120 -40.142  47.211  1.00  0.00    -0.387 OA
ATOM     18  H   UNL     1      54.506 -39.349  47.669  1.00  0.00     0.211 HD
ENDBRANCH   4  17
TORSDOF 7
ENDMDL
MODEL 3
REMARK VINA RESULT:    -3.884      1.425      3.330
REMARK INTER + INTRA:          -5.743
REMARK INTER:                  -5.054
REMARK INTRA:                  -0.690
REMARK UNBOUND:                -0.724
REMARK SMILES CCO[C@H]1O[C@@H](CO)[C@@H](O)[C@@H](O)[C@@H]1O
REMARK SMILES IDX 4 1 13 2 11 3 9 4 6 5 5 6 3 7 2 8 1 9 14 10 12 12 7 14 8 15
REMARK SMILES IDX 10 17
REMARK H PARENT 14 11 12 13 8 16 10 18
REMARK Flexibility Score: inf
ROOT
ATOM      1  C   UNL     1      59.052 -39.732  34.836  1.00  0.00     0.281 C 
ATOM      2  C   UNL     1      60.364 -40.425  35.236  1.00  0.00     0.202 C 
ATOM      3  C   UNL     1      60.535 -41.757  34.497  1.00  0.00     0.179 C 
ATOM      4  C   UNL     1      59.268 -42.616  34.659  1.00  0.00     0.177 C 
ATOM      5  C   UNL     1      57.948 -41.821  34.435  1.00  0.00     0.178 C 
ATOM      6  O   UNL     1      57.914 -40.549  35.077  1.00  0.00    -0.341 OA
ENDROOT
BRANCH   1   7
ATOM      7  O   UNL     1      59.109 -39.302  33.487  1.00  0.00    -0.350 OA
BRANCH   7   8
ATOM      8  C   UNL     1      59.422 -37.924  33.423  1.00  0.00     0.160 C 
ATOM      9  C   UNL     1      60.754 -37.746  32.713  1.00  0.00     0.035 C 
ENDBRANCH   7   8
ENDBRANCH   1   7
BRANCH   2  10
ATOM     10  O   UNL     1      60.362 -40.641  36.625  1.00  0.00    -0.385 OA
ATOM     11  H   UNL     1      60.011 -41.558  36.775  1.00  0.00     0.211 HD
ENDBRANCH   2  10
BRANCH   3  12
ATOM     12  O   UNL     1      60.827 -41.514  33.145  1.00  0.00    -0.387 OA
ATOM     13  H   UNL     1      60.780 -42.387  32.674  1.00  0.00     0.211 HD
ENDBRANCH   3  12
BRANCH   5  14
ATOM     14  C   UNL     1      57.413 -41.774  32.985  1.00  0.00     0.191 C 
BRANCH  14  15
ATOM     15  O   UNL     1      58.435 -41.905  32.039  1.00  0.00    -0.394 OA
ATOM     16  H   UNL     1      59.021 -41.113  32.153  1.00  0.00     0.210 HD
ENDBRANCH  14  15
ENDBRANCH   5  14
BRANCH   4  17
ATOM     17  O   UNL     1      59.335 -43.738  33.816  1.00  0.00    -0.387 OA
ATOM     18  H   UNL     1      60.193 -43.675  33.321  1.00  0.00     0.211 HD
ENDBRANCH   4  17
TORSDOF 7
ENDMDL
MODEL 4
REMARK VINA RESULT:    -3.809      1.437      2.945
REMARK INTER + INTRA:          -5.646
REMARK INTER:                  -4.966
REMARK INTRA:                  -0.679
REMARK UNBOUND:                -0.724
REMARK SMILES CCO[C@H]1O[C@@H](CO)[C@@H](O)[C@@H](O)[C@@H]1O
REMARK SMILES IDX 4 1 13 2 11 3 9 4 6 5 5 6 3 7 2 8 1 9 14 10 12 12 7 14 8 15
REMARK SMILES IDX 10 17
REMARK H PARENT 14 11 12 13 8 16 10 18
REMARK Flexibility Score: inf
ROOT
ATOM      1  C   UNL     1      58.954 -39.937  32.783  1.00  0.00     0.281 C 
ATOM      2  C   UNL     1      57.529 -40.446  33.053  1.00  0.00     0.202 C 
ATOM      3  C   UNL     1      57.500 -41.394  34.257  1.00  0.00     0.179 C 
ATOM      4  C   UNL     1      58.565 -42.493  34.090  1.00  0.00     0.177 C 
ATOM      5  C   UNL     1      59.946 -41.949  33.623  1.00  0.00     0.178 C 
ATOM      6  O   UNL     1      59.875 -40.997  32.565  1.00  0.00    -0.341 OA
ENDROOT
BRANCH   1   7
ATOM      7  O   UNL     1      59.381 -39.080  33.828  1.00  0.00    -0.350 OA
BRANCH   7   8
ATOM      8  C   UNL     1      58.832 -37.788  33.659  1.00  0.00     0.160 C 
ATOM      9  C   UNL     1      59.812 -36.925  32.881  1.00  0.00     0.035 C 
ENDBRANCH   7   8
ENDBRANCH   1   7
BRANCH   2  10
ATOM     10  O   UNL     1      57.055 -41.107  31.907  1.00  0.00    -0.385 OA
ATOM     11  H   UNL     1      56.226 -40.638  31.624  1.00  0.00     0.211 HD
ENDBRANCH   2  10
BRANCH   3  12
ATOM     12  O   UNL     1      57.691 -40.662  35.440  1.00  0.00    -0.387 OA
ATOM     13  H   UNL     1      56.795 -40.525  35.847  1.00  0.00     0.211 HD
ENDBRANCH   3  12
BRANCH   5  14
ATOM     14  C   UNL     1      60.932 -41.531  34.739  1.00  0.00     0.191 C 
BRANCH  14  15
ATOM     15  O   UNL     1      60.272 -41.126  35.904  1.00  0.00    -0.394 OA
ATOM     16  H   UNL     1      59.761 -41.915  36.221  1.00  0.00     0.210 HD
ENDBRANCH  14  15
ENDBRANCH   5  14
BRANCH   4  17
ATOM     17  O   UNL     1      58.684 -43.234  35.278  1.00  0.00    -0.387 OA
ATOM     18  H   UNL     1      58.254 -44.113  35.112  1.00  0.00     0.211 HD
ENDBRANCH   4  17
TORSDOF 7
ENDMDL
MODEL 5
REMARK VINA RESULT:    -3.767     11.420     12.557
REMARK INTER + INTRA:          -5.592
REMARK INTER:                  -4.898
REMARK INTRA:                  -0.694
REMARK UNBOUND:                -0.724
REMARK SMILES CCO[C@H]1O[C@@H](CO)[C@@H](O)[C@@H](O)[C@@H]1O
REMARK SMILES IDX 4 1 13 2 11 3 9 4 6 5 5 6 3 7 2 8 1 9 14 10 12 12 7 14 8 15
REMARK SMILES IDX 10 17
REMARK H PARENT 14 11 12 13 8 16 10 18
REMARK Flexibility Score: inf
ROOT
ATOM      1  C   UNL     1      59.372 -40.228  46.545  1.00  0.00     0.281 C 
ATOM      2  C   UNL     1      58.623 -38.993  47.070  1.00  0.00     0.202 C 
ATOM      3  C   UNL     1      57.150 -39.315  47.345  1.00  0.00     0.179 C 
ATOM      4  C   UNL     1      56.518 -39.987  46.113  1.00  0.00     0.177 C 
ATOM      5  C   UNL     1      57.406 -41.105  45.494  1.00  0.00     0.178 C 
ATOM      6  O   UNL     1      58.782 -40.757  45.365  1.00  0.00    -0.341 OA
ENDROOT
BRANCH   1   7
ATOM      7  O   UNL     1      59.482 -41.210  47.560  1.00  0.00    -0.350 OA
BRANCH   7   8
ATOM      8  C   UNL     1      60.768 -41.798  47.537  1.00  0.00     0.160 C 
ATOM      9  C   UNL     1      61.799 -40.762  47.957  1.00  0.00     0.035 C 
ENDBRANCH   7   8
ENDBRANCH   1   7
BRANCH   2  10
ATOM     10  O   UNL     1      58.721 -37.960  46.121  1.00  0.00    -0.385 OA
ATOM     11  H   UNL     1      59.690 -37.794  45.975  1.00  0.00     0.211 HD
ENDBRANCH   2  10
BRANCH   3  12
ATOM     12  O   UNL     1      57.048 -40.126  48.487  1.00  0.00    -0.387 OA
ATOM     13  H   UNL     1      57.848 -39.946  49.046  1.00  0.00     0.211 HD
ENDBRANCH   3  12
BRANCH   5  14
ATOM     14  C   UNL     1      57.199 -42.533  46.050  1.00  0.00     0.191 C 
BRANCH  14  15
ATOM     15  O   UNL     1      56.813 -42.526  47.395  1.00  0.00    -0.394 OA
ATOM     16  H   UNL     1      56.295 -43.360  47.538  1.00  0.00     0.210 HD
ENDBRANCH  14  15
ENDBRANCH   5  14
BRANCH   4  17
ATOM     17  O   UNL     1      55.237 -40.471  46.430  1.00  0.00    -0.387 OA
ATOM     18  H   UNL     1      55.196 -40.546  47.420  1.00  0.00     0.211 HD
ENDBRANCH   4  17
TORSDOF 7
ENDMDL
MODEL 6
REMARK VINA RESULT:    -3.766     11.412     13.082
REMARK INTER + INTRA:          -5.591
REMARK INTER:                  -5.135
REMARK INTRA:                  -0.456
REMARK UNBOUND:                -0.724
REMARK SMILES CCO[C@H]1O[C@@H](CO)[C@@H](O)[C@@H](O)[C@@H]1O
REMARK SMILES IDX 4 1 13 2 11 3 9 4 6 5 5 6 3 7 2 8 1 9 14 10 12 12 7 14 8 15
REMARK SMILES IDX 10 17
REMARK H PARENT 14 11 12 13 8 16 10 18
REMARK Flexibility Score: inf
ROOT
ATOM      1  C   UNL     1      57.363 -39.818  46.530  1.00  0.00     0.281 C 
ATOM      2  C   UNL     1      56.955 -41.239  46.112  1.00  0.00     0.202 C 
ATOM      3  C   UNL     1      58.036 -42.259  46.491  1.00  0.00     0.179 C 
ATOM      4  C   UNL     1      59.407 -41.793  45.970  1.00  0.00     0.177 C 
ATOM      5  C   UNL     1      59.695 -40.288  46.246  1.00  0.00     0.178 C 
ATOM      6  O   UNL     1      58.602 -39.420  45.959  1.00  0.00    -0.341 OA
ENDROOT
BRANCH   1   7
ATOM      7  O   UNL     1      57.378 -39.701  47.943  1.00  0.00    -0.350 OA
BRANCH   7   8
ATOM      8  C   UNL     1      56.097 -39.337  48.419  1.00  0.00     0.160 C 
ATOM      9  C   UNL     1      55.664 -40.324  49.492  1.00  0.00     0.035 C 
ENDBRANCH   7   8
ENDBRANCH   1   7
BRANCH   2  10
ATOM     10  O   UNL     1      56.737 -41.263  44.723  1.00  0.00    -0.385 OA
ATOM     11  H   UNL     1      57.363 -40.604  44.321  1.00  0.00     0.211 HD
ENDBRANCH   2  10
BRANCH   3  12
ATOM     12  O   UNL     1      58.045 -42.442  47.884  1.00  0.00    -0.387 OA
ATOM     13  H   UNL     1      57.161 -42.143  48.224  1.00  0.00     0.211 HD
ENDBRANCH   3  12
BRANCH   5  14
ATOM     14  C   UNL     1      60.386 -39.956  47.588  1.00  0.00     0.191 C 
BRANCH  14  15
ATOM     15  O   UNL     1      61.741 -40.303  47.586  1.00  0.00    -0.394 OA
ATOM     16  H   UNL     1      61.806 -41.163  47.097  1.00  0.00     0.210 HD
ENDBRANCH  14  15
ENDBRANCH   5  14
BRANCH   4  17
ATOM     17  O   UNL     1      60.425 -42.609  46.493  1.00  0.00    -0.387 OA
ATOM     18  H   UNL     1      61.177 -42.009  46.738  1.00  0.00     0.211 HD
ENDBRANCH   4  17
TORSDOF 7
ENDMDL
MODEL 7
REMARK VINA RESULT:    -3.747      1.493      3.647
REMARK INTER + INTRA:          -5.565
REMARK INTER:                  -4.893
REMARK INTRA:                  -0.673
REMARK UNBOUND:                -0.724
REMARK SMILES CCO[C@H]1O[C@@H](CO)[C@@H](O)[C@@H](O)[C@@H]1O
REMARK SMILES IDX 4 1 13 2 11 3 9 4 6 5 5 6 3 7 2 8 1 9 14 10 12 12 7 14 8 15
REMARK SMILES IDX 10 17
REMARK H PARENT 14 11 12 13 8 16 10 18
REMARK Flexibility Score: inf
ROOT
ATOM      1  C   UNL     1      59.966 -40.491  32.751  1.00  0.00     0.281 C 
ATOM      2  C   UNL     1      61.206 -40.953  33.534  1.00  0.00     0.202 C 
ATOM      3  C   UNL     1      60.896 -41.097  35.028  1.00  0.00     0.179 C 
ATOM      4  C   UNL     1      60.232 -39.811  35.555  1.00  0.00     0.177 C 
ATOM      5  C   UNL     1      59.108 -39.269  34.624  1.00  0.00     0.178 C 
ATOM      6  O   UNL     1      59.445 -39.263  33.240  1.00  0.00    -0.341 OA
ENDROOT
BRANCH   1   7
ATOM      7  O   UNL     1      58.980 -41.509  32.738  1.00  0.00    -0.350 OA
BRANCH   7   8
ATOM      8  C   UNL     1      59.369 -42.559  31.875  1.00  0.00     0.160 C 
ATOM      9  C   UNL     1      58.685 -43.845  32.311  1.00  0.00     0.035 C 
ENDBRANCH   7   8
ENDBRANCH   1   7
BRANCH   2  10
ATOM     10  O   UNL     1      62.241 -40.020  33.344  1.00  0.00    -0.385 OA
ATOM     11  H   UNL     1      62.121 -39.313  34.031  1.00  0.00     0.211 HD
ENDBRANCH   2  10
BRANCH   3  12
ATOM     12  O   UNL     1      60.082 -42.223  35.236  1.00  0.00    -0.387 OA
ATOM     13  H   UNL     1      60.464 -42.720  36.006  1.00  0.00     0.211 HD
ENDBRANCH   3  12
BRANCH   5  14
ATOM     14  C   UNL     1      57.681 -39.801  34.891  1.00  0.00     0.191 C 
BRANCH  14  15
ATOM     15  O   UNL     1      57.663 -41.182  35.110  1.00  0.00    -0.394 OA
ATOM     16  H   UNL     1      56.707 -41.439  35.177  1.00  0.00     0.210 HD
ENDBRANCH  14  15
ENDBRANCH   5  14
BRANCH   4  17
ATOM     17  O   UNL     1      59.758 -40.014  36.862  1.00  0.00    -0.387 OA
ATOM     18  H   UNL     1      58.805 -39.734  36.868  1.00  0.00     0.211 HD
ENDBRANCH   4  17
TORSDOF 7
ENDMDL
MODEL 8
REMARK VINA RESULT:    -3.695      1.615      4.143
REMARK INTER + INTRA:          -5.499
REMARK INTER:                  -4.776
REMARK INTRA:                  -0.723
REMARK UNBOUND:                -0.724
REMARK SMILES CCO[C@H]1O[C@@H](CO)[C@@H](O)[C@@H](O)[C@@H]1O
REMARK SMILES IDX 4 1 13 2 11 3 9 4 6 5 5 6 3 7 2 8 1 9 14 10 12 12 7 14 8 15
REMARK SMILES IDX 10 17
REMARK H PARENT 14 11 12 13 8 16 10 18
REMARK Flexibility Score: inf
ROOT
ATOM      1  C   UNL     1      58.342 -41.968  33.321  1.00  0.00     0.281 C 
ATOM      2  C   UNL     1      59.118 -42.624  34.474  1.00  0.00     0.202 C 
ATOM      3  C   UNL     1      60.194 -41.680  35.024  1.00  0.00     0.179 C 
ATOM      4  C   UNL     1      61.064 -41.144  33.873  1.00  0.00     0.177 C 
ATOM      5  C   UNL     1      60.237 -40.670  32.642  1.00  0.00     0.178 C 
ATOM      6  O   UNL     1      59.193 -41.561  32.259  1.00  0.00    -0.341 OA
ENDROOT
BRANCH   1   7
ATOM      7  O   UNL     1      57.555 -40.892  33.802  1.00  0.00    -0.350 OA
BRANCH   7   8
ATOM      8  C   UNL     1      56.403 -40.728  32.997  1.00  0.00     0.160 C 
ATOM      9  C   UNL     1      55.843 -39.330  33.206  1.00  0.00     0.035 C 
ENDBRANCH   7   8
ENDBRANCH   1   7
BRANCH   2  10
ATOM     10  O   UNL     1      59.710 -43.811  34.010  1.00  0.00    -0.385 OA
ATOM     11  H   UNL     1      60.666 -43.782  34.278  1.00  0.00     0.211 HD
ENDBRANCH   2  10
BRANCH   3  12
ATOM     12  O   UNL     1      59.586 -40.638  35.744  1.00  0.00    -0.387 OA
ATOM     13  H   UNL     1      59.635 -40.880  36.706  1.00  0.00     0.211 HD
ENDBRANCH   3  12
BRANCH   5  14
ATOM     14  C   UNL     1      59.791 -39.190  32.644  1.00  0.00     0.191 C 
BRANCH  14  15
ATOM     15  O   UNL     1      59.543 -38.713  33.935  1.00  0.00    -0.394 OA
ATOM     16  H   UNL     1      60.219 -39.140  34.522  1.00  0.00     0.210 HD
ENDBRANCH  14  15
ENDBRANCH   5  14
BRANCH   4  17
ATOM     17  O   UNL     1      61.909 -40.124  34.342  1.00  0.00    -0.387 OA
ATOM     18  H   UNL     1      62.143 -40.353  35.279  1.00  0.00     0.211 HD
ENDBRANCH   4  17
TORSDOF 7
ENDMDL
MODEL 9
REMARK VINA RESULT:    -3.669      1.341      3.217
REMARK INTER + INTRA:          -5.465
REMARK INTER:                  -4.830
REMARK INTRA:                  -0.635
REMARK UNBOUND:                -0.724
REMARK SMILES CCO[C@H]1O[C@@H](CO)[C@@H](O)[C@@H](O)[C@@H]1O
REMARK SMILES IDX 4 1 13 2 11 3 9 4 6 5 5 6 3 7 2 8 1 9 14 10 12 12 7 14 8 15
REMARK SMILES IDX 10 17
REMARK H PARENT 14 11 12 13 8 16 10 18
REMARK Flexibility Score: inf
ROOT
ATOM      1  C   UNL     1      59.324 -41.138  34.833  1.00  0.00     0.281 C 
ATOM      2  C   UNL     1      59.206 -42.566  34.276  1.00  0.00     0.202 C 
ATOM      3  C   UNL     1      58.364 -42.593  32.996  1.00  0.00     0.179 C 
ATOM      4  C   UNL     1      57.025 -41.871  33.230  1.00  0.00     0.177 C 
ATOM      5  C   UNL     1      57.176 -40.513  33.976  1.00  0.00     0.178 C 
ATOM      6  O   UNL     1      58.056 -40.554  35.096  1.00  0.00    -0.341 OA
ENDROOT
BRANCH   1   7
ATOM      7  O   UNL     1      60.102 -40.330  33.967  1.00  0.00    -0.350 OA
BRANCH   7   8
ATOM      8  C   UNL     1      61.459 -40.348  34.364  1.00  0.00     0.160 C 
ATOM      9  C   UNL     1      61.535 -40.462  35.878  1.00  0.00     0.035 C 
ENDBRANCH   7   8
ENDBRANCH   1   7
BRANCH   2  10
ATOM     10  O   UNL     1      58.624 -43.392  35.254  1.00  0.00    -0.385 OA
ATOM     11  H   UNL     1      58.710 -42.917  36.122  1.00  0.00     0.211 HD
ENDBRANCH   2  10
BRANCH   3  12
ATOM     12  O   UNL     1      59.088 -42.013  31.941  1.00  0.00    -0.387 OA
ATOM     13  H   UNL     1      58.519 -42.071  31.129  1.00  0.00     0.211 HD
ENDBRANCH   3  12
BRANCH   5  14
ATOM     14  C   UNL     1      57.393 -39.264  33.091  1.00  0.00     0.191 C 
BRANCH  14  15
ATOM     15  O   UNL     1      58.067 -39.567  31.903  1.00  0.00    -0.394 OA
ATOM     16  H   UNL     1      57.373 -39.620  31.196  1.00  0.00     0.210 HD
ENDBRANCH  14  15
ENDBRANCH   5  14
BRANCH   4  17
ATOM     17  O   UNL     1      56.344 -41.709  32.012  1.00  0.00    -0.387 OA
ATOM     18  H   UNL     1      57.032 -41.523  31.321  1.00  0.00     0.211 HD
ENDBRANCH   4  17
TORSDOF 7
ENDMDL
