MODEL 1
REMARK VINA RESULT:    -5.289      0.000      0.000
REMARK INTER + INTRA:          -6.484
REMARK INTER:                  -6.217
REMARK INTRA:                  -0.267
REMARK UNBOUND:                -0.267
REMARK SMILES O=c1cc(-c2ccc(O)c(O)c2)oc2cc(O)cc(O)c12
REMARK SMILES IDX 4 1 3 2 2 3 1 4 21 5 19 6 18 7 16 8 15 9 14 10 13 11 5 12
REMARK SMILES IDX 6 13 7 14 8 15 12 16 10 17 9 18 11 20 20 22 17 24
REMARK H PARENT 9 19 11 21 20 23 17 25
REMARK Flexibility Score: inf
ROOT
ATOM      1  C   UNL     1      15.706  54.636  30.663  1.00  0.00     0.138 A 
ATOM      2  C   UNL     1      15.698  54.574  29.259  1.00  0.00     0.100 A 
ATOM      3  C   UNL     1      15.388  53.370  28.625  1.00  0.00     0.197 A 
ATOM      4  O   UNL     1      15.385  53.325  27.366  1.00  0.00    -0.289 OA
ATOM      5  C   UNL     1      15.090  52.232  29.402  1.00  0.00     0.107 A 
ATOM      6  C   UNL     1      14.764  50.975  28.841  1.00  0.00     0.134 A 
ATOM      7  C   UNL     1      14.486  49.889  29.684  1.00  0.00     0.093 A 
ATOM      8  C   UNL     1      14.528  50.035  31.072  1.00  0.00     0.123 A 
ATOM      9  C   UNL     1      14.849  51.276  31.633  1.00  0.00     0.094 A 
ATOM     10  C   UNL     1      15.129  52.371  30.811  1.00  0.00     0.146 A 
ATOM     11  O   UNL     1      15.430  53.540  31.366  1.00  0.00    -0.456 OA
ENDROOT
BRANCH   1  12
ATOM     12  C   UNL     1      16.030  55.888  31.390  1.00  0.00     0.021 A 
ATOM     13  C   UNL     1      15.072  56.458  32.246  1.00  0.00     0.016 A 
ATOM     14  C   UNL     1      15.348  57.640  32.936  1.00  0.00     0.051 A 
ATOM     15  C   UNL     1      16.584  58.281  32.776  1.00  0.00     0.157 A 
ATOM     16  C   UNL     1      17.266  56.544  31.222  1.00  0.00     0.062 A 
ATOM     17  C   UNL     1      17.544  57.731  31.912  1.00  0.00     0.158 A 
BRANCH  15  18
ATOM     18  O   UNL     1      16.857  59.459  33.467  1.00  0.00    -0.504 OA
ATOM     19  H   UNL     1      16.751  60.368  33.031  1.00  0.00     0.293 HD
ENDBRANCH  15  18
BRANCH  17  20
ATOM     20  O   UNL     1      18.780  58.350  31.722  1.00  0.00    -0.504 OA
ATOM     21  H   UNL     1      18.891  59.154  31.117  1.00  0.00     0.293 HD
ENDBRANCH  17  20
ENDBRANCH   1  12
BRANCH   6  22
ATOM     22  O   UNL     1      14.716  50.798  27.458  1.00  0.00    -0.507 OA
ATOM     23  H   UNL     1      14.739  49.876  27.037  1.00  0.00     0.293 HD
ENDBRANCH   6  22
BRANCH   8  24
ATOM     24  O   UNL     1      14.247  48.941  31.888  1.00  0.00    -0.508 OA
ATOM     25  H   UNL     1      14.524  48.921  32.862  1.00  0.00     0.293 HD
ENDBRANCH   8  24
TORSDOF 5
ENDMDL
MODEL 2
REMARK VINA RESULT:    -5.210      1.875      2.258
REMARK INTER + INTRA:          -6.391
REMARK INTER:                  -6.083
REMARK INTRA:                  -0.308
REMARK UNBOUND:                -0.267
REMARK SMILES O=c1cc(-c2ccc(O)c(O)c2)oc2cc(O)cc(O)c12
REMARK SMILES IDX 4 1 3 2 2 3 1 4 21 5 19 6 18 7 16 8 15 9 14 10 13 11 5 12
REMARK SMILES IDX 6 13 7 14 8 15 12 16 10 17 9 18 11 20 20 22 17 24
REMARK H PARENT 9 19 11 21 20 23 17 25
REMARK Flexibility Score: inf
ROOT
ATOM      1  C   UNL     1      14.736  55.195  31.805  1.00  0.00     0.138 A 
ATOM      2  C   UNL     1      13.345  55.166  31.610  1.00  0.00     0.100 A 
ATOM      3  C   UNL     1      12.721  53.957  31.294  1.00  0.00     0.197 A 
ATOM      4  O   UNL     1      11.473  53.942  31.119  1.00  0.00    -0.289 OA
ATOM      5  C   UNL     1      13.495  52.787  31.171  1.00  0.00     0.107 A 
ATOM      6  C   UNL     1      12.943  51.523  30.855  1.00  0.00     0.134 A 
ATOM      7  C   UNL     1      13.784  50.405  30.746  1.00  0.00     0.093 A 
ATOM      8  C   UNL     1      15.160  50.526  30.945  1.00  0.00     0.123 A 
ATOM      9  C   UNL     1      15.712  51.773  31.258  1.00  0.00     0.094 A 
ATOM     10  C   UNL     1      14.892  52.899  31.372  1.00  0.00     0.146 A 
ATOM     11  O   UNL     1      15.439  54.073  31.673  1.00  0.00    -0.456 OA
ENDROOT
BRANCH   1  12
ATOM     12  C   UNL     1      15.453  56.450  32.142  1.00  0.00     0.021 A 
ATOM     13  C   UNL     1      14.770  57.476  32.819  1.00  0.00     0.016 A 
ATOM     14  C   UNL     1      15.419  58.670  33.141  1.00  0.00     0.051 A 
ATOM     15  C   UNL     1      16.760  58.865  32.785  1.00  0.00     0.157 A 
ATOM     16  C   UNL     1      16.798  56.658  31.775  1.00  0.00     0.062 A 
ATOM     17  C   UNL     1      17.450  57.855  32.096  1.00  0.00     0.158 A 
BRANCH  15  18
ATOM     18  O   UNL     1      17.405  60.056  33.109  1.00  0.00    -0.504 OA
ATOM     19  H   UNL     1      18.332  60.064  33.519  1.00  0.00     0.293 HD
ENDBRANCH  15  18
BRANCH  17  20
ATOM     20  O   UNL     1      18.781  58.022  31.717  1.00  0.00    -0.504 OA
ATOM     21  H   UNL     1      19.046  58.571  30.908  1.00  0.00     0.293 HD
ENDBRANCH  17  20
ENDBRANCH   1  12
BRANCH   6  22
ATOM     22  O   UNL     1      11.571  51.370  30.650  1.00  0.00    -0.507 OA
ATOM     23  H   UNL     1      11.133  51.621  29.771  1.00  0.00     0.293 HD
ENDBRANCH   6  22
BRANCH   8  24
ATOM     24  O   UNL     1      15.973  49.400  30.831  1.00  0.00    -0.508 OA
ATOM     25  H   UNL     1      15.583  48.478  30.679  1.00  0.00     0.293 HD
ENDBRANCH   8  24
TORSDOF 5
ENDMDL
MODEL 3
REMARK VINA RESULT:    -5.117      1.887      7.192
REMARK INTER + INTRA:          -6.282
REMARK INTER:                  -5.971
REMARK INTRA:                  -0.311
REMARK UNBOUND:                -0.267
REMARK SMILES O=c1cc(-c2ccc(O)c(O)c2)oc2cc(O)cc(O)c12
REMARK SMILES IDX 4 1 3 2 2 3 1 4 21 5 19 6 18 7 16 8 15 9 14 10 13 11 5 12
REMARK SMILES IDX 6 13 7 14 8 15 12 16 10 17 9 18 11 20 20 22 17 24
REMARK H PARENT 9 19 11 21 20 23 17 25
REMARK Flexibility Score: inf
ROOT
ATOM      1  C   UNL     1      14.476  54.049  31.667  1.00  0.00     0.138 A 
ATOM      2  C   UNL     1      13.429  54.790  32.242  1.00  0.00     0.100 A 
ATOM      3  C   UNL     1      13.643  56.124  32.593  1.00  0.00     0.197 A 
ATOM      4  O   UNL     1      12.698  56.779  33.108  1.00  0.00    -0.289 OA
ATOM      5  C   UNL     1      14.906  56.707  32.370  1.00  0.00     0.107 A 
ATOM      6  C   UNL     1      15.207  58.051  32.695  1.00  0.00     0.134 A 
ATOM      7  C   UNL     1      16.493  58.555  32.446  1.00  0.00     0.093 A 
ATOM      8  C   UNL     1      17.480  57.744  31.882  1.00  0.00     0.123 A 
ATOM      9  C   UNL     1      17.188  56.414  31.558  1.00  0.00     0.094 A 
ATOM     10  C   UNL     1      15.913  55.893  31.797  1.00  0.00     0.146 A 
ATOM     11  O   UNL     1      15.659  54.627  31.479  1.00  0.00    -0.456 OA
ENDROOT
BRANCH   1  12
ATOM     12  C   UNL     1      14.306  52.628  31.275  1.00  0.00     0.021 A 
ATOM     13  C   UNL     1      13.017  52.133  31.012  1.00  0.00     0.016 A 
ATOM     14  C   UNL     1      12.828  50.798  30.649  1.00  0.00     0.051 A 
ATOM     15  C   UNL     1      13.923  49.929  30.551  1.00  0.00     0.157 A 
ATOM     16  C   UNL     1      15.402  51.746  31.189  1.00  0.00     0.062 A 
ATOM     17  C   UNL     1      15.215  50.407  30.826  1.00  0.00     0.158 A 
BRANCH  15  18
ATOM     18  O   UNL     1      13.732  48.598  30.187  1.00  0.00    -0.504 OA
ATOM     19  H   UNL     1      14.019  48.249  29.279  1.00  0.00     0.293 HD
ENDBRANCH  15  18
BRANCH  17  20
ATOM     20  O   UNL     1      16.324  49.565  30.750  1.00  0.00    -0.504 OA
ATOM     21  H   UNL     1      16.306  48.696  30.231  1.00  0.00     0.293 HD
ENDBRANCH  17  20
ENDBRANCH   1  12
BRANCH   6  22
ATOM     22  O   UNL     1      14.243  58.885  33.261  1.00  0.00    -0.507 OA
ATOM     23  H   UNL     1      13.323  58.992  32.850  1.00  0.00     0.293 HD
ENDBRANCH   6  22
BRANCH   8  24
ATOM     24  O   UNL     1      18.748  58.269  31.645  1.00  0.00    -0.508 OA
ATOM     25  H   UNL     1      18.973  59.231  31.867  1.00  0.00     0.293 HD
ENDBRANCH   8  24
TORSDOF 5
ENDMDL
MODEL 4
REMARK VINA RESULT:    -5.093      1.173      2.694
REMARK INTER + INTRA:          -6.254
REMARK INTER:                  -5.971
REMARK INTRA:                  -0.283
REMARK UNBOUND:                -0.267
REMARK SMILES O=c1cc(-c2ccc(O)c(O)c2)oc2cc(O)cc(O)c12
REMARK SMILES IDX 4 1 3 2 2 3 1 4 21 5 19 6 18 7 16 8 15 9 14 10 13 11 5 12
REMARK SMILES IDX 6 13 7 14 8 15 12 16 10 17 9 18 11 20 20 22 17 24
REMARK H PARENT 9 19 11 21 20 23 17 25
REMARK Flexibility Score: inf
ROOT
ATOM      1  C   UNL     1      15.643  54.625  31.090  1.00  0.00     0.138 A 
ATOM      2  C   UNL     1      15.242  53.537  31.884  1.00  0.00     0.100 A 
ATOM      3  C   UNL     1      14.911  52.326  31.272  1.00  0.00     0.197 A 
ATOM      4  O   UNL     1      14.551  51.356  31.993  1.00  0.00    -0.289 OA
ATOM      5  C   UNL     1      14.980  52.213  29.870  1.00  0.00     0.107 A 
ATOM      6  C   UNL     1      14.663  51.024  29.172  1.00  0.00     0.134 A 
ATOM      7  C   UNL     1      14.752  50.995  27.772  1.00  0.00     0.093 A 
ATOM      8  C   UNL     1      15.149  52.128  27.059  1.00  0.00     0.123 A 
ATOM      9  C   UNL     1      15.464  53.307  27.744  1.00  0.00     0.094 A 
ATOM     10  C   UNL     1      15.382  53.357  29.138  1.00  0.00     0.146 A 
ATOM     11  O   UNL     1      15.688  54.487  29.767  1.00  0.00    -0.456 OA
ENDROOT
BRANCH   1  12
ATOM     12  C   UNL     1      16.006  55.935  31.684  1.00  0.00     0.021 A 
ATOM     13  C   UNL     1      15.087  56.593  32.521  1.00  0.00     0.016 A 
ATOM     14  C   UNL     1      15.401  57.830  33.087  1.00  0.00     0.051 A 
ATOM     15  C   UNL     1      16.634  58.439  32.820  1.00  0.00     0.157 A 
ATOM     16  C   UNL     1      17.240  56.559  31.409  1.00  0.00     0.062 A 
ATOM     17  C   UNL     1      17.555  57.800  31.974  1.00  0.00     0.158 A 
BRANCH  15  18
ATOM     18  O   UNL     1      16.944  59.673  33.387  1.00  0.00    -0.504 OA
ATOM     19  H   UNL     1      16.525  60.533  33.052  1.00  0.00     0.293 HD
ENDBRANCH  15  18
BRANCH  17  20
ATOM     20  O   UNL     1      18.786  58.385  31.679  1.00  0.00    -0.504 OA
ATOM     21  H   UNL     1      19.035  58.672  30.740  1.00  0.00     0.293 HD
ENDBRANCH  17  20
ENDBRANCH   1  12
BRANCH   6  22
ATOM     22  O   UNL     1      14.262  49.876  29.856  1.00  0.00    -0.507 OA
ATOM     23  H   UNL     1      13.344  49.468  29.721  1.00  0.00     0.293 HD
ENDBRANCH   6  22
BRANCH   8  24
ATOM     24  O   UNL     1      15.229  52.073  25.670  1.00  0.00    -0.508 OA
ATOM     25  H   UNL     1      16.061  52.369  25.175  1.00  0.00     0.293 HD
ENDBRANCH   8  24
TORSDOF 5
ENDMDL
MODEL 5
REMARK VINA RESULT:    -5.022      3.312      7.483
REMARK INTER + INTRA:          -6.170
REMARK INTER:                  -5.906
REMARK INTRA:                  -0.264
REMARK UNBOUND:                -0.267
REMARK SMILES O=c1cc(-c2ccc(O)c(O)c2)oc2cc(O)cc(O)c12
REMARK SMILES IDX 4 1 3 2 2 3 1 4 21 5 19 6 18 7 16 8 15 9 14 10 13 11 5 12
REMARK SMILES IDX 6 13 7 14 8 15 12 16 10 17 9 18 11 20 20 22 17 24
REMARK H PARENT 9 19 11 21 20 23 17 25
REMARK Flexibility Score: inf
ROOT
ATOM      1  C   UNL     1      14.668  50.541  31.129  1.00  0.00     0.138 A 
ATOM      2  C   UNL     1      13.409  50.709  30.528  1.00  0.00     0.100 A 
ATOM      3  C   UNL     1      12.680  51.873  30.776  1.00  0.00     0.197 A 
ATOM      4  O   UNL     1      11.551  52.014  30.233  1.00  0.00    -0.289 OA
ATOM      5  C   UNL     1      13.214  52.860  31.627  1.00  0.00     0.107 A 
ATOM      6  C   UNL     1      12.542  54.068  31.931  1.00  0.00     0.134 A 
ATOM      7  C   UNL     1      13.141  54.999  32.793  1.00  0.00     0.093 A 
ATOM      8  C   UNL     1      14.393  54.746  33.357  1.00  0.00     0.123 A 
ATOM      9  C   UNL     1      15.062  53.553  33.061  1.00  0.00     0.094 A 
ATOM     10  C   UNL     1      14.484  52.613  32.204  1.00  0.00     0.146 A 
ATOM     11  O   UNL     1      15.140  51.488  31.935  1.00  0.00    -0.456 OA
ENDROOT
BRANCH   1  12
ATOM     12  C   UNL     1      15.487  49.324  30.902  1.00  0.00     0.021 A 
ATOM     13  C   UNL     1      16.579  49.380  30.018  1.00  0.00     0.016 A 
ATOM     14  C   UNL     1      17.361  48.248  29.781  1.00  0.00     0.051 A 
ATOM     15  C   UNL     1      17.062  47.035  30.416  1.00  0.00     0.157 A 
ATOM     16  C   UNL     1      15.183  48.098  31.528  1.00  0.00     0.062 A 
ATOM     17  C   UNL     1      15.965  46.961  31.290  1.00  0.00     0.158 A 
BRANCH  15  18
ATOM     18  O   UNL     1      17.845  45.908  30.179  1.00  0.00    -0.504 OA
ATOM     19  H   UNL     1      17.434  45.025  29.896  1.00  0.00     0.293 HD
ENDBRANCH  15  18
BRANCH  17  20
ATOM     20  O   UNL     1      15.634  45.767  31.929  1.00  0.00    -0.504 OA
ATOM     21  H   UNL     1      14.728  45.329  31.816  1.00  0.00     0.293 HD
ENDBRANCH  17  20
ENDBRANCH   1  12
BRANCH   6  22
ATOM     22  O   UNL     1      11.290  54.349  31.384  1.00  0.00    -0.507 OA
ATOM     23  H   UNL     1      10.798  55.210  31.592  1.00  0.00     0.293 HD
ENDBRANCH   6  22
BRANCH   8  24
ATOM     24  O   UNL     1      14.966  55.686  34.211  1.00  0.00    -0.508 OA
ATOM     25  H   UNL     1      14.984  56.671  33.978  1.00  0.00     0.293 HD
ENDBRANCH   8  24
TORSDOF 5
ENDMDL
MODEL 6
REMARK VINA RESULT:    -4.937      5.049      8.777
REMARK INTER + INTRA:          -6.070
REMARK INTER:                  -5.777
REMARK INTRA:                  -0.293
REMARK UNBOUND:                -0.267
REMARK SMILES O=c1cc(-c2ccc(O)c(O)c2)oc2cc(O)cc(O)c12
REMARK SMILES IDX 4 1 3 2 2 3 1 4 21 5 19 6 18 7 16 8 15 9 14 10 13 11 5 12
REMARK SMILES IDX 6 13 7 14 8 15 12 16 10 17 9 18 11 20 20 22 17 24
REMARK H PARENT 9 19 11 21 20 23 17 25
REMARK Flexibility Score: inf
ROOT
ATOM      1  C   UNL     1      15.856  47.336  30.033  1.00  0.00     0.138 A 
ATOM      2  C   UNL     1      16.470  46.602  29.004  1.00  0.00     0.100 A 
ATOM      3  C   UNL     1      16.992  47.275  27.898  1.00  0.00     0.197 A 
ATOM      4  O   UNL     1      17.539  46.607  26.979  1.00  0.00    -0.289 OA
ATOM      5  C   UNL     1      16.893  48.678  27.827  1.00  0.00     0.107 A 
ATOM      6  C   UNL     1      17.395  49.436  26.743  1.00  0.00     0.134 A 
ATOM      7  C   UNL     1      17.252  50.832  26.746  1.00  0.00     0.093 A 
ATOM      8  C   UNL     1      16.617  51.481  27.806  1.00  0.00     0.123 A 
ATOM      9  C   UNL     1      16.118  50.737  28.881  1.00  0.00     0.094 A 
ATOM     10  C   UNL     1      16.251  49.346  28.898  1.00  0.00     0.146 A 
ATOM     11  O   UNL     1      15.771  48.660  29.930  1.00  0.00    -0.456 OA
ENDROOT
BRANCH   1  12
ATOM     12  C   UNL     1      15.284  46.675  31.232  1.00  0.00     0.021 A 
ATOM     13  C   UNL     1      15.037  47.434  32.389  1.00  0.00     0.016 A 
ATOM     14  C   UNL     1      14.506  46.835  33.533  1.00  0.00     0.051 A 
ATOM     15  C   UNL     1      14.219  45.464  33.546  1.00  0.00     0.157 A 
ATOM     16  C   UNL     1      15.006  45.293  31.255  1.00  0.00     0.062 A 
ATOM     17  C   UNL     1      14.474  44.690  32.402  1.00  0.00     0.158 A 
BRANCH  15  18
ATOM     18  O   UNL     1      13.688  44.869  34.688  1.00  0.00    -0.504 OA
ATOM     19  H   UNL     1      14.111  44.048  35.106  1.00  0.00     0.293 HD
ENDBRANCH  15  18
BRANCH  17  20
ATOM     20  O   UNL     1      14.211  43.321  32.386  1.00  0.00    -0.504 OA
ATOM     21  H   UNL     1      14.748  42.676  31.820  1.00  0.00     0.293 HD
ENDBRANCH  17  20
ENDBRANCH   1  12
BRANCH   6  22
ATOM     22  O   UNL     1      18.034  48.816  25.669  1.00  0.00    -0.507 OA
ATOM     23  H   UNL     1      17.514  48.449  24.879  1.00  0.00     0.293 HD
ENDBRANCH   6  22
BRANCH   8  24
ATOM     24  O   UNL     1      16.487  52.868  27.784  1.00  0.00    -0.508 OA
ATOM     25  H   UNL     1      17.221  53.475  28.129  1.00  0.00     0.293 HD
ENDBRANCH   8  24
TORSDOF 5
ENDMDL
MODEL 7
REMARK VINA RESULT:    -4.926      2.666      4.888
REMARK INTER + INTRA:          -6.057
REMARK INTER:                  -5.792
REMARK INTRA:                  -0.265
REMARK UNBOUND:                -0.267
REMARK SMILES O=c1cc(-c2ccc(O)c(O)c2)oc2cc(O)cc(O)c12
REMARK SMILES IDX 4 1 3 2 2 3 1 4 21 5 19 6 18 7 16 8 15 9 14 10 13 11 5 12
REMARK SMILES IDX 6 13 7 14 8 15 12 16 10 17 9 18 11 20 20 22 17 24
REMARK H PARENT 9 19 11 21 20 23 17 25
REMARK Flexibility Score: inf
ROOT
ATOM      1  C   UNL     1      15.104  50.602  30.877  1.00  0.00     0.138 A 
ATOM      2  C   UNL     1      13.913  49.999  31.315  1.00  0.00     0.100 A 
ATOM      3  C   UNL     1      13.823  48.606  31.358  1.00  0.00     0.197 A 
ATOM      4  O   UNL     1      12.750  48.075  31.751  1.00  0.00    -0.289 OA
ATOM      5  C   UNL     1      14.926  47.826  30.959  1.00  0.00     0.107 A 
ATOM      6  C   UNL     1      14.920  46.411  30.973  1.00  0.00     0.134 A 
ATOM      7  C   UNL     1      16.059  45.707  30.554  1.00  0.00     0.093 A 
ATOM      8  C   UNL     1      17.199  46.387  30.121  1.00  0.00     0.123 A 
ATOM      9  C   UNL     1      17.211  47.786  30.105  1.00  0.00     0.094 A 
ATOM     10  C   UNL     1      16.087  48.507  30.519  1.00  0.00     0.146 A 
ATOM     11  O   UNL     1      16.124  49.835  30.498  1.00  0.00    -0.456 OA
ENDROOT
BRANCH   1  12
ATOM     12  C   UNL     1      15.256  52.076  30.809  1.00  0.00     0.021 A 
ATOM     13  C   UNL     1      15.312  52.709  29.555  1.00  0.00     0.016 A 
ATOM     14  C   UNL     1      15.462  54.094  29.463  1.00  0.00     0.051 A 
ATOM     15  C   UNL     1      15.568  54.873  30.623  1.00  0.00     0.157 A 
ATOM     16  C   UNL     1      15.375  52.864  31.972  1.00  0.00     0.062 A 
ATOM     17  C   UNL     1      15.528  54.252  31.882  1.00  0.00     0.158 A 
BRANCH  15  18
ATOM     18  O   UNL     1      15.715  56.255  30.528  1.00  0.00    -0.504 OA
ATOM     19  H   UNL     1      16.295  56.680  29.814  1.00  0.00     0.293 HD
ENDBRANCH  15  18
BRANCH  17  20
ATOM     20  O   UNL     1      15.642  54.998  33.055  1.00  0.00    -0.504 OA
ATOM     21  H   UNL     1      15.065  54.815  33.867  1.00  0.00     0.293 HD
ENDBRANCH  17  20
ENDBRANCH   1  12
BRANCH   6  22
ATOM     22  O   UNL     1      13.796  45.703  31.398  1.00  0.00    -0.507 OA
ATOM     23  H   UNL     1      13.196  45.212  30.745  1.00  0.00     0.293 HD
ENDBRANCH   6  22
BRANCH   8  24
ATOM     24  O   UNL     1      18.316  45.664  29.710  1.00  0.00    -0.508 OA
ATOM     25  H   UNL     1      19.020  46.074  29.108  1.00  0.00     0.293 HD
ENDBRANCH   8  24
TORSDOF 5
ENDMDL
MODEL 8
REMARK VINA RESULT:    -4.901      5.953      8.779
REMARK INTER + INTRA:          -6.028
REMARK INTER:                  -5.731
REMARK INTRA:                  -0.297
REMARK UNBOUND:                -0.267
REMARK SMILES O=c1cc(-c2ccc(O)c(O)c2)oc2cc(O)cc(O)c12
REMARK SMILES IDX 4 1 3 2 2 3 1 4 21 5 19 6 18 7 16 8 15 9 14 10 13 11 5 12
REMARK SMILES IDX 6 13 7 14 8 15 12 16 10 17 9 18 11 20 20 22 17 24
REMARK H PARENT 9 19 11 21 20 23 17 25
REMARK Flexibility Score: inf
ROOT
ATOM      1  C   UNL     1      15.716  46.395  30.221  1.00  0.00     0.138 A 
ATOM      2  C   UNL     1      15.777  45.060  29.786  1.00  0.00     0.100 A 
ATOM      3  C   UNL     1      15.231  44.052  30.583  1.00  0.00     0.197 A 
ATOM      4  O   UNL     1      15.292  42.858  30.184  1.00  0.00    -0.289 OA
ATOM      5  C   UNL     1      14.631  44.387  31.812  1.00  0.00     0.107 A 
ATOM      6  C   UNL     1      14.054  43.428  32.679  1.00  0.00     0.134 A 
ATOM      7  C   UNL     1      13.480  43.843  33.890  1.00  0.00     0.093 A 
ATOM      8  C   UNL     1      13.473  45.191  34.251  1.00  0.00     0.123 A 
ATOM      9  C   UNL     1      14.042  46.144  33.398  1.00  0.00     0.094 A 
ATOM     10  C   UNL     1      14.618  45.752  32.187  1.00  0.00     0.146 A 
ATOM     11  O   UNL     1      15.151  46.675  31.392  1.00  0.00    -0.456 OA
ENDROOT
BRANCH   1  12
ATOM     12  C   UNL     1      16.281  47.507  29.416  1.00  0.00     0.021 A 
ATOM     13  C   UNL     1      16.329  48.801  29.963  1.00  0.00     0.016 A 
ATOM     14  C   UNL     1      16.847  49.866  29.225  1.00  0.00     0.051 A 
ATOM     15  C   UNL     1      17.320  49.661  27.922  1.00  0.00     0.157 A 
ATOM     16  C   UNL     1      16.745  47.309  28.100  1.00  0.00     0.062 A 
ATOM     17  C   UNL     1      17.264  48.376  27.358  1.00  0.00     0.158 A 
BRANCH  15  18
ATOM     18  O   UNL     1      17.839  50.725  27.188  1.00  0.00    -0.504 OA
ATOM     19  H   UNL     1      17.259  51.271  26.561  1.00  0.00     0.293 HD
ENDBRANCH  15  18
BRANCH  17  20
ATOM     20  O   UNL     1      17.715  48.140  26.059  1.00  0.00    -0.504 OA
ATOM     21  H   UNL     1      18.700  48.080  25.834  1.00  0.00     0.293 HD
ENDBRANCH  17  20
ENDBRANCH   1  12
BRANCH   6  22
ATOM     22  O   UNL     1      14.046  42.073  32.346  1.00  0.00    -0.507 OA
ATOM     23  H   UNL     1      13.352  41.436  32.719  1.00  0.00     0.293 HD
ENDBRANCH   6  22
BRANCH   8  24
ATOM     24  O   UNL     1      12.897  45.577  35.460  1.00  0.00    -0.508 OA
ATOM     25  H   UNL     1      12.710  44.906  36.195  1.00  0.00     0.293 HD
ENDBRANCH   8  24
TORSDOF 5
ENDMDL
MODEL 9
REMARK VINA RESULT:    -4.880      4.788      8.567
REMARK INTER + INTRA:          -6.003
REMARK INTER:                  -5.690
REMARK INTRA:                  -0.313
REMARK UNBOUND:                -0.267
REMARK SMILES O=c1cc(-c2ccc(O)c(O)c2)oc2cc(O)cc(O)c12
REMARK SMILES IDX 4 1 3 2 2 3 1 4 21 5 19 6 18 7 16 8 15 9 14 10 13 11 5 12
REMARK SMILES IDX 6 13 7 14 8 15 12 16 10 17 9 18 11 20 20 22 17 24
REMARK H PARENT 9 19 11 21 20 23 17 25
REMARK Flexibility Score: inf
ROOT
ATOM      1  C   UNL     1      15.306  48.259  30.798  1.00  0.00     0.138 A 
ATOM      2  C   UNL     1      14.956  49.590  31.081  1.00  0.00     0.100 A 
ATOM      3  C   UNL     1      15.346  50.604  30.204  1.00  0.00     0.197 A 
ATOM      4  O   UNL     1      15.027  51.795  30.467  1.00  0.00    -0.289 OA
ATOM      5  C   UNL     1      16.088  50.279  29.052  1.00  0.00     0.107 A 
ATOM      6  C   UNL     1      16.522  51.244  28.112  1.00  0.00     0.134 A 
ATOM      7  C   UNL     1      17.262  50.839  26.992  1.00  0.00     0.093 A 
ATOM      8  C   UNL     1      17.578  49.493  26.794  1.00  0.00     0.123 A 
ATOM      9  C   UNL     1      17.152  48.534  27.719  1.00  0.00     0.094 A 
ATOM     10  C   UNL     1      16.412  48.917  28.842  1.00  0.00     0.146 A 
ATOM     11  O   UNL     1      16.016  47.987  29.706  1.00  0.00    -0.456 OA
ENDROOT
BRANCH   1  12
ATOM     12  C   UNL     1      14.920  47.140  31.694  1.00  0.00     0.021 A 
ATOM     13  C   UNL     1      14.551  47.415  33.023  1.00  0.00     0.016 A 
ATOM     14  C   UNL     1      14.191  46.380  33.888  1.00  0.00     0.051 A 
ATOM     15  C   UNL     1      14.200  45.051  33.446  1.00  0.00     0.157 A 
ATOM     16  C   UNL     1      14.941  45.800  31.259  1.00  0.00     0.062 A 
ATOM     17  C   UNL     1      14.581  44.761  32.126  1.00  0.00     0.158 A 
BRANCH  15  18
ATOM     18  O   UNL     1      13.838  44.021  34.311  1.00  0.00    -0.504 OA
ATOM     19  H   UNL     1      12.950  43.541  34.224  1.00  0.00     0.293 HD
ENDBRANCH  15  18
BRANCH  17  20
ATOM     20  O   UNL     1      14.612  43.448  31.658  1.00  0.00    -0.504 OA
ATOM     21  H   UNL     1      15.419  43.066  31.180  1.00  0.00     0.293 HD
ENDBRANCH  17  20
ENDBRANCH   1  12
BRANCH   6  22
ATOM     22  O   UNL     1      16.223  52.596  28.283  1.00  0.00    -0.507 OA
ATOM     23  H   UNL     1      15.310  52.973  28.058  1.00  0.00     0.293 HD
ENDBRANCH   6  22
BRANCH   8  24
ATOM     24  O   UNL     1      18.315  49.118  25.673  1.00  0.00    -0.508 OA
ATOM     25  H   UNL     1      18.927  49.770  25.198  1.00  0.00     0.293 HD
ENDBRANCH   8  24
TORSDOF 5
ENDMDL
