MODEL 1
REMARK VINA RESULT:    -3.880      0.000      0.000
REMARK INTER + INTRA:          -8.324
REMARK INTER:                  -6.602
REMARK INTRA:                  -1.723
REMARK UNBOUND:                -1.723
REMARK SMILES CCCCCCCCCCCCCC(=O)[O-]
REMARK SMILES IDX 8 1 9 2 10 3 11 4 12 5 13 6 14 7 15 8 16 9 7 10 6 11 5 12
REMARK SMILES IDX 4 13 3 14 2 15 1 16
REMARK H PARENT
REMARK Flexibility Score: inf
ROOT
ATOM      1  C   UNL     1      38.465  26.008 225.587  1.00  0.00     0.000 C 
ENDROOT
BRANCH   1   2
ATOM      2  C   UNL     1      38.033  26.097 224.107  1.00  0.00     0.000 C 
BRANCH   2   3
ATOM      3  C   UNL     1      37.007  25.015 223.726  1.00  0.00     0.000 C 
BRANCH   3   4
ATOM      4  C   UNL     1      36.863  23.931 224.805  1.00  0.00     0.000 C 
BRANCH   4   5
ATOM      5  C   UNL     1      36.948  22.509 224.229  1.00  0.00     0.006 C 
BRANCH   5   6
ATOM      6  C   UNL     1      37.767  21.595 225.146  1.00  0.00     0.053 C 
BRANCH   6   7
ATOM      7  C   UNL     1      36.870  20.649 225.879  1.00  0.00     0.041 C 
ATOM      8  O   UNL     1      36.793  19.444 225.524  1.00  0.00    -0.550 OA
ATOM      9  O   UNL     1      36.079  21.110 226.925  1.00  0.00    -0.550 OA
ENDBRANCH   6   7
ENDBRANCH   5   6
ENDBRANCH   4   5
ENDBRANCH   3   4
ENDBRANCH   2   3
ENDBRANCH   1   2
BRANCH   1  10
ATOM     10  C   UNL     1      39.983  25.841 225.783  1.00  0.00     0.000 C 
BRANCH  10  11
ATOM     11  C   UNL     1      40.499  24.393 225.684  1.00  0.00    -0.000 C 
BRANCH  11  12
ATOM     12  C   UNL     1      41.349  24.089 224.436  1.00  0.00    -0.000 C 
BRANCH  12  13
ATOM     13  C   UNL     1      40.525  23.503 223.280  1.00  0.00    -0.000 C 
BRANCH  13  14
ATOM     14  C   UNL     1      41.140  22.188 222.778  1.00  0.00    -0.000 C 
BRANCH  14  15
ATOM     15  C   UNL     1      42.220  21.642 223.724  1.00  0.00    -0.003 C 
ATOM     16  C   UNL     1      41.747  20.429 224.526  1.00  0.00     0.004 C 
ENDBRANCH  14  15
ENDBRANCH  13  14
ENDBRANCH  12  13
ENDBRANCH  11  12
ENDBRANCH  10  11
ENDBRANCH   1  10
TORSDOF 12
ENDMDL
MODEL 2
REMARK VINA RESULT:    -3.880      1.706      4.021
REMARK INTER + INTRA:          -8.324
REMARK INTER:                  -6.745
REMARK INTRA:                  -1.580
REMARK UNBOUND:                -1.723
REMARK SMILES CCCCCCCCCCCCCC(=O)[O-]
REMARK SMILES IDX 8 1 9 2 10 3 11 4 12 5 13 6 14 7 15 8 16 9 7 10 6 11 5 12
REMARK SMILES IDX 4 13 3 14 2 15 1 16
REMARK H PARENT
REMARK Flexibility Score: inf
ROOT
ATOM      1  C   UNL     1      40.194  23.326 225.263  1.00  0.00     0.000 C 
ENDROOT
BRANCH   1   2
ATOM      2  C   UNL     1      39.704  22.222 224.301  1.00  0.00     0.000 C 
BRANCH   2   3
ATOM      3  C   UNL     1      38.707  21.259 224.968  1.00  0.00     0.000 C 
BRANCH   3   4
ATOM      4  C   UNL     1      38.118  21.824 226.270  1.00  0.00     0.000 C 
BRANCH   4   5
ATOM      5  C   UNL     1      36.833  21.100 226.700  1.00  0.00     0.006 C 
BRANCH   5   6
ATOM      6  C   UNL     1      37.070  19.593 226.826  1.00  0.00     0.053 C 
BRANCH   6   7
ATOM      7  C   UNL     1      36.001  18.831 226.109  1.00  0.00     0.041 C 
ATOM      8  O   UNL     1      36.287  17.785 225.471  1.00  0.00    -0.550 OA
ATOM      9  O   UNL     1      34.694  19.304 226.105  1.00  0.00    -0.550 OA
ENDBRANCH   6   7
ENDBRANCH   5   6
ENDBRANCH   4   5
ENDBRANCH   3   4
ENDBRANCH   2   3
ENDBRANCH   1   2
BRANCH   1  10
ATOM     10  C   UNL     1      39.795  24.749 224.832  1.00  0.00     0.000 C 
BRANCH  10  11
ATOM     11  C   UNL     1      38.696  24.822 223.756  1.00  0.00    -0.000 C 
BRANCH  11  12
ATOM     12  C   UNL     1      37.416  25.565 224.182  1.00  0.00    -0.000 C 
BRANCH  12  13
ATOM     13  C   UNL     1      36.223  24.624 224.405  1.00  0.00    -0.000 C 
BRANCH  13  14
ATOM     14  C   UNL     1      36.284  23.424 223.448  1.00  0.00    -0.000 C 
BRANCH  14  15
ATOM     15  C   UNL     1      35.572  23.696 222.114  1.00  0.00    -0.003 C 
ATOM     16  C   UNL     1      36.529  23.701 220.922  1.00  0.00     0.004 C 
ENDBRANCH  14  15
ENDBRANCH  13  14
ENDBRANCH  12  13
ENDBRANCH  11  12
ENDBRANCH  10  11
ENDBRANCH   1  10
TORSDOF 12
ENDMDL
MODEL 3
REMARK VINA RESULT:    -3.868      2.226      4.598
REMARK INTER + INTRA:          -8.304
REMARK INTER:                  -6.991
REMARK INTRA:                  -1.313
REMARK UNBOUND:                -1.723
REMARK SMILES CCCCCCCCCCCCCC(=O)[O-]
REMARK SMILES IDX 8 1 9 2 10 3 11 4 12 5 13 6 14 7 15 8 16 9 7 10 6 11 5 12
REMARK SMILES IDX 4 13 3 14 2 15 1 16
REMARK H PARENT
REMARK Flexibility Score: inf
ROOT
ATOM      1  C   UNL     1      41.255  22.551 223.515  1.00  0.00     0.000 C 
ENDROOT
BRANCH   1   2
ATOM      2  C   UNL     1      40.563  23.748 222.828  1.00  0.00     0.000 C 
BRANCH   2   3
ATOM      3  C   UNL     1      39.146  23.406 222.335  1.00  0.00     0.000 C 
BRANCH   3   4
ATOM      4  C   UNL     1      38.099  23.463 223.458  1.00  0.00     0.000 C 
BRANCH   4   5
ATOM      5  C   UNL     1      36.990  24.489 223.179  1.00  0.00     0.006 C 
BRANCH   5   6
ATOM      6  C   UNL     1      36.994  25.599 224.235  1.00  0.00     0.053 C 
BRANCH   6   7
ATOM      7  C   UNL     1      36.128  25.223 225.395  1.00  0.00     0.041 C 
ATOM      8  O   UNL     1      34.975  25.714 225.512  1.00  0.00    -0.550 OA
ATOM      9  O   UNL     1      36.615  24.368 226.377  1.00  0.00    -0.550 OA
ENDBRANCH   6   7
ENDBRANCH   5   6
ENDBRANCH   4   5
ENDBRANCH   3   4
ENDBRANCH   2   3
ENDBRANCH   1   2
BRANCH   1  10
ATOM     10  C   UNL     1      42.096  22.941 224.745  1.00  0.00     0.000 C 
BRANCH  10  11
ATOM     11  C   UNL     1      42.192  24.455 225.017  1.00  0.00    -0.000 C 
BRANCH  11  12
ATOM     12  C   UNL     1      41.577  24.917 226.351  1.00  0.00    -0.000 C 
BRANCH  12  13
ATOM     13  C   UNL     1      40.071  25.203 226.248  1.00  0.00    -0.000 C 
BRANCH  13  14
ATOM     14  C   UNL     1      39.808  26.709 226.100  1.00  0.00    -0.000 C 
BRANCH  14  15
ATOM     15  C   UNL     1      40.727  27.560 226.990  1.00  0.00    -0.003 C 
ATOM     16  C   UNL     1      41.115  28.888 226.340  1.00  0.00     0.004 C 
ENDBRANCH  14  15
ENDBRANCH  13  14
ENDBRANCH  12  13
ENDBRANCH  11  12
ENDBRANCH  10  11
ENDBRANCH   1  10
TORSDOF 12
ENDMDL
MODEL 4
REMARK VINA RESULT:    -3.853      1.453      2.452
REMARK INTER + INTRA:          -8.279
REMARK INTER:                  -6.780
REMARK INTRA:                  -1.499
REMARK UNBOUND:                -1.723
REMARK SMILES CCCCCCCCCCCCCC(=O)[O-]
REMARK SMILES IDX 8 1 9 2 10 3 11 4 12 5 13 6 14 7 15 8 16 9 7 10 6 11 5 12
REMARK SMILES IDX 4 13 3 14 2 15 1 16
REMARK H PARENT
REMARK Flexibility Score: inf
ROOT
ATOM      1  C   UNL     1      36.806  25.181 225.077  1.00  0.00     0.000 C 
ENDROOT
BRANCH   1   2
ATOM      2  C   UNL     1      36.251  24.290 223.944  1.00  0.00     0.000 C 
BRANCH   2   3
ATOM      3  C   UNL     1      36.741  22.835 224.045  1.00  0.00     0.000 C 
BRANCH   3   4
ATOM      4  C   UNL     1      37.011  22.400 225.494  1.00  0.00     0.000 C 
BRANCH   4   5
ATOM      5  C   UNL     1      37.132  20.876 225.640  1.00  0.00     0.006 C 
BRANCH   5   6
ATOM      6  C   UNL     1      36.110  20.339 226.646  1.00  0.00     0.053 C 
BRANCH   6   7
ATOM      7  C   UNL     1      35.988  18.852 226.528  1.00  0.00     0.041 C 
ATOM      8  O   UNL     1      36.042  18.128 227.555  1.00  0.00    -0.550 OA
ATOM      9  O   UNL     1      35.864  18.262 225.275  1.00  0.00    -0.550 OA
ENDBRANCH   6   7
ENDBRANCH   5   6
ENDBRANCH   4   5
ENDBRANCH   3   4
ENDBRANCH   2   3
ENDBRANCH   1   2
BRANCH   1  10
ATOM     10  C   UNL     1      38.186  25.790 224.768  1.00  0.00     0.000 C 
BRANCH  10  11
ATOM     11  C   UNL     1      39.138  25.896 225.975  1.00  0.00    -0.000 C 
BRANCH  11  12
ATOM     12  C   UNL     1      40.102  24.707 226.150  1.00  0.00    -0.000 C 
BRANCH  12  13
ATOM     13  C   UNL     1      41.386  24.850 225.320  1.00  0.00    -0.000 C 
BRANCH  13  14
ATOM     14  C   UNL     1      41.719  23.540 224.592  1.00  0.00    -0.000 C 
BRANCH  14  15
ATOM     15  C   UNL     1      40.474  22.854 224.010  1.00  0.00    -0.003 C 
ATOM     16  C   UNL     1      40.079  23.407 222.641  1.00  0.00     0.004 C 
ENDBRANCH  14  15
ENDBRANCH  13  14
ENDBRANCH  12  13
ENDBRANCH  11  12
ENDBRANCH  10  11
ENDBRANCH   1  10
TORSDOF 12
ENDMDL
MODEL 5
REMARK VINA RESULT:    -3.796      1.659      2.822
REMARK INTER + INTRA:          -8.181
REMARK INTER:                  -6.214
REMARK INTRA:                  -1.968
REMARK UNBOUND:                -1.723
REMARK SMILES CCCCCCCCCCCCCC(=O)[O-]
REMARK SMILES IDX 8 1 9 2 10 3 11 4 12 5 13 6 14 7 15 8 16 9 7 10 6 11 5 12
REMARK SMILES IDX 4 13 3 14 2 15 1 16
REMARK H PARENT
REMARK Flexibility Score: inf
ROOT
ATOM      1  C   UNL     1      38.172  25.138 224.130  1.00  0.00     0.000 C 
ENDROOT
BRANCH   1   2
ATOM      2  C   UNL     1      37.721  24.710 225.544  1.00  0.00     0.000 C 
BRANCH   2   3
ATOM      3  C   UNL     1      38.852  24.813 226.581  1.00  0.00     0.000 C 
BRANCH   3   4
ATOM      4  C   UNL     1      39.046  23.513 227.377  1.00  0.00     0.000 C 
BRANCH   4   5
ATOM      5  C   UNL     1      38.914  22.259 226.500  1.00  0.00     0.006 C 
BRANCH   5   6
ATOM      6  C   UNL     1      38.010  21.218 227.167  1.00  0.00     0.053 C 
BRANCH   6   7
ATOM      7  C   UNL     1      36.719  21.091 226.421  1.00  0.00     0.041 C 
ATOM      8  O   UNL     1      35.698  20.629 226.995  1.00  0.00    -0.550 OA
ATOM      9  O   UNL     1      36.655  21.437 225.077  1.00  0.00    -0.550 OA
ENDBRANCH   6   7
ENDBRANCH   5   6
ENDBRANCH   4   5
ENDBRANCH   3   4
ENDBRANCH   2   3
ENDBRANCH   1   2
BRANCH   1  10
ATOM     10  C   UNL     1      38.751  23.986 223.288  1.00  0.00     0.000 C 
BRANCH  10  11
ATOM     11  C   UNL     1      40.266  24.069 223.021  1.00  0.00    -0.000 C 
BRANCH  11  12
ATOM     12  C   UNL     1      41.072  22.832 223.461  1.00  0.00    -0.000 C 
BRANCH  12  13
ATOM     13  C   UNL     1      42.015  23.120 224.638  1.00  0.00    -0.000 C 
BRANCH  13  14
ATOM     14  C   UNL     1      42.026  24.617 224.979  1.00  0.00    -0.000 C 
BRANCH  14  15
ATOM     15  C   UNL     1      42.863  24.933 226.228  1.00  0.00    -0.003 C 
ATOM     16  C   UNL     1      42.759  23.849 227.300  1.00  0.00     0.004 C 
ENDBRANCH  14  15
ENDBRANCH  13  14
ENDBRANCH  12  13
ENDBRANCH  11  12
ENDBRANCH  10  11
ENDBRANCH   1  10
TORSDOF 12
ENDMDL
MODEL 6
REMARK VINA RESULT:    -3.756      1.617      3.683
REMARK INTER + INTRA:          -8.114
REMARK INTER:                  -6.188
REMARK INTRA:                  -1.926
REMARK UNBOUND:                -1.723
REMARK SMILES CCCCCCCCCCCCCC(=O)[O-]
REMARK SMILES IDX 8 1 9 2 10 3 11 4 12 5 13 6 14 7 15 8 16 9 7 10 6 11 5 12
REMARK SMILES IDX 4 13 3 14 2 15 1 16
REMARK H PARENT
REMARK Flexibility Score: inf
ROOT
ATOM      1  C   UNL     1      41.014  23.404 226.236  1.00  0.00     0.000 C 
ENDROOT
BRANCH   1   2
ATOM      2  C   UNL     1      39.727  23.579 227.071  1.00  0.00     0.000 C 
BRANCH   2   3
ATOM      3  C   UNL     1      38.831  22.329 227.041  1.00  0.00     0.000 C 
BRANCH   3   4
ATOM      4  C   UNL     1      39.047  21.476 225.781  1.00  0.00     0.000 C 
BRANCH   4   5
ATOM      5  C   UNL     1      37.745  20.843 225.266  1.00  0.00     0.006 C 
BRANCH   5   6
ATOM      6  C   UNL     1      37.486  19.495 225.945  1.00  0.00     0.053 C 
BRANCH   6   7
ATOM      7  C   UNL     1      36.050  19.376 226.346  1.00  0.00     0.041 C 
ATOM      8  O   UNL     1      35.426  20.381 226.776  1.00  0.00    -0.550 OA
ATOM      9  O   UNL     1      35.413  18.142 226.292  1.00  0.00    -0.550 OA
ENDBRANCH   6   7
ENDBRANCH   5   6
ENDBRANCH   4   5
ENDBRANCH   3   4
ENDBRANCH   2   3
ENDBRANCH   1   2
BRANCH   1  10
ATOM     10  C   UNL     1      41.108  24.358 225.031  1.00  0.00     0.000 C 
BRANCH  10  11
ATOM     11  C   UNL     1      41.134  23.670 223.653  1.00  0.00    -0.000 C 
BRANCH  11  12
ATOM     12  C   UNL     1      39.837  23.807 222.832  1.00  0.00    -0.000 C 
BRANCH  12  13
ATOM     13  C   UNL     1      38.738  24.580 223.576  1.00  0.00    -0.000 C 
BRANCH  13  14
ATOM     14  C   UNL     1      37.368  23.915 223.375  1.00  0.00    -0.000 C 
BRANCH  14  15
ATOM     15  C   UNL     1      36.352  24.316 224.455  1.00  0.00    -0.003 C 
ATOM     16  C   UNL     1      36.930  25.292 225.479  1.00  0.00     0.004 C 
ENDBRANCH  14  15
ENDBRANCH  13  14
ENDBRANCH  12  13
ENDBRANCH  11  12
ENDBRANCH  10  11
ENDBRANCH   1  10
TORSDOF 12
ENDMDL
MODEL 7
REMARK VINA RESULT:    -3.756      2.969      5.362
REMARK INTER + INTRA:          -8.114
REMARK INTER:                  -6.239
REMARK INTRA:                  -1.875
REMARK UNBOUND:                -1.723
REMARK SMILES CCCCCCCCCCCCCC(=O)[O-]
REMARK SMILES IDX 8 1 9 2 10 3 11 4 12 5 13 6 14 7 15 8 16 9 7 10 6 11 5 12
REMARK SMILES IDX 4 13 3 14 2 15 1 16
REMARK H PARENT
REMARK Flexibility Score: inf
ROOT
ATOM      1  C   UNL     1      38.849  24.475 223.460  1.00  0.00     0.000 C 
ENDROOT
BRANCH   1   2
ATOM      2  C   UNL     1      40.163  23.838 222.958  1.00  0.00     0.000 C 
BRANCH   2   3
ATOM      3  C   UNL     1      41.295  23.928 223.996  1.00  0.00     0.000 C 
BRANCH   3   4
ATOM      4  C   UNL     1      41.794  22.547 224.449  1.00  0.00     0.000 C 
BRANCH   4   5
ATOM      5  C   UNL     1      41.079  21.395 223.726  1.00  0.00     0.006 C 
BRANCH   5   6
ATOM      6  C   UNL     1      41.918  20.879 222.553  1.00  0.00     0.053 C 
BRANCH   6   7
ATOM      7  C   UNL     1      43.244  20.384 223.035  1.00  0.00     0.041 C 
ATOM      8  O   UNL     1      44.305  20.759 222.470  1.00  0.00    -0.550 OA
ATOM      9  O   UNL     1      43.307  19.468 224.079  1.00  0.00    -0.550 OA
ENDBRANCH   6   7
ENDBRANCH   5   6
ENDBRANCH   4   5
ENDBRANCH   3   4
ENDBRANCH   2   3
ENDBRANCH   1   2
BRANCH   1  10
ATOM     10  C   UNL     1      37.602  23.606 223.209  1.00  0.00     0.000 C 
BRANCH  10  11
ATOM     11  C   UNL     1      37.293  22.573 224.309  1.00  0.00    -0.000 C 
BRANCH  11  12
ATOM     12  C   UNL     1      37.329  23.124 225.747  1.00  0.00    -0.000 C 
BRANCH  12  13
ATOM     13  C   UNL     1      38.529  22.609 226.556  1.00  0.00    -0.000 C 
BRANCH  13  14
ATOM     14  C   UNL     1      39.274  23.769 227.232  1.00  0.00    -0.000 C 
BRANCH  14  15
ATOM     15  C   UNL     1      38.526  25.105 227.109  1.00  0.00    -0.003 C 
ATOM     16  C   UNL     1      39.429  26.249 226.650  1.00  0.00     0.004 C 
ENDBRANCH  14  15
ENDBRANCH  13  14
ENDBRANCH  12  13
ENDBRANCH  11  12
ENDBRANCH  10  11
ENDBRANCH   1  10
TORSDOF 12
ENDMDL
MODEL 8
REMARK VINA RESULT:    -3.751      1.414      3.955
REMARK INTER + INTRA:          -8.106
REMARK INTER:                  -6.025
REMARK INTRA:                  -2.081
REMARK UNBOUND:                -1.723
REMARK SMILES CCCCCCCCCCCCCC(=O)[O-]
REMARK SMILES IDX 8 1 9 2 10 3 11 4 12 5 13 6 14 7 15 8 16 9 7 10 6 11 5 12
REMARK SMILES IDX 4 13 3 14 2 15 1 16
REMARK H PARENT
REMARK Flexibility Score: inf
ROOT
ATOM      1  C   UNL     1      41.663  23.052 224.458  1.00  0.00     0.000 C 
ENDROOT
BRANCH   1   2
ATOM      2  C   UNL     1      41.199  21.883 225.353  1.00  0.00     0.000 C 
BRANCH   2   3
ATOM      3  C   UNL     1      40.431  22.361 226.597  1.00  0.00     0.000 C 
BRANCH   3   4
ATOM      4  C   UNL     1      39.023  21.753 226.694  1.00  0.00     0.000 C 
BRANCH   4   5
ATOM      5  C   UNL     1      38.773  20.670 225.634  1.00  0.00     0.006 C 
BRANCH   5   6
ATOM      6  C   UNL     1      37.900  19.544 226.196  1.00  0.00     0.053 C 
BRANCH   6   7
ATOM      7  C   UNL     1      36.532  19.590 225.592  1.00  0.00     0.041 C 
ATOM      8  O   UNL     1      36.090  20.662 225.104  1.00  0.00    -0.550 OA
ATOM      9  O   UNL     1      35.725  18.459 225.613  1.00  0.00    -0.550 OA
ENDBRANCH   6   7
ENDBRANCH   5   6
ENDBRANCH   4   5
ENDBRANCH   3   4
ENDBRANCH   2   3
ENDBRANCH   1   2
BRANCH   1  10
ATOM     10  C   UNL     1      41.063  23.026 223.040  1.00  0.00     0.000 C 
BRANCH  10  11
ATOM     11  C   UNL     1      39.893  24.000 222.807  1.00  0.00    -0.000 C 
BRANCH  11  12
ATOM     12  C   UNL     1      38.507  23.458 223.204  1.00  0.00    -0.000 C 
BRANCH  12  13
ATOM     13  C   UNL     1      37.794  24.340 224.240  1.00  0.00    -0.000 C 
BRANCH  13  14
ATOM     14  C   UNL     1      38.605  25.611 224.530  1.00  0.00    -0.000 C 
BRANCH  14  15
ATOM     15  C   UNL     1      39.025  25.721 226.004  1.00  0.00    -0.003 C 
ATOM     16  C   UNL     1      40.493  26.113 226.173  1.00  0.00     0.004 C 
ENDBRANCH  14  15
ENDBRANCH  13  14
ENDBRANCH  12  13
ENDBRANCH  11  12
ENDBRANCH  10  11
ENDBRANCH   1  10
TORSDOF 12
ENDMDL
MODEL 9
REMARK VINA RESULT:    -3.740      1.418      3.884
REMARK INTER + INTRA:          -8.086
REMARK INTER:                  -6.445
REMARK INTRA:                  -1.641
REMARK UNBOUND:                -1.723
REMARK SMILES CCCCCCCCCCCCCC(=O)[O-]
REMARK SMILES IDX 8 1 9 2 10 3 11 4 12 5 13 6 14 7 15 8 16 9 7 10 6 11 5 12
REMARK SMILES IDX 4 13 3 14 2 15 1 16
REMARK H PARENT
REMARK Flexibility Score: inf
ROOT
ATOM      1  C   UNL     1      41.198  22.769 223.435  1.00  0.00     0.000 C 
ENDROOT
BRANCH   1   2
ATOM      2  C   UNL     1      40.374  23.987 222.963  1.00  0.00     0.000 C 
BRANCH   2   3
ATOM      3  C   UNL     1      38.861  23.787 223.162  1.00  0.00     0.000 C 
BRANCH   3   4
ATOM      4  C   UNL     1      38.538  22.628 224.118  1.00  0.00     0.000 C 
BRANCH   4   5
ATOM      5  C   UNL     1      37.231  22.850 224.894  1.00  0.00     0.006 C 
BRANCH   5   6
ATOM      6  C   UNL     1      37.347  22.317 226.326  1.00  0.00     0.053 C 
BRANCH   6   7
ATOM      7  C   UNL     1      36.774  20.938 226.420  1.00  0.00     0.041 C 
ATOM      8  O   UNL     1      35.715  20.734 227.069  1.00  0.00    -0.550 OA
ATOM      9  O   UNL     1      37.438  19.867 225.832  1.00  0.00    -0.550 OA
ENDBRANCH   6   7
ENDBRANCH   5   6
ENDBRANCH   4   5
ENDBRANCH   3   4
ENDBRANCH   2   3
ENDBRANCH   1   2
BRANCH   1  10
ATOM     10  C   UNL     1      42.112  23.066 224.638  1.00  0.00     0.000 C 
BRANCH  10  11
ATOM     11  C   UNL     1      41.934  24.461 225.265  1.00  0.00    -0.000 C 
BRANCH  11  12
ATOM     12  C   UNL     1      41.290  24.467 226.665  1.00  0.00    -0.000 C 
BRANCH  12  13
ATOM     13  C   UNL     1      39.864  25.037 226.665  1.00  0.00    -0.000 C 
BRANCH  13  14
ATOM     14  C   UNL     1      39.791  26.335 225.849  1.00  0.00    -0.000 C 
BRANCH  14  15
ATOM     15  C   UNL     1      39.807  27.592 226.733  1.00  0.00    -0.003 C 
ATOM     16  C   UNL     1      40.899  28.584 226.333  1.00  0.00     0.004 C 
ENDBRANCH  14  15
ENDBRANCH  13  14
ENDBRANCH  12  13
ENDBRANCH  11  12
ENDBRANCH  10  11
ENDBRANCH   1  10
TORSDOF 12
ENDMDL
