MODEL 1
REMARK VINA RESULT:    -5.138      0.000      0.000
REMARK INTER + INTRA:          -6.509
REMARK INTER:                  -6.189
REMARK INTRA:                  -0.320
REMARK UNBOUND:                -0.320
REMARK SMILES Oc1cc(O)c2c(c1)O[C@@H](c1ccc(O)c(O)c1)[C@H](O)C2
REMARK SMILES IDX 21 1 19 2 10 3 9 4 7 5 8 6 2 7 3 8 4 9 6 10 20 11 11 13
REMARK SMILES IDX 18 14 12 15 16 16 13 17 14 18 17 19 15 21 5 23 1 25
REMARK H PARENT 20 12 17 20 15 22 5 24 1 26
REMARK Flexibility Score: inf
ROOT
ATOM      1  C   UNL     1      43.552  -0.590  46.558  1.00  0.00     0.079 C 
ATOM      2  C   UNL     1      42.421  -1.635  46.569  1.00  0.00     0.164 C 
ATOM      3  C   UNL     1      41.817  -1.755  47.982  1.00  0.00     0.232 C 
ATOM      4  O   UNL     1      41.362  -0.475  48.419  1.00  0.00    -0.482 OA
ATOM      5  C   UNL     1      42.063   0.704  48.142  1.00  0.00     0.131 A 
ATOM      6  C   UNL     1      41.663   1.891  48.760  1.00  0.00     0.093 A 
ATOM      7  C   UNL     1      42.352   3.083  48.514  1.00  0.00     0.122 A 
ATOM      8  C   UNL     1      43.452   3.083  47.654  1.00  0.00     0.092 A 
ATOM      9  C   UNL     1      43.869   1.903  47.026  1.00  0.00     0.126 A 
ATOM     10  C   UNL     1      43.148   0.703  47.237  1.00  0.00     0.039 A 
ENDROOT
BRANCH   2  11
ATOM     11  O   UNL     1      42.891  -2.877  46.103  1.00  0.00    -0.389 OA
ATOM     12  H   UNL     1      42.857  -2.860  45.111  1.00  0.00     0.211 HD
ENDBRANCH   2  11
BRANCH   3  13
ATOM     13  C   UNL     1      40.670  -2.739  48.004  1.00  0.00    -0.001 A 
ATOM     14  C   UNL     1      40.859  -4.033  48.516  1.00  0.00     0.057 A 
ATOM     15  C   UNL     1      39.420  -2.389  47.469  1.00  0.00     0.012 A 
ATOM     16  C   UNL     1      39.806  -4.960  48.513  1.00  0.00     0.157 A 
ATOM     17  C   UNL     1      38.370  -3.311  47.465  1.00  0.00     0.050 A 
ATOM     18  C   UNL     1      38.555  -4.595  47.987  1.00  0.00     0.157 A 
BRANCH  16  19
ATOM     19  O   UNL     1      39.999  -6.241  49.028  1.00  0.00    -0.504 OA
ATOM     20  H   UNL     1      40.025  -7.056  48.427  1.00  0.00     0.293 HD
ENDBRANCH  16  19
BRANCH  18  21
ATOM     21  O   UNL     1      37.489  -5.494  47.970  1.00  0.00    -0.504 OA
ATOM     22  H   UNL     1      37.404  -6.213  47.263  1.00  0.00     0.293 HD
ENDBRANCH  18  21
ENDBRANCH   3  13
BRANCH   9  23
ATOM     23  O   UNL     1      45.003   1.957  46.213  1.00  0.00    -0.507 OA
ATOM     24  H   UNL     1      45.416   1.143  45.778  1.00  0.00     0.293 HD
ENDBRANCH   9  23
BRANCH   7  25
ATOM     25  O   UNL     1      41.957   4.271  49.125  1.00  0.00    -0.508 OA
ATOM     26  H   UNL     1      40.993   4.433  49.394  1.00  0.00     0.293 HD
ENDBRANCH   7  25
TORSDOF 6
ENDMDL
MODEL 2
REMARK VINA RESULT:    -5.125      2.026      2.758
REMARK INTER + INTRA:          -6.493
REMARK INTER:                  -6.166
REMARK INTRA:                  -0.327
REMARK UNBOUND:                -0.320
REMARK SMILES Oc1cc(O)c2c(c1)O[C@@H](c1ccc(O)c(O)c1)[C@H](O)C2
REMARK SMILES IDX 21 1 19 2 10 3 9 4 7 5 8 6 2 7 3 8 4 9 6 10 20 11 11 13
REMARK SMILES IDX 18 14 12 15 16 16 13 17 14 18 17 19 15 21 5 23 1 25
REMARK H PARENT 20 12 17 20 15 22 5 24 1 26
REMARK Flexibility Score: inf
ROOT
ATOM      1  C   UNL     1      44.292   1.014  48.597  1.00  0.00     0.079 C 
ATOM      2  C   UNL     1      43.339  -0.153  48.276  1.00  0.00     0.164 C 
ATOM      3  C   UNL     1      41.872   0.308  48.384  1.00  0.00     0.232 C 
ATOM      4  O   UNL     1      41.656   1.423  47.519  1.00  0.00    -0.482 OA
ATOM      5  C   UNL     1      42.612   2.430  47.342  1.00  0.00     0.131 A 
ATOM      6  C   UNL     1      42.260   3.581  46.633  1.00  0.00     0.093 A 
ATOM      7  C   UNL     1      43.189   4.610  46.451  1.00  0.00     0.122 A 
ATOM      8  C   UNL     1      44.472   4.490  46.989  1.00  0.00     0.092 A 
ATOM      9  C   UNL     1      44.843   3.344  47.702  1.00  0.00     0.126 A 
ATOM     10  C   UNL     1      43.921   2.280  47.852  1.00  0.00     0.039 A 
ENDROOT
BRANCH   2  11
ATOM     11  O   UNL     1      43.597  -1.248  49.122  1.00  0.00    -0.389 OA
ATOM     12  H   UNL     1      43.087  -2.025  48.773  1.00  0.00     0.211 HD
ENDBRANCH   2  11
BRANCH   3  13
ATOM     13  C   UNL     1      40.920  -0.808  48.023  1.00  0.00    -0.001 A 
ATOM     14  C   UNL     1      40.663  -1.110  46.676  1.00  0.00     0.057 A 
ATOM     15  C   UNL     1      40.244  -1.521  49.026  1.00  0.00     0.012 A 
ATOM     16  C   UNL     1      39.758  -2.125  46.334  1.00  0.00     0.157 A 
ATOM     17  C   UNL     1      39.342  -2.533  48.689  1.00  0.00     0.050 A 
ATOM     18  C   UNL     1      39.096  -2.842  47.347  1.00  0.00     0.157 A 
BRANCH  16  19
ATOM     19  O   UNL     1      39.512  -2.424  44.995  1.00  0.00    -0.504 OA
ATOM     20  H   UNL     1      39.483  -3.381  44.661  1.00  0.00     0.293 HD
ENDBRANCH  16  19
BRANCH  18  21
ATOM     21  O   UNL     1      38.191  -3.857  47.040  1.00  0.00    -0.504 OA
ATOM     22  H   UNL     1      38.316  -4.464  46.239  1.00  0.00     0.293 HD
ENDBRANCH  18  21
ENDBRANCH   3  13
BRANCH   9  23
ATOM     23  O   UNL     1      46.125   3.302  48.255  1.00  0.00    -0.507 OA
ATOM     24  H   UNL     1      46.334   3.599  49.199  1.00  0.00     0.293 HD
ENDBRANCH   9  23
BRANCH   7  25
ATOM     25  O   UNL     1      42.845   5.760  45.744  1.00  0.00    -0.508 OA
ATOM     26  H   UNL     1      42.216   5.726  44.950  1.00  0.00     0.293 HD
ENDBRANCH   7  25
TORSDOF 6
ENDMDL
MODEL 3
REMARK VINA RESULT:    -5.093      0.998      1.039
REMARK INTER + INTRA:          -6.455
REMARK INTER:                  -6.444
REMARK INTRA:                  -0.011
REMARK UNBOUND:                -0.320
REMARK SMILES Oc1cc(O)c2c(c1)O[C@@H](c1ccc(O)c(O)c1)[C@H](O)C2
REMARK SMILES IDX 21 1 19 2 10 3 9 4 7 5 8 6 2 7 3 8 4 9 6 10 20 11 11 13
REMARK SMILES IDX 18 14 12 15 16 16 13 17 14 18 17 19 15 21 5 23 1 25
REMARK H PARENT 20 12 17 20 15 22 5 24 1 26
REMARK Flexibility Score: inf
ROOT
ATOM      1  C   UNL     1      44.292  -0.767  46.974  1.00  0.00     0.079 C 
ATOM      2  C   UNL     1      43.121  -1.768  46.981  1.00  0.00     0.164 C 
ATOM      3  C   UNL     1      42.075  -1.360  48.038  1.00  0.00     0.232 C 
ATOM      4  O   UNL     1      41.633  -0.027  47.786  1.00  0.00    -0.482 OA
ATOM      5  C   UNL     1      42.502   0.981  47.351  1.00  0.00     0.131 A 
ATOM      6  C   UNL     1      42.042   2.299  47.308  1.00  0.00     0.093 A 
ATOM      7  C   UNL     1      42.890   3.330  46.892  1.00  0.00     0.122 A 
ATOM      8  C   UNL     1      44.207   3.040  46.528  1.00  0.00     0.092 A 
ATOM      9  C   UNL     1      44.686   1.725  46.565  1.00  0.00     0.126 A 
ATOM     10  C   UNL     1      43.819   0.672  46.943  1.00  0.00     0.039 A 
ENDROOT
BRANCH   2  11
ATOM     11  O   UNL     1      43.590  -3.076  47.200  1.00  0.00    -0.389 OA
ATOM     12  H   UNL     1      43.032  -3.481  47.915  1.00  0.00     0.211 HD
ENDBRANCH   2  11
BRANCH   3  13
ATOM     13  C   UNL     1      40.892  -2.300  48.027  1.00  0.00    -0.001 A 
ATOM     14  C   UNL     1      41.010  -3.591  48.567  1.00  0.00     0.057 A 
ATOM     15  C   UNL     1      39.679  -1.914  47.432  1.00  0.00     0.012 A 
ATOM     16  C   UNL     1      39.924  -4.478  48.533  1.00  0.00     0.157 A 
ATOM     17  C   UNL     1      38.596  -2.796  47.397  1.00  0.00     0.050 A 
ATOM     18  C   UNL     1      38.711  -4.077  47.947  1.00  0.00     0.157 A 
BRANCH  16  19
ATOM     19  O   UNL     1      40.046  -5.756  49.077  1.00  0.00    -0.504 OA
ATOM     20  H   UNL     1      39.266  -6.214  49.536  1.00  0.00     0.293 HD
ENDBRANCH  16  19
BRANCH  18  21
ATOM     21  O   UNL     1      37.613  -4.935  47.899  1.00  0.00    -0.504 OA
ATOM     22  H   UNL     1      37.224  -5.261  47.023  1.00  0.00     0.293 HD
ENDBRANCH  18  21
ENDBRANCH   3  13
BRANCH   9  23
ATOM     23  O   UNL     1      46.024   1.505  46.233  1.00  0.00    -0.507 OA
ATOM     24  H   UNL     1      46.338   1.296  45.294  1.00  0.00     0.293 HD
ENDBRANCH   9  23
BRANCH   7  25
ATOM     25  O   UNL     1      42.438   4.647  46.845  1.00  0.00    -0.508 OA
ATOM     26  H   UNL     1      43.075   5.420  46.685  1.00  0.00     0.293 HD
ENDBRANCH   7  25
TORSDOF 6
ENDMDL
MODEL 4
REMARK VINA RESULT:    -5.049      2.570      3.628
REMARK INTER + INTRA:          -6.402
REMARK INTER:                  -6.059
REMARK INTRA:                  -0.342
REMARK UNBOUND:                -0.320
REMARK SMILES Oc1cc(O)c2c(c1)O[C@@H](c1ccc(O)c(O)c1)[C@H](O)C2
REMARK SMILES IDX 21 1 19 2 10 3 9 4 7 5 8 6 2 7 3 8 4 9 6 10 20 11 11 13
REMARK SMILES IDX 18 14 12 15 16 16 13 17 14 18 17 19 15 21 5 23 1 25
REMARK H PARENT 20 12 17 20 15 22 5 24 1 26
REMARK Flexibility Score: inf
ROOT
ATOM      1  C   UNL     1      41.457   1.261  48.136  1.00  0.00     0.079 C 
ATOM      2  C   UNL     1      41.678  -0.263  48.072  1.00  0.00     0.164 C 
ATOM      3  C   UNL     1      42.305  -0.656  46.720  1.00  0.00     0.232 C 
ATOM      4  O   UNL     1      43.521   0.067  46.528  1.00  0.00    -0.482 OA
ATOM      5  C   UNL     1      43.667   1.404  46.915  1.00  0.00     0.131 A 
ATOM      6  C   UNL     1      44.814   2.100  46.526  1.00  0.00     0.093 A 
ATOM      7  C   UNL     1      44.983   3.441  46.885  1.00  0.00     0.122 A 
ATOM      8  C   UNL     1      43.994   4.089  47.628  1.00  0.00     0.092 A 
ATOM      9  C   UNL     1      42.837   3.408  48.027  1.00  0.00     0.126 A 
ATOM     10  C   UNL     1      42.682   2.039  47.704  1.00  0.00     0.039 A 
ENDROOT
BRANCH   2  11
ATOM     11  O   UNL     1      40.469  -0.948  48.296  1.00  0.00    -0.389 OA
ATOM     12  H   UNL     1      40.113  -0.650  49.174  1.00  0.00     0.211 HD
ENDBRANCH   2  11
BRANCH   3  13
ATOM     13  C   UNL     1      42.579  -2.140  46.655  1.00  0.00    -0.001 A 
ATOM     14  C   UNL     1      43.692  -2.683  47.317  1.00  0.00     0.057 A 
ATOM     15  C   UNL     1      41.756  -2.985  45.893  1.00  0.00     0.012 A 
ATOM     16  C   UNL     1      43.968  -4.056  47.236  1.00  0.00     0.157 A 
ATOM     17  C   UNL     1      42.029  -4.353  45.811  1.00  0.00     0.050 A 
ATOM     18  C   UNL     1      43.130  -4.894  46.481  1.00  0.00     0.157 A 
BRANCH  16  19
ATOM     19  O   UNL     1      45.072  -4.589  47.902  1.00  0.00    -0.504 OA
ATOM     20  H   UNL     1      45.036  -4.818  48.888  1.00  0.00     0.293 HD
ENDBRANCH  16  19
BRANCH  18  21
ATOM     21  O   UNL     1      43.377  -6.263  46.382  1.00  0.00    -0.504 OA
ATOM     22  H   UNL     1      44.315  -6.635  46.299  1.00  0.00     0.293 HD
ENDBRANCH  18  21
ENDBRANCH   3  13
BRANCH   9  23
ATOM     23  O   UNL     1      41.864   4.123  48.728  1.00  0.00    -0.507 OA
ATOM     24  H   UNL     1      42.082   4.842  49.406  1.00  0.00     0.293 HD
ENDBRANCH   9  23
BRANCH   7  25
ATOM     25  O   UNL     1      46.125   4.141  46.502  1.00  0.00    -0.508 OA
ATOM     26  H   UNL     1      46.811   3.733  45.878  1.00  0.00     0.293 HD
ENDBRANCH   7  25
TORSDOF 6
ENDMDL
MODEL 5
REMARK VINA RESULT:    -5.034      2.132      7.349
REMARK INTER + INTRA:          -6.384
REMARK INTER:                  -6.007
REMARK INTRA:                  -0.377
REMARK UNBOUND:                -0.320
REMARK SMILES Oc1cc(O)c2c(c1)O[C@@H](c1ccc(O)c(O)c1)[C@H](O)C2
REMARK SMILES IDX 21 1 19 2 10 3 9 4 7 5 8 6 2 7 3 8 4 9 6 10 20 11 11 13
REMARK SMILES IDX 18 14 12 15 16 16 13 17 14 18 17 19 15 21 5 23 1 25
REMARK H PARENT 20 12 17 20 15 22 5 24 1 26
REMARK Flexibility Score: inf
ROOT
ATOM      1  C   UNL     1      43.539  -2.046  48.519  1.00  0.00     0.079 C 
ATOM      2  C   UNL     1      44.017  -0.584  48.439  1.00  0.00     0.164 C 
ATOM      3  C   UNL     1      44.126  -0.137  46.968  1.00  0.00     0.232 C 
ATOM      4  O   UNL     1      42.870  -0.322  46.316  1.00  0.00    -0.482 OA
ATOM      5  C   UNL     1      42.051  -1.428  46.570  1.00  0.00     0.131 A 
ATOM      6  C   UNL     1      40.932  -1.641  45.762  1.00  0.00     0.093 A 
ATOM      7  C   UNL     1      40.101  -2.745  45.981  1.00  0.00     0.122 A 
ATOM      8  C   UNL     1      40.399  -3.643  47.007  1.00  0.00     0.092 A 
ATOM      9  C   UNL     1      41.517  -3.446  47.828  1.00  0.00     0.126 A 
ATOM     10  C   UNL     1      42.335  -2.307  47.639  1.00  0.00     0.039 A 
ENDROOT
BRANCH   2  11
ATOM     11  O   UNL     1      45.240  -0.425  49.117  1.00  0.00    -0.389 OA
ATOM     12  H   UNL     1      45.119   0.291  49.794  1.00  0.00     0.211 HD
ENDBRANCH   2  11
BRANCH   3  13
ATOM     13  C   UNL     1      44.544   1.311  46.866  1.00  0.00    -0.001 A 
ATOM     14  C   UNL     1      43.699   2.326  47.345  1.00  0.00     0.057 A 
ATOM     15  C   UNL     1      45.755   1.663  46.248  1.00  0.00     0.012 A 
ATOM     16  C   UNL     1      44.068   3.674  47.227  1.00  0.00     0.157 A 
ATOM     17  C   UNL     1      46.125   3.005  46.129  1.00  0.00     0.050 A 
ATOM     18  C   UNL     1      45.288   4.014  46.618  1.00  0.00     0.157 A 
BRANCH  16  19
ATOM     19  O   UNL     1      43.227   4.676  47.710  1.00  0.00    -0.504 OA
ATOM     20  H   UNL     1      42.315   4.846  47.301  1.00  0.00     0.293 HD
ENDBRANCH  16  19
BRANCH  18  21
ATOM     21  O   UNL     1      45.684   5.345  46.486  1.00  0.00    -0.504 OA
ATOM     22  H   UNL     1      45.436   6.049  47.170  1.00  0.00     0.293 HD
ENDBRANCH  18  21
ENDBRANCH   3  13
BRANCH   9  23
ATOM     23  O   UNL     1      41.787  -4.403  48.808  1.00  0.00    -0.507 OA
ATOM     24  H   UNL     1      41.070  -4.947  49.269  1.00  0.00     0.293 HD
ENDBRANCH   9  23
BRANCH   7  25
ATOM     25  O   UNL     1      38.983  -2.963  45.180  1.00  0.00    -0.508 OA
ATOM     26  H   UNL     1      39.039  -3.513  44.330  1.00  0.00     0.293 HD
ENDBRANCH   7  25
TORSDOF 6
ENDMDL
MODEL 6
REMARK VINA RESULT:    -4.787      1.411      6.866
REMARK INTER + INTRA:          -6.086
REMARK INTER:                  -6.068
REMARK INTRA:                  -0.019
REMARK UNBOUND:                -0.320
REMARK SMILES Oc1cc(O)c2c(c1)O[C@@H](c1ccc(O)c(O)c1)[C@H](O)C2
REMARK SMILES IDX 21 1 19 2 10 3 9 4 7 5 8 6 2 7 3 8 4 9 6 10 20 11 11 13
REMARK SMILES IDX 18 14 12 15 16 16 13 17 14 18 17 19 15 21 5 23 1 25
REMARK H PARENT 20 12 17 20 15 22 5 24 1 26
REMARK Flexibility Score: inf
ROOT
ATOM      1  C   UNL     1      43.444  -2.932  47.584  1.00  0.00     0.079 C 
ATOM      2  C   UNL     1      43.725  -1.433  47.802  1.00  0.00     0.164 C 
ATOM      3  C   UNL     1      42.764  -0.581  46.950  1.00  0.00     0.232 C 
ATOM      4  O   UNL     1      41.413  -0.920  47.265  1.00  0.00    -0.482 OA
ATOM      5  C   UNL     1      41.013  -2.237  47.523  1.00  0.00     0.131 A 
ATOM      6  C   UNL     1      39.650  -2.520  47.636  1.00  0.00     0.093 A 
ATOM      7  C   UNL     1      39.218  -3.827  47.879  1.00  0.00     0.122 A 
ATOM      8  C   UNL     1      40.154  -4.856  47.999  1.00  0.00     0.092 A 
ATOM      9  C   UNL     1      41.525  -4.592  47.888  1.00  0.00     0.126 A 
ATOM     10  C   UNL     1      41.970  -3.263  47.686  1.00  0.00     0.039 A 
ENDROOT
BRANCH   2  11
ATOM     11  O   UNL     1      45.069  -1.135  47.514  1.00  0.00    -0.389 OA
ATOM     12  H   UNL     1      45.123  -0.167  47.298  1.00  0.00     0.211 HD
ENDBRANCH   2  11
BRANCH   3  13
ATOM     13  C   UNL     1      42.986   0.895  47.187  1.00  0.00    -0.001 A 
ATOM     14  C   UNL     1      42.034   1.648  47.893  1.00  0.00     0.057 A 
ATOM     15  C   UNL     1      44.118   1.540  46.662  1.00  0.00     0.012 A 
ATOM     16  C   UNL     1      42.221   3.025  48.091  1.00  0.00     0.157 A 
ATOM     17  C   UNL     1      44.306   2.910  46.858  1.00  0.00     0.050 A 
ATOM     18  C   UNL     1      43.364   3.657  47.573  1.00  0.00     0.157 A 
BRANCH  16  19
ATOM     19  O   UNL     1      41.275   3.765  48.799  1.00  0.00    -0.504 OA
ATOM     20  H   UNL     1      41.408   4.001  49.776  1.00  0.00     0.293 HD
ENDBRANCH  16  19
BRANCH  18  21
ATOM     21  O   UNL     1      43.578   5.023  47.753  1.00  0.00    -0.504 OA
ATOM     22  H   UNL     1      44.119   5.573  47.098  1.00  0.00     0.293 HD
ENDBRANCH  18  21
ENDBRANCH   3  13
BRANCH   9  23
ATOM     23  O   UNL     1      42.410  -5.669  47.972  1.00  0.00    -0.507 OA
ATOM     24  H   UNL     1      42.469  -6.396  47.272  1.00  0.00     0.293 HD
ENDBRANCH   9  23
BRANCH   7  25
ATOM     25  O   UNL     1      37.860  -4.117  47.995  1.00  0.00    -0.508 OA
ATOM     26  H   UNL     1      37.367  -4.000  48.873  1.00  0.00     0.293 HD
ENDBRANCH   7  25
TORSDOF 6
ENDMDL
MODEL 7
REMARK VINA RESULT:    -4.630      3.253      4.742
REMARK INTER + INTRA:          -5.898
REMARK INTER:                  -5.538
REMARK INTRA:                  -0.360
REMARK UNBOUND:                -0.320
REMARK SMILES Oc1cc(O)c2c(c1)O[C@@H](c1ccc(O)c(O)c1)[C@H](O)C2
REMARK SMILES IDX 21 1 19 2 10 3 9 4 7 5 8 6 2 7 3 8 4 9 6 10 20 11 11 13
REMARK SMILES IDX 18 14 12 15 16 16 13 17 14 18 17 19 15 21 5 23 1 25
REMARK H PARENT 20 12 17 20 15 22 5 24 1 26
REMARK Flexibility Score: inf
ROOT
ATOM      1  C   UNL     1      41.337  -2.181  48.233  1.00  0.00     0.079 C 
ATOM      2  C   UNL     1      42.170  -3.465  48.055  1.00  0.00     0.164 C 
ATOM      3  C   UNL     1      42.904  -3.442  46.700  1.00  0.00     0.232 C 
ATOM      4  O   UNL     1      43.711  -2.268  46.611  1.00  0.00    -0.482 OA
ATOM      5  C   UNL     1      43.290  -1.030  47.110  1.00  0.00     0.131 A 
ATOM      6  C   UNL     1      44.045   0.109  46.821  1.00  0.00     0.093 A 
ATOM      7  C   UNL     1      43.643   1.362  47.293  1.00  0.00     0.122 A 
ATOM      8  C   UNL     1      42.474   1.476  48.048  1.00  0.00     0.092 A 
ATOM      9  C   UNL     1      41.703   0.346  48.348  1.00  0.00     0.126 A 
ATOM     10  C   UNL     1      42.130  -0.931  47.910  1.00  0.00     0.039 A 
ENDROOT
BRANCH   2  11
ATOM     11  O   UNL     1      41.354  -4.604  48.179  1.00  0.00    -0.389 OA
ATOM     12  H   UNL     1      40.434  -4.295  48.389  1.00  0.00     0.211 HD
ENDBRANCH   2  11
BRANCH   3  13
ATOM     13  C   UNL     1      43.768  -4.669  46.526  1.00  0.00    -0.001 A 
ATOM     14  C   UNL     1      43.545  -5.544  45.451  1.00  0.00     0.057 A 
ATOM     15  C   UNL     1      44.769  -4.976  47.464  1.00  0.00     0.012 A 
ATOM     16  C   UNL     1      44.325  -6.700  45.300  1.00  0.00     0.157 A 
ATOM     17  C   UNL     1      45.547  -6.127  47.316  1.00  0.00     0.050 A 
ATOM     18  C   UNL     1      45.332  -6.991  46.237  1.00  0.00     0.157 A 
BRANCH  16  19
ATOM     19  O   UNL     1      44.102  -7.561  44.226  1.00  0.00    -0.504 OA
ATOM     20  H   UNL     1      44.639  -8.413  44.109  1.00  0.00     0.293 HD
ENDBRANCH  16  19
BRANCH  18  21
ATOM     21  O   UNL     1      46.125  -8.132  46.115  1.00  0.00    -0.504 OA
ATOM     22  H   UNL     1      46.840  -8.364  46.792  1.00  0.00     0.293 HD
ENDBRANCH  18  21
ENDBRANCH   3  13
BRANCH   9  23
ATOM     23  O   UNL     1      40.522   0.530  49.068  1.00  0.00    -0.507 OA
ATOM     24  H   UNL     1      39.606   0.556  48.639  1.00  0.00     0.293 HD
ENDBRANCH   9  23
BRANCH   7  25
ATOM     25  O   UNL     1      44.392   2.502  47.010  1.00  0.00    -0.508 OA
ATOM     26  H   UNL     1      45.188   2.470  46.383  1.00  0.00     0.293 HD
ENDBRANCH   7  25
TORSDOF 6
ENDMDL
MODEL 8
REMARK VINA RESULT:    -4.370      2.603      7.728
REMARK INTER + INTRA:          -5.584
REMARK INTER:                  -5.383
REMARK INTRA:                  -0.201
REMARK UNBOUND:                -0.320
REMARK SMILES Oc1cc(O)c2c(c1)O[C@@H](c1ccc(O)c(O)c1)[C@H](O)C2
REMARK SMILES IDX 21 1 19 2 10 3 9 4 7 5 8 6 2 7 3 8 4 9 6 10 20 11 11 13
REMARK SMILES IDX 18 14 12 15 16 16 13 17 14 18 17 19 15 21 5 23 1 25
REMARK H PARENT 20 12 17 20 15 22 5 24 1 26
REMARK Flexibility Score: inf
ROOT
ATOM      1  C   UNL     1      42.033  -1.486  46.890  1.00  0.00     0.079 C 
ATOM      2  C   UNL     1      42.614  -0.076  46.668  1.00  0.00     0.164 C 
ATOM      3  C   UNL     1      43.839   0.147  47.576  1.00  0.00     0.232 C 
ATOM      4  O   UNL     1      44.809  -0.873  47.333  1.00  0.00    -0.482 OA
ATOM      5  C   UNL     1      44.451  -2.203  47.088  1.00  0.00     0.131 A 
ATOM      6  C   UNL     1      45.452  -3.177  47.047  1.00  0.00     0.093 A 
ATOM      7  C   UNL     1      45.124  -4.517  46.818  1.00  0.00     0.122 A 
ATOM      8  C   UNL     1      43.789  -4.884  46.641  1.00  0.00     0.092 A 
ATOM      9  C   UNL     1      42.772  -3.923  46.678  1.00  0.00     0.126 A 
ATOM     10  C   UNL     1      43.102  -2.559  46.865  1.00  0.00     0.039 A 
ENDROOT
BRANCH   2  11
ATOM     11  O   UNL     1      41.628   0.905  46.884  1.00  0.00    -0.389 OA
ATOM     12  H   UNL     1      40.750   0.444  46.933  1.00  0.00     0.211 HD
ENDBRANCH   2  11
BRANCH   3  13
ATOM     13  C   UNL     1      44.457   1.504  47.338  1.00  0.00    -0.001 A 
ATOM     14  C   UNL     1      44.015   2.620  48.068  1.00  0.00     0.057 A 
ATOM     15  C   UNL     1      45.441   1.678  46.351  1.00  0.00     0.012 A 
ATOM     16  C   UNL     1      44.564   3.889  47.831  1.00  0.00     0.157 A 
ATOM     17  C   UNL     1      45.989   2.941  46.113  1.00  0.00     0.050 A 
ATOM     18  C   UNL     1      45.558   4.048  46.850  1.00  0.00     0.157 A 
BRANCH  16  19
ATOM     19  O   UNL     1      44.125   4.990  48.564  1.00  0.00    -0.504 OA
ATOM     20  H   UNL     1      44.464   5.173  49.502  1.00  0.00     0.293 HD
ENDBRANCH  16  19
BRANCH  18  21
ATOM     21  O   UNL     1      46.124   5.296  46.591  1.00  0.00    -0.504 OA
ATOM     22  H   UNL     1      47.119   5.463  46.675  1.00  0.00     0.293 HD
ENDBRANCH  18  21
ENDBRANCH   3  13
BRANCH   9  23
ATOM     23  O   UNL     1      41.452  -4.358  46.539  1.00  0.00    -0.507 OA
ATOM     24  H   UNL     1      41.105  -4.827  45.713  1.00  0.00     0.293 HD
ENDBRANCH   9  23
BRANCH   7  25
ATOM     25  O   UNL     1      46.118  -5.493  46.774  1.00  0.00    -0.508 OA
ATOM     26  H   UNL     1      45.900  -6.461  46.566  1.00  0.00     0.293 HD
ENDBRANCH   7  25
TORSDOF 6
ENDMDL
MODEL 9
REMARK VINA RESULT:    -4.358      1.953      7.615
REMARK INTER + INTRA:          -5.570
REMARK INTER:                  -5.499
REMARK INTRA:                  -0.070
REMARK UNBOUND:                -0.320
REMARK SMILES Oc1cc(O)c2c(c1)O[C@@H](c1ccc(O)c(O)c1)[C@H](O)C2
REMARK SMILES IDX 21 1 19 2 10 3 9 4 7 5 8 6 2 7 3 8 4 9 6 10 20 11 11 13
REMARK SMILES IDX 18 14 12 15 16 16 13 17 14 18 17 19 15 21 5 23 1 25
REMARK H PARENT 20 12 17 20 15 22 5 24 1 26
REMARK Flexibility Score: inf
ROOT
ATOM      1  C   UNL     1      40.870  -0.285  48.677  1.00  0.00     0.079 C 
ATOM      2  C   UNL     1      41.639   0.986  48.269  1.00  0.00     0.164 C 
ATOM      3  C   UNL     1      43.156   0.713  48.258  1.00  0.00     0.232 C 
ATOM      4  O   UNL     1      43.439  -0.382  47.387  1.00  0.00    -0.482 OA
ATOM      5  C   UNL     1      42.606  -1.503  47.298  1.00  0.00     0.131 A 
ATOM      6  C   UNL     1      43.041  -2.614  46.571  1.00  0.00     0.093 A 
ATOM      7  C   UNL     1      42.236  -3.754  46.475  1.00  0.00     0.122 A 
ATOM      8  C   UNL     1      40.997  -3.785  47.117  1.00  0.00     0.092 A 
ATOM      9  C   UNL     1      40.544  -2.681  47.850  1.00  0.00     0.126 A 
ATOM     10  C   UNL     1      41.334  -1.508  47.914  1.00  0.00     0.039 A 
ENDROOT
BRANCH   2  11
ATOM     11  O   UNL     1      41.315   2.056  49.125  1.00  0.00    -0.389 OA
ATOM     12  H   UNL     1      42.161   2.523  49.356  1.00  0.00     0.211 HD
ENDBRANCH   2  11
BRANCH   3  13
ATOM     13  C   UNL     1      43.927   1.932  47.810  1.00  0.00    -0.001 A 
ATOM     14  C   UNL     1      43.316   2.894  46.991  1.00  0.00     0.057 A 
ATOM     15  C   UNL     1      45.277   2.092  48.165  1.00  0.00     0.012 A 
ATOM     16  C   UNL     1      44.036   4.014  46.548  1.00  0.00     0.157 A 
ATOM     17  C   UNL     1      45.997   3.206  47.725  1.00  0.00     0.050 A 
ATOM     18  C   UNL     1      45.382   4.171  46.920  1.00  0.00     0.157 A 
BRANCH  16  19
ATOM     19  O   UNL     1      43.420   4.968  45.740  1.00  0.00    -0.504 OA
ATOM     20  H   UNL     1      43.923   5.438  44.996  1.00  0.00     0.293 HD
ENDBRANCH  16  19
BRANCH  18  21
ATOM     21  O   UNL     1      46.125   5.272  46.496  1.00  0.00    -0.504 OA
ATOM     22  H   UNL     1      46.389   6.018  47.129  1.00  0.00     0.293 HD
ENDBRANCH  18  21
ENDBRANCH   3  13
BRANCH   9  23
ATOM     23  O   UNL     1      39.316  -2.789  48.507  1.00  0.00    -0.507 OA
ATOM     24  H   UNL     1      38.464  -3.082  48.049  1.00  0.00     0.293 HD
ENDBRANCH   9  23
BRANCH   7  25
ATOM     25  O   UNL     1      42.663  -4.865  45.751  1.00  0.00    -0.508 OA
ATOM     26  H   UNL     1      42.019  -5.599  45.478  1.00  0.00     0.293 HD
ENDBRANCH   7  25
TORSDOF 6
ENDMDL
