MODEL 1
REMARK VINA RESULT:    -3.165      0.000      0.000
REMARK INTER + INTRA:          -3.744
REMARK INTER:                  -3.720
REMARK INTRA:                  -0.025
REMARK UNBOUND:                -0.025
REMARK SMILES CCCCC(=O)[O-]
REMARK SMILES IDX 4 1 5 2 6 3 7 4 3 5 2 6 1 7
REMARK H PARENT
REMARK Flexibility Score: inf
ROOT
ATOM      1  C   UNL     1      67.122 -14.531  13.557  1.00  0.00     0.053 C 
ENDROOT
BRANCH   1   2
ATOM      2  C   UNL     1      65.864 -14.549  12.748  1.00  0.00     0.041 C 
ATOM      3  O   UNL     1      65.015 -15.464  12.916  1.00  0.00    -0.550 OA
ATOM      4  O   UNL     1      65.606 -13.529  11.841  1.00  0.00    -0.550 OA
ENDBRANCH   1   2
BRANCH   1   5
ATOM      5  C   UNL     1      66.977 -15.425  14.792  1.00  0.00     0.006 C 
BRANCH   5   6
ATOM      6  C   UNL     1      68.350 -15.785  15.374  1.00  0.00    -0.003 C 
ATOM      7  C   UNL     1      68.209 -16.648  16.624  1.00  0.00     0.004 C 
ENDBRANCH   5   6
ENDBRANCH   1   5
TORSDOF 3
ENDMDL
MODEL 2
REMARK VINA RESULT:    -2.858      2.062      3.869
REMARK INTER + INTRA:          -3.384
REMARK INTER:                  -3.324
REMARK INTRA:                  -0.060
REMARK UNBOUND:                -0.025
REMARK SMILES CCCCC(=O)[O-]
REMARK SMILES IDX 4 1 5 2 6 3 7 4 3 5 2 6 1 7
REMARK H PARENT
REMARK Flexibility Score: inf
ROOT
ATOM      1  C   UNL     1      67.133 -14.449  13.373  1.00  0.00     0.053 C 
ENDROOT
BRANCH   1   2
ATOM      2  C   UNL     1      67.039 -15.347  14.566  1.00  0.00     0.041 C 
ATOM      3  O   UNL     1      65.927 -15.826  14.913  1.00  0.00    -0.550 OA
ATOM      4  O   UNL     1      68.186 -15.695  15.267  1.00  0.00    -0.550 OA
ENDBRANCH   1   2
BRANCH   1   5
ATOM      5  C   UNL     1      65.781 -14.360  12.661  1.00  0.00     0.006 C 
BRANCH   5   6
ATOM      6  C   UNL     1      65.962 -14.320  11.139  1.00  0.00    -0.003 C 
ATOM      7  C   UNL     1      67.265 -14.994  10.721  1.00  0.00     0.004 C 
ENDBRANCH   5   6
ENDBRANCH   1   5
TORSDOF 3
ENDMDL
MODEL 3
REMARK VINA RESULT:    -2.820      1.310      1.762
REMARK INTER + INTRA:          -3.339
REMARK INTER:                  -3.258
REMARK INTRA:                  -0.081
REMARK UNBOUND:                -0.025
REMARK SMILES CCCCC(=O)[O-]
REMARK SMILES IDX 4 1 5 2 6 3 7 4 3 5 2 6 1 7
REMARK H PARENT
REMARK Flexibility Score: inf
ROOT
ATOM      1  C   UNL     1      67.477 -15.259  11.771  1.00  0.00     0.053 C 
ENDROOT
BRANCH   1   2
ATOM      2  C   UNL     1      66.087 -15.042  11.261  1.00  0.00     0.041 C 
ATOM      3  O   UNL     1      65.327 -16.025  11.053  1.00  0.00    -0.550 OA
ATOM      4  O   UNL     1      65.613 -13.752  11.062  1.00  0.00    -0.550 OA
ENDBRANCH   1   2
BRANCH   1   5
ATOM      5  C   UNL     1      67.706 -14.463  13.058  1.00  0.00     0.006 C 
BRANCH   5   6
ATOM      6  C   UNL     1      67.004 -15.129  14.249  1.00  0.00    -0.003 C 
ATOM      7  C   UNL     1      68.015 -15.666  15.256  1.00  0.00     0.004 C 
ENDBRANCH   5   6
ENDBRANCH   1   5
TORSDOF 3
ENDMDL
MODEL 4
REMARK VINA RESULT:    -2.790     18.738     19.059
REMARK INTER + INTRA:          -3.304
REMARK INTER:                  -3.254
REMARK INTRA:                  -0.050
REMARK UNBOUND:                -0.025
REMARK SMILES CCCCC(=O)[O-]
REMARK SMILES IDX 4 1 5 2 6 3 7 4 3 5 2 6 1 7
REMARK H PARENT
REMARK Flexibility Score: inf
ROOT
ATOM      1  C   UNL     1      57.157  -0.980  22.895  1.00  0.00     0.053 C 
ENDROOT
BRANCH   1   2
ATOM      2  C   UNL     1      56.748  -0.076  21.775  1.00  0.00     0.041 C 
ATOM      3  O   UNL     1      55.645   0.529  21.820  1.00  0.00    -0.550 OA
ATOM      4  O   UNL     1      57.607   0.138  20.705  1.00  0.00    -0.550 OA
ENDBRANCH   1   2
BRANCH   1   5
ATOM      5  C   UNL     1      58.393  -1.795  22.502  1.00  0.00     0.006 C 
BRANCH   5   6
ATOM      6  C   UNL     1      59.245  -2.130  23.733  1.00  0.00    -0.003 C 
ATOM      7  C   UNL     1      58.576  -1.645  25.015  1.00  0.00     0.004 C 
ENDBRANCH   5   6
ENDBRANCH   1   5
TORSDOF 3
ENDMDL
MODEL 5
REMARK VINA RESULT:    -2.789      2.016      3.148
REMARK INTER + INTRA:          -3.303
REMARK INTER:                  -3.200
REMARK INTRA:                  -0.102
REMARK UNBOUND:                -0.025
REMARK SMILES CCCCC(=O)[O-]
REMARK SMILES IDX 4 1 5 2 6 3 7 4 3 5 2 6 1 7
REMARK H PARENT
REMARK Flexibility Score: inf
ROOT
ATOM      1  C   UNL     1      67.235 -14.450  13.239  1.00  0.00     0.053 C 
ENDROOT
BRANCH   1   2
ATOM      2  C   UNL     1      65.856 -14.429  12.662  1.00  0.00     0.041 C 
ATOM      3  O   UNL     1      65.035 -15.342  12.945  1.00  0.00    -0.550 OA
ATOM      4  O   UNL     1      65.458 -13.375  11.849  1.00  0.00    -0.550 OA
ENDBRANCH   1   2
BRANCH   1   5
ATOM      5  C   UNL     1      68.100 -15.492  12.523  1.00  0.00     0.006 C 
BRANCH   5   6
ATOM      6  C   UNL     1      68.525 -14.993  11.136  1.00  0.00    -0.003 C 
ATOM      7  C   UNL     1      67.931 -15.862  10.032  1.00  0.00     0.004 C 
ENDBRANCH   5   6
ENDBRANCH   1   5
TORSDOF 3
ENDMDL
MODEL 6
REMARK VINA RESULT:    -2.781     18.728     19.248
REMARK INTER + INTRA:          -3.293
REMARK INTER:                  -3.182
REMARK INTRA:                  -0.111
REMARK UNBOUND:                -0.025
REMARK SMILES CCCCC(=O)[O-]
REMARK SMILES IDX 4 1 5 2 6 3 7 4 3 5 2 6 1 7
REMARK H PARENT
REMARK Flexibility Score: inf
ROOT
ATOM      1  C   UNL     1      58.881  -1.755  22.782  1.00  0.00     0.053 C 
ENDROOT
BRANCH   1   2
ATOM      2  C   UNL     1      58.667  -1.702  24.261  1.00  0.00     0.041 C 
ATOM      3  O   UNL     1      57.566  -1.309  24.729  1.00  0.00    -0.550 OA
ATOM      4  O   UNL     1      59.666  -2.133  25.124  1.00  0.00    -0.550 OA
ENDBRANCH   1   2
BRANCH   1   5
ATOM      5  C   UNL     1      57.549  -1.600  22.042  1.00  0.00     0.006 C 
BRANCH   5   6
ATOM      6  C   UNL     1      57.502  -0.279  21.264  1.00  0.00    -0.003 C 
ATOM      7  C   UNL     1      56.578   0.727  21.942  1.00  0.00     0.004 C 
ENDBRANCH   5   6
ENDBRANCH   1   5
TORSDOF 3
ENDMDL
MODEL 7
REMARK VINA RESULT:    -2.759      2.898      4.188
REMARK INTER + INTRA:          -3.268
REMARK INTER:                  -3.229
REMARK INTRA:                  -0.038
REMARK UNBOUND:                -0.025
REMARK SMILES CCCCC(=O)[O-]
REMARK SMILES IDX 4 1 5 2 6 3 7 4 3 5 2 6 1 7
REMARK H PARENT
REMARK Flexibility Score: inf
ROOT
ATOM      1  C   UNL     1      67.270 -15.185  14.658  1.00  0.00     0.053 C 
ENDROOT
BRANCH   1   2
ATOM      2  C   UNL     1      68.174 -15.976  15.550  1.00  0.00     0.041 C 
ATOM      3  O   UNL     1      69.417 -15.986  15.345  1.00  0.00    -0.550 OA
ATOM      4  O   UNL     1      67.650 -16.663  16.637  1.00  0.00    -0.550 OA
ENDBRANCH   1   2
BRANCH   1   5
ATOM      5  C   UNL     1      65.978 -15.958  14.382  1.00  0.00     0.006 C 
BRANCH   5   6
ATOM      6  C   UNL     1      65.266 -15.414  13.138  1.00  0.00    -0.003 C 
ATOM      7  C   UNL     1      66.064 -14.284  12.495  1.00  0.00     0.004 C 
ENDBRANCH   5   6
ENDBRANCH   1   5
TORSDOF 3
ENDMDL
MODEL 8
REMARK VINA RESULT:    -2.644     14.525     15.620
REMARK INTER + INTRA:          -3.132
REMARK INTER:                  -3.029
REMARK INTRA:                  -0.103
REMARK UNBOUND:                -0.025
REMARK SMILES CCCCC(=O)[O-]
REMARK SMILES IDX 4 1 5 2 6 3 7 4 3 5 2 6 1 7
REMARK H PARENT
REMARK Flexibility Score: inf
ROOT
ATOM      1  C   UNL     1      67.030  -0.093   9.624  1.00  0.00     0.053 C 
ENDROOT
BRANCH   1   2
ATOM      2  C   UNL     1      67.445   1.074  10.464  1.00  0.00     0.041 C 
ATOM      3  O   UNL     1      67.667   0.922  11.694  1.00  0.00    -0.550 OA
ATOM      4  O   UNL     1      67.635   2.319   9.879  1.00  0.00    -0.550 OA
ENDBRANCH   1   2
BRANCH   1   5
ATOM      5  C   UNL     1      68.248  -0.937   9.241  1.00  0.00     0.006 C 
BRANCH   5   6
ATOM      6  C   UNL     1      68.304  -2.229  10.067  1.00  0.00    -0.003 C 
ATOM      7  C   UNL     1      69.325  -2.119  11.194  1.00  0.00     0.004 C 
ENDBRANCH   5   6
ENDBRANCH   1   5
TORSDOF 3
ENDMDL
MODEL 9
REMARK VINA RESULT:    -2.556     11.255     12.307
REMARK INTER + INTRA:          -3.029
REMARK INTER:                  -2.963
REMARK INTRA:                  -0.067
REMARK UNBOUND:                -0.025
REMARK SMILES CCCCC(=O)[O-]
REMARK SMILES IDX 4 1 5 2 6 3 7 4 3 5 2 6 1 7
REMARK H PARENT
REMARK Flexibility Score: inf
ROOT
ATOM      1  C   UNL     1      56.549 -15.571   7.044  1.00  0.00     0.053 C 
ENDROOT
BRANCH   1   2
ATOM      2  C   UNL     1      56.563 -15.208   5.593  1.00  0.00     0.041 C 
ATOM      3  O   UNL     1      57.656 -14.997   5.003  1.00  0.00    -0.550 OA
ATOM      4  O   UNL     1      55.374 -15.151   4.878  1.00  0.00    -0.550 OA
ENDBRANCH   1   2
BRANCH   1   5
ATOM      5  C   UNL     1      57.877 -15.192   7.704  1.00  0.00     0.006 C 
BRANCH   5   6
ATOM      6  C   UNL     1      57.662 -14.152   8.812  1.00  0.00    -0.003 C 
ATOM      7  C   UNL     1      56.256 -14.248   9.393  1.00  0.00     0.004 C 
ENDBRANCH   5   6
ENDBRANCH   1   5
TORSDOF 3
ENDMDL
