MODEL 1
REMARK VINA RESULT:    -3.626      0.000      0.000
REMARK INTER + INTRA:          -9.022
REMARK INTER:                  -6.594
REMARK INTRA:                  -2.428
REMARK UNBOUND:                -2.428
REMARK SMILES CCCCCCCCCCCCCC[C@@H](C)C(=O)[O-]
REMARK SMILES IDX 9 1 10 2 11 3 12 4 13 5 14 6 15 7 16 8 17 9 18 10 19 11 8 12
REMARK SMILES IDX 7 13 6 14 5 15 4 16 3 17 2 18 1 19
REMARK H PARENT
REMARK Flexibility Score: inf
ROOT
ATOM      1  C   UNL     1      18.134  16.409  14.151  1.00  0.00     0.000 C 
ENDROOT
BRANCH   1   2
ATOM      2  C   UNL     1      19.582  16.052  13.775  1.00  0.00     0.000 C 
BRANCH   2   3
ATOM      3  C   UNL     1      20.568  16.270  14.938  1.00  0.00     0.000 C 
BRANCH   3   4
ATOM      4  C   UNL     1      21.841  15.399  14.840  1.00  0.00     0.000 C 
BRANCH   4   5
ATOM      5  C   UNL     1      21.908  14.340  15.954  1.00  0.00     0.001 C 
BRANCH   5   6
ATOM      6  C   UNL     1      20.963  14.651  17.131  1.00  0.00     0.009 C 
BRANCH   6   7
ATOM      7  C   UNL     1      20.038  13.478  17.529  1.00  0.00     0.032 C 
ATOM      8  C   UNL     1      19.372  12.877  16.287  1.00  0.00     0.014 C 
BRANCH   7   9
ATOM      9  C   UNL     1      20.793  12.407  18.271  1.00  0.00     0.044 C 
ATOM     10  O   UNL     1      20.455  11.199  18.153  1.00  0.00    -0.550 OA
ATOM     11  O   UNL     1      21.858  12.741  19.100  1.00  0.00    -0.550 OA
ENDBRANCH   7   9
ENDBRANCH   6   7
ENDBRANCH   5   6
ENDBRANCH   4   5
ENDBRANCH   3   4
ENDBRANCH   2   3
ENDBRANCH   1   2
BRANCH   1  12
ATOM     12  C   UNL     1      17.405  15.255  14.857  1.00  0.00     0.000 C 
BRANCH  12  13
ATOM     13  C   UNL     1      16.885  15.649  16.252  1.00  0.00    -0.000 C 
BRANCH  13  14
ATOM     14  C   UNL     1      17.314  17.068  16.668  1.00  0.00    -0.000 C 
BRANCH  14  15
ATOM     15  C   UNL     1      18.291  17.130  17.855  1.00  0.00    -0.000 C 
BRANCH  15  16
ATOM     16  C   UNL     1      17.581  17.309  19.207  1.00  0.00    -0.000 C 
BRANCH  16  17
ATOM     17  C   UNL     1      17.890  16.151  20.182  1.00  0.00    -0.000 C 
BRANCH  17  18
ATOM     18  C   UNL     1      19.385  15.800  20.267  1.00  0.00    -0.003 C 
ATOM     19  C   UNL     1      19.676  14.653  21.231  1.00  0.00     0.004 C 
ENDBRANCH  17  18
ENDBRANCH  16  17
ENDBRANCH  15  16
ENDBRANCH  14  15
ENDBRANCH  13  14
ENDBRANCH  12  13
ENDBRANCH   1  12
TORSDOF 14
ENDMDL
MODEL 2
REMARK VINA RESULT:    -3.453     13.120     15.628
REMARK INTER + INTRA:          -8.706
REMARK INTER:                  -6.064
REMARK INTRA:                  -2.642
REMARK UNBOUND:                -2.428
REMARK SMILES CCCCCCCCCCCCCC[C@@H](C)C(=O)[O-]
REMARK SMILES IDX 9 1 10 2 11 3 12 4 13 5 14 6 15 7 16 8 17 9 18 10 19 11 8 12
REMARK SMILES IDX 7 13 6 14 5 15 4 16 3 17 2 18 1 19
REMARK H PARENT
REMARK Flexibility Score: inf
ROOT
ATOM      1  C   UNL     1      24.463   6.302  27.574  1.00  0.00     0.000 C 
ENDROOT
BRANCH   1   2
ATOM      2  C   UNL     1      24.606   7.811  27.310  1.00  0.00     0.000 C 
BRANCH   2   3
ATOM      3  C   UNL     1      25.538   8.503  28.320  1.00  0.00     0.000 C 
BRANCH   3   4
ATOM      4  C   UNL     1      26.836   9.055  27.686  1.00  0.00     0.000 C 
BRANCH   4   5
ATOM      5  C   UNL     1      28.092   8.609  28.454  1.00  0.00     0.001 C 
BRANCH   5   6
ATOM      6  C   UNL     1      29.329   8.466  27.545  1.00  0.00     0.009 C 
BRANCH   6   7
ATOM      7  C   UNL     1      29.767   9.781  26.859  1.00  0.00     0.032 C 
ATOM      8  C   UNL     1      30.173  10.821  27.908  1.00  0.00     0.014 C 
BRANCH   7   9
ATOM      9  C   UNL     1      30.908   9.550  25.903  1.00  0.00     0.044 C 
ATOM     10  O   UNL     1      31.148   8.389  25.476  1.00  0.00    -0.550 OA
ATOM     11  O   UNL     1      31.713  10.608  25.496  1.00  0.00    -0.550 OA
ENDBRANCH   7   9
ENDBRANCH   6   7
ENDBRANCH   5   6
ENDBRANCH   4   5
ENDBRANCH   3   4
ENDBRANCH   2   3
ENDBRANCH   1   2
BRANCH   1  12
ATOM     12  C   UNL     1      25.281   5.834  28.788  1.00  0.00     0.000 C 
BRANCH  12  13
ATOM     13  C   UNL     1      26.262   4.700  28.438  1.00  0.00    -0.000 C 
BRANCH  13  14
ATOM     14  C   UNL     1      27.476   5.192  27.629  1.00  0.00    -0.000 C 
BRANCH  14  15
ATOM     15  C   UNL     1      27.884   4.287  26.453  1.00  0.00    -0.000 C 
BRANCH  15  16
ATOM     16  C   UNL     1      27.499   4.872  25.084  1.00  0.00    -0.000 C 
BRANCH  16  17
ATOM     17  C   UNL     1      27.274   6.399  25.150  1.00  0.00    -0.000 C 
BRANCH  17  18
ATOM     18  C   UNL     1      28.098   7.188  24.119  1.00  0.00    -0.003 C 
ATOM     19  C   UNL     1      27.689   8.656  24.022  1.00  0.00     0.004 C 
ENDBRANCH  17  18
ENDBRANCH  16  17
ENDBRANCH  15  16
ENDBRANCH  14  15
ENDBRANCH  13  14
ENDBRANCH  12  13
ENDBRANCH   1  12
TORSDOF 14
ENDMDL
MODEL 3
REMARK VINA RESULT:    -3.421     11.463     15.024
REMARK INTER + INTRA:          -8.649
REMARK INTER:                  -6.052
REMARK INTRA:                  -2.597
REMARK UNBOUND:                -2.428
REMARK SMILES CCCCCCCCCCCCCC[C@@H](C)C(=O)[O-]
REMARK SMILES IDX 9 1 10 2 11 3 12 4 13 5 14 6 15 7 16 8 17 9 18 10 19 11 8 12
REMARK SMILES IDX 7 13 6 14 5 15 4 16 3 17 2 18 1 19
REMARK H PARENT
REMARK Flexibility Score: inf
ROOT
ATOM      1  C   UNL     1      26.290   6.336  28.284  1.00  0.00     0.000 C 
ENDROOT
BRANCH   1   2
ATOM      2  C   UNL     1      25.195   6.986  27.421  1.00  0.00     0.000 C 
BRANCH   2   3
ATOM      3  C   UNL     1      25.226   8.523  27.482  1.00  0.00     0.000 C 
BRANCH   3   4
ATOM      4  C   UNL     1      25.840   9.179  26.224  1.00  0.00     0.000 C 
BRANCH   4   5
ATOM      5  C   UNL     1      27.330   9.515  26.412  1.00  0.00     0.001 C 
BRANCH   5   6
ATOM      6  C   UNL     1      27.692   9.822  27.878  1.00  0.00     0.009 C 
BRANCH   6   7
ATOM      7  C   UNL     1      29.177   9.570  28.231  1.00  0.00     0.032 C 
ATOM      8  C   UNL     1      29.812   8.613  27.217  1.00  0.00     0.014 C 
BRANCH   7   9
ATOM      9  C   UNL     1      29.959  10.857  28.277  1.00  0.00     0.044 C 
ATOM     10  O   UNL     1      29.809  11.651  29.242  1.00  0.00    -0.550 OA
ATOM     11  O   UNL     1      30.838  11.184  27.251  1.00  0.00    -0.550 OA
ENDBRANCH   7   9
ENDBRANCH   6   7
ENDBRANCH   5   6
ENDBRANCH   4   5
ENDBRANCH   3   4
ENDBRANCH   2   3
ENDBRANCH   1   2
BRANCH   1  12
ATOM     12  C   UNL     1      27.504   5.882  27.458  1.00  0.00     0.000 C 
BRANCH  12  13
ATOM     13  C   UNL     1      27.218   4.613  26.635  1.00  0.00    -0.000 C 
BRANCH  13  14
ATOM     14  C   UNL     1      27.661   4.742  25.167  1.00  0.00    -0.000 C 
BRANCH  14  15
ATOM     15  C   UNL     1      27.980   6.176  24.707  1.00  0.00    -0.000 C 
BRANCH  15  16
ATOM     16  C   UNL     1      27.078   6.651  23.556  1.00  0.00    -0.000 C 
BRANCH  16  17
ATOM     17  C   UNL     1      25.587   6.347  23.825  1.00  0.00    -0.000 C 
BRANCH  17  18
ATOM     18  C   UNL     1      24.636   6.964  22.786  1.00  0.00    -0.003 C 
ATOM     19  C   UNL     1      24.556   8.486  22.876  1.00  0.00     0.004 C 
ENDBRANCH  17  18
ENDBRANCH  16  17
ENDBRANCH  15  16
ENDBRANCH  14  15
ENDBRANCH  13  14
ENDBRANCH  12  13
ENDBRANCH   1  12
TORSDOF 14
ENDMDL
MODEL 4
REMARK VINA RESULT:    -3.412      2.160      4.475
REMARK INTER + INTRA:          -8.632
REMARK INTER:                  -6.140
REMARK INTRA:                  -2.492
REMARK UNBOUND:                -2.428
REMARK SMILES CCCCCCCCCCCCCC[C@@H](C)C(=O)[O-]
REMARK SMILES IDX 9 1 10 2 11 3 12 4 13 5 14 6 15 7 16 8 17 9 18 10 19 11 8 12
REMARK SMILES IDX 7 13 6 14 5 15 4 16 3 17 2 18 1 19
REMARK H PARENT
REMARK Flexibility Score: inf
ROOT
ATOM      1  C   UNL     1      18.349  17.235  17.892  1.00  0.00     0.000 C 
ENDROOT
BRANCH   1   2
ATOM      2  C   UNL     1      17.677  16.382  18.980  1.00  0.00     0.000 C 
BRANCH   2   3
ATOM      3  C   UNL     1      18.695  15.705  19.915  1.00  0.00     0.000 C 
BRANCH   3   4
ATOM      4  C   UNL     1      20.143  16.211  19.723  1.00  0.00     0.000 C 
BRANCH   4   5
ATOM      5  C   UNL     1      21.186  15.169  20.163  1.00  0.00     0.001 C 
BRANCH   5   6
ATOM      6  C   UNL     1      20.590  14.072  21.066  1.00  0.00     0.009 C 
BRANCH   6   7
ATOM      7  C   UNL     1      21.558  12.905  21.371  1.00  0.00     0.032 C 
ATOM      8  C   UNL     1      22.999  13.306  21.038  1.00  0.00     0.014 C 
BRANCH   7   9
ATOM      9  C   UNL     1      21.469  12.477  22.812  1.00  0.00     0.044 C 
ATOM     10  O   UNL     1      21.051  13.283  23.685  1.00  0.00    -0.550 OA
ATOM     11  O   UNL     1      21.859  11.198  23.193  1.00  0.00    -0.550 OA
ENDBRANCH   7   9
ENDBRANCH   6   7
ENDBRANCH   5   6
ENDBRANCH   4   5
ENDBRANCH   3   4
ENDBRANCH   2   3
ENDBRANCH   1   2
BRANCH   1  12
ATOM     12  C   UNL     1      17.707  17.043  16.508  1.00  0.00     0.000 C 
BRANCH  12  13
ATOM     13  C   UNL     1      16.909  15.730  16.404  1.00  0.00    -0.000 C 
BRANCH  13  14
ATOM     14  C   UNL     1      17.725  14.585  15.777  1.00  0.00    -0.000 C 
BRANCH  14  15
ATOM     15  C   UNL     1      19.110  14.990  15.242  1.00  0.00    -0.000 C 
BRANCH  15  16
ATOM     16  C   UNL     1      20.266  14.444  16.096  1.00  0.00    -0.000 C 
BRANCH  16  17
ATOM     17  C   UNL     1      19.768  13.480  17.197  1.00  0.00    -0.000 C 
BRANCH  17  18
ATOM     18  C   UNL     1      20.806  12.421  17.604  1.00  0.00    -0.003 C 
ATOM     19  C   UNL     1      22.245  12.871  17.365  1.00  0.00     0.004 C 
ENDBRANCH  17  18
ENDBRANCH  16  17
ENDBRANCH  15  16
ENDBRANCH  14  15
ENDBRANCH  13  14
ENDBRANCH  12  13
ENDBRANCH   1  12
TORSDOF 14
ENDMDL
MODEL 5
REMARK VINA RESULT:    -3.410      2.746      5.181
REMARK INTER + INTRA:          -8.629
REMARK INTER:                  -5.792
REMARK INTRA:                  -2.837
REMARK UNBOUND:                -2.428
REMARK SMILES CCCCCCCCCCCCCC[C@@H](C)C(=O)[O-]
REMARK SMILES IDX 9 1 10 2 11 3 12 4 13 5 14 6 15 7 16 8 17 9 18 10 19 11 8 12
REMARK SMILES IDX 7 13 6 14 5 15 4 16 3 17 2 18 1 19
REMARK H PARENT
REMARK Flexibility Score: inf
ROOT
ATOM      1  C   UNL     1      19.026  14.495  15.843  1.00  0.00     0.000 C 
ENDROOT
BRANCH   1   2
ATOM      2  C   UNL     1      17.541  14.826  15.623  1.00  0.00     0.000 C 
BRANCH   2   3
ATOM      3  C   UNL     1      17.001  15.838  16.650  1.00  0.00     0.000 C 
BRANCH   3   4
ATOM      4  C   UNL     1      17.932  17.052  16.870  1.00  0.00     0.000 C 
BRANCH   4   5
ATOM      5  C   UNL     1      17.929  17.528  18.333  1.00  0.00     0.001 C 
BRANCH   5   6
ATOM      6  C   UNL     1      17.405  16.456  19.309  1.00  0.00     0.009 C 
BRANCH   6   7
ATOM      7  C   UNL     1      18.127  16.436  20.677  1.00  0.00     0.032 C 
ATOM      8  C   UNL     1      19.366  17.337  20.640  1.00  0.00     0.014 C 
BRANCH   7   9
ATOM      9  C   UNL     1      17.212  16.873  21.790  1.00  0.00     0.044 C 
ATOM     10  O   UNL     1      16.986  16.102  22.760  1.00  0.00    -0.550 OA
ATOM     11  O   UNL     1      16.599  18.121  21.750  1.00  0.00    -0.550 OA
ENDBRANCH   7   9
ENDBRANCH   6   7
ENDBRANCH   5   6
ENDBRANCH   4   5
ENDBRANCH   3   4
ENDBRANCH   2   3
ENDBRANCH   1   2
BRANCH   1  12
ATOM     12  C   UNL     1      19.251  13.029  16.248  1.00  0.00     0.000 C 
BRANCH  12  13
ATOM     13  C   UNL     1      20.109  12.891  17.519  1.00  0.00    -0.000 C 
BRANCH  13  14
ATOM     14  C   UNL     1      20.011  14.122  18.439  1.00  0.00    -0.000 C 
BRANCH  14  15
ATOM     15  C   UNL     1      21.287  14.439  19.240  1.00  0.00    -0.000 C 
BRANCH  15  16
ATOM     16  C   UNL     1      22.251  15.371  18.487  1.00  0.00    -0.000 C 
BRANCH  16  17
ATOM     17  C   UNL     1      21.501  16.477  17.713  1.00  0.00    -0.000 C 
BRANCH  17  18
ATOM     18  C   UNL     1      22.010  16.676  16.276  1.00  0.00    -0.003 C 
ATOM     19  C   UNL     1      22.573  15.398  15.658  1.00  0.00     0.004 C 
ENDBRANCH  17  18
ENDBRANCH  16  17
ENDBRANCH  15  16
ENDBRANCH  14  15
ENDBRANCH  13  14
ENDBRANCH  12  13
ENDBRANCH   1  12
TORSDOF 14
ENDMDL
MODEL 6
REMARK VINA RESULT:    -3.395     12.836     15.534
REMARK INTER + INTRA:          -8.602
REMARK INTER:                  -6.181
REMARK INTRA:                  -2.421
REMARK UNBOUND:                -2.428
REMARK SMILES CCCCCCCCCCCCCC[C@@H](C)C(=O)[O-]
REMARK SMILES IDX 9 1 10 2 11 3 12 4 13 5 14 6 15 7 16 8 17 9 18 10 19 11 8 12
REMARK SMILES IDX 7 13 6 14 5 15 4 16 3 17 2 18 1 19
REMARK H PARENT
REMARK Flexibility Score: inf
ROOT
ATOM      1  C   UNL     1      26.216   8.643  25.028  1.00  0.00     0.000 C 
ENDROOT
BRANCH   1   2
ATOM      2  C   UNL     1      26.542   9.434  26.305  1.00  0.00     0.000 C 
BRANCH   2   3
ATOM      3  C   UNL     1      26.230   8.643  27.588  1.00  0.00     0.000 C 
BRANCH   3   4
ATOM      4  C   UNL     1      27.491   8.127  28.318  1.00  0.00     0.000 C 
BRANCH   4   5
ATOM      5  C   UNL     1      28.781   8.759  27.767  1.00  0.00     0.001 C 
BRANCH   5   6
ATOM      6  C   UNL     1      29.635   9.426  28.862  1.00  0.00     0.009 C 
BRANCH   6   7
ATOM      7  C   UNL     1      30.116  10.853  28.510  1.00  0.00     0.032 C 
ATOM      8  C   UNL     1      30.117  11.057  26.992  1.00  0.00     0.014 C 
BRANCH   7   9
ATOM      9  C   UNL     1      29.256  11.902  29.165  1.00  0.00     0.044 C 
ATOM     10  O   UNL     1      29.749  12.668  30.035  1.00  0.00    -0.550 OA
ATOM     11  O   UNL     1      27.913  12.024  28.826  1.00  0.00    -0.550 OA
ENDBRANCH   7   9
ENDBRANCH   6   7
ENDBRANCH   5   6
ENDBRANCH   4   5
ENDBRANCH   3   4
ENDBRANCH   2   3
ENDBRANCH   1   2
BRANCH   1  12
ATOM     12  C   UNL     1      25.403   7.369  25.311  1.00  0.00     0.000 C 
BRANCH  12  13
ATOM     13  C   UNL     1      25.958   6.137  24.575  1.00  0.00    -0.000 C 
BRANCH  13  14
ATOM     14  C   UNL     1      27.492   6.161  24.445  1.00  0.00    -0.000 C 
BRANCH  14  15
ATOM     15  C   UNL     1      28.256   5.582  25.649  1.00  0.00    -0.000 C 
BRANCH  15  16
ATOM     16  C   UNL     1      27.558   4.363  26.272  1.00  0.00    -0.000 C 
BRANCH  16  17
ATOM     17  C   UNL     1      27.779   4.286  27.799  1.00  0.00    -0.000 C 
BRANCH  17  18
ATOM     18  C   UNL     1      26.492   4.012  28.595  1.00  0.00    -0.003 C 
ATOM     19  C   UNL     1      25.421   5.081  28.387  1.00  0.00     0.004 C 
ENDBRANCH  17  18
ENDBRANCH  16  17
ENDBRANCH  15  16
ENDBRANCH  14  15
ENDBRANCH  13  14
ENDBRANCH  12  13
ENDBRANCH   1  12
TORSDOF 14
ENDMDL
MODEL 7
REMARK VINA RESULT:    -3.356     13.171     14.940
REMARK INTER + INTRA:          -8.531
REMARK INTER:                  -6.051
REMARK INTRA:                  -2.480
REMARK UNBOUND:                -2.428
REMARK SMILES CCCCCCCCCCCCCC[C@@H](C)C(=O)[O-]
REMARK SMILES IDX 9 1 10 2 11 3 12 4 13 5 14 6 15 7 16 8 17 9 18 10 19 11 8 12
REMARK SMILES IDX 7 13 6 14 5 15 4 16 3 17 2 18 1 19
REMARK H PARENT
REMARK Flexibility Score: inf
ROOT
ATOM      1  C   UNL     1      31.070  12.618  22.137  1.00  0.00     0.000 C 
ENDROOT
BRANCH   1   2
ATOM      2  C   UNL     1      31.641  12.967  23.522  1.00  0.00     0.000 C 
BRANCH   2   3
ATOM      3  C   UNL     1      30.933  12.214  24.662  1.00  0.00     0.000 C 
BRANCH   3   4
ATOM      4  C   UNL     1      31.894  11.389  25.549  1.00  0.00     0.000 C 
BRANCH   4   5
ATOM      5  C   UNL     1      31.255  11.002  26.893  1.00  0.00     0.001 C 
BRANCH   5   6
ATOM      6  C   UNL     1      29.802  11.497  27.030  1.00  0.00     0.009 C 
BRANCH   6   7
ATOM      7  C   UNL     1      29.147  11.178  28.394  1.00  0.00     0.032 C 
ATOM      8  C   UNL     1      29.734   9.890  28.979  1.00  0.00     0.014 C 
BRANCH   7   9
ATOM      9  C   UNL     1      29.329  12.310  29.371  1.00  0.00     0.044 C 
ATOM     10  O   UNL     1      30.263  12.271  30.215  1.00  0.00    -0.550 OA
ATOM     11  O   UNL     1      28.462  13.397  29.359  1.00  0.00    -0.550 OA
ENDBRANCH   7   9
ENDBRANCH   6   7
ENDBRANCH   5   6
ENDBRANCH   4   5
ENDBRANCH   3   4
ENDBRANCH   2   3
ENDBRANCH   1   2
BRANCH   1  12
ATOM     12  C   UNL     1      30.351  11.259  22.119  1.00  0.00     0.000 C 
BRANCH  12  13
ATOM     13  C   UNL     1      31.232  10.131  21.554  1.00  0.00    -0.000 C 
BRANCH  13  14
ATOM     14  C   UNL     1      31.214   8.866  22.431  1.00  0.00    -0.000 C 
BRANCH  14  15
ATOM     15  C   UNL     1      30.116   8.837  23.510  1.00  0.00    -0.000 C 
BRANCH  15  16
ATOM     16  C   UNL     1      30.534   8.062  24.770  1.00  0.00    -0.000 C 
BRANCH  16  17
ATOM     17  C   UNL     1      29.375   7.934  25.783  1.00  0.00    -0.000 C 
BRANCH  17  18
ATOM     18  C   UNL     1      28.164   8.820  25.447  1.00  0.00    -0.003 C 
ATOM     19  C   UNL     1      26.947   8.527  26.322  1.00  0.00     0.004 C 
ENDBRANCH  17  18
ENDBRANCH  16  17
ENDBRANCH  15  16
ENDBRANCH  14  15
ENDBRANCH  13  14
ENDBRANCH  12  13
ENDBRANCH   1  12
TORSDOF 14
ENDMDL
MODEL 8
REMARK VINA RESULT:    -3.352     11.891     15.187
REMARK INTER + INTRA:          -8.524
REMARK INTER:                  -5.930
REMARK INTRA:                  -2.594
REMARK UNBOUND:                -2.428
REMARK SMILES CCCCCCCCCCCCCC[C@@H](C)C(=O)[O-]
REMARK SMILES IDX 9 1 10 2 11 3 12 4 13 5 14 6 15 7 16 8 17 9 18 10 19 11 8 12
REMARK SMILES IDX 7 13 6 14 5 15 4 16 3 17 2 18 1 19
REMARK H PARENT
REMARK Flexibility Score: inf
ROOT
ATOM      1  C   UNL     1      27.697   3.627  26.865  1.00  0.00     0.000 C 
ENDROOT
BRANCH   1   2
ATOM      2  C   UNL     1      28.611   3.989  25.682  1.00  0.00     0.000 C 
BRANCH   2   3
ATOM      3  C   UNL     1      27.844   4.638  24.517  1.00  0.00     0.000 C 
BRANCH   3   4
ATOM      4  C   UNL     1      28.486   5.950  24.009  1.00  0.00     0.000 C 
BRANCH   4   5
ATOM      5  C   UNL     1      29.151   6.748  25.143  1.00  0.00     0.001 C 
BRANCH   5   6
ATOM      6  C   UNL     1      28.984   8.271  24.980  1.00  0.00     0.009 C 
BRANCH   6   7
ATOM      7  C   UNL     1      29.114   9.070  26.298  1.00  0.00     0.032 C 
ATOM      8  C   UNL     1      29.063   8.123  27.502  1.00  0.00     0.014 C 
BRANCH   7   9
ATOM      9  C   UNL     1      30.389   9.871  26.334  1.00  0.00     0.044 C 
ATOM     10  O   UNL     1      31.400   9.477  25.695  1.00  0.00    -0.550 OA
ATOM     11  O   UNL     1      30.465  11.041  27.082  1.00  0.00    -0.550 OA
ENDBRANCH   7   9
ENDBRANCH   6   7
ENDBRANCH   5   6
ENDBRANCH   4   5
ENDBRANCH   3   4
ENDBRANCH   2   3
ENDBRANCH   1   2
BRANCH   1  12
ATOM     12  C   UNL     1      27.535   4.783  27.864  1.00  0.00     0.000 C 
BRANCH  12  13
ATOM     13  C   UNL     1      26.060   5.139  28.123  1.00  0.00    -0.000 C 
BRANCH  13  14
ATOM     14  C   UNL     1      25.856   6.627  28.461  1.00  0.00    -0.000 C 
BRANCH  14  15
ATOM     15  C   UNL     1      25.300   7.486  27.311  1.00  0.00    -0.000 C 
BRANCH  15  16
ATOM     16  C   UNL     1      25.147   6.701  25.997  1.00  0.00    -0.000 C 
BRANCH  16  17
ATOM     17  C   UNL     1      25.289   7.613  24.759  1.00  0.00    -0.000 C 
BRANCH  17  18
ATOM     18  C   UNL     1      24.932   6.915  23.436  1.00  0.00    -0.003 C 
ATOM     19  C   UNL     1      25.252   7.762  22.207  1.00  0.00     0.004 C 
ENDBRANCH  17  18
ENDBRANCH  16  17
ENDBRANCH  15  16
ENDBRANCH  14  15
ENDBRANCH  13  14
ENDBRANCH  12  13
ENDBRANCH   1  12
TORSDOF 14
ENDMDL
MODEL 9
REMARK VINA RESULT:    -3.347     12.407     14.749
REMARK INTER + INTRA:          -8.514
REMARK INTER:                  -5.807
REMARK INTRA:                  -2.708
REMARK UNBOUND:                -2.428
REMARK SMILES CCCCCCCCCCCCCC[C@@H](C)C(=O)[O-]
REMARK SMILES IDX 9 1 10 2 11 3 12 4 13 5 14 6 15 7 16 8 17 9 18 10 19 11 8 12
REMARK SMILES IDX 7 13 6 14 5 15 4 16 3 17 2 18 1 19
REMARK H PARENT
REMARK Flexibility Score: inf
ROOT
ATOM      1  C   UNL     1      26.376   5.418  24.484  1.00  0.00     0.000 C 
ENDROOT
BRANCH   1   2
ATOM      2  C   UNL     1      26.095   6.707  23.694  1.00  0.00     0.000 C 
BRANCH   2   3
ATOM      3  C   UNL     1      27.187   7.773  23.891  1.00  0.00     0.000 C 
BRANCH   3   4
ATOM      4  C   UNL     1      26.629   9.179  24.210  1.00  0.00     0.000 C 
BRANCH   4   5
ATOM      5  C   UNL     1      27.417   9.875  25.333  1.00  0.00     0.001 C 
BRANCH   5   6
ATOM      6  C   UNL     1      28.220   8.888  26.201  1.00  0.00     0.009 C 
BRANCH   6   7
ATOM      7  C   UNL     1      29.060   9.557  27.313  1.00  0.00     0.032 C 
ATOM      8  C   UNL     1      29.283   8.582  28.474  1.00  0.00     0.014 C 
BRANCH   7   9
ATOM      9  C   UNL     1      30.388  10.037  26.788  1.00  0.00     0.044 C 
ATOM     10  O   UNL     1      30.813  11.181  27.098  1.00  0.00    -0.550 OA
ATOM     11  O   UNL     1      31.147   9.229  25.948  1.00  0.00    -0.550 OA
ENDBRANCH   7   9
ENDBRANCH   6   7
ENDBRANCH   5   6
ENDBRANCH   4   5
ENDBRANCH   3   4
ENDBRANCH   2   3
ENDBRANCH   1   2
BRANCH   1  12
ATOM     12  C   UNL     1      27.805   5.371  25.051  1.00  0.00     0.000 C 
BRANCH  12  13
ATOM     13  C   UNL     1      27.856   4.797  26.478  1.00  0.00    -0.000 C 
BRANCH  13  14
ATOM     14  C   UNL     1      27.178   5.714  27.513  1.00  0.00    -0.000 C 
BRANCH  14  15
ATOM     15  C   UNL     1      25.976   5.091  28.245  1.00  0.00    -0.000 C 
BRANCH  15  16
ATOM     16  C   UNL     1      24.805   6.073  28.417  1.00  0.00    -0.000 C 
BRANCH  16  17
ATOM     17  C   UNL     1      24.447   6.786  27.094  1.00  0.00    -0.000 C 
BRANCH  17  18
ATOM     18  C   UNL     1      24.498   8.320  27.188  1.00  0.00    -0.003 C 
ATOM     19  C   UNL     1      25.237   8.820  28.427  1.00  0.00     0.004 C 
ENDBRANCH  17  18
ENDBRANCH  16  17
ENDBRANCH  15  16
ENDBRANCH  14  15
ENDBRANCH  13  14
ENDBRANCH  12  13
ENDBRANCH   1  12
TORSDOF 14
ENDMDL
