MODEL 1
REMARK VINA RESULT:    -5.381      0.000      0.000
REMARK INTER + INTRA:          -7.312
REMARK INTER:                  -7.583
REMARK INTRA:                   0.271
REMARK UNBOUND:                 0.271
REMARK SMILES CC1=CCC(=C(C)C)C(=O)CC(C)=CCC1
REMARK SMILES IDX 12 1 14 2 13 3 15 4 16 5 2 6 1 7 3 8 11 10 9 11 10 12 5 13
REMARK SMILES IDX 6 14 7 15 8 16 4 17
REMARK H PARENT
REMARK Flexibility Score: 60.00
ROOT
ATOM      1  C   UNL     1     -20.701 -39.056  -6.134  1.00  0.00    -0.070 C 
ATOM      2  C   UNL     1     -20.757 -38.179  -5.107  1.00  0.00    -0.027 C 
ATOM      3  C   UNL     1     -21.916 -39.908  -6.400  1.00  0.00     0.039 C 
ENDROOT
BRANCH   2   4
ATOM      4  C   UNL     1     -19.684 -37.175  -4.743  1.00  0.00     0.032 C 
BRANCH   4   5
ATOM      5  C   UNL     1     -18.654 -37.675  -3.709  1.00  0.00     0.034 C 
BRANCH   5   6
ATOM      6  C   UNL     1     -17.217 -37.391  -4.111  1.00  0.00    -0.077 C 
ATOM      7  C   UNL     1     -16.686 -35.999  -3.873  1.00  0.00     0.039 C 
ATOM      8  C   UNL     1     -16.363 -38.321  -4.602  1.00  0.00    -0.023 CG0
ATOM      9  G   UNL     1     -16.677 -39.765  -4.938  1.00  0.00     0.000 G0
ENDBRANCH   5   6
ENDBRANCH   4   5
ENDBRANCH   2   4
BRANCH   1  10
ATOM     10  C   UNL     1     -19.520 -39.157  -7.077  1.00  0.00     0.111 C 
BRANCH  10  11
ATOM     11  C   UNL     1     -18.556 -40.230  -6.648  1.00  0.00     0.163 C 
ATOM     12  O   UNL     1     -18.987 -41.411  -6.547  1.00  0.00    -0.294 OA
BRANCH  11  13
ATOM     13  C   UNL     1     -17.109 -39.955  -6.401  1.00  0.00    -0.002 C 
ATOM     14  C   UNL     1     -16.240 -39.793  -7.444  1.00  0.00    -0.069 C 
ATOM     15  C   UNL     1     -16.675 -40.042  -8.872  1.00  0.00     0.039 C 
ATOM     16  C   UNL     1     -14.807 -39.359  -7.232  1.00  0.00     0.039 C 
BRANCH  13  17
ATOM     17  C   UNL     1     -16.673 -39.770  -4.956  1.00  0.00     0.066 CG0
ATOM     18  G   UNL     1     -16.365 -38.322  -4.629  1.00  0.00     0.000 G0
ENDBRANCH  13  17
ENDBRANCH  11  13
ENDBRANCH  10  11
ENDBRANCH   1  10
TORSDOF 0
ENDMDL
MODEL 2
REMARK VINA RESULT:    -5.049      2.318      5.418
REMARK INTER + INTRA:          -6.844
REMARK INTER:                  -7.301
REMARK INTRA:                   0.458
REMARK UNBOUND:                 0.271
REMARK SMILES CC1=CCC(=C(C)C)C(=O)CC(C)=CCC1
REMARK SMILES IDX 12 1 14 2 13 3 15 4 16 5 2 6 1 7 3 8 11 10 9 11 10 12 5 13
REMARK SMILES IDX 6 14 7 15 8 16 4 17
REMARK H PARENT
REMARK Flexibility Score: 60.00
ROOT
ATOM      1  C   UNL     1     -17.011 -37.214  -3.973  1.00  0.00    -0.070 C 
ATOM      2  C   UNL     1     -16.220 -38.150  -4.542  1.00  0.00    -0.027 C 
ATOM      3  C   UNL     1     -16.477 -35.807  -3.869  1.00  0.00     0.039 C 
ENDROOT
BRANCH   2   4
ATOM      4  C   UNL     1     -16.610 -39.585  -4.823  1.00  0.00     0.032 C 
BRANCH   4   5
ATOM      5  C   UNL     1     -17.398 -39.795  -6.133  1.00  0.00     0.034 C 
BRANCH   5   6
ATOM      6  C   UNL     1     -18.776 -40.395  -5.912  1.00  0.00    -0.077 C 
ATOM      7  C   UNL     1     -18.854 -41.857  -5.550  1.00  0.00     0.039 C 
ATOM      8  C   UNL     1     -19.932 -39.689  -5.951  1.00  0.00    -0.023 CG0
ATOM      9  G   UNL     1     -20.098 -38.225  -6.309  1.00  0.00     0.000 G0
ENDBRANCH   5   6
ENDBRANCH   4   5
ENDBRANCH   2   4
BRANCH   1  10
ATOM     10  C   UNL     1     -18.431 -37.488  -3.523  1.00  0.00     0.111 C 
BRANCH  10  11
ATOM     11  C   UNL     1     -19.432 -36.712  -4.337  1.00  0.00     0.163 C 
ATOM     12  O   UNL     1     -19.303 -35.460  -4.400  1.00  0.00    -0.294 OA
BRANCH  11  13
ATOM     13  C   UNL     1     -20.521 -37.377  -5.112  1.00  0.00    -0.002 C 
ATOM     14  C   UNL     1     -21.835 -37.150  -4.807  1.00  0.00    -0.069 C 
ATOM     15  C   UNL     1     -22.229 -36.352  -3.585  1.00  0.00     0.039 C 
ATOM     16  C   UNL     1     -22.959 -37.680  -5.669  1.00  0.00     0.039 C 
BRANCH  13  17
ATOM     17  C   UNL     1     -20.108 -38.228  -6.302  1.00  0.00     0.066 CG0
ATOM     18  G   UNL     1     -19.945 -39.690  -5.935  1.00  0.00     0.000 G0
ENDBRANCH  13  17
ENDBRANCH  11  13
ENDBRANCH  10  11
ENDBRANCH   1  10
TORSDOF 0
ENDMDL
MODEL 3
REMARK VINA RESULT:    -4.774      1.763      3.062
REMARK INTER + INTRA:          -6.457
REMARK INTER:                  -6.646
REMARK INTRA:                   0.189
REMARK UNBOUND:                 0.271
REMARK SMILES CC1=CCC(=C(C)C)C(=O)CC(C)=CCC1
REMARK SMILES IDX 12 1 14 2 13 3 15 4 16 5 2 6 1 7 3 8 11 10 9 11 10 12 5 13
REMARK SMILES IDX 6 14 7 15 8 16 4 17
REMARK H PARENT
REMARK Flexibility Score: 60.00
ROOT
ATOM      1  C   UNL     1     -20.595 -39.841  -6.967  1.00  0.00    -0.070 C 
ATOM      2  C   UNL     1     -21.796 -39.259  -6.753  1.00  0.00    -0.027 C 
ATOM      3  C   UNL     1     -20.579 -41.251  -7.501  1.00  0.00     0.039 C 
ENDROOT
BRANCH   2   4
ATOM      4  C   UNL     1     -22.020 -37.828  -6.316  1.00  0.00     0.032 C 
BRANCH   4   5
ATOM      5  C   UNL     1     -21.802 -37.570  -4.811  1.00  0.00     0.034 C 
BRANCH   5   6
ATOM      6  C   UNL     1     -20.808 -36.456  -4.533  1.00  0.00    -0.077 C 
ATOM      7  C   UNL     1     -21.219 -35.047  -4.882  1.00  0.00     0.039 C 
ATOM      8  C   UNL     1     -19.608 -36.635  -3.930  1.00  0.00    -0.023 CG0
ATOM      9  G   UNL     1     -18.983 -37.951  -3.512  1.00  0.00     0.000 G0
ENDBRANCH   5   6
ENDBRANCH   4   5
ENDBRANCH   2   4
BRANCH   1  10
ATOM     10  C   UNL     1     -19.277 -39.116  -6.785  1.00  0.00     0.111 C 
BRANCH  10  11
ATOM     11  C   UNL     1     -18.594 -39.520  -5.505  1.00  0.00     0.163 C 
ATOM     12  O   UNL     1     -18.461 -40.750  -5.265  1.00  0.00    -0.294 OA
BRANCH  11  13
ATOM     13  C   UNL     1     -18.020 -38.522  -4.555  1.00  0.00    -0.002 C 
ATOM     14  C   UNL     1     -16.731 -38.086  -4.692  1.00  0.00    -0.069 C 
ATOM     15  C   UNL     1     -15.796 -38.710  -5.705  1.00  0.00     0.039 C 
ATOM     16  C   UNL     1     -16.171 -36.964  -3.846  1.00  0.00     0.039 C 
BRANCH  13  17
ATOM     17  C   UNL     1     -18.953 -37.949  -3.500  1.00  0.00     0.066 CG0
ATOM     18  G   UNL     1     -19.594 -36.648  -3.944  1.00  0.00     0.000 G0
ENDBRANCH  13  17
ENDBRANCH  11  13
ENDBRANCH  10  11
ENDBRANCH   1  10
TORSDOF 0
ENDMDL
MODEL 4
REMARK VINA RESULT:    -4.744      1.818      3.912
REMARK INTER + INTRA:          -6.415
REMARK INTER:                  -6.696
REMARK INTRA:                   0.281
REMARK UNBOUND:                 0.271
REMARK SMILES CC1=CCC(=C(C)C)C(=O)CC(C)=CCC1
REMARK SMILES IDX 12 1 14 2 13 3 15 4 16 5 2 6 1 7 3 8 11 10 9 11 10 12 5 13
REMARK SMILES IDX 6 14 7 15 8 16 4 17
REMARK H PARENT
REMARK Flexibility Score: 60.00
ROOT
ATOM      1  C   UNL     1     -18.580 -37.504  -4.183  1.00  0.00    -0.070 C 
ATOM      2  C   UNL     1     -17.245 -37.375  -4.016  1.00  0.00    -0.027 C 
ATOM      3  C   UNL     1     -19.437 -36.278  -3.989  1.00  0.00     0.039 C 
ENDROOT
BRANCH   2   4
ATOM      4  C   UNL     1     -16.215 -38.456  -4.260  1.00  0.00     0.032 C 
BRANCH   4   5
ATOM      5  C   UNL     1     -15.775 -38.610  -5.730  1.00  0.00     0.034 C 
BRANCH   5   6
ATOM      6  C   UNL     1     -15.971 -40.016  -6.269  1.00  0.00    -0.077 C 
ATOM      7  C   UNL     1     -15.039 -41.093  -5.773  1.00  0.00     0.039 C 
ATOM      8  C   UNL     1     -16.969 -40.380  -7.111  1.00  0.00    -0.023 CG0
ATOM      9  G   UNL     1     -18.003 -39.473  -7.749  1.00  0.00     0.000 G0
ENDBRANCH   5   6
ENDBRANCH   4   5
ENDBRANCH   2   4
BRANCH   1  10
ATOM     10  C   UNL     1     -19.240 -38.788  -4.643  1.00  0.00     0.111 C 
BRANCH  10  11
ATOM     11  C   UNL     1     -19.759 -38.672  -6.052  1.00  0.00     0.163 C 
ATOM     12  O   UNL     1     -20.491 -37.687  -6.336  1.00  0.00    -0.294 OA
BRANCH  11  13
ATOM     13  C   UNL     1     -19.386 -39.642  -7.125  1.00  0.00    -0.002 C 
ATOM     14  C   UNL     1     -20.284 -40.574  -7.566  1.00  0.00    -0.069 C 
ATOM     15  C   UNL     1     -21.620 -40.761  -6.883  1.00  0.00     0.039 C 
ATOM     16  C   UNL     1     -19.994 -41.463  -8.755  1.00  0.00     0.039 C 
BRANCH  13  17
ATOM     17  C   UNL     1     -18.015 -39.483  -7.761  1.00  0.00     0.066 CG0
ATOM     18  G   UNL     1     -16.970 -40.364  -7.105  1.00  0.00     0.000 G0
ENDBRANCH  13  17
ENDBRANCH  11  13
ENDBRANCH  10  11
ENDBRANCH   1  10
TORSDOF 0
ENDMDL
MODEL 5
REMARK VINA RESULT:    -4.725      1.530      4.025
REMARK INTER + INTRA:          -6.388
REMARK INTER:                  -6.891
REMARK INTRA:                   0.503
REMARK UNBOUND:                 0.271
REMARK SMILES CC1=CCC(=C(C)C)C(=O)CC(C)=CCC1
REMARK SMILES IDX 12 1 14 2 13 3 15 4 16 5 2 6 1 7 3 8 11 10 9 11 10 12 5 13
REMARK SMILES IDX 6 14 7 15 8 16 4 17
REMARK H PARENT
REMARK Flexibility Score: 60.00
ROOT
ATOM      1  C   UNL     1     -20.236 -40.316  -7.711  1.00  0.00    -0.070 C 
ATOM      2  C   UNL     1     -19.441 -40.631  -8.758  1.00  0.00    -0.027 C 
ATOM      3  C   UNL     1     -21.363 -41.258  -7.371  1.00  0.00     0.039 C 
ENDROOT
BRANCH   2   4
ATOM      4  C   UNL     1     -18.208 -39.869  -9.193  1.00  0.00     0.032 C 
BRANCH   4   5
ATOM      5  C   UNL     1     -16.873 -40.598  -8.934  1.00  0.00     0.034 C 
BRANCH   5   6
ATOM      6  C   UNL     1     -16.858 -41.373  -7.628  1.00  0.00    -0.077 C 
ATOM      7  C   UNL     1     -16.944 -42.877  -7.705  1.00  0.00     0.039 C 
ATOM      8  C   UNL     1     -16.703 -40.809  -6.406  1.00  0.00    -0.023 CG0
ATOM      9  G   UNL     1     -16.616 -39.330  -6.086  1.00  0.00     0.000 G0
ENDBRANCH   5   6
ENDBRANCH   4   5
ENDBRANCH   2   4
BRANCH   1  10
ATOM     10  C   UNL     1     -19.993 -39.119  -6.815  1.00  0.00     0.111 C 
BRANCH  10  11
ATOM     11  C   UNL     1     -19.148 -39.480  -5.622  1.00  0.00     0.163 C 
ATOM     12  O   UNL     1     -19.539 -40.421  -4.880  1.00  0.00    -0.294 OA
BRANCH  11  13
ATOM     13  C   UNL     1     -17.846 -38.809  -5.329  1.00  0.00    -0.002 C 
ATOM     14  C   UNL     1     -17.761 -37.834  -4.375  1.00  0.00    -0.069 C 
ATOM     15  C   UNL     1     -19.000 -37.290  -3.697  1.00  0.00     0.039 C 
ATOM     16  C   UNL     1     -16.435 -37.248  -3.945  1.00  0.00     0.039 C 
BRANCH  13  17
ATOM     17  C   UNL     1     -16.619 -39.323  -6.065  1.00  0.00     0.066 CG0
ATOM     18  G   UNL     1     -16.720 -40.798  -6.394  1.00  0.00     0.000 G0
ENDBRANCH  13  17
ENDBRANCH  11  13
ENDBRANCH  10  11
ENDBRANCH   1  10
TORSDOF 0
ENDMDL
MODEL 6
REMARK VINA RESULT:    -4.694      2.037      3.999
REMARK INTER + INTRA:          -6.344
REMARK INTER:                  -6.819
REMARK INTRA:                   0.475
REMARK UNBOUND:                 0.271
REMARK SMILES CC1=CCC(=C(C)C)C(=O)CC(C)=CCC1
REMARK SMILES IDX 12 1 14 2 13 3 15 4 16 5 2 6 1 7 3 8 11 10 9 11 10 12 5 13
REMARK SMILES IDX 6 14 7 15 8 16 4 17
REMARK H PARENT
REMARK Flexibility Score: 60.00
ROOT
ATOM      1  C   UNL     1     -18.044 -37.095  -4.156  1.00  0.00    -0.070 C 
ATOM      2  C   UNL     1     -19.171 -36.358  -4.275  1.00  0.00    -0.027 C 
ATOM      3  C   UNL     1     -16.761 -36.373  -3.830  1.00  0.00     0.039 C 
ENDROOT
BRANCH   2   4
ATOM      4  C   UNL     1     -20.564 -36.905  -4.499  1.00  0.00     0.032 C 
BRANCH   4   5
ATOM      5  C   UNL     1     -20.903 -37.227  -5.970  1.00  0.00     0.034 C 
BRANCH   5   6
ATOM      6  C   UNL     1     -21.220 -38.693  -6.203  1.00  0.00    -0.077 C 
ATOM      7  C   UNL     1     -22.566 -39.200  -5.750  1.00  0.00     0.039 C 
ATOM      8  C   UNL     1     -20.403 -39.558  -6.853  1.00  0.00    -0.023 CG0
ATOM      9  G   UNL     1     -19.008 -39.279  -7.376  1.00  0.00     0.000 G0
ENDBRANCH   5   6
ENDBRANCH   4   5
ENDBRANCH   2   4
BRANCH   1  10
ATOM     10  C   UNL     1     -18.026 -38.607  -4.244  1.00  0.00     0.111 C 
BRANCH  10  11
ATOM     11  C   UNL     1     -17.285 -39.084  -5.465  1.00  0.00     0.163 C 
ATOM     12  O   UNL     1     -16.063 -38.790  -5.570  1.00  0.00    -0.294 OA
BRANCH  11  13
ATOM     13  C   UNL     1     -17.926 -39.936  -6.510  1.00  0.00    -0.002 C 
ATOM     14  C   UNL     1     -17.620 -41.265  -6.612  1.00  0.00    -0.069 C 
ATOM     15  C   UNL     1     -16.515 -41.882  -5.784  1.00  0.00     0.039 C 
ATOM     16  C   UNL     1     -18.365 -42.187  -7.552  1.00  0.00     0.039 C 
BRANCH  13  17
ATOM     17  C   UNL     1     -18.991 -39.288  -7.379  1.00  0.00     0.066 CG0
ATOM     18  G   UNL     1     -20.392 -39.545  -6.862  1.00  0.00     0.000 G0
ENDBRANCH  13  17
ENDBRANCH  11  13
ENDBRANCH  10  11
ENDBRANCH   1  10
TORSDOF 0
ENDMDL
MODEL 7
REMARK VINA RESULT:    -4.672      1.696      3.572
REMARK INTER + INTRA:          -6.313
REMARK INTER:                  -6.894
REMARK INTRA:                   0.580
REMARK UNBOUND:                 0.271
REMARK SMILES CC1=CCC(=C(C)C)C(=O)CC(C)=CCC1
REMARK SMILES IDX 12 1 14 2 13 3 15 4 16 5 2 6 1 7 3 8 11 10 9 11 10 12 5 13
REMARK SMILES IDX 6 14 7 15 8 16 4 17
REMARK H PARENT
REMARK Flexibility Score: 60.00
ROOT
ATOM      1  C   UNL     1     -15.896 -38.713  -5.107  1.00  0.00    -0.070 C 
ATOM      2  C   UNL     1     -16.429 -37.552  -4.668  1.00  0.00    -0.027 C 
ATOM      3  C   UNL     1     -14.639 -38.643  -5.938  1.00  0.00     0.039 C 
ENDROOT
BRANCH   2   4
ATOM      4  C   UNL     1     -17.622 -37.419  -3.746  1.00  0.00     0.032 C 
BRANCH   4   5
ATOM      5  C   UNL     1     -18.684 -38.528  -3.900  1.00  0.00     0.034 C 
BRANCH   5   6
ATOM      6  C   UNL     1     -19.675 -38.257  -5.018  1.00  0.00    -0.077 C 
ATOM      7  C   UNL     1     -20.388 -36.928  -5.015  1.00  0.00     0.039 C 
ATOM      8  C   UNL     1     -19.908 -39.099  -6.054  1.00  0.00    -0.023 CG0
ATOM      9  G   UNL     1     -19.326 -40.484  -6.255  1.00  0.00     0.000 G0
ENDBRANCH   5   6
ENDBRANCH   4   5
ENDBRANCH   2   4
BRANCH   1  10
ATOM     10  C   UNL     1     -16.443 -40.074  -4.729  1.00  0.00     0.111 C 
BRANCH  10  11
ATOM     11  C   UNL     1     -16.812 -40.882  -5.945  1.00  0.00     0.163 C 
ATOM     12  O   UNL     1     -16.175 -41.946  -6.167  1.00  0.00    -0.294 OA
BRANCH  11  13
ATOM     13  C   UNL     1     -17.936 -40.498  -6.851  1.00  0.00    -0.002 C 
ATOM     14  C   UNL     1     -17.711 -40.242  -8.174  1.00  0.00    -0.069 C 
ATOM     15  C   UNL     1     -16.307 -40.181  -8.734  1.00  0.00     0.039 C 
ATOM     16  C   UNL     1     -18.845 -40.006  -9.148  1.00  0.00     0.039 C 
BRANCH  13  17
ATOM     17  C   UNL     1     -19.337 -40.501  -6.260  1.00  0.00     0.066 CG0
ATOM     18  G   UNL     1     -19.888 -39.102  -6.076  1.00  0.00     0.000 G0
ENDBRANCH  13  17
ENDBRANCH  11  13
ENDBRANCH  10  11
ENDBRANCH   1  10
TORSDOF 0
ENDMDL
MODEL 8
REMARK VINA RESULT:    -4.598      2.440      4.635
REMARK INTER + INTRA:          -6.208
REMARK INTER:                  -6.647
REMARK INTRA:                   0.439
REMARK UNBOUND:                 0.271
REMARK SMILES CC1=CCC(=C(C)C)C(=O)CC(C)=CCC1
REMARK SMILES IDX 12 1 14 2 13 3 15 4 16 5 2 6 1 7 3 8 11 10 9 11 10 12 5 13
REMARK SMILES IDX 6 14 7 15 8 16 4 17
REMARK H PARENT
REMARK Flexibility Score: 60.00
ROOT
ATOM      1  C   UNL     1     -17.494 -37.902  -4.282  1.00  0.00    -0.070 C 
ATOM      2  C   UNL     1     -18.118 -36.807  -3.792  1.00  0.00    -0.027 C 
ATOM      3  C   UNL     1     -16.000 -37.833  -4.479  1.00  0.00     0.039 C 
ENDROOT
BRANCH   2   4
ATOM      4  C   UNL     1     -19.585 -36.713  -3.436  1.00  0.00     0.032 C 
BRANCH   4   5
ATOM      5  C   UNL     1     -20.470 -36.046  -4.510  1.00  0.00     0.034 C 
BRANCH   5   6
ATOM      6  C   UNL     1     -21.772 -36.789  -4.757  1.00  0.00    -0.077 C 
ATOM      7  C   UNL     1     -22.950 -36.450  -3.878  1.00  0.00     0.039 C 
ATOM      8  C   UNL     1     -21.964 -37.682  -5.758  1.00  0.00    -0.023 CG0
ATOM      9  G   UNL     1     -20.929 -38.187  -6.743  1.00  0.00     0.000 G0
ENDBRANCH   5   6
ENDBRANCH   4   5
ENDBRANCH   2   4
BRANCH   1  10
ATOM     10  C   UNL     1     -18.204 -39.212  -4.554  1.00  0.00     0.111 C 
BRANCH  10  11
ATOM     11  C   UNL     1     -18.741 -39.272  -5.959  1.00  0.00     0.163 C 
ATOM     12  O   UNL     1     -17.916 -39.246  -6.911  1.00  0.00    -0.294 OA
BRANCH  11  13
ATOM     13  C   UNL     1     -20.197 -39.424  -6.254  1.00  0.00    -0.002 C 
ATOM     14  C   UNL     1     -20.842 -40.603  -6.002  1.00  0.00    -0.069 C 
ATOM     15  C   UNL     1     -20.081 -41.836  -5.567  1.00  0.00     0.039 C 
ATOM     16  C   UNL     1     -22.342 -40.739  -6.140  1.00  0.00     0.039 C 
BRANCH  13  17
ATOM     17  C   UNL     1     -20.937 -38.193  -6.752  1.00  0.00     0.066 CG0
ATOM     18  G   UNL     1     -21.960 -37.693  -5.751  1.00  0.00     0.000 G0
ENDBRANCH  13  17
ENDBRANCH  11  13
ENDBRANCH  10  11
ENDBRANCH   1  10
TORSDOF 0
ENDMDL
MODEL 9
REMARK VINA RESULT:    -4.587      1.292      4.110
REMARK INTER + INTRA:          -6.193
REMARK INTER:                  -6.621
REMARK INTRA:                   0.428
REMARK UNBOUND:                 0.271
REMARK SMILES CC1=CCC(=C(C)C)C(=O)CC(C)=CCC1
REMARK SMILES IDX 12 1 14 2 13 3 15 4 16 5 2 6 1 7 3 8 11 10 9 11 10 12 5 13
REMARK SMILES IDX 6 14 7 15 8 16 4 17
REMARK H PARENT
REMARK Flexibility Score: 60.00
ROOT
ATOM      1  C   UNL     1     -17.691 -40.496  -8.592  1.00  0.00    -0.070 C 
ATOM      2  C   UNL     1     -16.350 -40.491  -8.420  1.00  0.00    -0.027 C 
ATOM      3  C   UNL     1     -18.321 -41.732  -9.183  1.00  0.00     0.039 C 
ENDROOT
BRANCH   2   4
ATOM      4  C   UNL     1     -15.549 -39.391  -7.758  1.00  0.00     0.032 C 
BRANCH   4   5
ATOM      5  C   UNL     1     -14.804 -39.817  -6.476  1.00  0.00     0.034 C 
BRANCH   5   6
ATOM      6  C   UNL     1     -15.693 -40.537  -5.478  1.00  0.00    -0.077 C 
ATOM      7  C   UNL     1     -15.303 -41.937  -5.074  1.00  0.00     0.039 C 
ATOM      8  C   UNL     1     -16.773 -39.981  -4.876  1.00  0.00    -0.023 CG0
ATOM      9  G   UNL     1     -17.359 -38.608  -5.137  1.00  0.00     0.000 G0
ENDBRANCH   5   6
ENDBRANCH   4   5
ENDBRANCH   2   4
BRANCH   1  10
ATOM     10  C   UNL     1     -18.592 -39.366  -8.137  1.00  0.00     0.111 C 
BRANCH  10  11
ATOM     11  C   UNL     1     -19.104 -39.592  -6.740  1.00  0.00     0.163 C 
ATOM     12  O   UNL     1     -19.767 -40.639  -6.512  1.00  0.00    -0.294 OA
BRANCH  11  13
ATOM     13  C   UNL     1     -18.801 -38.657  -5.615  1.00  0.00    -0.002 C 
ATOM     14  C   UNL     1     -19.800 -37.948  -5.008  1.00  0.00    -0.069 C 
ATOM     15  C   UNL     1     -21.213 -37.962  -5.549  1.00  0.00     0.039 C 
ATOM     16  C   UNL     1     -19.551 -37.116  -3.769  1.00  0.00     0.039 C 
BRANCH  13  17
ATOM     17  C   UNL     1     -17.364 -38.605  -5.122  1.00  0.00     0.066 CG0
ATOM     18  G   UNL     1     -16.791 -39.985  -4.870  1.00  0.00     0.000 G0
ENDBRANCH  13  17
ENDBRANCH  11  13
ENDBRANCH  10  11
ENDBRANCH   1  10
TORSDOF 0
ENDMDL
