MODEL 1
REMARK VINA RESULT:    -5.457      0.000      0.000
REMARK INTER + INTRA:          -6.137
REMARK INTER:                  -5.935
REMARK INTRA:                  -0.202
REMARK UNBOUND:                -0.202
REMARK SMILES C[C@H]1[C@H](C)CC[C@]2(C(=O)[O-])CC[C@@]3(C)C(=CC[C@@H]4[C@@]5(C)CC[C@@H](O)C(C)(C)[C@@H]5CC[C@@]43C)[C@H]12
REMARK SMILES IDX 7 1 6 2 11 3 33 4 5 5 12 6 15 7 2 8 3 9 13 10 16 11 1 12
REMARK SMILES IDX 4 13 14 14 31 15 17 16 18 17 30 18 32 19 19 20 29 21 28 22
REMARK SMILES IDX 21 23 20 24 25 25 22 26 23 27 26 28 27 29 8 30 9 31 10 32
REMARK SMILES IDX 24 33
REMARK H PARENT 24 34
REMARK Flexibility Score: inf
ROOT
ATOM      1  C   UNL     1      42.032  18.660  -2.653  1.00  0.00     0.017 C 
ATOM      2  C   UNL     1      42.290  20.146  -2.283  1.00  0.00     0.014 C 
ATOM      3  C   UNL     1      42.945  17.808  -1.701  1.00  0.00     0.014 C 
ATOM      4  C   UNL     1      42.347  18.317  -4.178  1.00  0.00     0.030 C 
ATOM      5  C   UNL     1      41.830  21.133  -3.348  1.00  0.00     0.004 C 
ATOM      6  C   UNL     1      43.007  16.299  -2.041  1.00  0.00     0.013 C 
ATOM      7  C   UNL     1      43.494  17.295  -4.274  1.00  0.00    -0.063 C 
ATOM      8  C   UNL     1      42.377  19.497  -5.240  1.00  0.00    -0.003 C 
ATOM      9  C   UNL     1      42.585  20.929  -4.665  1.00  0.00    -0.011 C 
ATOM     10  C   UNL     1      43.253  15.949  -3.568  1.00  0.00    -0.006 C 
ATOM     11  C   UNL     1      44.749  17.730  -4.470  1.00  0.00    -0.027 C 
ATOM     12  C   UNL     1      41.106  19.486  -6.124  1.00  0.00     0.008 C 
ATOM     13  C   UNL     1      44.066  21.335  -4.558  1.00  0.00     0.008 C 
ATOM     14  C   UNL     1      41.943  15.305  -4.140  1.00  0.00     0.017 C 
ATOM     15  C   UNL     1      44.462  14.900  -3.767  1.00  0.00    -0.020 C 
ATOM     16  C   UNL     1      45.965  16.874  -4.388  1.00  0.00     0.032 C 
ATOM     17  C   UNL     1      45.865  15.593  -3.497  1.00  0.00     0.006 C 
ATOM     18  C   UNL     1      44.502  14.362  -5.252  1.00  0.00     0.008 C 
ATOM     19  C   UNL     1      44.193  13.688  -2.788  1.00  0.00     0.012 C 
ATOM     20  C   UNL     1      47.160  14.624  -3.684  1.00  0.00    -0.025 C 
ATOM     21  C   UNL     1      45.854  13.745  -5.720  1.00  0.00     0.005 C 
ATOM     22  C   UNL     1      46.771  13.358  -4.540  1.00  0.00     0.003 C 
ATOM     23  C   UNL     1      47.710  14.136  -2.290  1.00  0.00     0.010 C 
ATOM     24  C   UNL     1      48.347  15.405  -4.351  1.00  0.00     0.012 C 
ATOM     25  C   UNL     1      47.920  12.306  -4.830  1.00  0.00    -0.006 C 
ATOM     26  C   UNL     1      48.239  12.679  -2.269  1.00  0.00     0.033 C 
ATOM     27  C   UNL     1      48.910  12.243  -3.598  1.00  0.00     0.120 C 
ATOM     28  C   UNL     1      47.273  10.903  -5.047  1.00  0.00     0.014 C 
ATOM     29  C   UNL     1      48.706  12.628  -6.125  1.00  0.00     0.014 C 
ENDROOT
BRANCH   1  30
ATOM     30  C   UNL     1      40.565  18.358  -2.339  1.00  0.00     0.048 C 
ATOM     31  O   UNL     1      39.906  17.567  -3.063  1.00  0.00    -0.550 OA
ATOM     32  O   UNL     1      39.907  19.005  -1.297  1.00  0.00    -0.550 OA
ENDBRANCH   1  30
BRANCH  27  33
ATOM     33  O   UNL     1      49.516  10.976  -3.463  1.00  0.00    -0.393 OA
ATOM     34  H   UNL     1      50.406  11.003  -3.903  1.00  0.00     0.210 HD
ENDBRANCH  27  33
TORSDOF 2
ENDMDL
MODEL 2
REMARK VINA RESULT:    -5.071      1.510      8.013
REMARK INTER + INTRA:          -5.718
REMARK INTER:                  -5.456
REMARK INTRA:                  -0.262
REMARK UNBOUND:                -0.202
REMARK SMILES C[C@H]1[C@H](C)CC[C@]2(C(=O)[O-])CC[C@@]3(C)C(=CC[C@@H]4[C@@]5(C)CC[C@@H](O)C(C)(C)[C@@H]5CC[C@@]43C)[C@H]12
REMARK SMILES IDX 7 1 6 2 11 3 33 4 5 5 12 6 15 7 2 8 3 9 13 10 16 11 1 12
REMARK SMILES IDX 4 13 14 14 31 15 17 16 18 17 30 18 32 19 19 20 29 21 28 22
REMARK SMILES IDX 21 23 20 24 25 25 22 26 23 27 26 28 27 29 8 30 9 31 10 32
REMARK SMILES IDX 24 33
REMARK H PARENT 24 34
REMARK Flexibility Score: inf
ROOT
ATOM      1  C   UNL     1      46.715  12.965  -5.080  1.00  0.00     0.017 C 
ATOM      2  C   UNL     1      48.091  12.924  -5.801  1.00  0.00     0.014 C 
ATOM      3  C   UNL     1      45.731  13.698  -6.060  1.00  0.00     0.014 C 
ATOM      4  C   UNL     1      46.754  13.712  -3.672  1.00  0.00     0.030 C 
ATOM      5  C   UNL     1      49.262  12.637  -4.871  1.00  0.00     0.004 C 
ATOM      6  C   UNL     1      44.348  14.041  -5.455  1.00  0.00     0.013 C 
ATOM      7  C   UNL     1      45.860  14.965  -3.702  1.00  0.00    -0.063 C 
ATOM      8  C   UNL     1      48.145  13.868  -2.923  1.00  0.00    -0.003 C 
ATOM      9  C   UNL     1      49.417  13.732  -3.810  1.00  0.00    -0.011 C 
ATOM     10  C   UNL     1      44.375  14.722  -4.024  1.00  0.00    -0.006 C 
ATOM     11  C   UNL     1      46.412  16.161  -3.963  1.00  0.00    -0.027 C 
ATOM     12  C   UNL     1      48.251  12.886  -1.731  1.00  0.00     0.008 C 
ATOM     13  C   UNL     1      49.887  15.068  -4.413  1.00  0.00     0.008 C 
ATOM     14  C   UNL     1      43.793  13.702  -2.985  1.00  0.00     0.017 C 
ATOM     15  C   UNL     1      43.484  16.065  -3.969  1.00  0.00    -0.020 C 
ATOM     16  C   UNL     1      45.644  17.412  -4.214  1.00  0.00     0.032 C 
ATOM     17  C   UNL     1      44.189  17.247  -4.762  1.00  0.00     0.006 C 
ATOM     18  C   UNL     1      43.305  16.563  -2.481  1.00  0.00     0.008 C 
ATOM     19  C   UNL     1      42.064  15.706  -4.566  1.00  0.00     0.012 C 
ATOM     20  C   UNL     1      43.378  18.659  -4.760  1.00  0.00    -0.025 C 
ATOM     21  C   UNL     1      42.904  18.058  -2.303  1.00  0.00     0.005 C 
ATOM     22  C   UNL     1      42.319  18.674  -3.592  1.00  0.00     0.003 C 
ATOM     23  C   UNL     1      42.622  18.882  -6.124  1.00  0.00     0.010 C 
ATOM     24  C   UNL     1      44.370  19.869  -4.630  1.00  0.00     0.012 C 
ATOM     25  C   UNL     1      41.442  19.985  -3.434  1.00  0.00    -0.006 C 
ATOM     26  C   UNL     1      41.238  19.569  -6.000  1.00  0.00     0.033 C 
ATOM     27  C   UNL     1      41.164  20.615  -4.858  1.00  0.00     0.120 C 
ATOM     28  C   UNL     1      40.086  19.603  -2.763  1.00  0.00     0.014 C 
ATOM     29  C   UNL     1      42.104  21.035  -2.509  1.00  0.00     0.014 C 
ENDROOT
BRANCH   1  30
ATOM     30  C   UNL     1      46.251  11.519  -4.897  1.00  0.00     0.048 C 
ATOM     31  O   UNL     1      45.764  10.876  -5.864  1.00  0.00    -0.550 OA
ATOM     32  O   UNL     1      46.283  10.909  -3.646  1.00  0.00    -0.550 OA
ENDBRANCH   1  30
BRANCH  27  33
ATOM     33  O   UNL     1      39.945  21.322  -4.900  1.00  0.00    -0.393 OA
ATOM     34  H   UNL     1      40.098  22.190  -5.358  1.00  0.00     0.210 HD
ENDBRANCH  27  33
TORSDOF 2
ENDMDL
MODEL 3
REMARK VINA RESULT:    -4.287      1.907      8.071
REMARK INTER + INTRA:          -4.865
REMARK INTER:                  -4.588
REMARK INTRA:                  -0.276
REMARK UNBOUND:                -0.202
REMARK SMILES C[C@H]1[C@H](C)CC[C@]2(C(=O)[O-])CC[C@@]3(C)C(=CC[C@@H]4[C@@]5(C)CC[C@@H](O)C(C)(C)[C@@H]5CC[C@@]43C)[C@H]12
REMARK SMILES IDX 7 1 6 2 11 3 33 4 5 5 12 6 15 7 2 8 3 9 13 10 16 11 1 12
REMARK SMILES IDX 4 13 14 14 31 15 17 16 18 17 30 18 32 19 19 20 29 21 28 22
REMARK SMILES IDX 21 23 20 24 25 25 22 26 23 27 26 28 27 29 8 30 9 31 10 32
REMARK SMILES IDX 24 33
REMARK H PARENT 24 34
REMARK Flexibility Score: inf
ROOT
ATOM      1  C   UNL     1      46.802  12.846  -4.354  1.00  0.00     0.017 C 
ATOM      2  C   UNL     1      48.207  12.687  -3.709  1.00  0.00     0.014 C 
ATOM      3  C   UNL     1      46.841  14.193  -5.161  1.00  0.00     0.014 C 
ATOM      4  C   UNL     1      45.612  12.870  -3.293  1.00  0.00     0.030 C 
ATOM      5  C   UNL     1      48.247  11.682  -2.565  1.00  0.00     0.004 C 
ATOM      6  C   UNL     1      45.473  14.659  -5.713  1.00  0.00     0.013 C 
ATOM      7  C   UNL     1      44.885  14.226  -3.329  1.00  0.00    -0.063 C 
ATOM      8  C   UNL     1      45.854  12.249  -1.852  1.00  0.00    -0.003 C 
ATOM      9  C   UNL     1      47.341  12.113  -1.408  1.00  0.00    -0.011 C 
ATOM     10  C   UNL     1      44.268  14.620  -4.683  1.00  0.00    -0.006 C 
ATOM     11  C   UNL     1      45.228  15.180  -2.449  1.00  0.00    -0.027 C 
ATOM     12  C   UNL     1      45.156  10.875  -1.710  1.00  0.00     0.008 C 
ATOM     13  C   UNL     1      47.876  13.358  -0.678  1.00  0.00     0.008 C 
ATOM     14  C   UNL     1      43.274  13.494  -5.133  1.00  0.00     0.017 C 
ATOM     15  C   UNL     1      43.463  16.017  -4.632  1.00  0.00    -0.020 C 
ATOM     16  C   UNL     1      44.750  16.590  -2.498  1.00  0.00     0.032 C 
ATOM     17  C   UNL     1      44.314  17.137  -3.896  1.00  0.00     0.006 C 
ATOM     18  C   UNL     1      42.118  15.862  -3.817  1.00  0.00     0.008 C 
ATOM     19  C   UNL     1      43.117  16.409  -6.125  1.00  0.00     0.012 C 
ATOM     20  C   UNL     1      43.587  18.589  -3.777  1.00  0.00    -0.025 C 
ATOM     21  C   UNL     1      41.491  17.182  -3.276  1.00  0.00     0.005 C 
ATOM     22  C   UNL     1      42.032  18.436  -3.995  1.00  0.00     0.003 C 
ATOM     23  C   UNL     1      44.146  19.594  -4.854  1.00  0.00     0.010 C 
ATOM     24  C   UNL     1      43.893  19.252  -2.388  1.00  0.00     0.012 C 
ATOM     25  C   UNL     1      41.161  19.756  -3.903  1.00  0.00    -0.006 C 
ATOM     26  C   UNL     1      43.093  20.558  -5.459  1.00  0.00     0.033 C 
ATOM     27  C   UNL     1      41.992  20.984  -4.454  1.00  0.00     0.120 C 
ATOM     28  C   UNL     1      39.875  19.571  -4.768  1.00  0.00     0.014 C 
ATOM     29  C   UNL     1      40.676  20.049  -2.462  1.00  0.00     0.014 C 
ENDROOT
BRANCH   1  30
ATOM     30  C   UNL     1      46.613  11.684  -5.332  1.00  0.00     0.048 C 
ATOM     31  O   UNL     1      45.511  11.079  -5.399  1.00  0.00    -0.550 OA
ATOM     32  O   UNL     1      47.671  11.222  -6.109  1.00  0.00    -0.550 OA
ENDBRANCH   1  30
BRANCH  27  33
ATOM     33  O   UNL     1      41.165  21.984  -5.007  1.00  0.00    -0.393 OA
ATOM     34  H   UNL     1      41.135  21.860  -5.993  1.00  0.00     0.210 HD
ENDBRANCH  27  33
TORSDOF 2
ENDMDL
MODEL 4
REMARK VINA RESULT:    -2.959      1.813      8.078
REMARK INTER + INTRA:          -3.421
REMARK INTER:                  -3.101
REMARK INTRA:                  -0.320
REMARK UNBOUND:                -0.202
REMARK SMILES C[C@H]1[C@H](C)CC[C@]2(C(=O)[O-])CC[C@@]3(C)C(=CC[C@@H]4[C@@]5(C)CC[C@@H](O)C(C)(C)[C@@H]5CC[C@@]43C)[C@H]12
REMARK SMILES IDX 7 1 6 2 11 3 33 4 5 5 12 6 15 7 2 8 3 9 13 10 16 11 1 12
REMARK SMILES IDX 4 13 14 14 31 15 17 16 18 17 30 18 32 19 19 20 29 21 28 22
REMARK SMILES IDX 21 23 20 24 25 25 22 26 23 27 26 28 27 29 8 30 9 31 10 32
REMARK SMILES IDX 24 33
REMARK H PARENT 24 34
REMARK Flexibility Score: inf
ROOT
ATOM      1  C   UNL     1      46.723  13.302  -3.412  1.00  0.00     0.017 C 
ATOM      2  C   UNL     1      46.571  12.228  -2.299  1.00  0.00     0.014 C 
ATOM      3  C   UNL     1      46.766  14.689  -2.678  1.00  0.00     0.014 C 
ATOM      4  C   UNL     1      45.546  13.279  -4.487  1.00  0.00     0.030 C 
ATOM      5  C   UNL     1      46.096  10.875  -2.812  1.00  0.00     0.004 C 
ATOM      6  C   UNL     1      46.701  15.921  -3.613  1.00  0.00     0.013 C 
ATOM      7  C   UNL     1      44.759  14.602  -4.451  1.00  0.00    -0.063 C 
ATOM      8  C   UNL     1      44.680  11.958  -4.650  1.00  0.00    -0.003 C 
ATOM      9  C   UNL     1      44.705  10.972  -3.445  1.00  0.00    -0.011 C 
ATOM     10  C   UNL     1      45.576  15.875  -4.729  1.00  0.00    -0.006 C 
ATOM     11  C   UNL     1      43.631  14.676  -3.727  1.00  0.00    -0.027 C 
ATOM     12  C   UNL     1      45.065  11.193  -5.939  1.00  0.00     0.008 C 
ATOM     13  C   UNL     1      43.607  11.253  -2.404  1.00  0.00     0.008 C 
ATOM     14  C   UNL     1      46.276  15.733  -6.125  1.00  0.00     0.017 C 
ATOM     15  C   UNL     1      44.678  17.215  -4.746  1.00  0.00    -0.020 C 
ATOM     16  C   UNL     1      42.885  15.935  -3.448  1.00  0.00     0.032 C 
ATOM     17  C   UNL     1      43.707  17.264  -3.491  1.00  0.00     0.006 C 
ATOM     18  C   UNL     1      43.760  17.262  -6.031  1.00  0.00     0.008 C 
ATOM     19  C   UNL     1      45.675  18.443  -4.782  1.00  0.00     0.012 C 
ATOM     20  C   UNL     1      42.742  18.574  -3.417  1.00  0.00    -0.025 C 
ATOM     21  C   UNL     1      42.524  18.207  -5.955  1.00  0.00     0.005 C 
ATOM     22  C   UNL     1      42.649  19.261  -4.833  1.00  0.00     0.003 C 
ATOM     23  C   UNL     1      43.294  19.628  -2.385  1.00  0.00     0.010 C 
ATOM     24  C   UNL     1      41.315  18.184  -2.892  1.00  0.00     0.012 C 
ATOM     25  C   UNL     1      41.739  20.552  -4.948  1.00  0.00    -0.006 C 
ATOM     26  C   UNL     1      43.105  21.111  -2.798  1.00  0.00     0.033 C 
ATOM     27  C   UNL     1      41.800  21.371  -3.595  1.00  0.00     0.120 C 
ATOM     28  C   UNL     1      42.271  21.441  -6.115  1.00  0.00     0.014 C 
ATOM     29  C   UNL     1      40.268  20.213  -5.295  1.00  0.00     0.014 C 
ENDROOT
BRANCH   1  30
ATOM     30  C   UNL     1      48.069  13.060  -4.099  1.00  0.00     0.048 C 
ATOM     31  O   UNL     1      49.131  13.006  -3.425  1.00  0.00    -0.550 OA
ATOM     32  O   UNL     1      48.160  12.972  -5.486  1.00  0.00    -0.550 OA
ENDBRANCH   1  30
BRANCH  27  33
ATOM     33  O   UNL     1      41.600  22.752  -3.797  1.00  0.00    -0.393 OA
ATOM     34  H   UNL     1      40.941  23.077  -3.129  1.00  0.00     0.210 HD
ENDBRANCH  27  33
TORSDOF 2
ENDMDL
