MODEL 1
REMARK VINA RESULT:    -4.405      0.000      0.000
REMARK INTER + INTRA:          -8.007
REMARK INTER:                  -6.979
REMARK INTRA:                  -1.027
REMARK UNBOUND:                -1.027
REMARK SMILES C[C@@H]1O[C@@H](O[C@@H]2CC[C@@]3(C)[C@H](CC[C@]4(C)[C@H]3C=C[C@@]35OC[C@]6(CCC(C)(C)C[C@H]63)[C@H](O)C[C@@]45C)[C@@]2(C)CO)[C@H](O)[C@H](O[C@H]2O[C@@H](CO)[C@@H](O)[C@H](O)[C@@H]2O)[C@H]1O
REMARK SMILES IDX 1 1 2 2 54 3 41 4 39 5 4 6 3 7 55 8 42 10 43 11 52 12 44 13
REMARK SMILES IDX 50 14 45 15 48 16 53 17 51 19 46 21 47 22 49 24 5 26 6 27
REMARK SMILES IDX 7 28 35 29 8 30 11 31 36 32 9 33 12 34 10 35 16 36 13 37
REMARK SMILES IDX 14 38 17 39 15 40 33 41 18 42 19 43 32 44 34 45 29 46 20 47
REMARK SMILES IDX 30 48 22 49 28 50 21 51 23 52 25 53 24 54 26 55 27 56 37 57
REMARK SMILES IDX 38 58 31 60 40 62
REMARK H PARENT 55 9 53 18 51 20 47 23 49 25 38 59 31 61 40 63
REMARK Flexibility Score: inf
ROOT
ATOM      1  C   UNL     1      -6.633  18.187   4.937  1.00  0.00     0.041 C 
ATOM      2  C   UNL     1      -7.335  17.060   4.170  1.00  0.00     0.150 C 
ATOM      3  C   UNL     1      -6.553  15.725   4.309  1.00  0.00     0.175 C 
ATOM      4  C   UNL     1      -7.101  14.812   5.445  1.00  0.00     0.186 C 
ATOM      5  C   UNL     1      -8.663  14.722   5.424  1.00  0.00     0.202 C 
ATOM      6  C   UNL     1      -9.349  15.807   4.564  1.00  0.00     0.282 C 
ATOM      7  O   UNL     1      -8.678  17.053   4.640  1.00  0.00    -0.344 OA
ENDROOT
BRANCH   3   8
ATOM      8  O   UNL     1      -6.494  15.084   3.057  1.00  0.00    -0.388 OA
ATOM      9  H   UNL     1      -5.594  14.667   2.937  1.00  0.00     0.211 HD
ENDBRANCH   3   8
BRANCH   4  10
ATOM     10  O   UNL     1      -6.574  15.251   6.710  1.00  0.00    -0.341 OA
BRANCH  10  11
ATOM     11  C   UNL     1      -5.517  14.402   7.180  1.00  0.00     0.282 C 
ATOM     12  C   UNL     1      -5.885  12.927   7.004  1.00  0.00     0.202 C 
ATOM     13  O   UNL     1      -5.154  14.683   8.530  1.00  0.00    -0.341 OA
ATOM     14  C   UNL     1      -7.129  12.639   7.865  1.00  0.00     0.179 C 
ATOM     15  C   UNL     1      -6.151  14.413   9.509  1.00  0.00     0.178 C 
ATOM     16  C   UNL     1      -6.936  13.061   9.331  1.00  0.00     0.177 C 
BRANCH  12  17
ATOM     17  O   UNL     1      -4.819  12.095   7.421  1.00  0.00    -0.385 OA
ATOM     18  H   UNL     1      -4.395  12.566   8.186  1.00  0.00     0.211 HD
ENDBRANCH  12  17
BRANCH  14  19
ATOM     19  O   UNL     1      -7.580  11.298   7.789  1.00  0.00    -0.387 OA
ATOM     20  H   UNL     1      -6.786  10.696   7.783  1.00  0.00     0.211 HD
ENDBRANCH  14  19
BRANCH  15  21
ATOM     21  C   UNL     1      -6.987  15.674   9.800  1.00  0.00     0.191 C 
BRANCH  21  22
ATOM     22  O   UNL     1      -8.177  15.652   9.029  1.00  0.00    -0.394 OA
ATOM     23  H   UNL     1      -8.579  14.762   9.151  1.00  0.00     0.210 HD
ENDBRANCH  21  22
ENDBRANCH  15  21
BRANCH  16  24
ATOM     24  O   UNL     1      -8.164  13.061  10.036  1.00  0.00    -0.387 OA
ATOM     25  H   UNL     1      -8.394  14.011  10.205  1.00  0.00     0.211 HD
ENDBRANCH  16  24
ENDBRANCH  10  11
ENDBRANCH   4  10
BRANCH   6  26
ATOM     26  O   UNL     1      -9.527  15.353   3.211  1.00  0.00    -0.346 OA
BRANCH  26  27
ATOM     27  C   UNL     1      -9.542  13.921   3.136  1.00  0.00     0.130 C 
ATOM     28  C   UNL     1      -8.404  13.408   2.186  1.00  0.00     0.033 C 
ATOM     29  C   UNL     1     -10.996  13.370   2.879  1.00  0.00     0.020 C 
ATOM     30  C   UNL     1      -8.803  13.294   0.738  1.00  0.00     0.010 C 
ATOM     31  C   UNL     1     -11.285  13.170   1.277  1.00  0.00     0.006 C 
ATOM     32  C   UNL     1     -12.034  14.333   3.555  1.00  0.00     0.017 C 
ATOM     33  C   UNL     1     -10.110  12.523   0.467  1.00  0.00    -0.022 C 
ATOM     34  C   UNL     1     -11.890  14.416   0.493  1.00  0.00     0.005 C 
ATOM     35  C   UNL     1      -9.897  11.051   0.938  1.00  0.00     0.012 C 
ATOM     36  C   UNL     1     -10.468  12.490  -1.084  1.00  0.00     0.024 C 
ATOM     37  C   UNL     1     -11.146  14.925  -0.765  1.00  0.00     0.008 C 
ATOM     38  C   UNL     1     -10.706  13.848  -1.842  1.00  0.00    -0.017 C 
ATOM     39  C   UNL     1      -9.615  11.533  -1.864  1.00  0.00    -0.024 C 
ATOM     40  C   UNL     1     -12.007  13.626  -2.709  1.00  0.00     0.013 C 
ATOM     41  C   UNL     1      -9.426  14.344  -2.811  1.00  0.00     0.009 C 
ATOM     42  C   UNL     1      -8.496  11.909  -2.472  1.00  0.00     0.005 C 
ATOM     43  C   UNL     1      -8.335  13.191  -3.248  1.00  0.00     0.096 C 
ATOM     44  C   UNL     1      -9.929  14.971  -4.170  1.00  0.00     0.043 C 
ATOM     45  C   UNL     1      -8.667  15.546  -2.131  1.00  0.00     0.015 C 
ATOM     46  C   UNL     1      -8.274  12.843  -4.819  1.00  0.00     0.037 C 
ATOM     47  O   UNL     1      -7.044  13.698  -2.998  1.00  0.00    -0.369 OA
ATOM     48  C   UNL     1      -8.804  15.251  -5.227  1.00  0.00     0.124 C 
ATOM     49  C   UNL     1      -7.689  14.143  -5.288  1.00  0.00     0.026 C 
ATOM     50  C   UNL     1      -7.290  11.629  -5.146  1.00  0.00     0.014 C 
ATOM     51  C   UNL     1      -6.609  14.318  -4.191  1.00  0.00     0.171 C 
ATOM     52  C   UNL     1      -7.137  14.076  -6.744  1.00  0.00     0.013 C 
ATOM     53  C   UNL     1      -6.387  11.632  -6.463  1.00  0.00    -0.035 C 
ATOM     54  C   UNL     1      -6.016  13.065  -6.943  1.00  0.00     0.007 C 
ATOM     55  C   UNL     1      -5.038  10.877  -6.170  1.00  0.00     0.011 C 
ATOM     56  C   UNL     1      -7.111  10.875  -7.599  1.00  0.00     0.011 C 
BRANCH  29  57
ATOM     57  C   UNL     1     -11.171  12.032   3.716  1.00  0.00     0.165 C 
BRANCH  57  58
ATOM     58  O   UNL     1     -11.400  12.254   5.092  1.00  0.00    -0.396 OA
ATOM     59  H   UNL     1     -11.987  13.051   5.164  1.00  0.00     0.210 HD
ENDBRANCH  57  58
ENDBRANCH  29  57
BRANCH  48  60
ATOM     60  O   UNL     1      -8.229  16.519  -5.040  1.00  0.00    -0.392 OA
ATOM     61  H   UNL     1      -7.402  16.422  -4.494  1.00  0.00     0.210 HD
ENDBRANCH  48  60
ENDBRANCH  26  27
ENDBRANCH   6  26
BRANCH   5  62
ATOM     62  O   UNL     1      -9.209  14.786   6.716  1.00  0.00    -0.385 OA
ATOM     63  H   UNL     1     -10.054  14.257   6.684  1.00  0.00     0.211 HD
ENDBRANCH   5  62
TORSDOF 14
ENDMDL
MODEL 2
REMARK VINA RESULT:    -3.792      2.466     11.536
REMARK INTER + INTRA:          -7.036
REMARK INTER:                  -9.747
REMARK INTRA:                   2.711
REMARK UNBOUND:                -1.027
REMARK SMILES C[C@@H]1O[C@@H](O[C@@H]2CC[C@@]3(C)[C@H](CC[C@]4(C)[C@H]3C=C[C@@]35OC[C@]6(CCC(C)(C)C[C@H]63)[C@H](O)C[C@@]45C)[C@@]2(C)CO)[C@H](O)[C@H](O[C@H]2O[C@@H](CO)[C@@H](O)[C@H](O)[C@@H]2O)[C@H]1O
REMARK SMILES IDX 1 1 2 2 54 3 41 4 39 5 4 6 3 7 55 8 42 10 43 11 52 12 44 13
REMARK SMILES IDX 50 14 45 15 48 16 53 17 51 19 46 21 47 22 49 24 5 26 6 27
REMARK SMILES IDX 7 28 35 29 8 30 11 31 36 32 9 33 12 34 10 35 16 36 13 37
REMARK SMILES IDX 14 38 17 39 15 40 33 41 18 42 19 43 32 44 34 45 29 46 20 47
REMARK SMILES IDX 30 48 22 49 28 50 21 51 23 52 25 53 24 54 26 55 27 56 37 57
REMARK SMILES IDX 38 58 31 60 40 62
REMARK H PARENT 55 9 53 18 51 20 47 23 49 25 38 59 31 61 40 63
REMARK Flexibility Score: inf
ROOT
ATOM      1  C   UNL     1      -6.519  14.343  -4.677  1.00  0.00     0.041 C 
ATOM      2  C   UNL     1      -7.605  14.420  -3.598  1.00  0.00     0.150 C 
ATOM      3  C   UNL     1      -9.020  14.476  -4.238  1.00  0.00     0.175 C 
ATOM      4  C   UNL     1      -9.706  13.080  -4.325  1.00  0.00     0.186 C 
ATOM      5  C   UNL     1      -9.558  12.270  -2.993  1.00  0.00     0.202 C 
ATOM      6  C   UNL     1      -8.485  12.824  -2.030  1.00  0.00     0.282 C 
ATOM      7  O   UNL     1      -7.355  13.329  -2.720  1.00  0.00    -0.344 OA
ENDROOT
BRANCH   3   8
ATOM      8  O   UNL     1      -9.799  15.440  -3.571  1.00  0.00    -0.388 OA
ATOM      9  H   UNL     1     -10.086  16.144  -4.218  1.00  0.00     0.211 HD
ENDBRANCH   3   8
BRANCH   4  10
ATOM     10  O   UNL     1      -9.212  12.374  -5.477  1.00  0.00    -0.341 OA
BRANCH  10  11
ATOM     11  C   UNL     1     -10.239  12.148  -6.453  1.00  0.00     0.282 C 
ATOM     12  C   UNL     1      -9.781  11.134  -7.503  1.00  0.00     0.202 C 
ATOM     13  O   UNL     1     -10.681  13.358  -7.067  1.00  0.00    -0.341 OA
ATOM     14  C   UNL     1      -8.564  11.726  -8.239  1.00  0.00     0.179 C 
ATOM     15  C   UNL     1      -9.718  14.036  -7.864  1.00  0.00     0.178 C 
ATOM     16  C   UNL     1      -8.849  13.124  -8.809  1.00  0.00     0.177 C 
BRANCH  12  17
ATOM     17  O   UNL     1     -10.816  10.877  -8.433  1.00  0.00    -0.385 OA
ATOM     18  H   UNL     1     -11.597  11.403  -8.116  1.00  0.00     0.211 HD
ENDBRANCH  12  17
BRANCH  14  19
ATOM     19  O   UNL     1      -8.035  10.878  -9.243  1.00  0.00    -0.387 OA
ATOM     20  H   UNL     1      -7.613  10.090  -8.803  1.00  0.00     0.211 HD
ENDBRANCH  14  19
BRANCH  15  21
ATOM     21  C   UNL     1      -8.969  15.096  -7.034  1.00  0.00     0.191 C 
BRANCH  21  22
ATOM     22  O   UNL     1      -7.581  15.036  -7.313  1.00  0.00    -0.394 OA
ATOM     23  H   UNL     1      -7.412  14.160  -7.731  1.00  0.00     0.210 HD
ENDBRANCH  21  22
ENDBRANCH  15  21
BRANCH  16  24
ATOM     24  O   UNL     1      -7.658  13.768  -9.222  1.00  0.00    -0.387 OA
ATOM     25  H   UNL     1      -7.128  13.092  -9.718  1.00  0.00     0.211 HD
ENDBRANCH  16  24
ENDBRANCH  10  11
ENDBRANCH   4  10
BRANCH   6  26
ATOM     26  O   UNL     1      -9.055  13.782  -1.122  1.00  0.00    -0.346 OA
BRANCH  26  27
ATOM     27  C   UNL     1      -8.178  14.898  -0.919  1.00  0.00     0.130 C 
ATOM     28  C   UNL     1      -7.054  14.533   0.113  1.00  0.00     0.033 C 
ATOM     29  C   UNL     1      -8.983  16.229  -0.664  1.00  0.00     0.020 C 
ATOM     30  C   UNL     1      -7.413  14.803   1.551  1.00  0.00     0.010 C 
ATOM     31  C   UNL     1      -9.216  16.489   0.938  1.00  0.00     0.006 C 
ATOM     32  C   UNL     1     -10.334  16.170  -1.459  1.00  0.00     0.017 C 
ATOM     33  C   UNL     1      -7.968  16.211   1.844  1.00  0.00    -0.022 C 
ATOM     34  C   UNL     1     -10.530  15.866   1.586  1.00  0.00     0.005 C 
ATOM     35  C   UNL     1      -6.843  17.240   1.516  1.00  0.00     0.012 C 
ATOM     36  C   UNL     1      -8.354  16.386   3.378  1.00  0.00     0.024 C 
ATOM     37  C   UNL     1     -10.377  14.942   2.818  1.00  0.00     0.008 C 
ATOM     38  C   UNL     1      -9.452  15.447   4.002  1.00  0.00    -0.017 C 
ATOM     39  C   UNL     1      -7.160  16.552   4.271  1.00  0.00    -0.024 C 
ATOM     40  C   UNL     1     -10.396  16.397   4.839  1.00  0.00     0.013 C 
ATOM     41  C   UNL     1      -8.851  14.209   4.966  1.00  0.00     0.009 C 
ATOM     42  C   UNL     1      -6.578  15.527   4.881  1.00  0.00     0.005 C 
ATOM     43  C   UNL     1      -7.320  14.394   5.543  1.00  0.00     0.096 C 
ATOM     44  C   UNL     1      -9.747  13.974   6.244  1.00  0.00     0.043 C 
ATOM     45  C   UNL     1      -8.957  12.832   4.207  1.00  0.00     0.015 C 
ATOM     46  C   UNL     1      -7.187  14.549   7.140  1.00  0.00     0.037 C 
ATOM     47  O   UNL     1      -6.614  13.200   5.293  1.00  0.00    -0.369 OA
ATOM     48  C   UNL     1      -9.138  12.998   7.310  1.00  0.00     0.124 C 
ATOM     49  C   UNL     1      -7.584  13.151   7.510  1.00  0.00     0.026 C 
ATOM     50  C   UNL     1      -5.691  14.854   7.610  1.00  0.00     0.014 C 
ATOM     51  C   UNL     1      -6.765  12.388   6.439  1.00  0.00     0.171 C 
ATOM     52  C   UNL     1      -7.237  12.785   8.984  1.00  0.00     0.013 C 
ATOM     53  C   UNL     1      -5.102  14.219   8.951  1.00  0.00    -0.035 C 
ATOM     54  C   UNL     1      -5.752  12.852   9.313  1.00  0.00     0.007 C 
ATOM     55  C   UNL     1      -3.560  13.968   8.774  1.00  0.00     0.011 C 
ATOM     56  C   UNL     1      -5.286  15.207  10.125  1.00  0.00     0.011 C 
BRANCH  29  57
ATOM     57  C   UNL     1      -8.212  17.417  -1.382  1.00  0.00     0.165 C 
BRANCH  57  58
ATOM     58  O   UNL     1      -8.750  17.757  -2.643  1.00  0.00    -0.396 OA
ATOM     59  H   UNL     1      -9.102  16.919  -3.044  1.00  0.00     0.210 HD
ENDBRANCH  57  58
ENDBRANCH  29  57
BRANCH  48  60
ATOM     60  O   UNL     1      -9.469  11.661   7.029  1.00  0.00    -0.392 OA
ATOM     61  H   UNL     1      -9.423  11.133   7.871  1.00  0.00     0.210 HD
ENDBRANCH  48  60
ENDBRANCH  26  27
ENDBRANCH   6  26
BRANCH   5  62
ATOM     62  O   UNL     1      -9.267  10.918  -3.233  1.00  0.00    -0.385 OA
ATOM     63  H   UNL     1     -10.097  10.521  -3.617  1.00  0.00     0.211 HD
ENDBRANCH   5  62
TORSDOF 14
ENDMDL
MODEL 3
REMARK VINA RESULT:    -3.780      1.038      2.056
REMARK INTER + INTRA:          -7.017
REMARK INTER:                  -7.837
REMARK INTRA:                   0.820
REMARK UNBOUND:                -1.027
REMARK SMILES C[C@@H]1O[C@@H](O[C@@H]2CC[C@@]3(C)[C@H](CC[C@]4(C)[C@H]3C=C[C@@]35OC[C@]6(CCC(C)(C)C[C@H]63)[C@H](O)C[C@@]45C)[C@@]2(C)CO)[C@H](O)[C@H](O[C@H]2O[C@@H](CO)[C@@H](O)[C@H](O)[C@@H]2O)[C@H]1O
REMARK SMILES IDX 1 1 2 2 54 3 41 4 39 5 4 6 3 7 55 8 42 10 43 11 52 12 44 13
REMARK SMILES IDX 50 14 45 15 48 16 53 17 51 19 46 21 47 22 49 24 5 26 6 27
REMARK SMILES IDX 7 28 35 29 8 30 11 31 36 32 9 33 12 34 10 35 16 36 13 37
REMARK SMILES IDX 14 38 17 39 15 40 33 41 18 42 19 43 32 44 34 45 29 46 20 47
REMARK SMILES IDX 30 48 22 49 28 50 21 51 23 52 25 53 24 54 26 55 27 56 37 57
REMARK SMILES IDX 38 58 31 60 40 62
REMARK H PARENT 55 9 53 18 51 20 47 23 49 25 38 59 31 61 40 63
REMARK Flexibility Score: inf
ROOT
ATOM      1  C   UNL     1      -6.661  18.497   5.053  1.00  0.00     0.041 C 
ATOM      2  C   UNL     1      -7.208  17.280   4.298  1.00  0.00     0.150 C 
ATOM      3  C   UNL     1      -6.182  16.113   4.311  1.00  0.00     0.175 C 
ATOM      4  C   UNL     1      -6.446  15.081   5.447  1.00  0.00     0.186 C 
ATOM      5  C   UNL     1      -7.960  14.698   5.552  1.00  0.00     0.202 C 
ATOM      6  C   UNL     1      -8.910  15.658   4.802  1.00  0.00     0.282 C 
ATOM      7  O   UNL     1      -8.478  17.006   4.877  1.00  0.00    -0.344 OA
ENDROOT
BRANCH   3   8
ATOM      8  O   UNL     1      -6.118  15.530   3.031  1.00  0.00    -0.388 OA
ATOM      9  H   UNL     1      -5.200  15.649   2.655  1.00  0.00     0.211 HD
ENDBRANCH   3   8
BRANCH   4  10
ATOM     10  O   UNL     1      -5.898  15.576   6.682  1.00  0.00    -0.341 OA
BRANCH  10  11
ATOM     11  C   UNL     1      -6.606  15.075   7.826  1.00  0.00     0.282 C 
ATOM     12  C   UNL     1      -7.065  16.222   8.728  1.00  0.00     0.202 C 
ATOM     13  O   UNL     1      -5.843  14.119   8.559  1.00  0.00    -0.341 OA
ATOM     14  C   UNL     1      -5.812  16.956   9.243  1.00  0.00     0.179 C 
ATOM     15  C   UNL     1      -4.665  14.613   9.186  1.00  0.00     0.178 C 
ATOM     16  C   UNL     1      -4.809  16.003   9.911  1.00  0.00     0.177 C 
BRANCH  12  17
ATOM     17  O   UNL     1      -7.805  15.726   9.827  1.00  0.00    -0.385 OA
ATOM     18  H   UNL     1      -7.952  14.761   9.637  1.00  0.00     0.211 HD
ENDBRANCH  12  17
BRANCH  14  19
ATOM     19  O   UNL     1      -6.099  18.051  10.093  1.00  0.00    -0.387 OA
ATOM     20  H   UNL     1      -5.239  18.463  10.383  1.00  0.00     0.211 HD
ENDBRANCH  14  19
BRANCH  15  21
ATOM     21  C   UNL     1      -3.440  14.425   8.271  1.00  0.00     0.191 C 
BRANCH  21  22
ATOM     22  O   UNL     1      -2.258  14.371   9.053  1.00  0.00    -0.394 OA
ATOM     23  H   UNL     1      -2.092  13.422   9.253  1.00  0.00     0.210 HD
ENDBRANCH  21  22
ENDBRANCH  15  21
BRANCH  16  24
ATOM     24  O   UNL     1      -3.556  16.629  10.116  1.00  0.00    -0.387 OA
ATOM     25  H   UNL     1      -3.731  17.446  10.649  1.00  0.00     0.211 HD
ENDBRANCH  16  24
ENDBRANCH  10  11
ENDBRANCH   4  10
BRANCH   6  26
ATOM     26  O   UNL     1      -9.122  15.217   3.449  1.00  0.00    -0.346 OA
BRANCH  26  27
ATOM     27  C   UNL     1      -9.127  13.786   3.359  1.00  0.00     0.130 C 
ATOM     28  C   UNL     1      -8.031  13.295   2.349  1.00  0.00     0.033 C 
ATOM     29  C   UNL     1     -10.586  13.223   3.166  1.00  0.00     0.020 C 
ATOM     30  C   UNL     1      -8.498  13.192   0.921  1.00  0.00     0.010 C 
ATOM     31  C   UNL     1     -10.950  13.037   1.578  1.00  0.00     0.006 C 
ATOM     32  C   UNL     1     -11.600  14.167   3.901  1.00  0.00     0.017 C 
ATOM     33  C   UNL     1      -9.809  12.411   0.704  1.00  0.00    -0.022 C 
ATOM     34  C   UNL     1     -11.603  14.285   0.837  1.00  0.00     0.005 C 
ATOM     35  C   UNL     1      -9.559  10.936   1.148  1.00  0.00     0.012 C 
ATOM     36  C   UNL     1     -10.240  12.391  -0.827  1.00  0.00     0.024 C 
ATOM     37  C   UNL     1     -10.926  14.815  -0.449  1.00  0.00     0.008 C 
ATOM     38  C   UNL     1     -10.528  13.754  -1.558  1.00  0.00    -0.017 C 
ATOM     39  C   UNL     1      -9.417  11.452  -1.659  1.00  0.00    -0.024 C 
ATOM     40  C   UNL     1     -11.867  13.529  -2.364  1.00  0.00     0.013 C 
ATOM     41  C   UNL     1      -9.301  14.274  -2.582  1.00  0.00     0.009 C 
ATOM     42  C   UNL     1      -8.333  11.845  -2.315  1.00  0.00     0.005 C 
ATOM     43  C   UNL     1      -8.221  13.137  -3.084  1.00  0.00     0.096 C 
ATOM     44  C   UNL     1      -9.875  14.910  -3.907  1.00  0.00     0.043 C 
ATOM     45  C   UNL     1      -8.522  15.477  -1.926  1.00  0.00     0.015 C 
ATOM     46  C   UNL     1      -8.232  12.807  -4.660  1.00  0.00     0.037 C 
ATOM     47  O   UNL     1      -6.925  13.654  -2.890  1.00  0.00    -0.369 OA
ATOM     48  C   UNL     1      -8.805  15.213  -5.014  1.00  0.00     0.124 C 
ATOM     49  C   UNL     1      -7.683  14.117  -5.141  1.00  0.00     0.026 C 
ATOM     50  C   UNL     1      -7.254  11.606  -5.047  1.00  0.00     0.014 C 
ATOM     51  C   UNL     1      -6.553  14.292  -4.095  1.00  0.00     0.171 C 
ATOM     52  C   UNL     1      -7.202  14.071  -6.623  1.00  0.00     0.013 C 
ATOM     53  C   UNL     1      -6.415  11.633  -6.405  1.00  0.00    -0.035 C 
ATOM     54  C   UNL     1      -6.082  13.074  -6.887  1.00  0.00     0.007 C 
ATOM     55  C   UNL     1      -5.046  10.889  -6.186  1.00  0.00     0.011 C 
ATOM     56  C   UNL     1      -7.185  10.881  -7.514  1.00  0.00     0.011 C 
BRANCH  29  57
ATOM     57  C   UNL     1     -10.708  11.874   3.995  1.00  0.00     0.165 C 
BRANCH  57  58
ATOM     58  O   UNL     1     -10.510  12.046   5.383  1.00  0.00    -0.396 OA
ATOM     59  H   UNL     1     -10.792  12.973   5.604  1.00  0.00     0.210 HD
ENDBRANCH  57  58
ENDBRANCH  29  57
BRANCH  48  60
ATOM     60  O   UNL     1      -8.234  16.485  -4.841  1.00  0.00    -0.392 OA
ATOM     61  H   UNL     1      -7.323  16.381  -4.452  1.00  0.00     0.210 HD
ENDBRANCH  48  60
ENDBRANCH  26  27
ENDBRANCH   6  26
BRANCH   5  62
ATOM     62  O   UNL     1      -8.389  14.621   6.886  1.00  0.00    -0.385 OA
ATOM     63  H   UNL     1      -8.878  13.756   6.969  1.00  0.00     0.211 HD
ENDBRANCH   5  62
TORSDOF 14
ENDMDL
MODEL 4
REMARK VINA RESULT:    -3.318      2.117     11.247
REMARK INTER + INTRA:          -6.285
REMARK INTER:                  -7.538
REMARK INTRA:                   1.253
REMARK UNBOUND:                -1.027
REMARK SMILES C[C@@H]1O[C@@H](O[C@@H]2CC[C@@]3(C)[C@H](CC[C@]4(C)[C@H]3C=C[C@@]35OC[C@]6(CCC(C)(C)C[C@H]63)[C@H](O)C[C@@]45C)[C@@]2(C)CO)[C@H](O)[C@H](O[C@H]2O[C@@H](CO)[C@@H](O)[C@H](O)[C@@H]2O)[C@H]1O
REMARK SMILES IDX 1 1 2 2 54 3 41 4 39 5 4 6 3 7 55 8 42 10 43 11 52 12 44 13
REMARK SMILES IDX 50 14 45 15 48 16 53 17 51 19 46 21 47 22 49 24 5 26 6 27
REMARK SMILES IDX 7 28 35 29 8 30 11 31 36 32 9 33 12 34 10 35 16 36 13 37
REMARK SMILES IDX 14 38 17 39 15 40 33 41 18 42 19 43 32 44 34 45 29 46 20 47
REMARK SMILES IDX 30 48 22 49 28 50 21 51 23 52 25 53 24 54 26 55 27 56 37 57
REMARK SMILES IDX 38 58 31 60 40 62
REMARK H PARENT 55 9 53 18 51 20 47 23 49 25 38 59 31 61 40 63
REMARK Flexibility Score: inf
ROOT
ATOM      1  C   UNL     1      -7.783  10.875  -3.617  1.00  0.00     0.041 C 
ATOM      2  C   UNL     1      -8.075  11.880  -2.496  1.00  0.00     0.150 C 
ATOM      3  C   UNL     1      -7.292  13.203  -2.720  1.00  0.00     0.175 C 
ATOM      4  C   UNL     1      -8.137  14.298  -3.437  1.00  0.00     0.186 C 
ATOM      5  C   UNL     1      -9.576  14.416  -2.833  1.00  0.00     0.202 C 
ATOM      6  C   UNL     1      -9.991  13.223  -1.945  1.00  0.00     0.282 C 
ATOM      7  O   UNL     1      -9.491  11.990  -2.435  1.00  0.00    -0.344 OA
ENDROOT
BRANCH   3   8
ATOM      8  O   UNL     1      -6.739  13.634  -1.500  1.00  0.00    -0.388 OA
ATOM      9  H   UNL     1      -7.362  13.412  -0.752  1.00  0.00     0.211 HD
ENDBRANCH   3   8
BRANCH   4  10
ATOM     10  O   UNL     1      -8.134  14.055  -4.855  1.00  0.00    -0.341 OA
BRANCH  10  11
ATOM     11  C   UNL     1      -7.058  14.736  -5.517  1.00  0.00     0.282 C 
ATOM     12  C   UNL     1      -7.595  15.721  -6.557  1.00  0.00     0.202 C 
ATOM     13  O   UNL     1      -6.121  13.832  -6.101  1.00  0.00    -0.341 OA
ATOM     14  C   UNL     1      -8.362  14.918  -7.624  1.00  0.00     0.179 C 
ATOM     15  C   UNL     1      -6.613  13.035  -7.171  1.00  0.00     0.178 C 
ATOM     16  C   UNL     1      -7.515  13.782  -8.222  1.00  0.00     0.177 C 
BRANCH  12  17
ATOM     17  O   UNL     1      -6.532  16.426  -7.171  1.00  0.00    -0.385 OA
ATOM     18  H   UNL     1      -5.735  15.839  -7.081  1.00  0.00     0.211 HD
ENDBRANCH  12  17
BRANCH  14  19
ATOM     19  O   UNL     1      -8.918  15.717  -8.653  1.00  0.00    -0.387 OA
ATOM     20  H   UNL     1      -8.716  15.291  -9.531  1.00  0.00     0.211 HD
ENDBRANCH  14  19
BRANCH  15  21
ATOM     21  C   UNL     1      -7.125  11.678  -6.651  1.00  0.00     0.191 C 
BRANCH  21  22
ATOM     22  O   UNL     1      -8.533  11.721  -6.492  1.00  0.00    -0.394 OA
ATOM     23  H   UNL     1      -8.874  12.365  -7.154  1.00  0.00     0.210 HD
ENDBRANCH  21  22
ENDBRANCH  15  21
BRANCH  16  24
ATOM     24  O   UNL     1      -8.309  12.885  -8.977  1.00  0.00    -0.387 OA
ATOM     25  H   UNL     1      -8.245  12.003  -8.527  1.00  0.00     0.211 HD
ENDBRANCH  16  24
ENDBRANCH  10  11
ENDBRANCH   4  10
BRANCH   6  26
ATOM     26  O   UNL     1      -9.637  13.458  -0.570  1.00  0.00    -0.346 OA
BRANCH  26  27
ATOM     27  C   UNL     1      -9.168  14.798  -0.372  1.00  0.00     0.130 C 
ATOM     28  C   UNL     1      -7.830  14.797   0.446  1.00  0.00     0.033 C 
ATOM     29  C   UNL     1     -10.320  15.746   0.136  1.00  0.00     0.020 C 
ATOM     30  C   UNL     1      -8.010  14.846   1.941  1.00  0.00     0.010 C 
ATOM     31  C   UNL     1     -10.353  15.822   1.774  1.00  0.00     0.006 C 
ATOM     32  C   UNL     1     -11.685  15.258  -0.464  1.00  0.00     0.017 C 
ATOM     33  C   UNL     1      -8.950  15.952   2.460  1.00  0.00    -0.022 C 
ATOM     34  C   UNL     1     -11.249  14.744   2.528  1.00  0.00     0.005 C 
ATOM     35  C   UNL     1      -8.312  17.327   2.091  1.00  0.00     0.012 C 
ATOM     36  C   UNL     1      -9.108  15.899   4.043  1.00  0.00     0.024 C 
ATOM     37  C   UNL     1     -10.587  13.868   3.618  1.00  0.00     0.008 C 
ATOM     38  C   UNL     1      -9.701  14.603   4.709  1.00  0.00    -0.017 C 
ATOM     39  C   UNL     1      -7.907  16.427   4.772  1.00  0.00    -0.024 C 
ATOM     40  C   UNL     1     -10.754  15.115   5.768  1.00  0.00     0.013 C 
ATOM     41  C   UNL     1      -8.563  13.605   5.439  1.00  0.00     0.009 C 
ATOM     42  C   UNL     1      -6.919  15.641   5.180  1.00  0.00     0.005 C 
ATOM     43  C   UNL     1      -7.110  14.286   5.812  1.00  0.00     0.096 C 
ATOM     44  C   UNL     1      -9.097  13.004   6.797  1.00  0.00     0.043 C 
ATOM     45  C   UNL     1      -8.324  12.321   4.558  1.00  0.00     0.015 C 
ATOM     46  C   UNL     1      -6.769  14.393   7.383  1.00  0.00     0.037 C 
ATOM     47  O   UNL     1      -6.096  13.431   5.338  1.00  0.00    -0.369 OA
ATOM     48  C   UNL     1      -8.023  12.248   7.655  1.00  0.00     0.124 C 
ATOM     49  C   UNL     1      -6.602  12.926   7.650  1.00  0.00     0.026 C 
ATOM     50  C   UNL     1      -5.409  15.179   7.668  1.00  0.00     0.014 C 
ATOM     51  C   UNL     1      -5.766  12.558   6.399  1.00  0.00     0.171 C 
ATOM     52  C   UNL     1      -5.907  12.628   9.013  1.00  0.00     0.013 C 
ATOM     53  C   UNL     1      -4.422  14.721   8.837  1.00  0.00    -0.035 C 
ATOM     54  C   UNL     1      -4.500  13.195   9.135  1.00  0.00     0.007 C 
ATOM     55  C   UNL     1      -2.939  15.037   8.419  1.00  0.00     0.011 C 
ATOM     56  C   UNL     1      -4.728  15.517  10.125  1.00  0.00     0.011 C 
BRANCH  29  57
ATOM     57  C   UNL     1     -10.129  17.165  -0.550  1.00  0.00     0.165 C 
BRANCH  57  58
ATOM     58  O   UNL     1      -9.332  17.125  -1.716  1.00  0.00    -0.396 OA
ATOM     59  H   UNL     1      -8.402  16.935  -1.424  1.00  0.00     0.210 HD
ENDBRANCH  57  58
ENDBRANCH  29  57
BRANCH  48  60
ATOM     60  O   UNL     1      -7.924  10.898   7.280  1.00  0.00    -0.392 OA
ATOM     61  H   UNL     1      -8.840  10.518   7.194  1.00  0.00     0.210 HD
ENDBRANCH  48  60
ENDBRANCH  26  27
ENDBRANCH   6  26
BRANCH   5  62
ATOM     62  O   UNL     1     -10.551  14.572  -3.831  1.00  0.00    -0.385 OA
ATOM     63  H   UNL     1     -10.462  15.508  -4.160  1.00  0.00     0.211 HD
ENDBRANCH   5  62
TORSDOF 14
ENDMDL
