MODEL 1
REMARK VINA RESULT:    -3.424      0.000      0.000
REMARK INTER + INTRA:          -4.440
REMARK INTER:                  -4.225
REMARK INTRA:                  -0.215
REMARK UNBOUND:                -0.215
REMARK SMILES CCCCCC(=O)[O-]
REMARK SMILES IDX 4 1 5 2 6 3 7 4 8 5 3 6 2 7 1 8
REMARK H PARENT
REMARK Flexibility Score: inf
ROOT
ATOM      1  C   UNL     1     158.880 161.018 149.267  1.00  0.00     0.006 C 
ENDROOT
BRANCH   1   2
ATOM      2  C   UNL     1     159.273 160.608 147.842  1.00  0.00     0.053 C 
BRANCH   2   3
ATOM      3  C   UNL     1     159.913 159.256 147.844  1.00  0.00     0.041 C 
ATOM      4  O   UNL     1     161.096 159.116 148.252  1.00  0.00    -0.550 OA
ATOM      5  O   UNL     1     159.221 158.158 147.351  1.00  0.00    -0.550 OA
ENDBRANCH   2   3
ENDBRANCH   1   2
BRANCH   1   6
ATOM      6  C   UNL     1     159.474 162.374 149.677  1.00  0.00     0.000 C 
BRANCH   6   7
ATOM      7  C   UNL     1     160.670 162.784 148.805  1.00  0.00    -0.003 C 
ATOM      8  C   UNL     1     161.985 162.605 149.558  1.00  0.00     0.004 C 
ENDBRANCH   6   7
ENDBRANCH   1   6
TORSDOF 4
ENDMDL
MODEL 2
REMARK VINA RESULT:    -3.341      2.034      2.967
REMARK INTER + INTRA:          -4.337
REMARK INTER:                  -4.079
REMARK INTRA:                  -0.258
REMARK UNBOUND:                -0.215
REMARK SMILES CCCCCC(=O)[O-]
REMARK SMILES IDX 4 1 5 2 6 3 7 4 8 5 3 6 2 7 1 8
REMARK H PARENT
REMARK Flexibility Score: inf
ROOT
ATOM      1  C   UNL     1     159.357 157.627 149.753  1.00  0.00     0.006 C 
ENDROOT
BRANCH   1   2
ATOM      2  C   UNL     1     159.139 157.796 148.244  1.00  0.00     0.053 C 
BRANCH   2   3
ATOM      3  C   UNL     1     160.072 158.828 147.694  1.00  0.00     0.041 C 
ATOM      4  O   UNL     1     161.169 159.061 148.269  1.00  0.00    -0.550 OA
ATOM      5  O   UNL     1     159.711 159.567 146.576  1.00  0.00    -0.550 OA
ENDBRANCH   2   3
ENDBRANCH   1   2
BRANCH   1   6
ATOM      6  C   UNL     1     158.445 158.540 150.588  1.00  0.00     0.000 C 
BRANCH   6   7
ATOM      7  C   UNL     1     159.230 159.607 151.366  1.00  0.00    -0.003 C 
ATOM      8  C   UNL     1     159.148 160.963 150.670  1.00  0.00     0.004 C 
ENDBRANCH   6   7
ENDBRANCH   1   6
TORSDOF 4
ENDMDL
MODEL 3
REMARK VINA RESULT:    -3.335      2.181      3.500
REMARK INTER + INTRA:          -4.330
REMARK INTER:                  -4.081
REMARK INTRA:                  -0.249
REMARK UNBOUND:                -0.215
REMARK SMILES CCCCCC(=O)[O-]
REMARK SMILES IDX 4 1 5 2 6 3 7 4 8 5 3 6 2 7 1 8
REMARK H PARENT
REMARK Flexibility Score: inf
ROOT
ATOM      1  C   UNL     1     159.021 161.955 149.951  1.00  0.00     0.006 C 
ENDROOT
BRANCH   1   2
ATOM      2  C   UNL     1     160.241 162.625 149.306  1.00  0.00     0.053 C 
BRANCH   2   3
ATOM      3  C   UNL     1     161.425 161.712 149.353  1.00  0.00     0.041 C 
ATOM      4  O   UNL     1     161.331 160.532 148.923  1.00  0.00    -0.550 OA
ATOM      5  O   UNL     1     162.617 162.145 149.917  1.00  0.00    -0.550 OA
ENDBRANCH   2   3
ENDBRANCH   1   2
BRANCH   1   6
ATOM      6  C   UNL     1     158.917 162.241 151.457  1.00  0.00     0.000 C 
BRANCH   6   7
ATOM      7  C   UNL     1     159.216 161.003 152.316  1.00  0.00    -0.003 C 
ATOM      8  C   UNL     1     158.975 159.718 151.529  1.00  0.00     0.004 C 
ENDBRANCH   6   7
ENDBRANCH   1   6
TORSDOF 4
ENDMDL
MODEL 4
REMARK VINA RESULT:    -3.331      1.598      2.126
REMARK INTER + INTRA:          -4.326
REMARK INTER:                  -4.131
REMARK INTRA:                  -0.194
REMARK UNBOUND:                -0.215
REMARK SMILES CCCCCC(=O)[O-]
REMARK SMILES IDX 4 1 5 2 6 3 7 4 8 5 3 6 2 7 1 8
REMARK H PARENT
REMARK Flexibility Score: inf
ROOT
ATOM      1  C   UNL     1     159.658 161.161 150.431  1.00  0.00     0.006 C 
ENDROOT
BRANCH   1   2
ATOM      2  C   UNL     1     158.946 159.804 150.355  1.00  0.00     0.053 C 
BRANCH   2   3
ATOM      3  C   UNL     1     158.589 159.481 148.939  1.00  0.00     0.041 C 
ATOM      4  O   UNL     1     158.419 158.284 148.586  1.00  0.00    -0.550 OA
ATOM      5  O   UNL     1     158.493 160.495 147.996  1.00  0.00    -0.550 OA
ENDBRANCH   2   3
ENDBRANCH   1   2
BRANCH   1   6
ATOM      6  C   UNL     1     161.188 161.028 150.400  1.00  0.00     0.000 C 
BRANCH   6   7
ATOM      7  C   UNL     1     161.866 162.179 149.641  1.00  0.00    -0.003 C 
ATOM      8  C   UNL     1     160.848 162.975 148.829  1.00  0.00     0.004 C 
ENDBRANCH   6   7
ENDBRANCH   1   6
TORSDOF 4
ENDMDL
MODEL 5
REMARK VINA RESULT:    -3.323      2.484      4.280
REMARK INTER + INTRA:          -4.316
REMARK INTER:                  -4.087
REMARK INTRA:                  -0.229
REMARK UNBOUND:                -0.215
REMARK SMILES CCCCCC(=O)[O-]
REMARK SMILES IDX 4 1 5 2 6 3 7 4 8 5 3 6 2 7 1 8
REMARK H PARENT
REMARK Flexibility Score: inf
ROOT
ATOM      1  C   UNL     1     160.292 158.560 149.829  1.00  0.00     0.006 C 
ENDROOT
BRANCH   1   2
ATOM      2  C   UNL     1     160.738 159.033 148.440  1.00  0.00     0.053 C 
BRANCH   2   3
ATOM      3  C   UNL     1     159.827 160.108 147.937  1.00  0.00     0.041 C 
ATOM      4  O   UNL     1     160.288 161.059 147.252  1.00  0.00    -0.550 OA
ATOM      5  O   UNL     1     158.479 160.088 148.266  1.00  0.00    -0.550 OA
ENDBRANCH   2   3
ENDBRANCH   1   2
BRANCH   1   6
ATOM      6  C   UNL     1     160.051 157.043 149.888  1.00  0.00     0.000 C 
BRANCH   6   7
ATOM      7  C   UNL     1     158.885 156.595 148.993  1.00  0.00    -0.003 C 
ATOM      8  C   UNL     1     157.542 156.959 149.619  1.00  0.00     0.004 C 
ENDBRANCH   6   7
ENDBRANCH   1   6
TORSDOF 4
ENDMDL
MODEL 6
REMARK VINA RESULT:    -3.320      2.948      4.520
REMARK INTER + INTRA:          -4.312
REMARK INTER:                  -4.140
REMARK INTRA:                  -0.171
REMARK UNBOUND:                -0.215
REMARK SMILES CCCCCC(=O)[O-]
REMARK SMILES IDX 4 1 5 2 6 3 7 4 8 5 3 6 2 7 1 8
REMARK H PARENT
REMARK Flexibility Score: inf
ROOT
ATOM      1  C   UNL     1     159.672 157.948 150.746  1.00  0.00     0.006 C 
ENDROOT
BRANCH   1   2
ATOM      2  C   UNL     1     160.686 157.715 149.620  1.00  0.00     0.053 C 
BRANCH   2   3
ATOM      3  C   UNL     1     160.761 158.914 148.728  1.00  0.00     0.041 C 
ATOM      4  O   UNL     1     161.157 160.019 149.185  1.00  0.00    -0.550 OA
ATOM      5  O   UNL     1     160.347 158.825 147.406  1.00  0.00    -0.550 OA
ENDBRANCH   2   3
ENDBRANCH   1   2
BRANCH   1   6
ATOM      6  C   UNL     1     158.245 158.169 150.221  1.00  0.00     0.000 C 
BRANCH   6   7
ATOM      7  C   UNL     1     157.646 156.905 149.586  1.00  0.00    -0.003 C 
ATOM      8  C   UNL     1     156.230 156.653 150.097  1.00  0.00     0.004 C 
ENDBRANCH   6   7
ENDBRANCH   1   6
TORSDOF 4
ENDMDL
MODEL 7
REMARK VINA RESULT:    -3.314      2.977      3.821
REMARK INTER + INTRA:          -4.304
REMARK INTER:                  -4.029
REMARK INTRA:                  -0.275
REMARK UNBOUND:                -0.215
REMARK SMILES CCCCCC(=O)[O-]
REMARK SMILES IDX 4 1 5 2 6 3 7 4 8 5 3 6 2 7 1 8
REMARK H PARENT
REMARK Flexibility Score: inf
ROOT
ATOM      1  C   UNL     1     160.630 157.677 149.800  1.00  0.00     0.006 C 
ENDROOT
BRANCH   1   2
ATOM      2  C   UNL     1     159.491 157.049 148.987  1.00  0.00     0.053 C 
BRANCH   2   3
ATOM      3  C   UNL     1     158.248 157.874 149.105  1.00  0.00     0.041 C 
ATOM      4  O   UNL     1     158.250 159.078 148.735  1.00  0.00    -0.550 OA
ATOM      5  O   UNL     1     157.102 157.329 149.668  1.00  0.00    -0.550 OA
ENDBRANCH   2   3
ENDBRANCH   1   2
BRANCH   1   6
ATOM      6  C   UNL     1     160.421 157.538 151.316  1.00  0.00     0.000 C 
BRANCH   6   7
ATOM      7  C   UNL     1     160.361 158.897 152.031  1.00  0.00    -0.003 C 
ATOM      8  C   UNL     1     160.715 160.035 151.077  1.00  0.00     0.004 C 
ENDBRANCH   6   7
ENDBRANCH   1   6
TORSDOF 4
ENDMDL
MODEL 8
REMARK VINA RESULT:    -3.300      1.688      2.812
REMARK INTER + INTRA:          -4.287
REMARK INTER:                  -4.011
REMARK INTRA:                  -0.276
REMARK UNBOUND:                -0.215
REMARK SMILES CCCCCC(=O)[O-]
REMARK SMILES IDX 4 1 5 2 6 3 7 4 8 5 3 6 2 7 1 8
REMARK H PARENT
REMARK Flexibility Score: inf
ROOT
ATOM      1  C   UNL     1     160.621 162.261 150.004  1.00  0.00     0.006 C 
ENDROOT
BRANCH   1   2
ATOM      2  C   UNL     1     160.579 162.202 148.472  1.00  0.00     0.053 C 
BRANCH   2   3
ATOM      3  C   UNL     1     160.297 160.807 148.010  1.00  0.00     0.041 C 
ATOM      4  O   UNL     1     159.290 160.568 147.294  1.00  0.00    -0.550 OA
ATOM      5  O   UNL     1     161.119 159.762 148.412  1.00  0.00    -0.550 OA
ENDBRANCH   2   3
ENDBRANCH   1   2
BRANCH   1   6
ATOM      6  C   UNL     1     159.274 161.896 150.647  1.00  0.00     0.000 C 
BRANCH   6   7
ATOM      7  C   UNL     1     159.405 160.786 151.701  1.00  0.00    -0.003 C 
ATOM      8  C   UNL     1     158.880 159.456 151.166  1.00  0.00     0.004 C 
ENDBRANCH   6   7
ENDBRANCH   1   6
TORSDOF 4
ENDMDL
MODEL 9
REMARK VINA RESULT:    -3.299      3.496      5.120
REMARK INTER + INTRA:          -4.285
REMARK INTER:                  -4.072
REMARK INTRA:                  -0.213
REMARK UNBOUND:                -0.215
REMARK SMILES CCCCCC(=O)[O-]
REMARK SMILES IDX 4 1 5 2 6 3 7 4 8 5 3 6 2 7 1 8
REMARK H PARENT
REMARK Flexibility Score: inf
ROOT
ATOM      1  C   UNL     1     160.726 157.290 150.010  1.00  0.00     0.006 C 
ENDROOT
BRANCH   1   2
ATOM      2  C   UNL     1     160.371 157.890 151.377  1.00  0.00     0.053 C 
BRANCH   2   3
ATOM      3  C   UNL     1     160.013 159.336 151.235  1.00  0.00     0.041 C 
ATOM      4  O   UNL     1     158.841 159.725 151.480  1.00  0.00    -0.550 OA
ATOM      5  O   UNL     1     160.960 160.246 150.785  1.00  0.00    -0.550 OA
ENDBRANCH   2   3
ENDBRANCH   1   2
BRANCH   1   6
ATOM      6  C   UNL     1     159.625 157.515 148.962  1.00  0.00     0.000 C 
BRANCH   6   7
ATOM      7  C   UNL     1     158.561 156.407 148.975  1.00  0.00    -0.003 C 
ATOM      8  C   UNL     1     157.284 156.881 149.663  1.00  0.00     0.004 C 
ENDBRANCH   6   7
ENDBRANCH   1   6
TORSDOF 4
ENDMDL
