MODEL 1
REMARK VINA RESULT:    -5.427      0.000      0.000
REMARK INTER + INTRA:         -16.713
REMARK INTER:                 -12.407
REMARK INTRA:                  -4.306
REMARK UNBOUND:                -4.306
REMARK SMILES CCCCCCCCCCCCCCCCCCCCCCCC(=O)[O-]
REMARK SMILES IDX 13 1 14 2 15 3 16 4 17 5 18 6 19 7 20 8 21 9 22 10 23 11
REMARK SMILES IDX 24 12 25 13 26 14 12 15 11 16 10 17 9 18 8 19 7 20 6 21 5 22
REMARK SMILES IDX 4 23 3 24 2 25 1 26
REMARK H PARENT
REMARK Flexibility Score: inf
ROOT
ATOM      1  C   UNL     1     120.091 177.744 129.579  1.00  0.00     0.000 C 
ENDROOT
BRANCH   1   2
ATOM      2  C   UNL     1     121.616 177.841 129.395  1.00  0.00     0.000 C 
BRANCH   2   3
ATOM      3  C   UNL     1     122.008 178.698 128.180  1.00  0.00     0.000 C 
BRANCH   3   4
ATOM      4  C   UNL     1     121.227 178.317 126.910  1.00  0.00     0.000 C 
BRANCH   4   5
ATOM      5  C   UNL     1     122.099 177.574 125.885  1.00  0.00     0.000 C 
BRANCH   5   6
ATOM      6  C   UNL     1     121.733 176.087 125.759  1.00  0.00     0.000 C 
BRANCH   6   7
ATOM      7  C   UNL     1     120.304 175.783 126.242  1.00  0.00     0.000 C 
BRANCH   7   8
ATOM      8  C   UNL     1     120.198 174.480 127.063  1.00  0.00     0.000 C 
BRANCH   8   9
ATOM      9  C   UNL     1     119.788 173.277 126.197  1.00  0.00     0.000 C 
BRANCH   9  10
ATOM     10  C   UNL     1     119.611 171.985 127.016  1.00  0.00     0.006 C 
BRANCH  10  11
ATOM     11  C   UNL     1     119.850 172.160 128.524  1.00  0.00     0.053 C 
BRANCH  11  12
ATOM     12  C   UNL     1     118.613 171.883 129.321  1.00  0.00     0.041 C 
ATOM     13  O   UNL     1     117.594 172.611 129.182  1.00  0.00    -0.550 OA
ATOM     14  O   UNL     1     118.572 170.802 130.193  1.00  0.00    -0.550 OA
ENDBRANCH  11  12
ENDBRANCH  10  11
ENDBRANCH   9  10
ENDBRANCH   8   9
ENDBRANCH   7   8
ENDBRANCH   6   7
ENDBRANCH   5   6
ENDBRANCH   4   5
ENDBRANCH   3   4
ENDBRANCH   2   3
ENDBRANCH   1   2
BRANCH   1  15
ATOM     15  C   UNL     1     119.675 176.570 130.479  1.00  0.00     0.000 C 
BRANCH  15  16
ATOM     16  C   UNL     1     118.364 175.909 130.019  1.00  0.00     0.000 C 
BRANCH  16  17
ATOM     17  C   UNL     1     117.735 176.628 128.815  1.00  0.00     0.000 C 
BRANCH  17  18
ATOM     18  C   UNL     1     116.485 175.907 128.286  1.00  0.00    -0.000 C 
BRANCH  18  19
ATOM     19  C   UNL     1     116.621 175.600 126.786  1.00  0.00    -0.000 C 
BRANCH  19  20
ATOM     20  C   UNL     1     115.476 176.197 125.953  1.00  0.00    -0.000 C 
BRANCH  20  21
ATOM     21  C   UNL     1     114.975 177.541 126.511  1.00  0.00    -0.000 C 
BRANCH  21  22
ATOM     22  C   UNL     1     115.568 178.745 125.748  1.00  0.00    -0.000 C 
BRANCH  22  23
ATOM     23  C   UNL     1     116.743 179.420 126.476  1.00  0.00    -0.000 C 
BRANCH  23  24
ATOM     24  C   UNL     1     118.108 179.056 125.874  1.00  0.00    -0.000 C 
BRANCH  24  25
ATOM     25  C   UNL     1     117.941 178.315 124.542  1.00  0.00    -0.003 C 
ATOM     26  C   UNL     1     119.218 178.385 123.710  1.00  0.00     0.004 C 
ENDBRANCH  24  25
ENDBRANCH  23  24
ENDBRANCH  22  23
ENDBRANCH  21  22
ENDBRANCH  20  21
ENDBRANCH  19  20
ENDBRANCH  18  19
ENDBRANCH  17  18
ENDBRANCH  16  17
ENDBRANCH  15  16
ENDBRANCH   1  15
TORSDOF 22
ENDMDL
MODEL 2
REMARK VINA RESULT:    -5.390      2.642      6.043
REMARK INTER + INTRA:         -16.628
REMARK INTER:                 -12.272
REMARK INTRA:                  -4.356
REMARK UNBOUND:                -4.306
REMARK SMILES CCCCCCCCCCCCCCCCCCCCCCCC(=O)[O-]
REMARK SMILES IDX 13 1 14 2 15 3 16 4 17 5 18 6 19 7 20 8 21 9 22 10 23 11
REMARK SMILES IDX 24 12 25 13 26 14 12 15 11 16 10 17 9 18 8 19 7 20 6 21 5 22
REMARK SMILES IDX 4 23 3 24 2 25 1 26
REMARK H PARENT
REMARK Flexibility Score: inf
ROOT
ATOM      1  C   UNL     1     118.906 178.520 126.987  1.00  0.00     0.000 C 
ENDROOT
BRANCH   1   2
ATOM      2  C   UNL     1     120.371 178.186 127.327  1.00  0.00     0.000 C 
BRANCH   2   3
ATOM      3  C   UNL     1     120.492 177.227 128.523  1.00  0.00     0.000 C 
BRANCH   3   4
ATOM      4  C   UNL     1     119.932 177.830 129.824  1.00  0.00     0.000 C 
BRANCH   4   5
ATOM      5  C   UNL     1     119.361 176.760 130.769  1.00  0.00     0.000 C 
BRANCH   5   6
ATOM      6  C   UNL     1     118.716 175.585 130.018  1.00  0.00     0.000 C 
BRANCH   6   7
ATOM      7  C   UNL     1     117.215 175.438 130.321  1.00  0.00     0.000 C 
BRANCH   7   8
ATOM      8  C   UNL     1     116.309 175.784 129.119  1.00  0.00     0.000 C 
BRANCH   8   9
ATOM      9  C   UNL     1     116.989 175.487 127.772  1.00  0.00     0.000 C 
BRANCH   9  10
ATOM     10  C   UNL     1     116.173 175.993 126.568  1.00  0.00     0.006 C 
BRANCH  10  11
ATOM     11  C   UNL     1     115.290 177.212 126.876  1.00  0.00     0.053 C 
BRANCH  11  12
ATOM     12  C   UNL     1     115.236 178.168 125.725  1.00  0.00     0.041 C 
ATOM     13  O   UNL     1     115.105 177.737 124.549  1.00  0.00    -0.550 OA
ATOM     14  O   UNL     1     115.297 179.538 125.952  1.00  0.00    -0.550 OA
ENDBRANCH  11  12
ENDBRANCH  10  11
ENDBRANCH   9  10
ENDBRANCH   8   9
ENDBRANCH   7   8
ENDBRANCH   6   7
ENDBRANCH   5   6
ENDBRANCH   4   5
ENDBRANCH   3   4
ENDBRANCH   2   3
ENDBRANCH   1   2
BRANCH   1  15
ATOM     15  C   UNL     1     118.744 179.112 125.578  1.00  0.00     0.000 C 
BRANCH  15  16
ATOM     16  C   UNL     1     118.721 178.031 124.483  1.00  0.00     0.000 C 
BRANCH  16  17
ATOM     17  C   UNL     1     119.335 178.522 123.162  1.00  0.00     0.000 C 
BRANCH  17  18
ATOM     18  C   UNL     1     120.548 177.685 122.729  1.00  0.00    -0.000 C 
BRANCH  18  19
ATOM     19  C   UNL     1     121.309 177.146 123.951  1.00  0.00    -0.000 C 
BRANCH  19  20
ATOM     20  C   UNL     1     121.242 175.615 124.061  1.00  0.00    -0.000 C 
BRANCH  20  21
ATOM     21  C   UNL     1     121.403 175.116 125.508  1.00  0.00    -0.000 C 
BRANCH  21  22
ATOM     22  C   UNL     1     120.091 174.529 126.070  1.00  0.00    -0.000 C 
BRANCH  22  23
ATOM     23  C   UNL     1     120.285 173.694 127.347  1.00  0.00    -0.000 C 
BRANCH  23  24
ATOM     24  C   UNL     1     119.486 172.383 127.331  1.00  0.00    -0.000 C 
BRANCH  24  25
ATOM     25  C   UNL     1     118.602 172.294 126.081  1.00  0.00    -0.003 C 
ATOM     26  C   UNL     1     117.153 171.992 126.452  1.00  0.00     0.004 C 
ENDBRANCH  24  25
ENDBRANCH  23  24
ENDBRANCH  22  23
ENDBRANCH  21  22
ENDBRANCH  20  21
ENDBRANCH  19  20
ENDBRANCH  18  19
ENDBRANCH  17  18
ENDBRANCH  16  17
ENDBRANCH  15  16
ENDBRANCH   1  15
TORSDOF 22
ENDMDL
MODEL 3
REMARK VINA RESULT:    -5.366      2.290      5.312
REMARK INTER + INTRA:         -16.573
REMARK INTER:                 -12.182
REMARK INTRA:                  -4.391
REMARK UNBOUND:                -4.306
REMARK SMILES CCCCCCCCCCCCCCCCCCCCCCCC(=O)[O-]
REMARK SMILES IDX 13 1 14 2 15 3 16 4 17 5 18 6 19 7 20 8 21 9 22 10 23 11
REMARK SMILES IDX 24 12 25 13 26 14 12 15 11 16 10 17 9 18 8 19 7 20 6 21 5 22
REMARK SMILES IDX 4 23 3 24 2 25 1 26
REMARK H PARENT
REMARK Flexibility Score: inf
ROOT
ATOM      1  C   UNL     1     121.100 178.111 129.434  1.00  0.00     0.000 C 
ENDROOT
BRANCH   1   2
ATOM      2  C   UNL     1     121.294 177.559 128.009  1.00  0.00     0.000 C 
BRANCH   2   3
ATOM      3  C   UNL     1     122.160 178.481 127.136  1.00  0.00     0.000 C 
BRANCH   3   4
ATOM      4  C   UNL     1     122.683 177.778 125.870  1.00  0.00     0.000 C 
BRANCH   4   5
ATOM      5  C   UNL     1     121.868 176.523 125.517  1.00  0.00     0.000 C 
BRANCH   5   6
ATOM      6  C   UNL     1     121.048 176.689 124.228  1.00  0.00     0.000 C 
BRANCH   6   7
ATOM      7  C   UNL     1     119.581 177.065 124.501  1.00  0.00     0.000 C 
BRANCH   7   8
ATOM      8  C   UNL     1     119.309 178.582 124.414  1.00  0.00     0.000 C 
BRANCH   8   9
ATOM      9  C   UNL     1     118.406 179.078 125.557  1.00  0.00     0.000 C 
BRANCH   9  10
ATOM     10  C   UNL     1     118.120 177.989 126.606  1.00  0.00     0.006 C 
BRANCH  10  11
ATOM     11  C   UNL     1     116.762 178.138 127.310  1.00  0.00     0.053 C 
BRANCH  11  12
ATOM     12  C   UNL     1     115.646 177.550 126.501  1.00  0.00     0.041 C 
ATOM     13  O   UNL     1     115.897 176.733 125.576  1.00  0.00    -0.550 OA
ATOM     14  O   UNL     1     114.327 177.879 126.791  1.00  0.00    -0.550 OA
ENDBRANCH  11  12
ENDBRANCH  10  11
ENDBRANCH   9  10
ENDBRANCH   8   9
ENDBRANCH   7   8
ENDBRANCH   6   7
ENDBRANCH   5   6
ENDBRANCH   4   5
ENDBRANCH   3   4
ENDBRANCH   2   3
ENDBRANCH   1   2
BRANCH   1  15
ATOM     15  C   UNL     1     119.681 177.877 129.973  1.00  0.00     0.000 C 
BRANCH  15  16
ATOM     16  C   UNL     1     119.644 176.839 131.109  1.00  0.00     0.000 C 
BRANCH  16  17
ATOM     17  C   UNL     1     118.717 175.655 130.791  1.00  0.00     0.000 C 
BRANCH  17  18
ATOM     18  C   UNL     1     118.636 175.358 129.285  1.00  0.00    -0.000 C 
BRANCH  18  19
ATOM     19  C   UNL     1     119.752 174.395 128.853  1.00  0.00    -0.000 C 
BRANCH  19  20
ATOM     20  C   UNL     1     119.704 174.069 127.352  1.00  0.00    -0.000 C 
BRANCH  20  21
ATOM     21  C   UNL     1     118.325 174.348 126.728  1.00  0.00    -0.000 C 
BRANCH  21  22
ATOM     22  C   UNL     1     117.489 173.061 126.564  1.00  0.00    -0.000 C 
BRANCH  22  23
ATOM     23  C   UNL     1     118.298 171.768 126.769  1.00  0.00    -0.000 C 
BRANCH  23  24
ATOM     24  C   UNL     1     117.682 170.839 127.824  1.00  0.00    -0.000 C 
BRANCH  24  25
ATOM     25  C   UNL     1     118.285 171.102 129.209  1.00  0.00    -0.003 C 
ATOM     26  C   UNL     1     117.307 171.861 130.101  1.00  0.00     0.004 C 
ENDBRANCH  24  25
ENDBRANCH  23  24
ENDBRANCH  22  23
ENDBRANCH  21  22
ENDBRANCH  20  21
ENDBRANCH  19  20
ENDBRANCH  18  19
ENDBRANCH  17  18
ENDBRANCH  16  17
ENDBRANCH  15  16
ENDBRANCH   1  15
TORSDOF 22
ENDMDL
MODEL 4
REMARK VINA RESULT:    -5.356      2.461      5.315
REMARK INTER + INTRA:         -16.550
REMARK INTER:                 -12.366
REMARK INTRA:                  -4.183
REMARK UNBOUND:                -4.306
REMARK SMILES CCCCCCCCCCCCCCCCCCCCCCCC(=O)[O-]
REMARK SMILES IDX 13 1 14 2 15 3 16 4 17 5 18 6 19 7 20 8 21 9 22 10 23 11
REMARK SMILES IDX 24 12 25 13 26 14 12 15 11 16 10 17 9 18 8 19 7 20 6 21 5 22
REMARK SMILES IDX 4 23 3 24 2 25 1 26
REMARK H PARENT
REMARK Flexibility Score: inf
ROOT
ATOM      1  C   UNL     1     121.869 178.325 126.897  1.00  0.00     0.000 C 
ENDROOT
BRANCH   1   2
ATOM      2  C   UNL     1     123.025 177.637 126.148  1.00  0.00     0.000 C 
BRANCH   2   3
ATOM      3  C   UNL     1     122.542 176.853 124.917  1.00  0.00     0.000 C 
BRANCH   3   4
ATOM      4  C   UNL     1     121.448 175.827 125.260  1.00  0.00     0.000 C 
BRANCH   4   5
ATOM      5  C   UNL     1     120.111 176.142 124.571  1.00  0.00     0.000 C 
BRANCH   5   6
ATOM      6  C   UNL     1     120.143 177.460 123.783  1.00  0.00     0.000 C 
BRANCH   6   7
ATOM      7  C   UNL     1     118.866 178.297 123.971  1.00  0.00     0.000 C 
BRANCH   7   8
ATOM      8  C   UNL     1     118.857 179.119 125.279  1.00  0.00     0.000 C 
BRANCH   8   9
ATOM      9  C   UNL     1     118.058 178.427 126.396  1.00  0.00     0.000 C 
BRANCH   9  10
ATOM     10  C   UNL     1     116.945 179.320 126.975  1.00  0.00     0.006 C 
BRANCH  10  11
ATOM     11  C   UNL     1     115.733 179.494 126.046  1.00  0.00     0.053 C 
BRANCH  11  12
ATOM     12  C   UNL     1     115.056 178.189 125.761  1.00  0.00     0.041 C 
ATOM     13  O   UNL     1     114.108 177.795 126.491  1.00  0.00    -0.550 OA
ATOM     14  O   UNL     1     115.448 177.423 124.670  1.00  0.00    -0.550 OA
ENDBRANCH  11  12
ENDBRANCH  10  11
ENDBRANCH   9  10
ENDBRANCH   8   9
ENDBRANCH   7   8
ENDBRANCH   6   7
ENDBRANCH   5   6
ENDBRANCH   4   5
ENDBRANCH   3   4
ENDBRANCH   2   3
ENDBRANCH   1   2
BRANCH   1  15
ATOM     15  C   UNL     1     121.978 178.176 128.423  1.00  0.00     0.000 C 
BRANCH  15  16
ATOM     16  C   UNL     1     120.627 177.854 129.083  1.00  0.00     0.000 C 
BRANCH  16  17
ATOM     17  C   UNL     1     120.131 176.439 128.743  1.00  0.00     0.000 C 
BRANCH  17  18
ATOM     18  C   UNL     1     119.654 175.668 129.984  1.00  0.00    -0.000 C 
BRANCH  18  19
ATOM     19  C   UNL     1     118.140 175.830 130.185  1.00  0.00    -0.000 C 
BRANCH  19  20
ATOM     20  C   UNL     1     117.323 174.814 129.372  1.00  0.00    -0.000 C 
BRANCH  20  21
ATOM     21  C   UNL     1     116.736 175.418 128.083  1.00  0.00    -0.000 C 
BRANCH  21  22
ATOM     22  C   UNL     1     117.432 174.875 126.817  1.00  0.00    -0.000 C 
BRANCH  22  23
ATOM     23  C   UNL     1     117.083 173.410 126.501  1.00  0.00    -0.000 C 
BRANCH  23  24
ATOM     24  C   UNL     1     118.320 172.503 126.436  1.00  0.00    -0.000 C 
BRANCH  24  25
ATOM     25  C   UNL     1     119.575 173.250 126.903  1.00  0.00    -0.003 C 
ATOM     26  C   UNL     1     120.259 172.512 128.051  1.00  0.00     0.004 C 
ENDBRANCH  24  25
ENDBRANCH  23  24
ENDBRANCH  22  23
ENDBRANCH  21  22
ENDBRANCH  20  21
ENDBRANCH  19  20
ENDBRANCH  18  19
ENDBRANCH  17  18
ENDBRANCH  16  17
ENDBRANCH  15  16
ENDBRANCH   1  15
TORSDOF 22
ENDMDL
MODEL 5
REMARK VINA RESULT:    -5.339      1.676      3.199
REMARK INTER + INTRA:         -16.511
REMARK INTER:                 -12.343
REMARK INTRA:                  -4.168
REMARK UNBOUND:                -4.306
REMARK SMILES CCCCCCCCCCCCCCCCCCCCCCCC(=O)[O-]
REMARK SMILES IDX 13 1 14 2 15 3 16 4 17 5 18 6 19 7 20 8 21 9 22 10 23 11
REMARK SMILES IDX 24 12 25 13 26 14 12 15 11 16 10 17 9 18 8 19 7 20 6 21 5 22
REMARK SMILES IDX 4 23 3 24 2 25 1 26
REMARK H PARENT
REMARK Flexibility Score: inf
ROOT
ATOM      1  C   UNL     1     121.087 178.620 127.245  1.00  0.00     0.000 C 
ENDROOT
BRANCH   1   2
ATOM      2  C   UNL     1     119.589 178.458 126.925  1.00  0.00     0.000 C 
BRANCH   2   3
ATOM      3  C   UNL     1     119.136 179.357 125.764  1.00  0.00     0.000 C 
BRANCH   3   4
ATOM      4  C   UNL     1     118.998 178.588 124.438  1.00  0.00     0.000 C 
BRANCH   4   5
ATOM      5  C   UNL     1     119.076 177.065 124.632  1.00  0.00     0.000 C 
BRANCH   5   6
ATOM      6  C   UNL     1     120.469 176.496 124.319  1.00  0.00     0.000 C 
BRANCH   6   7
ATOM      7  C   UNL     1     120.680 175.088 124.901  1.00  0.00     0.000 C 
BRANCH   7   8
ATOM      8  C   UNL     1     120.812 175.072 126.440  1.00  0.00     0.000 C 
BRANCH   8   9
ATOM      9  C   UNL     1     120.402 173.719 127.046  1.00  0.00     0.000 C 
BRANCH   9  10
ATOM     10  C   UNL     1     119.528 172.880 126.095  1.00  0.00     0.006 C 
BRANCH  10  11
ATOM     11  C   UNL     1     118.568 171.918 126.811  1.00  0.00     0.053 C 
BRANCH  11  12
ATOM     12  C   UNL     1     117.519 171.383 125.885  1.00  0.00     0.041 C 
ATOM     13  O   UNL     1     116.420 171.984 125.758  1.00  0.00    -0.550 OA
ATOM     14  O   UNL     1     117.769 170.240 125.134  1.00  0.00    -0.550 OA
ENDBRANCH  11  12
ENDBRANCH  10  11
ENDBRANCH   9  10
ENDBRANCH   8   9
ENDBRANCH   7   8
ENDBRANCH   6   7
ENDBRANCH   5   6
ENDBRANCH   4   5
ENDBRANCH   3   4
ENDBRANCH   2   3
ENDBRANCH   1   2
BRANCH   1  15
ATOM     15  C   UNL     1     121.454 178.106 128.646  1.00  0.00     0.000 C 
BRANCH  15  16
ATOM     16  C   UNL     1     120.218 177.865 129.529  1.00  0.00     0.000 C 
BRANCH  16  17
ATOM     17  C   UNL     1     120.339 176.586 130.372  1.00  0.00     0.000 C 
BRANCH  17  18
ATOM     18  C   UNL     1     119.020 176.210 131.066  1.00  0.00    -0.000 C 
BRANCH  18  19
ATOM     19  C   UNL     1     118.318 175.060 130.328  1.00  0.00    -0.000 C 
BRANCH  19  20
ATOM     20  C   UNL     1     117.166 175.546 129.434  1.00  0.00    -0.000 C 
BRANCH  20  21
ATOM     21  C   UNL     1     117.626 175.884 128.004  1.00  0.00    -0.000 C 
BRANCH  21  22
ATOM     22  C   UNL     1     116.737 175.216 126.934  1.00  0.00    -0.000 C 
BRANCH  22  23
ATOM     23  C   UNL     1     115.914 176.216 126.104  1.00  0.00    -0.000 C 
BRANCH  23  24
ATOM     24  C   UNL     1     115.919 177.632 126.696  1.00  0.00    -0.000 C 
BRANCH  24  25
ATOM     25  C   UNL     1     115.164 178.610 125.789  1.00  0.00    -0.003 C 
ATOM     26  C   UNL     1     115.126 178.107 124.348  1.00  0.00     0.004 C 
ENDBRANCH  24  25
ENDBRANCH  23  24
ENDBRANCH  22  23
ENDBRANCH  21  22
ENDBRANCH  20  21
ENDBRANCH  19  20
ENDBRANCH  18  19
ENDBRANCH  17  18
ENDBRANCH  16  17
ENDBRANCH  15  16
ENDBRANCH   1  15
TORSDOF 22
ENDMDL
MODEL 6
REMARK VINA RESULT:    -5.316      1.284      2.038
REMARK INTER + INTRA:         -16.458
REMARK INTER:                 -12.954
REMARK INTRA:                  -3.504
REMARK UNBOUND:                -4.306
REMARK SMILES CCCCCCCCCCCCCCCCCCCCCCCC(=O)[O-]
REMARK SMILES IDX 13 1 14 2 15 3 16 4 17 5 18 6 19 7 20 8 21 9 22 10 23 11
REMARK SMILES IDX 24 12 25 13 26 14 12 15 11 16 10 17 9 18 8 19 7 20 6 21 5 22
REMARK SMILES IDX 4 23 3 24 2 25 1 26
REMARK H PARENT
REMARK Flexibility Score: inf
ROOT
ATOM      1  C   UNL     1     119.159 177.314 130.630  1.00  0.00     0.000 C 
ENDROOT
BRANCH   1   2
ATOM      2  C   UNL     1     120.540 177.898 130.278  1.00  0.00     0.000 C 
BRANCH   2   3
ATOM      3  C   UNL     1     120.892 177.718 128.793  1.00  0.00     0.000 C 
BRANCH   3   4
ATOM      4  C   UNL     1     121.999 178.680 128.326  1.00  0.00     0.000 C 
BRANCH   4   5
ATOM      5  C   UNL     1     122.169 178.684 126.798  1.00  0.00     0.000 C 
BRANCH   5   6
ATOM      6  C   UNL     1     122.800 177.388 126.266  1.00  0.00     0.000 C 
BRANCH   6   7
ATOM      7  C   UNL     1     122.278 177.001 124.872  1.00  0.00     0.000 C 
BRANCH   7   8
ATOM      8  C   UNL     1     122.100 175.478 124.683  1.00  0.00     0.000 C 
BRANCH   8   9
ATOM      9  C   UNL     1     120.664 175.017 124.985  1.00  0.00     0.000 C 
BRANCH   9  10
ATOM     10  C   UNL     1     120.427 174.749 126.483  1.00  0.00     0.006 C 
BRANCH  10  11
ATOM     11  C   UNL     1     119.167 173.920 126.780  1.00  0.00     0.053 C 
BRANCH  11  12
ATOM     12  C   UNL     1     119.463 172.757 127.676  1.00  0.00     0.041 C 
ATOM     13  O   UNL     1     119.204 171.584 127.296  1.00  0.00    -0.550 OA
ATOM     14  O   UNL     1     120.056 172.964 128.916  1.00  0.00    -0.550 OA
ENDBRANCH  11  12
ENDBRANCH  10  11
ENDBRANCH   9  10
ENDBRANCH   8   9
ENDBRANCH   7   8
ENDBRANCH   6   7
ENDBRANCH   5   6
ENDBRANCH   4   5
ENDBRANCH   3   4
ENDBRANCH   2   3
ENDBRANCH   1   2
BRANCH   1  15
ATOM     15  C   UNL     1     119.173 175.781 130.738  1.00  0.00     0.000 C 
BRANCH  15  16
ATOM     16  C   UNL     1     117.787 175.200 131.069  1.00  0.00     0.000 C 
BRANCH  16  17
ATOM     17  C   UNL     1     117.038 174.720 129.816  1.00  0.00     0.000 C 
BRANCH  17  18
ATOM     18  C   UNL     1     116.073 175.781 129.263  1.00  0.00    -0.000 C 
BRANCH  18  19
ATOM     19  C   UNL     1     116.596 176.364 127.941  1.00  0.00    -0.000 C 
BRANCH  19  20
ATOM     20  C   UNL     1     115.611 177.356 127.302  1.00  0.00    -0.000 C 
BRANCH  20  21
ATOM     21  C   UNL     1     116.302 178.632 126.788  1.00  0.00    -0.000 C 
BRANCH  21  22
ATOM     22  C   UNL     1     117.813 178.641 127.102  1.00  0.00    -0.000 C 
BRANCH  22  23
ATOM     23  C   UNL     1     118.699 178.881 125.868  1.00  0.00    -0.000 C 
BRANCH  23  24
ATOM     24  C   UNL     1     118.121 178.260 124.588  1.00  0.00    -0.000 C 
BRANCH  24  25
ATOM     25  C   UNL     1     119.237 177.901 123.599  1.00  0.00    -0.003 C 
ATOM     26  C   UNL     1     119.324 178.927 122.472  1.00  0.00     0.004 C 
ENDBRANCH  24  25
ENDBRANCH  23  24
ENDBRANCH  22  23
ENDBRANCH  21  22
ENDBRANCH  20  21
ENDBRANCH  19  20
ENDBRANCH  18  19
ENDBRANCH  17  18
ENDBRANCH  16  17
ENDBRANCH  15  16
ENDBRANCH   1  15
TORSDOF 22
ENDMDL
MODEL 7
REMARK VINA RESULT:    -5.291      2.654      6.262
REMARK INTER + INTRA:         -16.403
REMARK INTER:                 -12.192
REMARK INTRA:                  -4.211
REMARK UNBOUND:                -4.306
REMARK SMILES CCCCCCCCCCCCCCCCCCCCCCCC(=O)[O-]
REMARK SMILES IDX 13 1 14 2 15 3 16 4 17 5 18 6 19 7 20 8 21 9 22 10 23 11
REMARK SMILES IDX 24 12 25 13 26 14 12 15 11 16 10 17 9 18 8 19 7 20 6 21 5 22
REMARK SMILES IDX 4 23 3 24 2 25 1 26
REMARK H PARENT
REMARK Flexibility Score: inf
ROOT
ATOM      1  C   UNL     1     119.379 178.232 127.968  1.00  0.00     0.000 C 
ENDROOT
BRANCH   1   2
ATOM      2  C   UNL     1     119.986 177.216 128.952  1.00  0.00     0.000 C 
BRANCH   2   3
ATOM      3  C   UNL     1     119.472 177.409 130.388  1.00  0.00     0.000 C 
BRANCH   3   4
ATOM      4  C   UNL     1     119.080 176.081 131.060  1.00  0.00     0.000 C 
BRANCH   4   5
ATOM      5  C   UNL     1     118.306 175.149 130.113  1.00  0.00     0.000 C 
BRANCH   5   6
ATOM      6  C   UNL     1     116.792 175.411 130.126  1.00  0.00     0.000 C 
BRANCH   6   7
ATOM      7  C   UNL     1     116.275 175.980 128.793  1.00  0.00     0.000 C 
BRANCH   7   8
ATOM      8  C   UNL     1     116.906 175.310 127.553  1.00  0.00     0.000 C 
BRANCH   8   9
ATOM      9  C   UNL     1     116.278 175.806 126.240  1.00  0.00     0.000 C 
BRANCH   9  10
ATOM     10  C   UNL     1     117.190 176.782 125.473  1.00  0.00     0.006 C 
BRANCH  10  11
ATOM     11  C   UNL     1     116.702 178.239 125.488  1.00  0.00     0.053 C 
BRANCH  11  12
ATOM     12  C   UNL     1     115.217 178.333 125.315  1.00  0.00     0.041 C 
ATOM     13  O   UNL     1     114.479 178.588 126.304  1.00  0.00    -0.550 OA
ATOM     14  O   UNL     1     114.650 178.173 124.056  1.00  0.00    -0.550 OA
ENDBRANCH  11  12
ENDBRANCH  10  11
ENDBRANCH   9  10
ENDBRANCH   8   9
ENDBRANCH   7   8
ENDBRANCH   6   7
ENDBRANCH   5   6
ENDBRANCH   4   5
ENDBRANCH   3   4
ENDBRANCH   2   3
ENDBRANCH   1   2
BRANCH   1  15
ATOM     15  C   UNL     1     120.275 178.484 126.745  1.00  0.00     0.000 C 
BRANCH  15  16
ATOM     16  C   UNL     1     121.719 177.999 126.962  1.00  0.00     0.000 C 
BRANCH  16  17
ATOM     17  C   UNL     1     122.222 177.121 125.805  1.00  0.00     0.000 C 
BRANCH  17  18
ATOM     18  C   UNL     1     121.157 176.911 124.718  1.00  0.00    -0.000 C 
BRANCH  18  19
ATOM     19  C   UNL     1     120.653 175.459 124.715  1.00  0.00    -0.000 C 
BRANCH  19  20
ATOM     20  C   UNL     1     121.327 174.596 125.793  1.00  0.00    -0.000 C 
BRANCH  20  21
ATOM     21  C   UNL     1     120.327 174.049 126.827  1.00  0.00    -0.000 C 
BRANCH  21  22
ATOM     22  C   UNL     1     119.216 173.202 126.170  1.00  0.00    -0.000 C 
BRANCH  22  23
ATOM     23  C   UNL     1     119.360 171.692 126.425  1.00  0.00    -0.000 C 
BRANCH  23  24
ATOM     24  C   UNL     1     118.108 171.072 127.063  1.00  0.00    -0.000 C 
BRANCH  24  25
ATOM     25  C   UNL     1     117.737 171.798 128.362  1.00  0.00    -0.003 C 
ATOM     26  C   UNL     1     118.744 171.497 129.468  1.00  0.00     0.004 C 
ENDBRANCH  24  25
ENDBRANCH  23  24
ENDBRANCH  22  23
ENDBRANCH  21  22
ENDBRANCH  20  21
ENDBRANCH  19  20
ENDBRANCH  18  19
ENDBRANCH  17  18
ENDBRANCH  16  17
ENDBRANCH  15  16
ENDBRANCH   1  15
TORSDOF 22
ENDMDL
MODEL 8
REMARK VINA RESULT:    -5.242      1.458      4.319
REMARK INTER + INTRA:         -16.289
REMARK INTER:                 -12.109
REMARK INTRA:                  -4.180
REMARK UNBOUND:                -4.306
REMARK SMILES CCCCCCCCCCCCCCCCCCCCCCCC(=O)[O-]
REMARK SMILES IDX 13 1 14 2 15 3 16 4 17 5 18 6 19 7 20 8 21 9 22 10 23 11
REMARK SMILES IDX 24 12 25 13 26 14 12 15 11 16 10 17 9 18 8 19 7 20 6 21 5 22
REMARK SMILES IDX 4 23 3 24 2 25 1 26
REMARK H PARENT
REMARK Flexibility Score: inf
ROOT
ATOM      1  C   UNL     1     116.360 176.825 128.106  1.00  0.00     0.000 C 
ENDROOT
BRANCH   1   2
ATOM      2  C   UNL     1     115.208 177.474 127.317  1.00  0.00     0.000 C 
BRANCH   2   3
ATOM      3  C   UNL     1     115.702 178.535 126.321  1.00  0.00     0.000 C 
BRANCH   3   4
ATOM      4  C   UNL     1     117.038 179.170 126.747  1.00  0.00     0.000 C 
BRANCH   4   5
ATOM      5  C   UNL     1     118.116 179.056 125.657  1.00  0.00     0.000 C 
BRANCH   5   6
ATOM      6  C   UNL     1     118.013 177.752 124.851  1.00  0.00     0.000 C 
BRANCH   6   7
ATOM      7  C   UNL     1     119.385 177.221 124.401  1.00  0.00     0.000 C 
BRANCH   7   8
ATOM      8  C   UNL     1     119.683 175.789 124.899  1.00  0.00     0.000 C 
BRANCH   8   9
ATOM      9  C   UNL     1     119.092 175.523 126.294  1.00  0.00     0.000 C 
BRANCH   9  10
ATOM     10  C   UNL     1     118.107 174.339 126.308  1.00  0.00     0.006 C 
BRANCH  10  11
ATOM     11  C   UNL     1     118.701 173.036 126.866  1.00  0.00     0.053 C 
BRANCH  11  12
ATOM     12  C   UNL     1     117.731 171.898 126.778  1.00  0.00     0.041 C 
ATOM     13  O   UNL     1     116.780 171.938 125.951  1.00  0.00    -0.550 OA
ATOM     14  O   UNL     1     117.895 170.777 127.583  1.00  0.00    -0.550 OA
ENDBRANCH  11  12
ENDBRANCH  10  11
ENDBRANCH   9  10
ENDBRANCH   8   9
ENDBRANCH   7   8
ENDBRANCH   6   7
ENDBRANCH   5   6
ENDBRANCH   4   5
ENDBRANCH   3   4
ENDBRANCH   2   3
ENDBRANCH   1   2
BRANCH   1  15
ATOM     15  C   UNL     1     115.867 175.971 129.284  1.00  0.00     0.000 C 
BRANCH  15  16
ATOM     16  C   UNL     1     116.855 174.851 129.656  1.00  0.00     0.000 C 
BRANCH  16  17
ATOM     17  C   UNL     1     117.879 175.300 130.710  1.00  0.00     0.000 C 
BRANCH  17  18
ATOM     18  C   UNL     1     119.325 175.231 130.194  1.00  0.00    -0.000 C 
BRANCH  18  19
ATOM     19  C   UNL     1     120.186 176.340 130.819  1.00  0.00    -0.000 C 
BRANCH  19  20
ATOM     20  C   UNL     1     119.714 177.749 130.424  1.00  0.00    -0.000 C 
BRANCH  20  21
ATOM     21  C   UNL     1     119.762 177.987 128.904  1.00  0.00    -0.000 C 
BRANCH  21  22
ATOM     22  C   UNL     1     121.188 177.832 128.335  1.00  0.00    -0.000 C 
BRANCH  22  23
ATOM     23  C   UNL     1     121.430 178.638 127.047  1.00  0.00    -0.000 C 
BRANCH  23  24
ATOM     24  C   UNL     1     122.788 178.333 126.398  1.00  0.00    -0.000 C 
BRANCH  24  25
ATOM     25  C   UNL     1     122.845 176.884 125.899  1.00  0.00    -0.003 C 
ATOM     26  C   UNL     1     123.238 176.825 124.426  1.00  0.00     0.004 C 
ENDBRANCH  24  25
ENDBRANCH  23  24
ENDBRANCH  22  23
ENDBRANCH  21  22
ENDBRANCH  20  21
ENDBRANCH  19  20
ENDBRANCH  18  19
ENDBRANCH  17  18
ENDBRANCH  16  17
ENDBRANCH  15  16
ENDBRANCH   1  15
TORSDOF 22
ENDMDL
MODEL 9
REMARK VINA RESULT:    -5.235      1.495      2.103
REMARK INTER + INTRA:         -16.273
REMARK INTER:                 -12.636
REMARK INTRA:                  -3.637
REMARK UNBOUND:                -4.306
REMARK SMILES CCCCCCCCCCCCCCCCCCCCCCCC(=O)[O-]
REMARK SMILES IDX 13 1 14 2 15 3 16 4 17 5 18 6 19 7 20 8 21 9 22 10 23 11
REMARK SMILES IDX 24 12 25 13 26 14 12 15 11 16 10 17 9 18 8 19 7 20 6 21 5 22
REMARK SMILES IDX 4 23 3 24 2 25 1 26
REMARK H PARENT
REMARK Flexibility Score: inf
ROOT
ATOM      1  C   UNL     1     120.670 177.526 128.733  1.00  0.00     0.000 C 
ENDROOT
BRANCH   1   2
ATOM      2  C   UNL     1     121.960 178.195 128.226  1.00  0.00     0.000 C 
BRANCH   2   3
ATOM      3  C   UNL     1     121.993 178.321 126.694  1.00  0.00     0.000 C 
BRANCH   3   4
ATOM      4  C   UNL     1     122.753 177.164 126.021  1.00  0.00     0.000 C 
BRANCH   4   5
ATOM      5  C   UNL     1     122.016 176.617 124.788  1.00  0.00     0.000 C 
BRANCH   5   6
ATOM      6  C   UNL     1     121.277 175.300 125.071  1.00  0.00     0.000 C 
BRANCH   6   7
ATOM      7  C   UNL     1     119.882 175.521 125.682  1.00  0.00     0.000 C 
BRANCH   7   8
ATOM      8  C   UNL     1     119.563 174.560 126.848  1.00  0.00     0.000 C 
BRANCH   8   9
ATOM      9  C   UNL     1     119.184 173.153 126.356  1.00  0.00     0.000 C 
BRANCH   9  10
ATOM     10  C   UNL     1     117.949 172.581 127.076  1.00  0.00     0.006 C 
BRANCH  10  11
ATOM     11  C   UNL     1     118.166 171.186 127.682  1.00  0.00     0.053 C 
BRANCH  11  12
ATOM     12  C   UNL     1     116.911 170.368 127.664  1.00  0.00     0.041 C 
ATOM     13  O   UNL     1     116.625 169.669 126.656  1.00  0.00    -0.550 OA
ATOM     14  O   UNL     1     116.074 170.350 128.774  1.00  0.00    -0.550 OA
ENDBRANCH  11  12
ENDBRANCH  10  11
ENDBRANCH   9  10
ENDBRANCH   8   9
ENDBRANCH   7   8
ENDBRANCH   6   7
ENDBRANCH   5   6
ENDBRANCH   4   5
ENDBRANCH   3   4
ENDBRANCH   2   3
ENDBRANCH   1   2
BRANCH   1  15
ATOM     15  C   UNL     1     120.177 178.118 130.063  1.00  0.00     0.000 C 
BRANCH  15  16
ATOM     16  C   UNL     1     119.743 177.036 131.067  1.00  0.00     0.000 C 
BRANCH  16  17
ATOM     17  C   UNL     1     119.249 175.757 130.373  1.00  0.00     0.000 C 
BRANCH  17  18
ATOM     18  C   UNL     1     117.954 175.211 130.995  1.00  0.00    -0.000 C 
BRANCH  18  19
ATOM     19  C   UNL     1     116.989 174.712 129.908  1.00  0.00    -0.000 C 
BRANCH  19  20
ATOM     20  C   UNL     1     116.160 175.847 129.287  1.00  0.00    -0.000 C 
BRANCH  20  21
ATOM     21  C   UNL     1     116.378 175.980 127.769  1.00  0.00    -0.000 C 
BRANCH  21  22
ATOM     22  C   UNL     1     116.099 177.412 127.265  1.00  0.00    -0.000 C 
BRANCH  22  23
ATOM     23  C   UNL     1     117.332 178.330 127.297  1.00  0.00    -0.000 C 
BRANCH  23  24
ATOM     24  C   UNL     1     117.472 179.186 126.030  1.00  0.00    -0.000 C 
BRANCH  24  25
ATOM     25  C   UNL     1     118.906 179.136 125.489  1.00  0.00    -0.003 C 
ATOM     26  C   UNL     1     118.939 178.581 124.068  1.00  0.00     0.004 C 
ENDBRANCH  24  25
ENDBRANCH  23  24
ENDBRANCH  22  23
ENDBRANCH  21  22
ENDBRANCH  20  21
ENDBRANCH  19  20
ENDBRANCH  18  19
ENDBRANCH  17  18
ENDBRANCH  16  17
ENDBRANCH  15  16
ENDBRANCH   1  15
TORSDOF 22
ENDMDL
