MODEL 1
REMARK VINA RESULT:    -3.126      0.000      0.000
REMARK INTER + INTRA:          -3.508
REMARK INTER:                  -3.491
REMARK INTRA:                  -0.017
REMARK UNBOUND:                -0.017
REMARK SMILES CCCC(=O)[O-]
REMARK SMILES IDX 3 1 4 2 5 3 6 4 2 5 1 6
REMARK H PARENT
REMARK Flexibility Score: inf
ROOT
ATOM      1  C   UNL     1      39.726  17.876 -15.278  1.00  0.00     0.052 C 
ENDROOT
BRANCH   1   2
ATOM      2  C   UNL     1      40.962  18.709 -15.415  1.00  0.00     0.041 C 
ATOM      3  O   UNL     1      41.975  18.459 -14.712  1.00  0.00    -0.550 OA
ATOM      4  O   UNL     1      40.977  19.793 -16.283  1.00  0.00    -0.550 OA
ENDBRANCH   1   2
BRANCH   1   5
ATOM      5  C   UNL     1      38.552  18.534 -16.008  1.00  0.00     0.003 C 
ATOM      6  C   UNL     1      37.272  18.445 -15.183  1.00  0.00     0.004 C 
ENDBRANCH   1   5
TORSDOF 2
ENDMDL
MODEL 2
REMARK VINA RESULT:    -2.924      9.585      9.907
REMARK INTER + INTRA:          -3.283
REMARK INTER:                  -3.255
REMARK INTRA:                  -0.028
REMARK UNBOUND:                -0.017
REMARK SMILES CCCC(=O)[O-]
REMARK SMILES IDX 3 1 4 2 5 3 6 4 2 5 1 6
REMARK H PARENT
REMARK Flexibility Score: inf
ROOT
ATOM      1  C   UNL     1      40.194  23.388 -25.022  1.00  0.00     0.052 C 
ENDROOT
BRANCH   1   2
ATOM      2  C   UNL     1      41.268  23.421 -23.980  1.00  0.00     0.041 C 
ATOM      3  O   UNL     1      41.889  22.369 -23.678  1.00  0.00    -0.550 OA
ATOM      4  O   UNL     1      41.548  24.604 -23.308  1.00  0.00    -0.550 OA
ENDBRANCH   1   2
BRANCH   1   5
ATOM      5  C   UNL     1      39.584  21.987 -25.118  1.00  0.00     0.003 C 
ATOM      6  C   UNL     1      38.128  21.987 -24.663  1.00  0.00     0.004 C 
ENDBRANCH   1   5
TORSDOF 2
ENDMDL
MODEL 3
REMARK VINA RESULT:    -2.913      8.085      8.693
REMARK INTER + INTRA:          -3.271
REMARK INTER:                  -3.201
REMARK INTRA:                  -0.070
REMARK UNBOUND:                -0.017
REMARK SMILES CCCC(=O)[O-]
REMARK SMILES IDX 3 1 4 2 5 3 6 4 2 5 1 6
REMARK H PARENT
REMARK Flexibility Score: inf
ROOT
ATOM      1  C   UNL     1      40.078  20.502 -23.732  1.00  0.00     0.052 C 
ENDROOT
BRANCH   1   2
ATOM      2  C   UNL     1      40.783  21.613 -23.019  1.00  0.00     0.041 C 
ATOM      3  O   UNL     1      40.372  22.006 -21.897  1.00  0.00    -0.550 OA
ATOM      4  O   UNL     1      41.864  22.247 -23.618  1.00  0.00    -0.550 OA
ENDBRANCH   1   2
BRANCH   1   5
ATOM      5  C   UNL     1      38.617  20.876 -23.995  1.00  0.00     0.003 C 
ATOM      6  C   UNL     1      38.508  21.926 -25.097  1.00  0.00     0.004 C 
ENDBRANCH   1   5
TORSDOF 2
ENDMDL
MODEL 4
REMARK VINA RESULT:    -2.893     17.234     17.857
REMARK INTER + INTRA:          -3.248
REMARK INTER:                  -3.235
REMARK INTRA:                  -0.013
REMARK UNBOUND:                -0.017
REMARK SMILES CCCC(=O)[O-]
REMARK SMILES IDX 3 1 4 2 5 3 6 4 2 5 1 6
REMARK H PARENT
REMARK Flexibility Score: inf
ROOT
ATOM      1  C   UNL     1      47.847  34.761 -13.966  1.00  0.00     0.052 C 
ENDROOT
BRANCH   1   2
ATOM      2  C   UNL     1      46.692  34.474 -13.059  1.00  0.00     0.041 C 
ATOM      3  O   UNL     1      45.625  33.997 -13.525  1.00  0.00    -0.550 OA
ATOM      4  O   UNL     1      46.777  34.780 -11.707  1.00  0.00    -0.550 OA
ENDBRANCH   1   2
BRANCH   1   5
ATOM      5  C   UNL     1      47.393  34.768 -15.428  1.00  0.00     0.003 C 
ATOM      6  C   UNL     1      48.588  34.778 -16.376  1.00  0.00     0.004 C 
ENDBRANCH   1   5
TORSDOF 2
ENDMDL
MODEL 5
REMARK VINA RESULT:    -2.871     17.858     18.680
REMARK INTER + INTRA:          -3.224
REMARK INTER:                  -3.194
REMARK INTRA:                  -0.029
REMARK UNBOUND:                -0.017
REMARK SMILES CCCC(=O)[O-]
REMARK SMILES IDX 3 1 4 2 5 3 6 4 2 5 1 6
REMARK H PARENT
REMARK Flexibility Score: inf
ROOT
ATOM      1  C   UNL     1      47.830  34.741 -16.347  1.00  0.00     0.052 C 
ENDROOT
BRANCH   1   2
ATOM      2  C   UNL     1      47.731  34.852 -14.859  1.00  0.00     0.041 C 
ATOM      3  O   UNL     1      48.725  35.227 -14.184  1.00  0.00    -0.550 OA
ATOM      4  O   UNL     1      46.555  34.494 -14.212  1.00  0.00    -0.550 OA
ENDBRANCH   1   2
BRANCH   1   5
ATOM      5  C   UNL     1      48.531  35.971 -16.931  1.00  0.00     0.003 C 
ATOM      6  C   UNL     1      47.526  36.933 -17.557  1.00  0.00     0.004 C 
ENDBRANCH   1   5
TORSDOF 2
ENDMDL
MODEL 6
REMARK VINA RESULT:    -2.865     18.911     19.665
REMARK INTER + INTRA:          -3.217
REMARK INTER:                  -3.152
REMARK INTRA:                  -0.065
REMARK UNBOUND:                -0.017
REMARK SMILES CCCC(=O)[O-]
REMARK SMILES IDX 3 1 4 2 5 3 6 4 2 5 1 6
REMARK H PARENT
REMARK Flexibility Score: inf
ROOT
ATOM      1  C   UNL     1      49.146  35.515 -16.877  1.00  0.00     0.052 C 
ENDROOT
BRANCH   1   2
ATOM      2  C   UNL     1      48.829  36.964 -17.077  1.00  0.00     0.041 C 
ATOM      3  O   UNL     1      49.428  37.842 -16.404  1.00  0.00    -0.550 OA
ATOM      4  O   UNL     1      47.836  37.341 -17.972  1.00  0.00    -0.550 OA
ENDBRANCH   1   2
BRANCH   1   5
ATOM      5  C   UNL     1      47.885  34.739 -16.487  1.00  0.00     0.003 C 
ATOM      6  C   UNL     1      47.540  34.953 -15.016  1.00  0.00     0.004 C 
ENDBRANCH   1   5
TORSDOF 2
ENDMDL
MODEL 7
REMARK VINA RESULT:    -2.845      8.130      8.783
REMARK INTER + INTRA:          -3.195
REMARK INTER:                  -3.172
REMARK INTRA:                  -0.023
REMARK UNBOUND:                -0.017
REMARK SMILES CCCC(=O)[O-]
REMARK SMILES IDX 3 1 4 2 5 3 6 4 2 5 1 6
REMARK H PARENT
REMARK Flexibility Score: inf
ROOT
ATOM      1  C   UNL     1      38.582  21.178 -24.263  1.00  0.00     0.052 C 
ENDROOT
BRANCH   1   2
ATOM      2  C   UNL     1      40.071  21.193 -24.406  1.00  0.00     0.041 C 
ATOM      3  O   UNL     1      40.758  20.231 -23.975  1.00  0.00    -0.550 OA
ATOM      4  O   UNL     1      40.704  22.293 -24.972  1.00  0.00    -0.550 OA
ENDBRANCH   1   2
BRANCH   1   5
ATOM      5  C   UNL     1      38.149  20.091 -23.276  1.00  0.00     0.003 C 
ATOM      6  C   UNL     1      37.203  20.653 -22.218  1.00  0.00     0.004 C 
ENDBRANCH   1   5
TORSDOF 2
ENDMDL
MODEL 8
REMARK VINA RESULT:    -2.816     18.983     19.766
REMARK INTER + INTRA:          -3.162
REMARK INTER:                  -3.095
REMARK INTRA:                  -0.067
REMARK UNBOUND:                -0.017
REMARK SMILES CCCC(=O)[O-]
REMARK SMILES IDX 3 1 4 2 5 3 6 4 2 5 1 6
REMARK H PARENT
REMARK Flexibility Score: inf
ROOT
ATOM      1  C   UNL     1      49.415  35.146 -16.814  1.00  0.00     0.052 C 
ENDROOT
BRANCH   1   2
ATOM      2  C   UNL     1      50.003  36.228 -15.964  1.00  0.00     0.041 C 
ATOM      3  O   UNL     1      50.683  37.148 -16.490  1.00  0.00    -0.550 OA
ATOM      4  O   UNL     1      49.843  36.194 -14.585  1.00  0.00    -0.550 OA
ENDBRANCH   1   2
BRANCH   1   5
ATOM      5  C   UNL     1      47.898  35.079 -16.622  1.00  0.00     0.003 C 
ATOM      6  C   UNL     1      47.204  36.256 -17.302  1.00  0.00     0.004 C 
ENDBRANCH   1   5
TORSDOF 2
ENDMDL
MODEL 9
REMARK VINA RESULT:    -2.802     18.707     19.468
REMARK INTER + INTRA:          -3.147
REMARK INTER:                  -3.075
REMARK INTRA:                  -0.072
REMARK UNBOUND:                -0.017
REMARK SMILES CCCC(=O)[O-]
REMARK SMILES IDX 3 1 4 2 5 3 6 4 2 5 1 6
REMARK H PARENT
REMARK Flexibility Score: inf
ROOT
ATOM      1  C   UNL     1      48.536  34.791 -16.464  1.00  0.00     0.052 C 
ENDROOT
BRANCH   1   2
ATOM      2  C   UNL     1      47.480  35.847 -16.543  1.00  0.00     0.041 C 
ATOM      3  O   UNL     1      47.109  36.290 -17.661  1.00  0.00    -0.550 OA
ATOM      4  O   UNL     1      46.940  36.378 -15.378  1.00  0.00    -0.550 OA
ENDBRANCH   1   2
BRANCH   1   5
ATOM      5  C   UNL     1      49.851  35.302 -17.059  1.00  0.00     0.003 C 
ATOM      6  C   UNL     1      50.465  36.391 -16.185  1.00  0.00     0.004 C 
ENDBRANCH   1   5
TORSDOF 2
ENDMDL
