MODEL 1
REMARK VINA RESULT:    -3.606      0.000      0.000
REMARK INTER + INTRA:          -5.692
REMARK INTER:                  -5.293
REMARK INTRA:                  -0.400
REMARK UNBOUND:                -0.400
REMARK SMILES O=C([O-])CCCCCCCC(=O)[O-]
REMARK SMILES IDX 7 1 6 2 5 3 4 4 2 5 1 6 3 7 8 8 9 9 10 10 11 11 12 12 13 13
REMARK H PARENT
REMARK Flexibility Score: inf
ROOT
ATOM      1  C   UNL     1       7.486   8.424  33.600  1.00  0.00     0.000 C 
ENDROOT
BRANCH   1   2
ATOM      2  C   UNL     1       6.654   7.145  33.453  1.00  0.00     0.000 C 
BRANCH   2   3
ATOM      3  C   UNL     1       6.755   6.276  34.716  1.00  0.00     0.006 C 
BRANCH   3   4
ATOM      4  C   UNL     1       8.009   6.596  35.542  1.00  0.00     0.053 C 
BRANCH   4   5
ATOM      5  C   UNL     1       9.061   5.541  35.389  1.00  0.00     0.041 C 
ATOM      6  O   UNL     1       9.015   4.496  36.090  1.00  0.00    -0.550 OA
ATOM      7  O   UNL     1      10.109   5.726  34.497  1.00  0.00    -0.550 OA
ENDBRANCH   4   5
ENDBRANCH   3   4
ENDBRANCH   2   3
ENDBRANCH   1   2
BRANCH   1   8
ATOM      8  C   UNL     1       6.729   9.640  33.051  1.00  0.00     0.000 C 
BRANCH   8   9
ATOM      9  C   UNL     1       5.678  10.132  34.052  1.00  0.00     0.006 C 
BRANCH   9  10
ATOM     10  C   UNL     1       5.050  11.449  33.587  1.00  0.00     0.053 C 
BRANCH  10  11
ATOM     11  C   UNL     1       5.283  12.526  34.597  1.00  0.00     0.041 C 
ATOM     12  O   UNL     1       5.354  12.243  35.822  1.00  0.00    -0.550 OA
ATOM     13  O   UNL     1       5.474  13.839  34.184  1.00  0.00    -0.550 OA
ENDBRANCH  10  11
ENDBRANCH   9  10
ENDBRANCH   8   9
ENDBRANCH   1   8
TORSDOF 8
ENDMDL
MODEL 2
REMARK VINA RESULT:    -3.602      0.347      6.689
REMARK INTER + INTRA:          -5.686
REMARK INTER:                  -5.286
REMARK INTRA:                  -0.400
REMARK UNBOUND:                -0.400
REMARK SMILES O=C([O-])CCCCCCCC(=O)[O-]
REMARK SMILES IDX 7 1 6 2 5 3 4 4 2 5 1 6 3 7 8 8 9 9 10 10 11 11 12 12 13 13
REMARK H PARENT
REMARK Flexibility Score: inf
ROOT
ATOM      1  C   UNL     1       7.561   8.218  33.612  1.00  0.00     0.000 C 
ENDROOT
BRANCH   1   2
ATOM      2  C   UNL     1       6.937   9.492  33.031  1.00  0.00     0.000 C 
BRANCH   2   3
ATOM      3  C   UNL     1       5.818  10.020  33.942  1.00  0.00     0.006 C 
BRANCH   3   4
ATOM      4  C   UNL     1       5.218  11.334  33.423  1.00  0.00     0.053 C 
BRANCH   4   5
ATOM      5  C   UNL     1       5.270  12.417  34.456  1.00  0.00     0.041 C 
ATOM      6  O   UNL     1       5.359  13.623  34.105  1.00  0.00    -0.550 OA
ATOM      7  O   UNL     1       5.252  12.093  35.806  1.00  0.00    -0.550 OA
ENDBRANCH   4   5
ENDBRANCH   3   4
ENDBRANCH   2   3
ENDBRANCH   1   2
BRANCH   1   8
ATOM      8  C   UNL     1       6.571   7.048  33.565  1.00  0.00     0.000 C 
BRANCH   8   9
ATOM      9  C   UNL     1       6.824   6.066  34.714  1.00  0.00     0.006 C 
BRANCH   9  10
ATOM     10  C   UNL     1       7.935   6.574  35.637  1.00  0.00     0.053 C 
BRANCH  10  11
ATOM     11  C   UNL     1       9.009   5.544  35.782  1.00  0.00     0.041 C 
ATOM     12  O   UNL     1       9.934   5.467  34.932  1.00  0.00    -0.550 OA
ATOM     13  O   UNL     1       9.017   4.698  36.884  1.00  0.00    -0.550 OA
ENDBRANCH  10  11
ENDBRANCH   9  10
ENDBRANCH   8   9
ENDBRANCH   1   8
TORSDOF 8
ENDMDL
MODEL 3
REMARK VINA RESULT:    -3.466      2.372      5.313
REMARK INTER + INTRA:          -5.487
REMARK INTER:                  -4.600
REMARK INTRA:                  -0.886
REMARK UNBOUND:                -0.400
REMARK SMILES O=C([O-])CCCCCCCC(=O)[O-]
REMARK SMILES IDX 7 1 6 2 5 3 4 4 2 5 1 6 3 7 8 8 9 9 10 10 11 11 12 12 13 13
REMARK H PARENT
REMARK Flexibility Score: inf
ROOT
ATOM      1  C   UNL     1       7.251   8.504  33.371  1.00  0.00     0.000 C 
ENDROOT
BRANCH   1   2
ATOM      2  C   UNL     1       6.453   9.813  33.403  1.00  0.00     0.000 C 
BRANCH   2   3
ATOM      3  C   UNL     1       5.361   9.764  34.482  1.00  0.00     0.006 C 
BRANCH   3   4
ATOM      4  C   UNL     1       5.844  10.336  35.822  1.00  0.00     0.053 C 
BRANCH   4   5
ATOM      5  C   UNL     1       6.396   9.269  36.716  1.00  0.00     0.041 C 
ATOM      6  O   UNL     1       5.653   8.338  37.125  1.00  0.00    -0.550 OA
ATOM      7  O   UNL     1       7.723   9.319  37.125  1.00  0.00    -0.550 OA
ENDBRANCH   4   5
ENDBRANCH   3   4
ENDBRANCH   2   3
ENDBRANCH   1   2
BRANCH   1   8
ATOM      8  C   UNL     1       6.316   7.290  33.318  1.00  0.00     0.000 C 
BRANCH   8   9
ATOM      9  C   UNL     1       6.678   6.268  34.401  1.00  0.00     0.006 C 
BRANCH   9  10
ATOM     10  C   UNL     1       8.100   6.499  34.921  1.00  0.00     0.053 C 
BRANCH  10  11
ATOM     11  C   UNL     1       8.254   5.928  36.295  1.00  0.00     0.041 C 
ATOM     12  O   UNL     1       9.342   6.057  36.916  1.00  0.00    -0.550 OA
ATOM     13  O   UNL     1       7.181   5.298  36.912  1.00  0.00    -0.550 OA
ENDBRANCH  10  11
ENDBRANCH   9  10
ENDBRANCH   8   9
ENDBRANCH   1   8
TORSDOF 8
ENDMDL
MODEL 4
REMARK VINA RESULT:    -3.445      2.940      4.609
REMARK INTER + INTRA:          -5.457
REMARK INTER:                  -5.185
REMARK INTRA:                  -0.271
REMARK UNBOUND:                -0.400
REMARK SMILES O=C([O-])CCCCCCCC(=O)[O-]
REMARK SMILES IDX 7 1 6 2 5 3 4 4 2 5 1 6 3 7 8 8 9 9 10 10 11 11 12 12 13 13
REMARK H PARENT
REMARK Flexibility Score: inf
ROOT
ATOM      1  C   UNL     1       5.381  13.019  33.737  1.00  0.00     0.000 C 
ENDROOT
BRANCH   1   2
ATOM      2  C   UNL     1       4.875  11.647  33.275  1.00  0.00     0.000 C 
BRANCH   2   3
ATOM      3  C   UNL     1       6.048  10.703  32.969  1.00  0.00     0.006 C 
BRANCH   3   4
ATOM      4  C   UNL     1       6.175   9.581  34.008  1.00  0.00     0.053 C 
BRANCH   4   5
ATOM      5  C   UNL     1       7.017   8.449  33.506  1.00  0.00     0.041 C 
ATOM      6  O   UNL     1       8.244   8.625  33.282  1.00  0.00    -0.550 OA
ATOM      7  O   UNL     1       6.443   7.211  33.254  1.00  0.00    -0.550 OA
ENDBRANCH   4   5
ENDBRANCH   3   4
ENDBRANCH   2   3
ENDBRANCH   1   2
BRANCH   1   8
ATOM      8  C   UNL     1       5.299  13.151  35.262  1.00  0.00     0.000 C 
BRANCH   8   9
ATOM      9  C   UNL     1       5.209  14.622  35.684  1.00  0.00     0.006 C 
BRANCH   9  10
ATOM     10  C   UNL     1       6.182  15.486  34.877  1.00  0.00     0.053 C 
BRANCH  10  11
ATOM     11  C   UNL     1       5.810  16.931  34.980  1.00  0.00     0.041 C 
ATOM     12  O   UNL     1       5.060  17.456  34.117  1.00  0.00    -0.550 OA
ATOM     13  O   UNL     1       6.251  17.687  36.059  1.00  0.00    -0.550 OA
ENDBRANCH  10  11
ENDBRANCH   9  10
ENDBRANCH   8   9
ENDBRANCH   1   8
TORSDOF 8
ENDMDL
MODEL 5
REMARK VINA RESULT:    -3.390      2.989      7.873
REMARK INTER + INTRA:          -5.375
REMARK INTER:                  -5.032
REMARK INTRA:                  -0.343
REMARK UNBOUND:                -0.400
REMARK SMILES O=C([O-])CCCCCCCC(=O)[O-]
REMARK SMILES IDX 7 1 6 2 5 3 4 4 2 5 1 6 3 7 8 8 9 9 10 10 11 11 12 12 13 13
REMARK H PARENT
REMARK Flexibility Score: inf
ROOT
ATOM      1  C   UNL     1       5.406  12.060  35.145  1.00  0.00     0.000 C 
ENDROOT
BRANCH   1   2
ATOM      2  C   UNL     1       5.135  13.442  35.750  1.00  0.00     0.000 C 
BRANCH   2   3
ATOM      3  C   UNL     1       5.164  14.531  34.668  1.00  0.00     0.006 C 
BRANCH   3   4
ATOM      4  C   UNL     1       6.325  15.515  34.866  1.00  0.00     0.053 C 
BRANCH   4   5
ATOM      5  C   UNL     1       5.856  16.937  34.872  1.00  0.00     0.041 C 
ATOM      6  O   UNL     1       5.118  17.364  33.945  1.00  0.00    -0.550 OA
ATOM      7  O   UNL     1       6.258  17.800  35.884  1.00  0.00    -0.550 OA
ENDBRANCH   4   5
ENDBRANCH   3   4
ENDBRANCH   2   3
ENDBRANCH   1   2
BRANCH   1   8
ATOM      8  C   UNL     1       5.344  12.107  33.613  1.00  0.00     0.000 C 
BRANCH   8   9
ATOM      9  C   UNL     1       5.842  10.793  33.001  1.00  0.00     0.006 C 
BRANCH   9  10
ATOM     10  C   UNL     1       6.064   9.731  34.082  1.00  0.00     0.053 C 
BRANCH  10  11
ATOM     11  C   UNL     1       6.903   8.612  33.554  1.00  0.00     0.041 C 
ATOM     12  O   UNL     1       6.380   7.499  33.287  1.00  0.00    -0.550 OA
ATOM     13  O   UNL     1       8.256   8.813  33.309  1.00  0.00    -0.550 OA
ENDBRANCH  10  11
ENDBRANCH   9  10
ENDBRANCH   8   9
ENDBRANCH   1   8
TORSDOF 8
ENDMDL
MODEL 6
REMARK VINA RESULT:    -3.379      1.409      6.608
REMARK INTER + INTRA:          -5.359
REMARK INTER:                  -4.924
REMARK INTRA:                  -0.435
REMARK UNBOUND:                -0.400
REMARK SMILES O=C([O-])CCCCCCCC(=O)[O-]
REMARK SMILES IDX 7 1 6 2 5 3 4 4 2 5 1 6 3 7 8 8 9 9 10 10 11 11 12 12 13 13
REMARK H PARENT
REMARK Flexibility Score: inf
ROOT
ATOM      1  C   UNL     1       6.347   9.720  33.269  1.00  0.00     0.000 C 
ENDROOT
BRANCH   1   2
ATOM      2  C   UNL     1       5.753  11.108  33.002  1.00  0.00     0.000 C 
BRANCH   2   3
ATOM      3  C   UNL     1       5.193  11.725  34.292  1.00  0.00     0.006 C 
BRANCH   3   4
ATOM      4  C   UNL     1       5.249  13.258  34.275  1.00  0.00     0.053 C 
BRANCH   4   5
ATOM      5  C   UNL     1       5.625  13.817  35.613  1.00  0.00     0.041 C 
ATOM      6  O   UNL     1       5.791  13.047  36.596  1.00  0.00    -0.550 OA
ATOM      7  O   UNL     1       5.761  15.188  35.783  1.00  0.00    -0.550 OA
ENDBRANCH   4   5
ENDBRANCH   3   4
ENDBRANCH   2   3
ENDBRANCH   1   2
BRANCH   1   8
ATOM      8  C   UNL     1       6.153   9.311  34.735  1.00  0.00     0.000 C 
BRANCH   8   9
ATOM      9  C   UNL     1       5.530   7.915  34.839  1.00  0.00     0.006 C 
BRANCH   9  10
ATOM     10  C   UNL     1       6.232   6.928  33.900  1.00  0.00     0.053 C 
BRANCH  10  11
ATOM     11  C   UNL     1       7.541   6.496  34.477  1.00  0.00     0.041 C 
ATOM     12  O   UNL     1       8.621   6.875  33.953  1.00  0.00    -0.550 OA
ATOM     13  O   UNL     1       7.572   5.714  35.625  1.00  0.00    -0.550 OA
ENDBRANCH  10  11
ENDBRANCH   9  10
ENDBRANCH   8   9
ENDBRANCH   1   8
TORSDOF 8
ENDMDL
MODEL 7
REMARK VINA RESULT:    -3.328      2.259      2.850
REMARK INTER + INTRA:          -5.285
REMARK INTER:                  -4.946
REMARK INTRA:                  -0.339
REMARK UNBOUND:                -0.400
REMARK SMILES O=C([O-])CCCCCCCC(=O)[O-]
REMARK SMILES IDX 7 1 6 2 5 3 4 4 2 5 1 6 3 7 8 8 9 9 10 10 11 11 12 12 13 13
REMARK H PARENT
REMARK Flexibility Score: inf
ROOT
ATOM      1  C   UNL     1       7.560   9.116  33.508  1.00  0.00     0.000 C 
ENDROOT
BRANCH   1   2
ATOM      2  C   UNL     1       7.075   8.043  34.490  1.00  0.00     0.000 C 
BRANCH   2   3
ATOM      3  C   UNL     1       6.704   6.749  33.750  1.00  0.00     0.006 C 
BRANCH   3   4
ATOM      4  C   UNL     1       5.270   6.295  34.058  1.00  0.00     0.053 C 
BRANCH   4   5
ATOM      5  C   UNL     1       5.033   4.877  33.639  1.00  0.00     0.041 C 
ATOM      6  O   UNL     1       4.891   4.592  32.421  1.00  0.00    -0.550 OA
ATOM      7  O   UNL     1       4.936   3.875  34.596  1.00  0.00    -0.550 OA
ENDBRANCH   4   5
ENDBRANCH   3   4
ENDBRANCH   2   3
ENDBRANCH   1   2
BRANCH   1   8
ATOM      8  C   UNL     1       6.388   9.958  32.989  1.00  0.00     0.000 C 
BRANCH   8   9
ATOM      9  C   UNL     1       5.584  10.558  34.149  1.00  0.00     0.006 C 
BRANCH   9  10
ATOM     10  C   UNL     1       4.933  11.882  33.741  1.00  0.00     0.053 C 
BRANCH  10  11
ATOM     11  C   UNL     1       5.238  12.948  34.745  1.00  0.00     0.041 C 
ATOM     12  O   UNL     1       5.465  14.127  34.368  1.00  0.00    -0.550 OA
ATOM     13  O   UNL     1       5.221  12.650  36.102  1.00  0.00    -0.550 OA
ENDBRANCH  10  11
ENDBRANCH   9  10
ENDBRANCH   8   9
ENDBRANCH   1   8
TORSDOF 8
ENDMDL
MODEL 8
REMARK VINA RESULT:    -3.308      2.079      6.480
REMARK INTER + INTRA:          -5.255
REMARK INTER:                  -4.734
REMARK INTRA:                  -0.521
REMARK UNBOUND:                -0.400
REMARK SMILES O=C([O-])CCCCCCCC(=O)[O-]
REMARK SMILES IDX 7 1 6 2 5 3 4 4 2 5 1 6 3 7 8 8 9 9 10 10 11 11 12 12 13 13
REMARK H PARENT
REMARK Flexibility Score: inf
ROOT
ATOM      1  C   UNL     1       7.354   8.545  34.679  1.00  0.00     0.000 C 
ENDROOT
BRANCH   1   2
ATOM      2  C   UNL     1       7.426   9.115  33.257  1.00  0.00     0.000 C 
BRANCH   2   3
ATOM      3  C   UNL     1       6.329  10.166  33.031  1.00  0.00     0.006 C 
BRANCH   3   4
ATOM      4  C   UNL     1       5.508  10.431  34.301  1.00  0.00     0.053 C 
BRANCH   4   5
ATOM      5  C   UNL     1       5.219  11.889  34.483  1.00  0.00     0.041 C 
ATOM      6  O   UNL     1       5.091  12.639  33.479  1.00  0.00    -0.550 OA
ATOM      7  O   UNL     1       5.122  12.427  35.759  1.00  0.00    -0.550 OA
ENDBRANCH   4   5
ENDBRANCH   3   4
ENDBRANCH   2   3
ENDBRANCH   1   2
BRANCH   1   8
ATOM      8  C   UNL     1       7.231   7.016  34.654  1.00  0.00     0.000 C 
BRANCH   8   9
ATOM      9  C   UNL     1       6.260   6.560  33.559  1.00  0.00     0.006 C 
BRANCH   9  10
ATOM     10  C   UNL     1       4.952   6.041  34.164  1.00  0.00     0.053 C 
BRANCH  10  11
ATOM     11  C   UNL     1       5.092   4.606  34.562  1.00  0.00     0.041 C 
ATOM     12  O   UNL     1       5.204   4.293  35.776  1.00  0.00    -0.550 OA
ATOM     13  O   UNL     1       5.047   3.609  33.596  1.00  0.00    -0.550 OA
ENDBRANCH  10  11
ENDBRANCH   9  10
ENDBRANCH   8   9
ENDBRANCH   1   8
TORSDOF 8
ENDMDL
MODEL 9
REMARK VINA RESULT:    -3.216      1.825      6.464
REMARK INTER + INTRA:          -5.120
REMARK INTER:                  -4.512
REMARK INTRA:                  -0.608
REMARK UNBOUND:                -0.400
REMARK SMILES O=C([O-])CCCCCCCC(=O)[O-]
REMARK SMILES IDX 7 1 6 2 5 3 4 4 2 5 1 6 3 7 8 8 9 9 10 10 11 11 12 12 13 13
REMARK H PARENT
REMARK Flexibility Score: inf
ROOT
ATOM      1  C   UNL     1       6.143   6.692  33.963  1.00  0.00     0.000 C 
ENDROOT
BRANCH   1   2
ATOM      2  C   UNL     1       7.125   7.708  33.366  1.00  0.00     0.000 C 
BRANCH   2   3
ATOM      3  C   UNL     1       6.622   9.144  33.570  1.00  0.00     0.006 C 
BRANCH   3   4
ATOM      4  C   UNL     1       5.603   9.245  34.713  1.00  0.00     0.053 C 
BRANCH   4   5
ATOM      5  C   UNL     1       6.207   9.840  35.947  1.00  0.00     0.041 C 
ATOM      6  O   UNL     1       5.783  10.939  36.394  1.00  0.00    -0.550 OA
ATOM      7  O   UNL     1       7.260   9.199  36.586  1.00  0.00    -0.550 OA
ENDBRANCH   4   5
ENDBRANCH   3   4
ENDBRANCH   2   3
ENDBRANCH   1   2
BRANCH   1   8
ATOM      8  C   UNL     1       6.827   5.824  35.026  1.00  0.00     0.000 C 
BRANCH   8   9
ATOM      9  C   UNL     1       8.325   6.138  35.114  1.00  0.00     0.006 C 
BRANCH   9  10
ATOM     10  C   UNL     1       8.945   5.514  36.368  1.00  0.00     0.053 C 
BRANCH  10  11
ATOM     11  C   UNL     1       9.346   4.097  36.105  1.00  0.00     0.041 C 
ATOM     12  O   UNL     1       8.637   3.148  36.530  1.00  0.00    -0.550 OA
ATOM     13  O   UNL     1      10.477   3.824  35.347  1.00  0.00    -0.550 OA
ENDBRANCH  10  11
ENDBRANCH   9  10
ENDBRANCH   8   9
ENDBRANCH   1   8
TORSDOF 8
ENDMDL
