MODEL 1
REMARK VINA RESULT:    -5.236      0.000      0.000
REMARK INTER + INTRA:          -5.236
REMARK INTER:                  -5.236
REMARK INTRA:                   0.000
REMARK UNBOUND:                 0.000
REMARK SMILES CC(C)=C1CC[C@H](C)CC1=O
REMARK SMILES IDX 8 1 7 2 6 3 5 4 4 5 2 6 1 7 3 8 10 9 11 10 9 11
REMARK H PARENT
REMARK Flexibility Score: inf
ROOT
ATOM      1  C   UNL     1      32.095  40.891  83.987  1.00  0.00     0.008 C 
ATOM      2  C   UNL     1      32.962  41.295  82.785  1.00  0.00    -0.006 C 
ATOM      3  C   UNL     1      33.687  42.633  83.013  1.00  0.00     0.008 C 
ATOM      4  C   UNL     1      34.751  42.561  84.120  1.00  0.00     0.039 C 
ATOM      5  C   UNL     1      35.694  41.376  83.961  1.00  0.00    -0.006 C 
ATOM      6  C   UNL     1      36.984  41.436  84.404  1.00  0.00    -0.070 C 
ATOM      7  C   UNL     1      37.523  42.674  85.083  1.00  0.00     0.039 C 
ATOM      8  C   UNL     1      37.949  40.289  84.205  1.00  0.00     0.039 C 
ATOM      9  C   UNL     1      35.095  40.123  83.412  1.00  0.00     0.159 C 
ATOM     10  O   UNL     1      35.505  38.988  83.775  1.00  0.00    -0.295 OA
ATOM     11  C   UNL     1      33.973  40.198  82.418  1.00  0.00     0.084 C 
ENDROOT
TORSDOF 0
ENDMDL
MODEL 2
REMARK VINA RESULT:    -5.168      1.666      2.062
REMARK INTER + INTRA:          -5.168
REMARK INTER:                  -5.168
REMARK INTRA:                   0.000
REMARK UNBOUND:                 0.000
REMARK SMILES CC(C)=C1CC[C@H](C)CC1=O
REMARK SMILES IDX 8 1 7 2 6 3 5 4 4 5 2 6 1 7 3 8 10 9 11 10 9 11
REMARK H PARENT
REMARK Flexibility Score: inf
ROOT
ATOM      1  C   UNL     1      32.120  41.060  85.668  1.00  0.00     0.008 C 
ATOM      2  C   UNL     1      32.880  40.189  84.656  1.00  0.00    -0.006 C 
ATOM      3  C   UNL     1      33.090  40.908  83.311  1.00  0.00     0.008 C 
ATOM      4  C   UNL     1      34.037  42.115  83.416  1.00  0.00     0.039 C 
ATOM      5  C   UNL     1      35.334  41.791  84.144  1.00  0.00    -0.006 C 
ATOM      6  C   UNL     1      36.494  42.447  83.846  1.00  0.00    -0.070 C 
ATOM      7  C   UNL     1      36.533  43.532  82.794  1.00  0.00     0.039 C 
ATOM      8  C   UNL     1      37.802  42.100  84.520  1.00  0.00     0.039 C 
ATOM      9  C   UNL     1      35.235  40.815  85.269  1.00  0.00     0.159 C 
ATOM     10  O   UNL     1      35.980  40.906  86.282  1.00  0.00    -0.295 OA
ATOM     11  C   UNL     1      34.226  39.705  85.216  1.00  0.00     0.084 C 
ENDROOT
TORSDOF 0
ENDMDL
MODEL 3
REMARK VINA RESULT:    -5.040      1.465      4.090
REMARK INTER + INTRA:          -5.040
REMARK INTER:                  -5.040
REMARK INTRA:                   0.000
REMARK UNBOUND:                 0.000
REMARK SMILES CC(C)=C1CC[C@H](C)CC1=O
REMARK SMILES IDX 8 1 7 2 6 3 5 4 4 5 2 6 1 7 3 8 10 9 11 10 9 11
REMARK H PARENT
REMARK Flexibility Score: inf
ROOT
ATOM      1  C   UNL     1      38.113  41.383  84.375  1.00  0.00     0.008 C 
ATOM      2  C   UNL     1      37.153  42.460  84.901  1.00  0.00    -0.006 C 
ATOM      3  C   UNL     1      36.262  43.041  83.788  1.00  0.00     0.008 C 
ATOM      4  C   UNL     1      35.262  42.020  83.222  1.00  0.00     0.039 C 
ATOM      5  C   UNL     1      34.483  41.288  84.306  1.00  0.00    -0.006 C 
ATOM      6  C   UNL     1      33.215  40.835  84.081  1.00  0.00    -0.070 C 
ATOM      7  C   UNL     1      32.541  41.027  82.742  1.00  0.00     0.039 C 
ATOM      8  C   UNL     1      32.408  40.155  85.163  1.00  0.00     0.039 C 
ATOM      9  C   UNL     1      35.224  40.994  85.569  1.00  0.00     0.159 C 
ATOM     10  O   UNL     1      34.986  39.953  86.240  1.00  0.00    -0.295 OA
ATOM     11  C   UNL     1      36.285  41.936  86.056  1.00  0.00     0.084 C 
ENDROOT
TORSDOF 0
ENDMDL
MODEL 4
REMARK VINA RESULT:    -4.975      1.804      2.771
REMARK INTER + INTRA:          -4.975
REMARK INTER:                  -4.975
REMARK INTRA:                   0.000
REMARK UNBOUND:                 0.000
REMARK SMILES CC(C)=C1CC[C@H](C)CC1=O
REMARK SMILES IDX 8 1 7 2 6 3 5 4 4 5 2 6 1 7 3 8 10 9 11 10 9 11
REMARK H PARENT
REMARK Flexibility Score: inf
ROOT
ATOM      1  C   UNL     1      31.921  40.991  83.806  1.00  0.00     0.008 C 
ATOM      2  C   UNL     1      32.506  40.960  85.226  1.00  0.00    -0.006 C 
ATOM      3  C   UNL     1      33.369  39.710  85.474  1.00  0.00     0.008 C 
ATOM      4  C   UNL     1      34.657  39.691  84.634  1.00  0.00     0.039 C 
ATOM      5  C   UNL     1      35.437  40.996  84.714  1.00  0.00    -0.006 C 
ATOM      6  C   UNL     1      36.797  41.014  84.585  1.00  0.00    -0.070 C 
ATOM      7  C   UNL     1      37.578  39.744  84.340  1.00  0.00     0.039 C 
ATOM      8  C   UNL     1      37.592  42.293  84.716  1.00  0.00     0.039 C 
ATOM      9  C   UNL     1      34.627  42.245  84.819  1.00  0.00     0.159 C 
ATOM     10  O   UNL     1      35.020  43.326  84.300  1.00  0.00    -0.295 OA
ATOM     11  C   UNL     1      33.311  42.231  85.539  1.00  0.00     0.084 C 
ENDROOT
TORSDOF 0
ENDMDL
MODEL 5
REMARK VINA RESULT:    -4.962      2.328      4.551
REMARK INTER + INTRA:          -4.962
REMARK INTER:                  -4.962
REMARK INTRA:                   0.000
REMARK UNBOUND:                 0.000
REMARK SMILES CC(C)=C1CC[C@H](C)CC1=O
REMARK SMILES IDX 8 1 7 2 6 3 5 4 4 5 2 6 1 7 3 8 10 9 11 10 9 11
REMARK H PARENT
REMARK Flexibility Score: inf
ROOT
ATOM      1  C   UNL     1      35.025  40.324  85.828  1.00  0.00     0.008 C 
ATOM      2  C   UNL     1      34.004  39.730  84.845  1.00  0.00    -0.006 C 
ATOM      3  C   UNL     1      32.568  39.779  85.397  1.00  0.00     0.008 C 
ATOM      4  C   UNL     1      32.027  41.211  85.541  1.00  0.00     0.039 C 
ATOM      5  C   UNL     1      32.227  42.051  84.287  1.00  0.00    -0.006 C 
ATOM      6  C   UNL     1      31.359  43.053  83.962  1.00  0.00    -0.070 C 
ATOM      7  C   UNL     1      30.174  43.380  84.842  1.00  0.00     0.039 C 
ATOM      8  C   UNL     1      31.512  43.860  82.692  1.00  0.00     0.039 C 
ATOM      9  C   UNL     1      33.478  41.795  83.513  1.00  0.00     0.159 C 
ATOM     10  O   UNL     1      34.065  42.722  82.892  1.00  0.00    -0.295 OA
ATOM     11  C   UNL     1      34.069  40.416  83.472  1.00  0.00     0.084 C 
ENDROOT
TORSDOF 0
ENDMDL
MODEL 6
REMARK VINA RESULT:    -4.943      1.789      3.619
REMARK INTER + INTRA:          -4.943
REMARK INTER:                  -4.943
REMARK INTRA:                   0.000
REMARK UNBOUND:                 0.000
REMARK SMILES CC(C)=C1CC[C@H](C)CC1=O
REMARK SMILES IDX 8 1 7 2 6 3 5 4 4 5 2 6 1 7 3 8 10 9 11 10 9 11
REMARK H PARENT
REMARK Flexibility Score: inf
ROOT
ATOM      1  C   UNL     1      35.727  38.808  83.989  1.00  0.00     0.008 C 
ATOM      2  C   UNL     1      35.200  39.669  85.147  1.00  0.00    -0.006 C 
ATOM      3  C   UNL     1      35.984  40.985  85.298  1.00  0.00     0.008 C 
ATOM      4  C   UNL     1      35.782  41.945  84.114  1.00  0.00     0.039 C 
ATOM      5  C   UNL     1      34.317  42.146  83.755  1.00  0.00    -0.006 C 
ATOM      6  C   UNL     1      33.877  43.319  83.212  1.00  0.00    -0.070 C 
ATOM      7  C   UNL     1      34.831  44.457  82.928  1.00  0.00     0.039 C 
ATOM      8  C   UNL     1      32.417  43.555  82.901  1.00  0.00     0.039 C 
ATOM      9  C   UNL     1      33.427  40.958  83.919  1.00  0.00     0.159 C 
ATOM     10  O   UNL     1      32.446  40.765  83.151  1.00  0.00    -0.295 OA
ATOM     11  C   UNL     1      33.698  39.959  85.005  1.00  0.00     0.084 C 
ENDROOT
TORSDOF 0
ENDMDL
MODEL 7
REMARK VINA RESULT:    -4.938      1.898      2.394
REMARK INTER + INTRA:          -4.938
REMARK INTER:                  -4.938
REMARK INTRA:                   0.000
REMARK UNBOUND:                 0.000
REMARK SMILES CC(C)=C1CC[C@H](C)CC1=O
REMARK SMILES IDX 8 1 7 2 6 3 5 4 4 5 2 6 1 7 3 8 10 9 11 10 9 11
REMARK H PARENT
REMARK Flexibility Score: inf
ROOT
ATOM      1  C   UNL     1      31.969  42.820  83.128  1.00  0.00     0.008 C 
ATOM      2  C   UNL     1      32.170  41.302  83.250  1.00  0.00    -0.006 C 
ATOM      3  C   UNL     1      33.416  40.817  82.487  1.00  0.00     0.008 C 
ATOM      4  C   UNL     1      34.732  41.328  83.097  1.00  0.00     0.039 C 
ATOM      5  C   UNL     1      34.814  41.110  84.601  1.00  0.00    -0.006 C 
ATOM      6  C   UNL     1      36.015  40.916  85.222  1.00  0.00    -0.070 C 
ATOM      7  C   UNL     1      37.310  40.927  84.443  1.00  0.00     0.039 C 
ATOM      8  C   UNL     1      36.109  40.643  86.706  1.00  0.00     0.039 C 
ATOM      9  C   UNL     1      33.534  41.241  85.359  1.00  0.00     0.159 C 
ATOM     10  O   UNL     1      33.515  41.688  86.538  1.00  0.00    -0.295 OA
ATOM     11  C   UNL     1      32.236  40.851  84.717  1.00  0.00     0.084 C 
ENDROOT
TORSDOF 0
ENDMDL
MODEL 8
REMARK VINA RESULT:    -4.772      1.707      4.086
REMARK INTER + INTRA:          -4.772
REMARK INTER:                  -4.772
REMARK INTRA:                   0.000
REMARK UNBOUND:                 0.000
REMARK SMILES CC(C)=C1CC[C@H](C)CC1=O
REMARK SMILES IDX 8 1 7 2 6 3 5 4 4 5 2 6 1 7 3 8 10 9 11 10 9 11
REMARK H PARENT
REMARK Flexibility Score: inf
ROOT
ATOM      1  C   UNL     1      37.633  40.909  84.361  1.00  0.00     0.008 C 
ATOM      2  C   UNL     1      36.818  39.755  84.966  1.00  0.00    -0.006 C 
ATOM      3  C   UNL     1      36.121  40.158  86.278  1.00  0.00     0.008 C 
ATOM      4  C   UNL     1      35.018  41.211  86.075  1.00  0.00     0.039 C 
ATOM      5  C   UNL     1      34.051  40.849  84.956  1.00  0.00    -0.006 C 
ATOM      6  C   UNL     1      32.748  41.257  84.990  1.00  0.00    -0.070 C 
ATOM      7  C   UNL     1      32.220  42.098  86.130  1.00  0.00     0.039 C 
ATOM      8  C   UNL     1      31.761  40.861  83.916  1.00  0.00     0.039 C 
ATOM      9  C   UNL     1      34.635  40.137  83.781  1.00  0.00     0.159 C 
ATOM     10  O   UNL     1      34.183  40.314  82.617  1.00  0.00    -0.295 OA
ATOM     11  C   UNL     1      35.791  39.199  83.968  1.00  0.00     0.084 C 
ENDROOT
TORSDOF 0
ENDMDL
MODEL 9
REMARK VINA RESULT:    -4.695      1.807      4.286
REMARK INTER + INTRA:          -4.695
REMARK INTER:                  -4.695
REMARK INTRA:                   0.000
REMARK UNBOUND:                 0.000
REMARK SMILES CC(C)=C1CC[C@H](C)CC1=O
REMARK SMILES IDX 8 1 7 2 6 3 5 4 4 5 2 6 1 7 3 8 10 9 11 10 9 11
REMARK H PARENT
REMARK Flexibility Score: inf
ROOT
ATOM      1  C   UNL     1      36.756  43.575  86.071  1.00  0.00     0.008 C 
ATOM      2  C   UNL     1      36.998  42.180  85.474  1.00  0.00    -0.006 C 
ATOM      3  C   UNL     1      36.259  41.077  86.253  1.00  0.00     0.008 C 
ATOM      4  C   UNL     1      34.730  41.177  86.134  1.00  0.00     0.039 C 
ATOM      5  C   UNL     1      34.254  41.330  84.696  1.00  0.00    -0.006 C 
ATOM      6  C   UNL     1      33.038  40.851  84.299  1.00  0.00    -0.070 C 
ATOM      7  C   UNL     1      32.110  40.165  85.275  1.00  0.00     0.039 C 
ATOM      8  C   UNL     1      32.574  40.946  82.864  1.00  0.00     0.039 C 
ATOM      9  C   UNL     1      35.131  42.131  83.791  1.00  0.00     0.159 C 
ATOM     10  O   UNL     1      34.647  42.832  82.862  1.00  0.00    -0.295 OA
ATOM     11  C   UNL     1      36.619  42.124  83.986  1.00  0.00     0.084 C 
ENDROOT
TORSDOF 0
ENDMDL
