MODEL 1
REMARK VINA RESULT:    -0.960      0.000      0.000
REMARK INTER + INTRA:           0.581
REMARK INTER:                  -1.353
REMARK INTRA:                   1.934
REMARK UNBOUND:                 1.934
REMARK SMILES CC1=CCC(=C(C)C)C(=O)CC(C)=CCC1
REMARK SMILES IDX 12 1 14 2 13 3 15 4 16 5 2 6 1 7 3 8 11 10 9 11 10 12 5 13
REMARK SMILES IDX 6 14 7 15 8 16 4 17
REMARK H PARENT
REMARK Flexibility Score: 60.00
ROOT
ATOM      1  C   UNL     1      26.796  12.630  25.267  1.00  0.00    -0.070 C 
ATOM      2  C   UNL     1      27.822  12.428  26.125  1.00  0.00    -0.027 C 
ATOM      3  C   UNL     1      25.517  13.210  25.814  1.00  0.00     0.039 C 
ENDROOT
BRANCH   2   4
ATOM      4  C   UNL     1      29.191  11.915  25.739  1.00  0.00     0.032 C 
BRANCH   4   5
ATOM      5  C   UNL     1      29.322  10.405  25.991  1.00  0.00     0.034 C 
BRANCH   5   6
ATOM      6  C   UNL     1      28.735   9.550  24.877  1.00  0.00    -0.077 C 
ATOM      7  C   UNL     1      27.881   8.362  25.245  1.00  0.00     0.039 C 
ATOM      8  C   UNL     1      28.921   9.810  23.563  1.00  0.00    -0.023 CG0
ATOM      9  G   UNL     1      29.797  10.906  23.002  1.00  0.00     0.000 G0
ENDBRANCH   5   6
ENDBRANCH   4   5
ENDBRANCH   2   4
BRANCH   1  10
ATOM     10  C   UNL     1      26.876  12.297  23.789  1.00  0.00     0.111 C 
BRANCH  10  11
ATOM     11  C   UNL     1      28.113  12.884  23.169  1.00  0.00     0.163 C 
ATOM     12  O   UNL     1      28.380  14.101  23.355  1.00  0.00    -0.294 OA
BRANCH  11  13
ATOM     13  C   UNL     1      29.040  12.051  22.359  1.00  0.00    -0.002 C 
ATOM     14  C   UNL     1      29.206  12.302  21.032  1.00  0.00    -0.069 C 
ATOM     15  C   UNL     1      28.531  13.482  20.368  1.00  0.00     0.039 C 
ATOM     16  C   UNL     1      30.104  11.435  20.180  1.00  0.00     0.039 C 
BRANCH  13  17
ATOM     17  C   UNL     1      29.802  10.917  23.035  1.00  0.00     0.066 CG0
ATOM     18  G   UNL     1      28.911   9.817  23.565  1.00  0.00     0.000 G0
ENDBRANCH  13  17
ENDBRANCH  11  13
ENDBRANCH  10  11
ENDBRANCH   1  10
TORSDOF 0
ENDMDL
MODEL 2
REMARK VINA RESULT:    -0.681      1.602      4.416
REMARK INTER + INTRA:           0.974
REMARK INTER:                  -1.262
REMARK INTRA:                   2.236
REMARK UNBOUND:                 1.934
REMARK SMILES CC1=CCC(=C(C)C)C(=O)CC(C)=CCC1
REMARK SMILES IDX 12 1 14 2 13 3 15 4 16 5 2 6 1 7 3 8 11 10 9 11 10 12 5 13
REMARK SMILES IDX 6 14 7 15 8 16 4 17
REMARK H PARENT
REMARK Flexibility Score: 60.00
ROOT
ATOM      1  C   UNL     1      29.431  12.540  21.691  1.00  0.00    -0.070 C 
ATOM      2  C   UNL     1      28.879  13.595  22.333  1.00  0.00    -0.027 C 
ATOM      3  C   UNL     1      29.810  12.709  20.242  1.00  0.00     0.039 C 
ENDROOT
BRANCH   2   4
ATOM      4  C   UNL     1      28.497  13.622  23.796  1.00  0.00     0.032 C 
BRANCH   4   5
ATOM      5  C   UNL     1      27.027  13.229  24.005  1.00  0.00     0.034 C 
BRANCH   5   6
ATOM      6  C   UNL     1      26.715  12.781  25.426  1.00  0.00    -0.077 C 
ATOM      7  C   UNL     1      25.513  13.365  26.125  1.00  0.00     0.039 C 
ATOM      8  C   UNL     1      27.450  11.864  26.095  1.00  0.00    -0.023 CG0
ATOM      9  G   UNL     1      28.722  11.223  25.591  1.00  0.00     0.000 G0
ENDBRANCH   5   6
ENDBRANCH   4   5
ENDBRANCH   2   4
BRANCH   1  10
ATOM     10  C   UNL     1      29.680  11.202  22.363  1.00  0.00     0.111 C 
BRANCH  10  11
ATOM     11  C   UNL     1      28.449  10.719  23.077  1.00  0.00     0.163 C 
ATOM     12  O   UNL     1      27.341  10.731  22.477  1.00  0.00    -0.294 OA
BRANCH  11  13
ATOM     13  C   UNL     1      28.518  10.203  24.469  1.00  0.00    -0.002 C 
ATOM     14  C   UNL     1      28.397   8.869  24.712  1.00  0.00    -0.069 C 
ATOM     15  C   UNL     1      28.286   7.873  23.579  1.00  0.00     0.039 C 
ATOM     16  C   UNL     1      28.411   8.329  26.124  1.00  0.00     0.039 C 
BRANCH  13  17
ATOM     17  C   UNL     1      28.726  11.184  25.616  1.00  0.00     0.066 CG0
ATOM     18  G   UNL     1      27.451  11.842  26.093  1.00  0.00     0.000 G0
ENDBRANCH  13  17
ENDBRANCH  11  13
ENDBRANCH  10  11
ENDBRANCH   1  10
TORSDOF 0
ENDMDL
MODEL 3
REMARK VINA RESULT:     0.550      1.478      3.552
REMARK INTER + INTRA:           2.709
REMARK INTER:                   0.264
REMARK INTRA:                   2.446
REMARK UNBOUND:                 1.934
REMARK SMILES CC1=CCC(=C(C)C)C(=O)CC(C)=CCC1
REMARK SMILES IDX 12 1 14 2 13 3 15 4 16 5 2 6 1 7 3 8 11 10 9 11 10 12 5 13
REMARK SMILES IDX 6 14 7 15 8 16 4 17
REMARK H PARENT
REMARK Flexibility Score: 60.00
ROOT
ATOM      1  C   UNL     1      28.701  12.468  21.701  1.00  0.00    -0.070 C 
ATOM      2  C   UNL     1      28.190  11.217  21.767  1.00  0.00    -0.027 C 
ATOM      3  C   UNL     1      28.033  13.460  20.783  1.00  0.00     0.039 C 
ENDROOT
BRANCH   2   4
ATOM      4  C   UNL     1      28.695  10.118  22.675  1.00  0.00     0.032 C 
BRANCH   4   5
ATOM      5  C   UNL     1      27.963  10.118  24.026  1.00  0.00     0.034 C 
BRANCH   5   6
ATOM      6  C   UNL     1      28.846   9.703  25.194  1.00  0.00    -0.077 C 
ATOM      7  C   UNL     1      29.054   8.234  25.463  1.00  0.00     0.039 C 
ATOM      8  C   UNL     1      29.478  10.587  26.000  1.00  0.00    -0.023 CG0
ATOM      9  G   UNL     1      29.338  12.090  25.933  1.00  0.00     0.000 G0
ENDBRANCH   5   6
ENDBRANCH   4   5
ENDBRANCH   2   4
BRANCH   1  10
ATOM     10  C   UNL     1      29.912  12.910  22.501  1.00  0.00     0.111 C 
BRANCH  10  11
ATOM     11  C   UNL     1      29.498  13.586  23.778  1.00  0.00     0.163 C 
ATOM     12  O   UNL     1      29.699  14.822  23.916  1.00  0.00    -0.294 OA
BRANCH  11  13
ATOM     13  C   UNL     1      28.832  12.831  24.871  1.00  0.00    -0.002 C 
ATOM     14  C   UNL     1      27.474  12.810  24.962  1.00  0.00    -0.069 C 
ATOM     15  C   UNL     1      26.609  13.469  23.910  1.00  0.00     0.039 C 
ATOM     16  C   UNL     1      26.780  12.091  26.095  1.00  0.00     0.039 C 
BRANCH  13  17
ATOM     17  C   UNL     1      29.689  12.081  25.884  1.00  0.00     0.066 CG0
ATOM     18  G   UNL     1      29.365  10.608  25.983  1.00  0.00     0.000 G0
ENDBRANCH  13  17
ENDBRANCH  11  13
ENDBRANCH  10  11
ENDBRANCH   1  10
TORSDOF 0
ENDMDL
MODEL 4
REMARK VINA RESULT:     1.743      1.808      4.194
REMARK INTER + INTRA:           4.390
REMARK INTER:                   3.467
REMARK INTRA:                   0.924
REMARK UNBOUND:                 1.934
REMARK SMILES CC1=CCC(=C(C)C)C(=O)CC(C)=CCC1
REMARK SMILES IDX 12 1 14 2 13 3 15 4 16 5 2 6 1 7 3 8 11 10 9 11 10 12 5 13
REMARK SMILES IDX 6 14 7 15 8 16 4 17
REMARK H PARENT
REMARK Flexibility Score: 60.00
ROOT
ATOM      1  C   UNL     1      26.611  12.177  22.973  1.00  0.00    -0.070 C 
ATOM      2  C   UNL     1      27.606  12.544  22.132  1.00  0.00    -0.027 C 
ATOM      3  C   UNL     1      25.396  13.064  23.064  1.00  0.00     0.039 C 
ENDROOT
BRANCH   2   4
ATOM      4  C   UNL     1      28.863  11.746  21.871  1.00  0.00     0.032 C 
BRANCH   4   5
ATOM      5  C   UNL     1      30.123  12.517  22.295  1.00  0.00     0.034 C 
BRANCH   5   6
ATOM      6  C   UNL     1      29.970  13.245  23.623  1.00  0.00    -0.077 C 
ATOM      7  C   UNL     1      29.800  14.744  23.616  1.00  0.00     0.039 C 
ATOM      8  C   UNL     1      29.958  12.616  24.820  1.00  0.00    -0.023 CG0
ATOM      9  G   UNL     1      30.184  11.137  25.035  1.00  0.00     0.000 G0
ENDBRANCH   5   6
ENDBRANCH   4   5
ENDBRANCH   2   4
BRANCH   1  10
ATOM     10  C   UNL     1      26.669  10.923  23.824  1.00  0.00     0.111 C 
BRANCH  10  11
ATOM     11  C   UNL     1      27.529  11.132  25.038  1.00  0.00     0.163 C 
ATOM     12  O   UNL     1      27.155  11.940  25.929  1.00  0.00    -0.294 OA
BRANCH  11  13
ATOM     13  C   UNL     1      28.800  10.385  25.222  1.00  0.00    -0.002 C 
ATOM     14  C   UNL     1      28.778   9.059  25.529  1.00  0.00    -0.069 C 
ATOM     15  C   UNL     1      27.476   8.294  25.600  1.00  0.00     0.039 C 
ATOM     16  C   UNL     1      30.059   8.293  25.771  1.00  0.00     0.039 C 
BRANCH  13  17
ATOM     17  C   UNL     1      30.125  11.121  25.059  1.00  0.00     0.066 CG0
ATOM     18  G   UNL     1      29.972  12.610  24.850  1.00  0.00     0.000 G0
ENDBRANCH  13  17
ENDBRANCH  11  13
ENDBRANCH  10  11
ENDBRANCH   1  10
TORSDOF 0
ENDMDL
