MODEL 1
REMARK VINA RESULT:    -5.916      0.000      0.000
REMARK INTER + INTRA:          -5.916
REMARK INTER:                  -5.916
REMARK INTRA:                   0.000
REMARK UNBOUND:                 0.000
REMARK SMILES CC(C)=C1CC[C@@H](C)CC1=O
REMARK SMILES IDX 8 1 7 2 6 3 5 4 4 5 2 6 1 7 3 8 10 9 11 10 9 11
REMARK H PARENT
REMARK Flexibility Score: inf
ROOT
ATOM      1  C   UNL     1       0.749   8.135  21.759  1.00  0.00     0.008 C 
ATOM      2  C   UNL     1       1.125   9.580  21.413  1.00  0.00    -0.006 C 
ATOM      3  C   UNL     1       2.298  10.058  22.283  1.00  0.00     0.008 C 
ATOM      4  C   UNL     1       2.755  11.466  21.880  1.00  0.00     0.039 C 
ATOM      5  C   UNL     1       1.605  12.465  21.847  1.00  0.00    -0.006 C 
ATOM      6  C   UNL     1       1.802  13.783  22.148  1.00  0.00    -0.070 C 
ATOM      7  C   UNL     1       3.172  14.308  22.510  1.00  0.00     0.039 C 
ATOM      8  C   UNL     1       0.659  14.772  22.175  1.00  0.00     0.039 C 
ATOM      9  C   UNL     1       0.295  11.942  21.357  1.00  0.00     0.159 C 
ATOM     10  O   UNL     1      -0.511  12.680  20.728  1.00  0.00    -0.295 OA
ATOM     11  C   UNL     1      -0.082  10.510  21.603  1.00  0.00     0.084 C 
ENDROOT
TORSDOF 0
ENDMDL
MODEL 2
REMARK VINA RESULT:    -5.909      2.063      5.313
REMARK INTER + INTRA:          -5.909
REMARK INTER:                  -5.909
REMARK INTRA:                   0.000
REMARK UNBOUND:                 0.000
REMARK SMILES CC(C)=C1CC[C@@H](C)CC1=O
REMARK SMILES IDX 8 1 7 2 6 3 5 4 4 5 2 6 1 7 3 8 10 9 11 10 9 11
REMARK H PARENT
REMARK Flexibility Score: inf
ROOT
ATOM      1  C   UNL     1      -0.376  16.886  22.124  1.00  0.00     0.008 C 
ATOM      2  C   UNL     1      -0.802  15.480  21.688  1.00  0.00    -0.006 C 
ATOM      3  C   UNL     1      -1.989  14.988  22.531  1.00  0.00     0.008 C 
ATOM      4  C   UNL     1      -2.495  13.625  22.041  1.00  0.00     0.039 C 
ATOM      5  C   UNL     1      -1.381  12.591  21.940  1.00  0.00    -0.006 C 
ATOM      6  C   UNL     1      -1.623  11.264  22.158  1.00  0.00    -0.070 C 
ATOM      7  C   UNL     1      -3.010  10.765  22.491  1.00  0.00     0.039 C 
ATOM      8  C   UNL     1      -0.515  10.237  22.117  1.00  0.00     0.039 C 
ATOM      9  C   UNL     1      -0.055  13.099  21.479  1.00  0.00     0.159 C 
ATOM     10  O   UNL     1       0.725  12.375  20.802  1.00  0.00    -0.295 OA
ATOM     11  C   UNL     1       0.373  14.498  21.814  1.00  0.00     0.084 C 
ENDROOT
TORSDOF 0
ENDMDL
MODEL 3
REMARK VINA RESULT:    -5.879      1.677      3.855
REMARK INTER + INTRA:          -5.879
REMARK INTER:                  -5.879
REMARK INTRA:                   0.000
REMARK UNBOUND:                 0.000
REMARK SMILES CC(C)=C1CC[C@@H](C)CC1=O
REMARK SMILES IDX 8 1 7 2 6 3 5 4 4 5 2 6 1 7 3 8 10 9 11 10 9 11
REMARK H PARENT
REMARK Flexibility Score: inf
ROOT
ATOM      1  C   UNL     1       4.134  12.258  21.159  1.00  0.00     0.008 C 
ATOM      2  C   UNL     1       2.973  11.767  22.032  1.00  0.00    -0.006 C 
ATOM      3  C   UNL     1       2.875  10.234  21.988  1.00  0.00     0.008 C 
ATOM      4  C   UNL     1       1.784   9.717  22.935  1.00  0.00     0.039 C 
ATOM      5  C   UNL     1       0.441  10.397  22.704  1.00  0.00    -0.006 C 
ATOM      6  C   UNL     1      -0.735   9.734  22.913  1.00  0.00    -0.070 C 
ATOM      7  C   UNL     1      -0.752   8.303  23.401  1.00  0.00     0.039 C 
ATOM      8  C   UNL     1      -2.073  10.378  22.632  1.00  0.00     0.039 C 
ATOM      9  C   UNL     1       0.491  11.847  22.352  1.00  0.00     0.159 C 
ATOM     10  O   UNL     1      -0.423  12.639  22.706  1.00  0.00    -0.295 OA
ATOM     11  C   UNL     1       1.649  12.391  21.566  1.00  0.00     0.084 C 
ENDROOT
TORSDOF 0
ENDMDL
MODEL 4
REMARK VINA RESULT:    -5.814      2.891      4.292
REMARK INTER + INTRA:          -5.814
REMARK INTER:                  -5.814
REMARK INTRA:                   0.000
REMARK UNBOUND:                 0.000
REMARK SMILES CC(C)=C1CC[C@@H](C)CC1=O
REMARK SMILES IDX 8 1 7 2 6 3 5 4 4 5 2 6 1 7 3 8 10 9 11 10 9 11
REMARK H PARENT
REMARK Flexibility Score: inf
ROOT
ATOM      1  C   UNL     1      -4.121  13.089  21.320  1.00  0.00     0.008 C 
ATOM      2  C   UNL     1      -2.871  13.423  22.141  1.00  0.00    -0.006 C 
ATOM      3  C   UNL     1      -2.699  14.945  22.270  1.00  0.00     0.008 C 
ATOM      4  C   UNL     1      -1.510  15.297  23.174  1.00  0.00     0.039 C 
ATOM      5  C   UNL     1      -0.226  14.597  22.750  1.00  0.00    -0.006 C 
ATOM      6  C   UNL     1       0.994  15.181  22.934  1.00  0.00    -0.070 C 
ATOM      7  C   UNL     1       1.123  16.540  23.584  1.00  0.00     0.039 C 
ATOM      8  C   UNL     1       2.271  14.522  22.464  1.00  0.00     0.039 C 
ATOM      9  C   UNL     1      -0.378  13.204  22.235  1.00  0.00     0.159 C 
ATOM     10  O   UNL     1       0.520  12.337  22.413  1.00  0.00    -0.295 OA
ATOM     11  C   UNL     1      -1.622  12.807  21.494  1.00  0.00     0.084 C 
ENDROOT
TORSDOF 0
ENDMDL
MODEL 5
REMARK VINA RESULT:    -5.810      1.692      4.530
REMARK INTER + INTRA:          -5.810
REMARK INTER:                  -5.810
REMARK INTRA:                   0.000
REMARK UNBOUND:                 0.000
REMARK SMILES CC(C)=C1CC[C@@H](C)CC1=O
REMARK SMILES IDX 8 1 7 2 6 3 5 4 4 5 2 6 1 7 3 8 10 9 11 10 9 11
REMARK H PARENT
REMARK Flexibility Score: inf
ROOT
ATOM      1  C   UNL     1      -0.748  15.353  21.665  1.00  0.00     0.008 C 
ATOM      2  C   UNL     1      -0.263  13.906  21.531  1.00  0.00    -0.006 C 
ATOM      3  C   UNL     1      -1.287  12.933  22.137  1.00  0.00     0.008 C 
ATOM      4  C   UNL     1      -0.867  11.473  21.921  1.00  0.00     0.039 C 
ATOM      5  C   UNL     1       0.553  11.199  22.397  1.00  0.00    -0.006 C 
ATOM      6  C   UNL     1       0.911   9.979  22.897  1.00  0.00    -0.070 C 
ATOM      7  C   UNL     1      -0.085   8.844  22.980  1.00  0.00     0.039 C 
ATOM      8  C   UNL     1       2.302   9.712  23.426  1.00  0.00     0.039 C 
ATOM      9  C   UNL     1       1.543  12.296  22.178  1.00  0.00     0.159 C 
ATOM     10  O   UNL     1       2.758  12.047  21.950  1.00  0.00    -0.295 OA
ATOM     11  C   UNL     1       1.098  13.729  22.220  1.00  0.00     0.084 C 
ENDROOT
TORSDOF 0
ENDMDL
MODEL 6
REMARK VINA RESULT:    -5.787      1.733      2.547
REMARK INTER + INTRA:          -5.787
REMARK INTER:                  -5.787
REMARK INTRA:                   0.000
REMARK UNBOUND:                 0.000
REMARK SMILES CC(C)=C1CC[C@@H](C)CC1=O
REMARK SMILES IDX 8 1 7 2 6 3 5 4 4 5 2 6 1 7 3 8 10 9 11 10 9 11
REMARK H PARENT
REMARK Flexibility Score: inf
ROOT
ATOM      1  C   UNL     1       0.838   9.698  21.540  1.00  0.00     0.008 C 
ATOM      2  C   UNL     1       0.290  11.124  21.416  1.00  0.00    -0.006 C 
ATOM      3  C   UNL     1       1.340  12.149  21.873  1.00  0.00     0.008 C 
ATOM      4  C   UNL     1       0.847  13.586  21.660  1.00  0.00     0.039 C 
ATOM      5  C   UNL     1      -0.521  13.832  22.282  1.00  0.00    -0.006 C 
ATOM      6  C   UNL     1      -0.864  15.057  22.779  1.00  0.00    -0.070 C 
ATOM      7  C   UNL     1       0.094  16.225  22.716  1.00  0.00     0.039 C 
ATOM      8  C   UNL     1      -2.197  15.299  23.451  1.00  0.00     0.039 C 
ATOM      9  C   UNL     1      -1.489  12.698  22.208  1.00  0.00     0.159 C 
ATOM     10  O   UNL     1      -2.729  12.900  22.108  1.00  0.00    -0.295 OA
ATOM     11  C   UNL     1      -0.992  11.281  22.245  1.00  0.00     0.084 C 
ENDROOT
TORSDOF 0
ENDMDL
MODEL 7
REMARK VINA RESULT:    -5.786      2.278      2.881
REMARK INTER + INTRA:          -5.786
REMARK INTER:                  -5.786
REMARK INTRA:                   0.000
REMARK UNBOUND:                 0.000
REMARK SMILES CC(C)=C1CC[C@@H](C)CC1=O
REMARK SMILES IDX 8 1 7 2 6 3 5 4 4 5 2 6 1 7 3 8 10 9 11 10 9 11
REMARK H PARENT
REMARK Flexibility Score: inf
ROOT
ATOM      1  C   UNL     1       2.255   9.641  23.591  1.00  0.00     0.008 C 
ATOM      2  C   UNL     1       1.463   9.924  22.310  1.00  0.00    -0.006 C 
ATOM      3  C   UNL     1       2.406  10.357  21.175  1.00  0.00     0.008 C 
ATOM      4  C   UNL     1       1.644  10.546  19.857  1.00  0.00     0.039 C 
ATOM      5  C   UNL     1       0.443  11.470  20.005  1.00  0.00    -0.006 C 
ATOM      6  C   UNL     1       0.029  12.265  18.975  1.00  0.00    -0.070 C 
ATOM      7  C   UNL     1       0.736  12.248  17.639  1.00  0.00     0.039 C 
ATOM      8  C   UNL     1      -1.127  13.229  19.127  1.00  0.00     0.039 C 
ATOM      9  C   UNL     1      -0.312  11.364  21.289  1.00  0.00     0.159 C 
ATOM     10  O   UNL     1      -1.557  11.562  21.336  1.00  0.00    -0.295 OA
ATOM     11  C   UNL     1       0.408  11.011  22.558  1.00  0.00     0.084 C 
ENDROOT
TORSDOF 0
ENDMDL
MODEL 8
REMARK VINA RESULT:    -5.771      1.881      3.657
REMARK INTER + INTRA:          -5.771
REMARK INTER:                  -5.771
REMARK INTRA:                   0.000
REMARK UNBOUND:                 0.000
REMARK SMILES CC(C)=C1CC[C@@H](C)CC1=O
REMARK SMILES IDX 8 1 7 2 6 3 5 4 4 5 2 6 1 7 3 8 10 9 11 10 9 11
REMARK H PARENT
REMARK Flexibility Score: inf
ROOT
ATOM      1  C   UNL     1       3.438  12.407  21.626  1.00  0.00     0.008 C 
ATOM      2  C   UNL     1       2.075  13.075  21.415  1.00  0.00    -0.006 C 
ATOM      3  C   UNL     1       1.789  14.088  22.535  1.00  0.00     0.008 C 
ATOM      4  C   UNL     1       0.476  14.841  22.285  1.00  0.00     0.039 C 
ATOM      5  C   UNL     1      -0.696  13.902  22.032  1.00  0.00    -0.006 C 
ATOM      6  C   UNL     1      -1.966  14.234  22.410  1.00  0.00    -0.070 C 
ATOM      7  C   UNL     1      -2.264  15.557  23.078  1.00  0.00     0.039 C 
ATOM      8  C   UNL     1      -3.128  13.286  22.216  1.00  0.00     0.039 C 
ATOM      9  C   UNL     1      -0.390  12.666  21.252  1.00  0.00     0.159 C 
ATOM     10  O   UNL     1      -1.246  12.146  20.485  1.00  0.00    -0.295 OA
ATOM     11  C   UNL     1       0.960  12.020  21.365  1.00  0.00     0.084 C 
ENDROOT
TORSDOF 0
ENDMDL
MODEL 9
REMARK VINA RESULT:    -5.771      2.424      3.923
REMARK INTER + INTRA:          -5.771
REMARK INTER:                  -5.771
REMARK INTRA:                   0.000
REMARK UNBOUND:                 0.000
REMARK SMILES CC(C)=C1CC[C@@H](C)CC1=O
REMARK SMILES IDX 8 1 7 2 6 3 5 4 4 5 2 6 1 7 3 8 10 9 11 10 9 11
REMARK H PARENT
REMARK Flexibility Score: inf
ROOT
ATOM      1  C   UNL     1      -0.073  10.377  22.043  1.00  0.00     0.008 C 
ATOM      2  C   UNL     1      -0.691  11.764  22.247  1.00  0.00    -0.006 C 
ATOM      3  C   UNL     1      -1.528  12.170  21.023  1.00  0.00     0.008 C 
ATOM      4  C   UNL     1      -2.238  13.510  21.250  1.00  0.00     0.039 C 
ATOM      5  C   UNL     1      -1.281  14.609  21.695  1.00  0.00    -0.006 C 
ATOM      6  C   UNL     1      -1.493  15.915  21.355  1.00  0.00    -0.070 C 
ATOM      7  C   UNL     1      -2.695  16.326  20.537  1.00  0.00     0.039 C 
ATOM      8  C   UNL     1      -0.520  17.006  21.741  1.00  0.00     0.039 C 
ATOM      9  C   UNL     1      -0.179  14.188  22.612  1.00  0.00     0.159 C 
ATOM     10  O   UNL     1       0.276  14.969  23.490  1.00  0.00    -0.295 OA
ATOM     11  C   UNL     1       0.404  12.809  22.502  1.00  0.00     0.084 C 
ENDROOT
TORSDOF 0
ENDMDL
