MODEL 1
REMARK VINA RESULT:    -3.883      0.000      0.000
REMARK INTER + INTRA:          -6.858
REMARK INTER:                  -5.925
REMARK INTRA:                  -0.933
REMARK UNBOUND:                -0.933
REMARK SMILES CCCCCCCCCCC(=O)[O-]
REMARK SMILES IDX 7 1 8 2 9 3 10 4 11 5 12 6 13 7 6 8 5 9 4 10 3 11 2 12 1 13
REMARK H PARENT
REMARK Flexibility Score: inf
ROOT
ATOM      1  C   UNL     1       2.939   5.984   3.272  1.00  0.00     0.000 C 
ENDROOT
BRANCH   1   2
ATOM      2  C   UNL     1       3.321   4.576   3.759  1.00  0.00     0.000 C 
BRANCH   2   3
ATOM      3  C   UNL     1       4.191   4.601   5.024  1.00  0.00     0.006 C 
BRANCH   3   4
ATOM      4  C   UNL     1       5.396   3.667   4.876  1.00  0.00     0.053 C 
BRANCH   4   5
ATOM      5  C   UNL     1       5.986   3.356   6.217  1.00  0.00     0.041 C 
ATOM      6  O   UNL     1       6.413   2.198   6.467  1.00  0.00    -0.550 OA
ATOM      7  O   UNL     1       6.020   4.333   7.204  1.00  0.00    -0.550 OA
ENDBRANCH   4   5
ENDBRANCH   3   4
ENDBRANCH   2   3
ENDBRANCH   1   2
BRANCH   1   8
ATOM      8  C   UNL     1       1.585   6.010   2.544  1.00  0.00     0.000 C 
BRANCH   8   9
ATOM      9  C   UNL     1       0.606   7.029   3.152  1.00  0.00    -0.000 C 
BRANCH   9  10
ATOM     10  C   UNL     1       1.288   7.995   4.133  1.00  0.00    -0.000 C 
BRANCH  10  11
ATOM     11  C   UNL     1       0.630   7.923   5.519  1.00  0.00    -0.000 C 
BRANCH  11  12
ATOM     12  C   UNL     1       1.407   7.029   6.497  1.00  0.00    -0.003 C 
ATOM     13  C   UNL     1       0.796   5.634   6.636  1.00  0.00     0.004 C 
ENDBRANCH  11  12
ENDBRANCH  10  11
ENDBRANCH   9  10
ENDBRANCH   8   9
ENDBRANCH   1   8
TORSDOF 9
ENDMDL
MODEL 2
REMARK VINA RESULT:    -3.848     12.762     13.872
REMARK INTER + INTRA:          -6.805
REMARK INTER:                  -6.341
REMARK INTRA:                  -0.463
REMARK UNBOUND:                -0.933
REMARK SMILES CCCCCCCCCCC(=O)[O-]
REMARK SMILES IDX 7 1 8 2 9 3 10 4 11 5 12 6 13 7 6 8 5 9 4 10 3 11 2 12 1 13
REMARK H PARENT
REMARK Flexibility Score: inf
ROOT
ATOM      1  C   UNL     1      -2.948  -4.786   1.926  1.00  0.00     0.000 C 
ENDROOT
BRANCH   1   2
ATOM      2  C   UNL     1      -2.668  -5.755   3.087  1.00  0.00     0.000 C 
BRANCH   2   3
ATOM      3  C   UNL     1      -1.309  -6.459   2.959  1.00  0.00     0.006 C 
BRANCH   3   4
ATOM      4  C   UNL     1      -1.218  -7.650   3.917  1.00  0.00     0.053 C 
BRANCH   4   5
ATOM      5  C   UNL     1       0.186  -7.821   4.409  1.00  0.00     0.041 C 
ATOM      6  O   UNL     1       1.073  -6.984   4.097  1.00  0.00    -0.550 OA
ATOM      7  O   UNL     1       0.523  -8.931   5.173  1.00  0.00    -0.550 OA
ENDBRANCH   4   5
ENDBRANCH   3   4
ENDBRANCH   2   3
ENDBRANCH   1   2
BRANCH   1   8
ATOM      8  C   UNL     1      -2.111  -5.105   0.676  1.00  0.00     0.000 C 
BRANCH   8   9
ATOM      9  C   UNL     1      -2.863  -4.804  -0.631  1.00  0.00    -0.000 C 
BRANCH   9  10
ATOM     10  C   UNL     1      -2.211  -5.460  -1.858  1.00  0.00    -0.000 C 
BRANCH  10  11
ATOM     11  C   UNL     1      -3.146  -6.506  -2.481  1.00  0.00    -0.000 C 
BRANCH  11  12
ATOM     12  C   UNL     1      -4.545  -6.502  -1.847  1.00  0.00    -0.003 C 
ATOM     13  C   UNL     1      -5.660  -6.315  -2.876  1.00  0.00     0.004 C 
ENDBRANCH  11  12
ENDBRANCH  10  11
ENDBRANCH   9  10
ENDBRANCH   8   9
ENDBRANCH   1   8
TORSDOF 9
ENDMDL
MODEL 3
REMARK VINA RESULT:    -3.800      5.768      6.972
REMARK INTER + INTRA:          -6.732
REMARK INTER:                  -5.907
REMARK INTRA:                  -0.825
REMARK UNBOUND:                -0.933
REMARK SMILES CCCCCCCCCCC(=O)[O-]
REMARK SMILES IDX 7 1 8 2 9 3 10 4 11 5 12 6 13 7 6 8 5 9 4 10 3 11 2 12 1 13
REMARK H PARENT
REMARK Flexibility Score: inf
ROOT
ATOM      1  C   UNL     1       2.003   5.438  -2.403  1.00  0.00     0.000 C 
ENDROOT
BRANCH   1   2
ATOM      2  C   UNL     1       2.998   6.608  -2.499  1.00  0.00     0.000 C 
BRANCH   2   3
ATOM      3  C   UNL     1       4.253   6.392  -1.642  1.00  0.00     0.006 C 
BRANCH   3   4
ATOM      4  C   UNL     1       5.518   6.436  -2.504  1.00  0.00     0.053 C 
BRANCH   4   5
ATOM      5  C   UNL     1       5.537   5.290  -3.467  1.00  0.00     0.041 C 
ATOM      6  O   UNL     1       5.641   5.504  -4.704  1.00  0.00    -0.550 OA
ATOM      7  O   UNL     1       5.390   3.989  -3.002  1.00  0.00    -0.550 OA
ENDBRANCH   4   5
ENDBRANCH   3   4
ENDBRANCH   2   3
ENDBRANCH   1   2
BRANCH   1   8
ATOM      8  C   UNL     1       2.273   4.533  -1.189  1.00  0.00     0.000 C 
BRANCH   8   9
ATOM      9  C   UNL     1       1.119   4.549  -0.173  1.00  0.00    -0.000 C 
BRANCH   9  10
ATOM     10  C   UNL     1       1.365   5.523   0.990  1.00  0.00    -0.000 C 
BRANCH  10  11
ATOM     11  C   UNL     1       2.735   5.267   1.638  1.00  0.00    -0.000 C 
BRANCH  11  12
ATOM     12  C   UNL     1       2.892   5.979   2.989  1.00  0.00    -0.003 C 
ATOM     13  C   UNL     1       3.536   5.091   4.054  1.00  0.00     0.004 C 
ENDBRANCH  11  12
ENDBRANCH  10  11
ENDBRANCH   9  10
ENDBRANCH   8   9
ENDBRANCH   1   8
TORSDOF 9
ENDMDL
MODEL 4
REMARK VINA RESULT:    -3.777     12.037     13.373
REMARK INTER + INTRA:          -6.697
REMARK INTER:                  -5.896
REMARK INTRA:                  -0.801
REMARK UNBOUND:                -0.933
REMARK SMILES CCCCCCCCCCC(=O)[O-]
REMARK SMILES IDX 7 1 8 2 9 3 10 4 11 5 12 6 13 7 6 8 5 9 4 10 3 11 2 12 1 13
REMARK H PARENT
REMARK Flexibility Score: inf
ROOT
ATOM      1  C   UNL     1      -3.289  -4.513   3.200  1.00  0.00     0.000 C 
ENDROOT
BRANCH   1   2
ATOM      2  C   UNL     1      -3.914  -4.426   4.601  1.00  0.00     0.000 C 
BRANCH   2   3
ATOM      3  C   UNL     1      -3.878  -3.005   5.182  1.00  0.00     0.006 C 
BRANCH   3   4
ATOM      4  C   UNL     1      -4.225  -3.015   6.673  1.00  0.00     0.053 C 
BRANCH   4   5
ATOM      5  C   UNL     1      -5.675  -3.330   6.873  1.00  0.00     0.041 C 
ATOM      6  O   UNL     1      -6.559  -2.560   6.413  1.00  0.00    -0.550 OA
ATOM      7  O   UNL     1      -6.049  -4.447   7.608  1.00  0.00    -0.550 OA
ENDBRANCH   4   5
ENDBRANCH   3   4
ENDBRANCH   2   3
ENDBRANCH   1   2
BRANCH   1   8
ATOM      8  C   UNL     1      -2.705  -5.904   2.898  1.00  0.00     0.000 C 
BRANCH   8   9
ATOM      9  C   UNL     1      -1.236  -5.842   2.445  1.00  0.00    -0.000 C 
BRANCH   9  10
ATOM     10  C   UNL     1      -0.332  -6.807   3.228  1.00  0.00    -0.000 C 
BRANCH  10  11
ATOM     11  C   UNL     1      -1.170  -7.789   4.059  1.00  0.00    -0.000 C 
BRANCH  11  12
ATOM     12  C   UNL     1      -0.796  -7.772   5.549  1.00  0.00    -0.003 C 
ATOM     13  C   UNL     1      -1.384  -6.572   6.292  1.00  0.00     0.004 C 
ENDBRANCH  11  12
ENDBRANCH  10  11
ENDBRANCH   9  10
ENDBRANCH   8   9
ENDBRANCH   1   8
TORSDOF 9
ENDMDL
MODEL 5
REMARK VINA RESULT:    -3.774      1.076      1.538
REMARK INTER + INTRA:          -6.692
REMARK INTER:                  -6.001
REMARK INTRA:                  -0.691
REMARK UNBOUND:                -0.933
REMARK SMILES CCCCCCCCCCC(=O)[O-]
REMARK SMILES IDX 7 1 8 2 9 3 10 4 11 5 12 6 13 7 6 8 5 9 4 10 3 11 2 12 1 13
REMARK H PARENT
REMARK Flexibility Score: inf
ROOT
ATOM      1  C   UNL     1       2.838   4.482   3.318  1.00  0.00     0.000 C 
ENDROOT
BRANCH   1   2
ATOM      2  C   UNL     1       4.002   4.772   4.279  1.00  0.00     0.000 C 
BRANCH   2   3
ATOM      3  C   UNL     1       3.629   4.541   5.751  1.00  0.00     0.006 C 
BRANCH   3   4
ATOM      4  C   UNL     1       4.337   3.302   6.306  1.00  0.00     0.053 C 
BRANCH   4   5
ATOM      5  C   UNL     1       5.770   3.608   6.610  1.00  0.00     0.041 C 
ATOM      6  O   UNL     1       6.689   2.937   6.070  1.00  0.00    -0.550 OA
ATOM      7  O   UNL     1       6.089   4.603   7.525  1.00  0.00    -0.550 OA
ENDBRANCH   4   5
ENDBRANCH   3   4
ENDBRANCH   2   3
ENDBRANCH   1   2
BRANCH   1   8
ATOM      8  C   UNL     1       2.419   5.719   2.506  1.00  0.00     0.000 C 
BRANCH   8   9
ATOM      9  C   UNL     1       0.898   5.800   2.295  1.00  0.00    -0.000 C 
BRANCH   9  10
ATOM     10  C   UNL     1       0.236   6.890   3.152  1.00  0.00    -0.000 C 
BRANCH  10  11
ATOM     11  C   UNL     1       1.292   7.697   3.922  1.00  0.00    -0.000 C 
BRANCH  11  12
ATOM     12  C   UNL     1       1.026   7.726   5.435  1.00  0.00    -0.003 C 
ATOM     13  C   UNL     1      -0.023   8.765   5.831  1.00  0.00     0.004 C 
ENDBRANCH  11  12
ENDBRANCH  10  11
ENDBRANCH   9  10
ENDBRANCH   8   9
ENDBRANCH   1   8
TORSDOF 9
ENDMDL
MODEL 6
REMARK VINA RESULT:    -3.772     13.710     14.963
REMARK INTER + INTRA:          -6.689
REMARK INTER:                  -6.128
REMARK INTRA:                  -0.561
REMARK UNBOUND:                -0.933
REMARK SMILES CCCCCCCCCCC(=O)[O-]
REMARK SMILES IDX 7 1 8 2 9 3 10 4 11 5 12 6 13 7 6 8 5 9 4 10 3 11 2 12 1 13
REMARK H PARENT
REMARK Flexibility Score: inf
ROOT
ATOM      1  C   UNL     1      -3.274  -4.870   0.011  1.00  0.00     0.000 C 
ENDROOT
BRANCH   1   2
ATOM      2  C   UNL     1      -2.311  -5.260  -1.122  1.00  0.00     0.000 C 
BRANCH   2   3
ATOM      3  C   UNL     1      -2.986  -6.109  -2.210  1.00  0.00     0.006 C 
BRANCH   3   4
ATOM      4  C   UNL     1      -4.431  -6.443  -1.824  1.00  0.00     0.053 C 
BRANCH   4   5
ATOM      5  C   UNL     1      -5.338  -6.291  -3.006  1.00  0.00     0.041 C 
ATOM      6  O   UNL     1      -5.047  -5.483  -3.927  1.00  0.00    -0.550 OA
ATOM      7  O   UNL     1      -6.527  -7.007  -3.065  1.00  0.00    -0.550 OA
ENDBRANCH   4   5
ENDBRANCH   3   4
ENDBRANCH   2   3
ENDBRANCH   1   2
BRANCH   1   8
ATOM      8  C   UNL     1      -2.633  -5.002   1.403  1.00  0.00     0.000 C 
BRANCH   8   9
ATOM      9  C   UNL     1      -1.127  -5.308   1.332  1.00  0.00    -0.000 C 
BRANCH   9  10
ATOM     10  C   UNL     1      -0.677  -6.323   2.394  1.00  0.00    -0.000 C 
BRANCH  10  11
ATOM     11  C   UNL     1      -1.798  -6.587   3.410  1.00  0.00    -0.000 C 
BRANCH  11  12
ATOM     12  C   UNL     1      -1.261  -6.931   4.807  1.00  0.00    -0.003 C 
ATOM     13  C   UNL     1      -0.420  -8.207   4.820  1.00  0.00     0.004 C 
ENDBRANCH  11  12
ENDBRANCH  10  11
ENDBRANCH   9  10
ENDBRANCH   8   9
ENDBRANCH   1   8
TORSDOF 9
ENDMDL
MODEL 7
REMARK VINA RESULT:    -3.703      5.145      6.134
REMARK INTER + INTRA:          -6.584
REMARK INTER:                  -6.171
REMARK INTRA:                  -0.414
REMARK UNBOUND:                -0.933
REMARK SMILES CCCCCCCCCCC(=O)[O-]
REMARK SMILES IDX 7 1 8 2 9 3 10 4 11 5 12 6 13 7 6 8 5 9 4 10 3 11 2 12 1 13
REMARK H PARENT
REMARK Flexibility Score: inf
ROOT
ATOM      1  C   UNL     1       3.058   5.258   0.234  1.00  0.00     0.000 C 
ENDROOT
BRANCH   1   2
ATOM      2  C   UNL     1       2.218   5.253  -1.054  1.00  0.00     0.000 C 
BRANCH   2   3
ATOM      3  C   UNL     1       2.787   6.181  -2.138  1.00  0.00     0.006 C 
BRANCH   3   4
ATOM      4  C   UNL     1       4.182   6.681  -1.751  1.00  0.00     0.053 C 
BRANCH   4   5
ATOM      5  C   UNL     1       5.167   6.380  -2.838  1.00  0.00     0.041 C 
ATOM      6  O   UNL     1       4.917   5.488  -3.690  1.00  0.00    -0.550 OA
ATOM      7  O   UNL     1       6.383   7.051  -2.880  1.00  0.00    -0.550 OA
ENDBRANCH   4   5
ENDBRANCH   3   4
ENDBRANCH   2   3
ENDBRANCH   1   2
BRANCH   1   8
ATOM      8  C   UNL     1       2.192   5.186   1.503  1.00  0.00     0.000 C 
BRANCH   8   9
ATOM      9  C   UNL     1       2.931   5.695   2.752  1.00  0.00    -0.000 C 
BRANCH   9  10
ATOM     10  C   UNL     1       1.975   6.119   3.877  1.00  0.00    -0.000 C 
BRANCH  10  11
ATOM     11  C   UNL     1       1.233   7.413   3.506  1.00  0.00    -0.000 C 
BRANCH  11  12
ATOM     12  C   UNL     1       0.752   8.192   4.739  1.00  0.00    -0.003 C 
ATOM     13  C   UNL     1       1.104   7.496   6.054  1.00  0.00     0.004 C 
ENDBRANCH  11  12
ENDBRANCH  10  11
ENDBRANCH   9  10
ENDBRANCH   8   9
ENDBRANCH   1   8
TORSDOF 9
ENDMDL
MODEL 8
REMARK VINA RESULT:    -3.663     14.927     16.395
REMARK INTER + INTRA:          -6.523
REMARK INTER:                  -5.121
REMARK INTRA:                  -1.401
REMARK UNBOUND:                -0.933
REMARK SMILES CCCCCCCCCCC(=O)[O-]
REMARK SMILES IDX 7 1 8 2 9 3 10 4 11 5 12 6 13 7 6 8 5 9 4 10 3 11 2 12 1 13
REMARK H PARENT
REMARK Flexibility Score: inf
ROOT
ATOM      1  C   UNL     1      -5.650  -6.400  -2.690  1.00  0.00     0.000 C 
ENDROOT
BRANCH   1   2
ATOM      2  C   UNL     1      -6.333  -5.053  -2.400  1.00  0.00     0.000 C 
BRANCH   2   3
ATOM      3  C   UNL     1      -6.229  -4.069  -3.575  1.00  0.00     0.006 C 
BRANCH   3   4
ATOM      4  C   UNL     1      -5.607  -4.745  -4.801  1.00  0.00     0.053 C 
BRANCH   4   5
ATOM      5  C   UNL     1      -6.613  -4.862  -5.903  1.00  0.00     0.041 C 
ATOM      6  O   UNL     1      -6.409  -4.296  -7.009  1.00  0.00    -0.550 OA
ATOM      7  O   UNL     1      -7.798  -5.556  -5.691  1.00  0.00    -0.550 OA
ENDBRANCH   4   5
ENDBRANCH   3   4
ENDBRANCH   2   3
ENDBRANCH   1   2
BRANCH   1   8
ATOM      8  C   UNL     1      -4.432  -6.652  -1.786  1.00  0.00     0.000 C 
BRANCH   8   9
ATOM      9  C   UNL     1      -3.099  -6.525  -2.543  1.00  0.00    -0.000 C 
BRANCH   9  10
ATOM     10  C   UNL     1      -2.233  -5.365  -2.030  1.00  0.00    -0.000 C 
BRANCH  10  11
ATOM     11  C   UNL     1      -2.323  -4.156  -2.975  1.00  0.00    -0.000 C 
BRANCH  11  12
ATOM     12  C   UNL     1      -2.950  -2.926  -2.302  1.00  0.00    -0.003 C 
ATOM     13  C   UNL     1      -3.409  -3.204  -0.870  1.00  0.00     0.004 C 
ENDBRANCH  11  12
ENDBRANCH  10  11
ENDBRANCH   9  10
ENDBRANCH   8   9
ENDBRANCH   1   8
TORSDOF 9
ENDMDL
MODEL 9
REMARK VINA RESULT:    -3.653     13.915     15.078
REMARK INTER + INTRA:          -6.508
REMARK INTER:                  -5.819
REMARK INTRA:                  -0.689
REMARK UNBOUND:                -0.933
REMARK SMILES CCCCCCCCCCC(=O)[O-]
REMARK SMILES IDX 7 1 8 2 9 3 10 4 11 5 12 6 13 7 6 8 5 9 4 10 3 11 2 12 1 13
REMARK H PARENT
REMARK Flexibility Score: inf
ROOT
ATOM      1  C   UNL     1      -2.601  -5.097  -2.214  1.00  0.00     0.000 C 
ENDROOT
BRANCH   1   2
ATOM      2  C   UNL     1      -3.122  -6.520  -2.477  1.00  0.00     0.000 C 
BRANCH   2   3
ATOM      3  C   UNL     1      -4.595  -6.696  -2.082  1.00  0.00     0.006 C 
BRANCH   3   4
ATOM      4  C   UNL     1      -5.325  -5.349  -2.079  1.00  0.00     0.053 C 
BRANCH   4   5
ATOM      5  C   UNL     1      -6.499  -5.388  -3.008  1.00  0.00     0.041 C 
ATOM      6  O   UNL     1      -6.327  -5.592  -4.238  1.00  0.00    -0.550 OA
ATOM      7  O   UNL     1      -7.778  -5.148  -2.521  1.00  0.00    -0.550 OA
ENDBRANCH   4   5
ENDBRANCH   3   4
ENDBRANCH   2   3
ENDBRANCH   1   2
BRANCH   1   8
ATOM      8  C   UNL     1      -1.471  -5.066  -1.171  1.00  0.00     0.000 C 
BRANCH   8   9
ATOM      9  C   UNL     1      -1.861  -4.292   0.100  1.00  0.00    -0.000 C 
BRANCH   9  10
ATOM     10  C   UNL     1      -3.044  -4.931   0.844  1.00  0.00    -0.000 C 
BRANCH  10  11
ATOM     11  C   UNL     1      -2.900  -4.745   2.362  1.00  0.00    -0.000 C 
BRANCH  11  12
ATOM     12  C   UNL     1      -3.021  -6.068   3.134  1.00  0.00    -0.003 C 
ATOM     13  C   UNL     1      -1.663  -6.664   3.504  1.00  0.00     0.004 C 
ENDBRANCH  11  12
ENDBRANCH  10  11
ENDBRANCH   9  10
ENDBRANCH   8   9
ENDBRANCH   1   8
TORSDOF 9
ENDMDL
