MODEL 1
REMARK VINA RESULT:    -4.774      0.000      0.000
REMARK INTER + INTRA:          -9.202
REMARK INTER:                  -7.286
REMARK INTRA:                  -1.916
REMARK UNBOUND:                -1.916
REMARK SMILES OC[C@@H]1O[C@](CO)(O[C@@H]2O[C@H](CO)[C@@H](O)[C@@H](O)[C@@H]2O)[C@H](O)[C@H]1O
REMARK SMILES IDX 8 1 9 2 11 3 14 4 10 5 16 6 18 7 12 8 13 9 15 11 17 13 19 15
REMARK SMILES IDX 5 17 20 18 4 19 22 20 3 21 6 22 7 23 21 25 23 27 2 29 1 30
REMARK H PARENT 13 10 15 12 17 14 19 16 7 24 21 26 23 28 1 31
REMARK Flexibility Score: inf
ROOT
ATOM      1  O   UNL     1      53.640  19.455  -5.553  1.00  0.00    -0.313 OA
ENDROOT
BRANCH   1   2
ATOM      2  C   UNL     1      52.543  20.331  -5.296  1.00  0.00     0.285 C 
ATOM      3  C   UNL     1      50.227  20.622  -5.499  1.00  0.00     0.178 C 
ATOM      4  C   UNL     1      50.257  21.571  -6.728  1.00  0.00     0.177 C 
ATOM      5  O   UNL     1      51.298  19.698  -5.573  1.00  0.00    -0.341 OA
ATOM      6  C   UNL     1      51.698  21.692  -7.289  1.00  0.00     0.179 C 
ATOM      7  C   UNL     1      52.721  21.638  -6.137  1.00  0.00     0.202 C 
BRANCH   3   8
ATOM      8  C   UNL     1      48.911  19.838  -5.414  1.00  0.00     0.191 C 
BRANCH   8   9
ATOM      9  O   UNL     1      49.157  18.487  -5.126  1.00  0.00    -0.394 OA
ATOM     10  H   UNL     1      50.063  18.276  -5.468  1.00  0.00     0.210 HD
ENDBRANCH   8   9
ENDBRANCH   3   8
BRANCH   4  11
ATOM     11  O   UNL     1      49.769  22.830  -6.337  1.00  0.00    -0.387 OA
ATOM     12  H   UNL     1      50.019  22.954  -5.383  1.00  0.00     0.211 HD
ENDBRANCH   4  11
BRANCH   6  13
ATOM     13  O   UNL     1      51.863  22.882  -8.016  1.00  0.00    -0.387 OA
ATOM     14  H   UNL     1      51.116  23.481  -7.751  1.00  0.00     0.211 HD
ENDBRANCH   6  13
BRANCH   7  15
ATOM     15  O   UNL     1      54.037  21.789  -6.611  1.00  0.00    -0.385 OA
ATOM     16  H   UNL     1      54.231  21.028  -7.223  1.00  0.00     0.211 HD
ENDBRANCH   7  15
ENDBRANCH   1   2
BRANCH   1  17
ATOM     17  C   UNL     1      54.157  18.717  -4.439  1.00  0.00     0.224 C 
ATOM     18  C   UNL     1      53.860  17.203  -4.499  1.00  0.00     0.208 C 
ATOM     19  O   UNL     1      53.491  19.190  -3.286  1.00  0.00    -0.337 OA
ATOM     20  C   UNL     1      53.815  16.816  -3.039  1.00  0.00     0.180 C 
ATOM     21  C   UNL     1      53.384  18.123  -2.359  1.00  0.00     0.179 C 
BRANCH  17  22
ATOM     22  C   UNL     1      55.671  19.021  -4.234  1.00  0.00     0.225 C 
BRANCH  22  23
ATOM     23  O   UNL     1      56.148  19.812  -5.290  1.00  0.00    -0.391 OA
ATOM     24  H   UNL     1      57.135  19.863  -5.180  1.00  0.00     0.210 HD
ENDBRANCH  22  23
ENDBRANCH  17  22
BRANCH  18  25
ATOM     25  O   UNL     1      52.591  16.976  -5.057  1.00  0.00    -0.385 OA
ATOM     26  H   UNL     1      52.706  16.985  -6.043  1.00  0.00     0.211 HD
ENDBRANCH  18  25
BRANCH  20  27
ATOM     27  O   UNL     1      55.091  16.436  -2.589  1.00  0.00    -0.387 OA
ATOM     28  H   UNL     1      55.319  15.592  -3.060  1.00  0.00     0.211 HD
ENDBRANCH  20  27
BRANCH  21  29
ATOM     29  C   UNL     1      51.939  18.044  -1.846  1.00  0.00     0.191 C 
BRANCH  29  30
ATOM     30  O   UNL     1      51.034  18.305  -2.884  1.00  0.00    -0.394 OA
ATOM     31  H   UNL     1      51.538  18.805  -3.581  1.00  0.00     0.210 HD
ENDBRANCH  29  30
ENDBRANCH  21  29
ENDBRANCH   1  17
TORSDOF 13
ENDMDL
MODEL 2
REMARK VINA RESULT:    -4.195      1.681      3.223
REMARK INTER + INTRA:          -8.317
REMARK INTER:                  -7.015
REMARK INTRA:                  -1.303
REMARK UNBOUND:                -1.916
REMARK SMILES OC[C@@H]1O[C@](CO)(O[C@@H]2O[C@H](CO)[C@@H](O)[C@@H](O)[C@@H]2O)[C@H](O)[C@H]1O
REMARK SMILES IDX 8 1 9 2 11 3 14 4 10 5 16 6 18 7 12 8 13 9 15 11 17 13 19 15
REMARK SMILES IDX 5 17 20 18 4 19 22 20 3 21 6 22 7 23 21 25 23 27 2 29 1 30
REMARK H PARENT 13 10 15 12 17 14 19 16 7 24 21 26 23 28 1 31
REMARK Flexibility Score: inf
ROOT
ATOM      1  O   UNL     1      51.913  17.974  -5.077  1.00  0.00    -0.313 OA
ENDROOT
BRANCH   1   2
ATOM      2  C   UNL     1      51.930  19.358  -5.424  1.00  0.00     0.285 C 
ATOM      3  C   UNL     1      51.160  21.493  -4.847  1.00  0.00     0.178 C 
ATOM      4  C   UNL     1      50.033  21.589  -5.912  1.00  0.00     0.177 C 
ATOM      5  O   UNL     1      51.310  20.152  -4.418  1.00  0.00    -0.341 OA
ATOM      6  C   UNL     1      49.866  20.236  -6.652  1.00  0.00     0.179 C 
ATOM      7  C   UNL     1      51.236  19.548  -6.813  1.00  0.00     0.202 C 
BRANCH   3   8
ATOM      8  C   UNL     1      50.863  22.367  -3.621  1.00  0.00     0.191 C 
BRANCH   8   9
ATOM      9  O   UNL     1      49.892  23.333  -3.924  1.00  0.00    -0.394 OA
ATOM     10  H   UNL     1      49.265  22.922  -4.574  1.00  0.00     0.210 HD
ENDBRANCH   8   9
ENDBRANCH   3   8
BRANCH   4  11
ATOM     11  O   UNL     1      50.357  22.614  -6.819  1.00  0.00    -0.387 OA
ATOM     12  H   UNL     1      50.137  22.277  -7.728  1.00  0.00     0.211 HD
ENDBRANCH   4  11
BRANCH   6  13
ATOM     13  O   UNL     1      49.272  20.415  -7.912  1.00  0.00    -0.387 OA
ATOM     14  H   UNL     1      48.775  21.275  -7.871  1.00  0.00     0.211 HD
ENDBRANCH   6  13
BRANCH   7  15
ATOM     15  O   UNL     1      51.122  18.336  -7.520  1.00  0.00    -0.385 OA
ATOM     16  H   UNL     1      52.022  18.103  -7.874  1.00  0.00     0.211 HD
ENDBRANCH   7  15
ENDBRANCH   1   2
BRANCH   1  17
ATOM     17  C   UNL     1      53.181  17.338  -4.876  1.00  0.00     0.224 C 
ATOM     18  C   UNL     1      53.573  17.177  -3.392  1.00  0.00     0.208 C 
ATOM     19  O   UNL     1      54.161  18.186  -5.439  1.00  0.00    -0.337 OA
ATOM     20  C   UNL     1      55.083  17.202  -3.444  1.00  0.00     0.180 C 
ATOM     21  C   UNL     1      55.362  18.038  -4.700  1.00  0.00     0.179 C 
BRANCH  17  22
ATOM     22  C   UNL     1      53.252  15.995  -5.663  1.00  0.00     0.225 C 
BRANCH  22  23
ATOM     23  O   UNL     1      52.865  16.199  -6.995  1.00  0.00    -0.391 OA
ATOM     24  H   UNL     1      52.434  17.094  -7.029  1.00  0.00     0.210 HD
ENDBRANCH  22  23
ENDBRANCH  17  22
BRANCH  18  25
ATOM     25  O   UNL     1      53.135  18.285  -2.649  1.00  0.00    -0.385 OA
ATOM     26  H   UNL     1      52.169  18.400  -2.846  1.00  0.00     0.211 HD
ENDBRANCH  18  25
BRANCH  20  27
ATOM     27  O   UNL     1      55.594  15.903  -3.605  1.00  0.00    -0.387 OA
ATOM     28  H   UNL     1      56.542  16.002  -3.885  1.00  0.00     0.211 HD
ENDBRANCH  20  27
BRANCH  21  29
ATOM     29  C   UNL     1      55.909  19.428  -4.345  1.00  0.00     0.191 C 
BRANCH  29  30
ATOM     30  O   UNL     1      56.930  19.796  -5.230  1.00  0.00    -0.394 OA
ATOM     31  H   UNL     1      56.861  19.187  -6.013  1.00  0.00     0.210 HD
ENDBRANCH  29  30
ENDBRANCH  21  29
ENDBRANCH   1  17
TORSDOF 13
ENDMDL
MODEL 3
REMARK VINA RESULT:    -4.080      1.544      3.711
REMARK INTER + INTRA:          -8.142
REMARK INTER:                  -7.210
REMARK INTRA:                  -0.932
REMARK UNBOUND:                -1.916
REMARK SMILES OC[C@@H]1O[C@](CO)(O[C@@H]2O[C@H](CO)[C@@H](O)[C@@H](O)[C@@H]2O)[C@H](O)[C@H]1O
REMARK SMILES IDX 8 1 9 2 11 3 14 4 10 5 16 6 18 7 12 8 13 9 15 11 17 13 19 15
REMARK SMILES IDX 5 17 20 18 4 19 22 20 3 21 6 22 7 23 21 25 23 27 2 29 1 30
REMARK H PARENT 13 10 15 12 17 14 19 16 7 24 21 26 23 28 1 31
REMARK Flexibility Score: inf
ROOT
ATOM      1  O   UNL     1      52.509  20.273  -4.668  1.00  0.00    -0.313 OA
ENDROOT
BRANCH   1   2
ATOM      2  C   UNL     1      51.401  20.409  -5.558  1.00  0.00     0.285 C 
ATOM      3  C   UNL     1      50.408  21.754  -7.198  1.00  0.00     0.178 C 
ATOM      4  C   UNL     1      49.323  22.398  -6.292  1.00  0.00     0.177 C 
ATOM      5  O   UNL     1      51.583  21.506  -6.447  1.00  0.00    -0.341 OA
ATOM      6  C   UNL     1      49.544  21.999  -4.810  1.00  0.00     0.179 C 
ATOM      7  C   UNL     1      50.087  20.559  -4.724  1.00  0.00     0.202 C 
BRANCH   3   8
ATOM      8  C   UNL     1      50.770  22.656  -8.385  1.00  0.00     0.191 C 
BRANCH   8   9
ATOM      9  O   UNL     1      52.105  23.079  -8.299  1.00  0.00    -0.394 OA
ATOM     10  H   UNL     1      52.491  22.659  -7.487  1.00  0.00     0.210 HD
ENDBRANCH   8   9
ENDBRANCH   3   8
BRANCH   4  11
ATOM     11  O   UNL     1      48.057  21.976  -6.736  1.00  0.00    -0.387 OA
ATOM     12  H   UNL     1      47.903  21.070  -6.354  1.00  0.00     0.211 HD
ENDBRANCH   4  11
BRANCH   6  13
ATOM     13  O   UNL     1      48.354  22.105  -4.071  1.00  0.00    -0.387 OA
ATOM     14  H   UNL     1      48.312  21.302  -3.487  1.00  0.00     0.211 HD
ENDBRANCH   6  13
BRANCH   7  15
ATOM     15  O   UNL     1      50.257  20.153  -3.387  1.00  0.00    -0.385 OA
ATOM     16  H   UNL     1      51.092  19.616  -3.334  1.00  0.00     0.211 HD
ENDBRANCH   7  15
ENDBRANCH   1   2
BRANCH   1  17
ATOM     17  C   UNL     1      53.314  19.097  -4.808  1.00  0.00     0.224 C 
ATOM     18  C   UNL     1      53.688  18.429  -3.468  1.00  0.00     0.208 C 
ATOM     19  O   UNL     1      54.539  19.503  -5.385  1.00  0.00    -0.337 OA
ATOM     20  C   UNL     1      55.008  17.767  -3.783  1.00  0.00     0.180 C 
ATOM     21  C   UNL     1      55.565  18.648  -4.909  1.00  0.00     0.179 C 
BRANCH  17  22
ATOM     22  C   UNL     1      52.660  18.100  -5.811  1.00  0.00     0.225 C 
BRANCH  22  23
ATOM     23  O   UNL     1      51.991  17.085  -5.110  1.00  0.00    -0.391 OA
ATOM     24  H   UNL     1      51.163  16.887  -5.624  1.00  0.00     0.210 HD
ENDBRANCH  22  23
ENDBRANCH  17  22
BRANCH  18  25
ATOM     25  O   UNL     1      53.905  19.405  -2.481  1.00  0.00    -0.385 OA
ATOM     26  H   UNL     1      53.215  20.106  -2.614  1.00  0.00     0.211 HD
ENDBRANCH  18  25
BRANCH  20  27
ATOM     27  O   UNL     1      54.805  16.457  -4.251  1.00  0.00    -0.387 OA
ATOM     28  H   UNL     1      55.614  16.212  -4.772  1.00  0.00     0.211 HD
ENDBRANCH  20  27
BRANCH  21  29
ATOM     29  C   UNL     1      56.747  19.502  -4.427  1.00  0.00     0.191 C 
BRANCH  29  30
ATOM     30  O   UNL     1      57.592  19.821  -5.497  1.00  0.00    -0.394 OA
ATOM     31  H   UNL     1      58.420  20.206  -5.101  1.00  0.00     0.210 HD
ENDBRANCH  29  30
ENDBRANCH  21  29
ENDBRANCH   1  17
TORSDOF 13
ENDMDL
MODEL 4
REMARK VINA RESULT:    -3.952      1.234      2.283
REMARK INTER + INTRA:          -7.947
REMARK INTER:                  -7.170
REMARK INTRA:                  -0.777
REMARK UNBOUND:                -1.916
REMARK SMILES OC[C@@H]1O[C@](CO)(O[C@@H]2O[C@H](CO)[C@@H](O)[C@@H](O)[C@@H]2O)[C@H](O)[C@H]1O
REMARK SMILES IDX 8 1 9 2 11 3 14 4 10 5 16 6 18 7 12 8 13 9 15 11 17 13 19 15
REMARK SMILES IDX 5 17 20 18 4 19 22 20 3 21 6 22 7 23 21 25 23 27 2 29 1 30
REMARK H PARENT 13 10 15 12 17 14 19 16 7 24 21 26 23 28 1 31
REMARK Flexibility Score: inf
ROOT
ATOM      1  O   UNL     1      52.830  19.421  -5.407  1.00  0.00    -0.313 OA
ENDROOT
BRANCH   1   2
ATOM      2  C   UNL     1      51.820  20.427  -5.329  1.00  0.00     0.285 C 
ATOM      3  C   UNL     1      49.607  20.973  -5.866  1.00  0.00     0.178 C 
ATOM      4  C   UNL     1      49.920  21.863  -7.100  1.00  0.00     0.177 C 
ATOM      5  O   UNL     1      50.560  19.930  -5.766  1.00  0.00    -0.341 OA
ATOM      6  C   UNL     1      51.428  21.796  -7.452  1.00  0.00     0.179 C 
ATOM      7  C   UNL     1      52.268  21.671  -6.165  1.00  0.00     0.202 C 
BRANCH   3   8
ATOM      8  C   UNL     1      48.208  20.349  -5.952  1.00  0.00     0.191 C 
BRANCH   8   9
ATOM      9  O   UNL     1      47.886  20.034  -7.280  1.00  0.00    -0.394 OA
ATOM     10  H   UNL     1      47.568  20.870  -7.709  1.00  0.00     0.210 HD
ENDBRANCH   8   9
ENDBRANCH   3   8
BRANCH   4  11
ATOM     11  O   UNL     1      49.535  23.185  -6.811  1.00  0.00    -0.387 OA
ATOM     12  H   UNL     1      50.343  23.653  -6.470  1.00  0.00     0.211 HD
ENDBRANCH   4  11
BRANCH   6  13
ATOM     13  O   UNL     1      51.833  22.931  -8.175  1.00  0.00    -0.387 OA
ATOM     14  H   UNL     1      51.024  23.274  -8.638  1.00  0.00     0.211 HD
ENDBRANCH   6  13
BRANCH   7  15
ATOM     15  O   UNL     1      53.646  21.651  -6.450  1.00  0.00    -0.385 OA
ATOM     16  H   UNL     1      54.121  21.330  -5.638  1.00  0.00     0.211 HD
ENDBRANCH   7  15
ENDBRANCH   1   2
BRANCH   1  17
ATOM     17  C   UNL     1      53.295  18.869  -4.170  1.00  0.00     0.224 C 
ATOM     18  C   UNL     1      54.832  18.800  -4.052  1.00  0.00     0.208 C 
ATOM     19  O   UNL     1      52.849  17.529  -4.124  1.00  0.00    -0.337 OA
ATOM     20  C   UNL     1      55.042  17.620  -3.132  1.00  0.00     0.180 C 
ATOM     21  C   UNL     1      53.794  16.765  -3.393  1.00  0.00     0.179 C 
BRANCH  17  22
ATOM     22  C   UNL     1      52.634  19.598  -2.961  1.00  0.00     0.225 C 
BRANCH  22  23
ATOM     23  O   UNL     1      51.855  18.694  -2.224  1.00  0.00    -0.391 OA
ATOM     24  H   UNL     1      51.041  19.190  -1.942  1.00  0.00     0.210 HD
ENDBRANCH  22  23
ENDBRANCH  17  22
BRANCH  18  25
ATOM     25  O   UNL     1      55.404  18.498  -5.299  1.00  0.00    -0.385 OA
ATOM     26  H   UNL     1      56.376  18.685  -5.222  1.00  0.00     0.211 HD
ENDBRANCH  18  25
BRANCH  20  27
ATOM     27  O   UNL     1      55.069  18.038  -1.791  1.00  0.00    -0.387 OA
ATOM     28  H   UNL     1      54.352  17.536  -1.321  1.00  0.00     0.211 HD
ENDBRANCH  20  27
BRANCH  21  29
ATOM     29  C   UNL     1      54.135  15.494  -4.184  1.00  0.00     0.191 C 
BRANCH  29  30
ATOM     30  O   UNL     1      53.907  15.691  -5.552  1.00  0.00    -0.394 OA
ATOM     31  H   UNL     1      54.305  16.572  -5.783  1.00  0.00     0.210 HD
ENDBRANCH  29  30
ENDBRANCH  21  29
ENDBRANCH   1  17
TORSDOF 13
ENDMDL
MODEL 5
REMARK VINA RESULT:    -3.911      1.817      3.770
REMARK INTER + INTRA:          -7.885
REMARK INTER:                  -6.309
REMARK INTRA:                  -1.575
REMARK UNBOUND:                -1.916
REMARK SMILES OC[C@@H]1O[C@](CO)(O[C@@H]2O[C@H](CO)[C@@H](O)[C@@H](O)[C@@H]2O)[C@H](O)[C@H]1O
REMARK SMILES IDX 8 1 9 2 11 3 14 4 10 5 16 6 18 7 12 8 13 9 15 11 17 13 19 15
REMARK SMILES IDX 5 17 20 18 4 19 22 20 3 21 6 22 7 23 21 25 23 27 2 29 1 30
REMARK H PARENT 13 10 15 12 17 14 19 16 7 24 21 26 23 28 1 31
REMARK Flexibility Score: inf
ROOT
ATOM      1  O   UNL     1      51.719  17.791  -4.349  1.00  0.00    -0.313 OA
ENDROOT
BRANCH   1   2
ATOM      2  C   UNL     1      51.919  18.433  -5.608  1.00  0.00     0.285 C 
ATOM      3  C   UNL     1      51.518  20.370  -6.863  1.00  0.00     0.178 C 
ATOM      4  C   UNL     1      50.348  19.809  -7.718  1.00  0.00     0.177 C 
ATOM      5  O   UNL     1      51.495  19.791  -5.570  1.00  0.00    -0.341 OA
ATOM      6  C   UNL     1      49.931  18.402  -7.215  1.00  0.00     0.179 C 
ATOM      7  C   UNL     1      51.169  17.628  -6.720  1.00  0.00     0.202 C 
BRANCH   3   8
ATOM      8  C   UNL     1      51.439  21.895  -6.717  1.00  0.00     0.191 C 
BRANCH   8   9
ATOM      9  O   UNL     1      51.840  22.528  -7.903  1.00  0.00    -0.394 OA
ATOM     10  H   UNL     1      51.189  22.269  -8.605  1.00  0.00     0.210 HD
ENDBRANCH   8   9
ENDBRANCH   3   8
BRANCH   4  11
ATOM     11  O   UNL     1      50.759  19.754  -9.062  1.00  0.00    -0.387 OA
ATOM     12  H   UNL     1      50.291  18.981  -9.477  1.00  0.00     0.211 HD
ENDBRANCH   4  11
BRANCH   6  13
ATOM     13  O   UNL     1      49.286  17.671  -8.227  1.00  0.00    -0.387 OA
ATOM     14  H   UNL     1      49.687  17.966  -9.087  1.00  0.00     0.211 HD
ENDBRANCH   6  13
BRANCH   7  15
ATOM     15  O   UNL     1      50.827  16.330  -6.296  1.00  0.00    -0.385 OA
ATOM     16  H   UNL     1      49.857  16.197  -6.473  1.00  0.00     0.211 HD
ENDBRANCH   7  15
ENDBRANCH   1   2
BRANCH   1  17
ATOM     17  C   UNL     1      52.891  17.430  -3.610  1.00  0.00     0.224 C 
ATOM     18  C   UNL     1      53.238  18.406  -2.466  1.00  0.00     0.208 C 
ATOM     19  O   UNL     1      53.980  17.494  -4.508  1.00  0.00    -0.337 OA
ATOM     20  C   UNL     1      54.739  18.272  -2.359  1.00  0.00     0.180 C 
ATOM     21  C   UNL     1      55.142  17.861  -3.781  1.00  0.00     0.179 C 
BRANCH  17  22
ATOM     22  C   UNL     1      52.801  15.951  -3.127  1.00  0.00     0.225 C 
BRANCH  22  23
ATOM     23  O   UNL     1      52.603  15.100  -4.224  1.00  0.00    -0.391 OA
ATOM     24  H   UNL     1      52.537  14.178  -3.857  1.00  0.00     0.210 HD
ENDBRANCH  22  23
ENDBRANCH  17  22
BRANCH  18  25
ATOM     25  O   UNL     1      52.935  19.725  -2.842  1.00  0.00    -0.385 OA
ATOM     26  H   UNL     1      53.694  20.290  -2.541  1.00  0.00     0.211 HD
ENDBRANCH  18  25
BRANCH  20  27
ATOM     27  O   UNL     1      55.081  17.258  -1.448  1.00  0.00    -0.387 OA
ATOM     28  H   UNL     1      54.227  16.884  -1.104  1.00  0.00     0.211 HD
ENDBRANCH  20  27
BRANCH  21  29
ATOM     29  C   UNL     1      55.857  19.002  -4.519  1.00  0.00     0.191 C 
BRANCH  29  30
ATOM     30  O   UNL     1      54.938  19.773  -5.241  1.00  0.00    -0.394 OA
ATOM     31  H   UNL     1      55.270  20.710  -5.215  1.00  0.00     0.210 HD
ENDBRANCH  29  30
ENDBRANCH  21  29
ENDBRANCH   1  17
TORSDOF 13
ENDMDL
MODEL 6
REMARK VINA RESULT:    -3.886      3.624      6.596
REMARK INTER + INTRA:          -7.846
REMARK INTER:                  -6.461
REMARK INTRA:                  -1.385
REMARK UNBOUND:                -1.916
REMARK SMILES OC[C@@H]1O[C@](CO)(O[C@@H]2O[C@H](CO)[C@@H](O)[C@@H](O)[C@@H]2O)[C@H](O)[C@H]1O
REMARK SMILES IDX 8 1 9 2 11 3 14 4 10 5 16 6 18 7 12 8 13 9 15 11 17 13 19 15
REMARK SMILES IDX 5 17 20 18 4 19 22 20 3 21 6 22 7 23 21 25 23 27 2 29 1 30
REMARK H PARENT 13 10 15 12 17 14 19 16 7 24 21 26 23 28 1 31
REMARK Flexibility Score: inf
ROOT
ATOM      1  O   UNL     1      55.513  14.847  -2.402  1.00  0.00    -0.313 OA
ENDROOT
BRANCH   1   2
ATOM      2  C   UNL     1      54.483  15.782  -2.719  1.00  0.00     0.285 C 
ATOM      3  C   UNL     1      53.636  17.226  -4.357  1.00  0.00     0.178 C 
ATOM      4  C   UNL     1      54.182  18.549  -3.752  1.00  0.00     0.177 C 
ATOM      5  O   UNL     1      54.533  16.163  -4.090  1.00  0.00    -0.341 OA
ATOM      6  C   UNL     1      55.115  18.254  -2.549  1.00  0.00     0.179 C 
ATOM      7  C   UNL     1      54.606  17.022  -1.774  1.00  0.00     0.202 C 
BRANCH   3   8
ATOM      8  C   UNL     1      53.441  17.330  -5.875  1.00  0.00     0.191 C 
BRANCH   8   9
ATOM      9  O   UNL     1      52.885  18.571  -6.221  1.00  0.00    -0.394 OA
ATOM     10  H   UNL     1      53.630  19.225  -6.253  1.00  0.00     0.210 HD
ENDBRANCH   8   9
ENDBRANCH   3   8
BRANCH   4  11
ATOM     11  O   UNL     1      53.093  19.345  -3.353  1.00  0.00    -0.387 OA
ATOM     12  H   UNL     1      52.971  20.040  -4.053  1.00  0.00     0.211 HD
ENDBRANCH   4  11
BRANCH   6  13
ATOM     13  O   UNL     1      55.198  19.359  -1.686  1.00  0.00    -0.387 OA
ATOM     14  H   UNL     1      56.128  19.702  -1.755  1.00  0.00     0.211 HD
ENDBRANCH   6  13
BRANCH   7  15
ATOM     15  O   UNL     1      55.410  16.755  -0.650  1.00  0.00    -0.385 OA
ATOM     16  H   UNL     1      54.892  16.168  -0.037  1.00  0.00     0.211 HD
ENDBRANCH   7  15
ENDBRANCH   1   2
BRANCH   1  17
ATOM     17  C   UNL     1      55.099  13.538  -1.991  1.00  0.00     0.224 C 
ATOM     18  C   UNL     1      56.047  12.873  -0.970  1.00  0.00     0.208 C 
ATOM     19  O   UNL     1      55.136  12.715  -3.138  1.00  0.00    -0.337 OA
ATOM     20  C   UNL     1      55.858  11.401  -1.253  1.00  0.00     0.180 C 
ATOM     21  C   UNL     1      55.452  11.393  -2.733  1.00  0.00     0.179 C 
BRANCH  17  22
ATOM     22  C   UNL     1      53.618  13.558  -1.506  1.00  0.00     0.225 C 
BRANCH  22  23
ATOM     23  O   UNL     1      53.573  13.632  -0.106  1.00  0.00    -0.391 OA
ATOM     24  H   UNL     1      53.469  12.699   0.221  1.00  0.00     0.210 HD
ENDBRANCH  22  23
ENDBRANCH  17  22
BRANCH  18  25
ATOM     25  O   UNL     1      57.381  13.212  -1.251  1.00  0.00    -0.385 OA
ATOM     26  H   UNL     1      57.904  13.025  -0.428  1.00  0.00     0.211 HD
ENDBRANCH  18  25
BRANCH  20  27
ATOM     27  O   UNL     1      54.821  10.876  -0.464  1.00  0.00    -0.387 OA
ATOM     28  H   UNL     1      54.760  11.449   0.345  1.00  0.00     0.211 HD
ENDBRANCH  20  27
BRANCH  21  29
ATOM     29  C   UNL     1      56.576  10.847  -3.625  1.00  0.00     0.191 C 
BRANCH  29  30
ATOM     30  O   UNL     1      57.469  11.870  -3.972  1.00  0.00    -0.394 OA
ATOM     31  H   UNL     1      58.073  11.996  -3.192  1.00  0.00     0.210 HD
ENDBRANCH  29  30
ENDBRANCH  21  29
ENDBRANCH   1  17
TORSDOF 13
ENDMDL
MODEL 7
REMARK VINA RESULT:    -3.871      3.045      5.063
REMARK INTER + INTRA:          -7.823
REMARK INTER:                  -6.326
REMARK INTRA:                  -1.497
REMARK UNBOUND:                -1.916
REMARK SMILES OC[C@@H]1O[C@](CO)(O[C@@H]2O[C@H](CO)[C@@H](O)[C@@H](O)[C@@H]2O)[C@H](O)[C@H]1O
REMARK SMILES IDX 8 1 9 2 11 3 14 4 10 5 16 6 18 7 12 8 13 9 15 11 17 13 19 15
REMARK SMILES IDX 5 17 20 18 4 19 22 20 3 21 6 22 7 23 21 25 23 27 2 29 1 30
REMARK H PARENT 13 10 15 12 17 14 19 16 7 24 21 26 23 28 1 31
REMARK Flexibility Score: inf
ROOT
ATOM      1  O   UNL     1      55.193  16.331  -2.443  1.00  0.00    -0.313 OA
ENDROOT
BRANCH   1   2
ATOM      2  C   UNL     1      54.111  16.832  -3.227  1.00  0.00     0.285 C 
ATOM      3  C   UNL     1      53.002  16.688  -5.285  1.00  0.00     0.178 C 
ATOM      4  C   UNL     1      53.611  17.965  -5.925  1.00  0.00     0.177 C 
ATOM      5  O   UNL     1      53.947  16.078  -4.424  1.00  0.00    -0.341 OA
ATOM      6  C   UNL     1      54.721  18.554  -5.016  1.00  0.00     0.179 C 
ATOM      7  C   UNL     1      54.356  18.346  -3.533  1.00  0.00     0.202 C 
BRANCH   3   8
ATOM      8  C   UNL     1      52.577  15.664  -6.346  1.00  0.00     0.191 C 
BRANCH   8   9
ATOM      9  O   UNL     1      52.177  16.309  -7.526  1.00  0.00    -0.394 OA
ATOM     10  H   UNL     1      52.977  16.369  -8.110  1.00  0.00     0.210 HD
ENDBRANCH   8   9
ENDBRANCH   3   8
BRANCH   4  11
ATOM     11  O   UNL     1      52.583  18.903  -6.125  1.00  0.00    -0.387 OA
ATOM     12  H   UNL     1      52.436  19.362  -5.255  1.00  0.00     0.211 HD
ENDBRANCH   4  11
BRANCH   6  13
ATOM     13  O   UNL     1      54.915  19.922  -5.271  1.00  0.00    -0.387 OA
ATOM     14  H   UNL     1      54.761  20.394  -4.411  1.00  0.00     0.211 HD
ENDBRANCH   6  13
BRANCH   7  15
ATOM     15  O   UNL     1      55.325  18.910  -2.682  1.00  0.00    -0.385 OA
ATOM     16  H   UNL     1      55.621  19.770  -3.083  1.00  0.00     0.211 HD
ENDBRANCH   7  15
ENDBRANCH   1   2
BRANCH   1  17
ATOM     17  C   UNL     1      54.891  15.285  -1.512  1.00  0.00     0.224 C 
ATOM     18  C   UNL     1      55.918  14.133  -1.509  1.00  0.00     0.208 C 
ATOM     19  O   UNL     1      53.671  14.705  -1.926  1.00  0.00    -0.337 OA
ATOM     20  C   UNL     1      55.085  12.946  -1.085  1.00  0.00     0.180 C 
ATOM     21  C   UNL     1      53.681  13.332  -1.568  1.00  0.00     0.179 C 
BRANCH  17  22
ATOM     22  C   UNL     1      54.644  15.870  -0.089  1.00  0.00     0.225 C 
BRANCH  22  23
ATOM     23  O   UNL     1      55.796  15.723   0.696  1.00  0.00    -0.391 OA
ATOM     24  H   UNL     1      56.515  15.410   0.085  1.00  0.00     0.210 HD
ENDBRANCH  22  23
ENDBRANCH  17  22
BRANCH  18  25
ATOM     25  O   UNL     1      56.394  13.900  -2.810  1.00  0.00    -0.385 OA
ATOM     26  H   UNL     1      56.203  14.720  -3.336  1.00  0.00     0.211 HD
ENDBRANCH  18  25
BRANCH  20  27
ATOM     27  O   UNL     1      55.094  12.810   0.313  1.00  0.00    -0.387 OA
ATOM     28  H   UNL     1      55.325  11.863   0.506  1.00  0.00     0.211 HD
ENDBRANCH  20  27
BRANCH  21  29
ATOM     29  C   UNL     1      53.249  12.493  -2.780  1.00  0.00     0.191 C 
BRANCH  29  30
ATOM     30  O   UNL     1      53.620  13.126  -3.974  1.00  0.00    -0.394 OA
ATOM     31  H   UNL     1      53.464  14.099  -3.840  1.00  0.00     0.210 HD
ENDBRANCH  29  30
ENDBRANCH  21  29
ENDBRANCH   1  17
TORSDOF 13
ENDMDL
MODEL 8
REMARK VINA RESULT:    -3.866      1.827      3.804
REMARK INTER + INTRA:          -7.817
REMARK INTER:                  -5.989
REMARK INTRA:                  -1.827
REMARK UNBOUND:                -1.916
REMARK SMILES OC[C@@H]1O[C@](CO)(O[C@@H]2O[C@H](CO)[C@@H](O)[C@@H](O)[C@@H]2O)[C@H](O)[C@H]1O
REMARK SMILES IDX 8 1 9 2 11 3 14 4 10 5 16 6 18 7 12 8 13 9 15 11 17 13 19 15
REMARK SMILES IDX 5 17 20 18 4 19 22 20 3 21 6 22 7 23 21 25 23 27 2 29 1 30
REMARK H PARENT 13 10 15 12 17 14 19 16 7 24 21 26 23 28 1 31
REMARK Flexibility Score: inf
ROOT
ATOM      1  O   UNL     1      52.619  18.803  -2.302  1.00  0.00    -0.313 OA
ENDROOT
BRANCH   1   2
ATOM      2  C   UNL     1      51.783  19.338  -3.328  1.00  0.00     0.285 C 
ATOM      3  C   UNL     1      51.630  20.908  -5.059  1.00  0.00     0.178 C 
ATOM      4  C   UNL     1      50.784  21.962  -4.292  1.00  0.00     0.177 C 
ATOM      5  O   UNL     1      52.500  20.239  -4.163  1.00  0.00    -0.341 OA
ATOM      6  C   UNL     1      50.635  21.561  -2.801  1.00  0.00     0.179 C 
ATOM      7  C   UNL     1      50.541  20.027  -2.672  1.00  0.00     0.202 C 
BRANCH   3   8
ATOM      8  C   UNL     1      52.472  21.550  -6.169  1.00  0.00     0.191 C 
BRANCH   8   9
ATOM      9  O   UNL     1      53.789  21.068  -6.134  1.00  0.00    -0.394 OA
ATOM     10  H   UNL     1      53.756  20.157  -5.743  1.00  0.00     0.210 HD
ENDBRANCH   8   9
ENDBRANCH   3   8
BRANCH   4  11
ATOM     11  O   UNL     1      49.524  22.063  -4.908  1.00  0.00    -0.387 OA
ATOM     12  H   UNL     1      49.285  21.152  -5.228  1.00  0.00     0.211 HD
ENDBRANCH   4  11
BRANCH   6  13
ATOM     13  O   UNL     1      49.501  22.157  -2.225  1.00  0.00    -0.387 OA
ATOM     14  H   UNL     1      49.363  23.019  -2.700  1.00  0.00     0.211 HD
ENDBRANCH   6  13
BRANCH   7  15
ATOM     15  O   UNL     1      50.362  19.635  -1.333  1.00  0.00    -0.385 OA
ATOM     16  H   UNL     1      50.629  20.397  -0.752  1.00  0.00     0.211 HD
ENDBRANCH   7  15
ENDBRANCH   1   2
BRANCH   1  17
ATOM     17  C   UNL     1      53.338  17.604  -2.608  1.00  0.00     0.224 C 
ATOM     18  C   UNL     1      54.797  17.843  -3.053  1.00  0.00     0.208 C 
ATOM     19  O   UNL     1      52.695  17.009  -3.717  1.00  0.00    -0.337 OA
ATOM     20  C   UNL     1      55.067  16.663  -3.956  1.00  0.00     0.180 C 
ATOM     21  C   UNL     1      53.667  16.317  -4.483  1.00  0.00     0.179 C 
BRANCH  17  22
ATOM     22  C   UNL     1      53.231  16.584  -1.435  1.00  0.00     0.225 C 
BRANCH  22  23
ATOM     23  O   UNL     1      54.365  16.677  -0.614  1.00  0.00    -0.391 OA
ATOM     24  H   UNL     1      55.117  16.278  -1.128  1.00  0.00     0.210 HD
ENDBRANCH  22  23
ENDBRANCH  17  22
BRANCH  18  25
ATOM     25  O   UNL     1      54.886  19.018  -3.818  1.00  0.00    -0.385 OA
ATOM     26  H   UNL     1      55.514  18.828  -4.563  1.00  0.00     0.211 HD
ENDBRANCH  18  25
BRANCH  20  27
ATOM     27  O   UNL     1      55.586  15.585  -3.219  1.00  0.00    -0.387 OA
ATOM     28  H   UNL     1      56.032  15.974  -2.422  1.00  0.00     0.211 HD
ENDBRANCH  20  27
BRANCH  21  29
ATOM     29  C   UNL     1      53.509  16.699  -5.962  1.00  0.00     0.191 C 
BRANCH  29  30
ATOM     30  O   UNL     1      53.420  18.090  -6.104  1.00  0.00    -0.394 OA
ATOM     31  H   UNL     1      53.753  18.304  -7.016  1.00  0.00     0.210 HD
ENDBRANCH  29  30
ENDBRANCH  21  29
ENDBRANCH   1  17
TORSDOF 13
ENDMDL
MODEL 9
REMARK VINA RESULT:    -3.752      1.576      6.086
REMARK INTER + INTRA:          -7.642
REMARK INTER:                  -5.903
REMARK INTRA:                  -1.739
REMARK UNBOUND:                -1.916
REMARK SMILES OC[C@@H]1O[C@](CO)(O[C@@H]2O[C@H](CO)[C@@H](O)[C@@H](O)[C@@H]2O)[C@H](O)[C@H]1O
REMARK SMILES IDX 8 1 9 2 11 3 14 4 10 5 16 6 18 7 12 8 13 9 15 11 17 13 19 15
REMARK SMILES IDX 5 17 20 18 4 19 22 20 3 21 6 22 7 23 21 25 23 27 2 29 1 30
REMARK H PARENT 13 10 15 12 17 14 19 16 7 24 21 26 23 28 1 31
REMARK Flexibility Score: inf
ROOT
ATOM      1  O   UNL     1      50.992  18.661  -4.524  1.00  0.00    -0.313 OA
ENDROOT
BRANCH   1   2
ATOM      2  C   UNL     1      52.192  19.272  -4.050  1.00  0.00     0.285 C 
ATOM      3  C   UNL     1      54.532  19.239  -4.143  1.00  0.00     0.178 C 
ATOM      4  C   UNL     1      54.770  18.513  -2.791  1.00  0.00     0.177 C 
ATOM      5  O   UNL     1      53.334  18.774  -4.739  1.00  0.00    -0.341 OA
ATOM      6  C   UNL     1      53.426  18.034  -2.184  1.00  0.00     0.179 C 
ATOM      7  C   UNL     1      52.309  19.047  -2.507  1.00  0.00     0.202 C 
BRANCH   3   8
ATOM      8  C   UNL     1      55.687  19.009  -5.127  1.00  0.00     0.191 C 
BRANCH   8   9
ATOM      9  O   UNL     1      56.833  19.705  -4.718  1.00  0.00    -0.394 OA
ATOM     10  H   UNL     1      56.806  20.594  -5.157  1.00  0.00     0.210 HD
ENDBRANCH   8   9
ENDBRANCH   3   8
BRANCH   4  11
ATOM     11  O   UNL     1      55.424  19.398  -1.914  1.00  0.00    -0.387 OA
ATOM     12  H   UNL     1      54.718  19.843  -1.373  1.00  0.00     0.211 HD
ENDBRANCH   4  11
BRANCH   6  13
ATOM     13  O   UNL     1      53.527  17.864  -0.794  1.00  0.00    -0.387 OA
ATOM     14  H   UNL     1      52.975  18.580  -0.381  1.00  0.00     0.211 HD
ENDBRANCH   6  13
BRANCH   7  15
ATOM     15  O   UNL     1      51.084  18.661  -1.932  1.00  0.00    -0.385 OA
ATOM     16  H   UNL     1      50.388  18.696  -2.642  1.00  0.00     0.211 HD
ENDBRANCH   7  15
ENDBRANCH   1   2
BRANCH   1  17
ATOM     17  C   UNL     1      50.146  19.454  -5.364  1.00  0.00     0.224 C 
ATOM     18  C   UNL     1      50.148  19.019  -6.845  1.00  0.00     0.208 C 
ATOM     19  O   UNL     1      50.668  20.767  -5.353  1.00  0.00    -0.337 OA
ATOM     20  C   UNL     1      49.848  20.310  -7.571  1.00  0.00     0.180 C 
ATOM     21  C   UNL     1      50.393  21.372  -6.606  1.00  0.00     0.179 C 
BRANCH  17  22
ATOM     22  C   UNL     1      48.709  19.544  -4.769  1.00  0.00     0.225 C 
BRANCH  22  23
ATOM     23  O   UNL     1      48.771  19.935  -3.424  1.00  0.00    -0.391 OA
ATOM     24  H   UNL     1      47.855  20.231  -3.174  1.00  0.00     0.210 HD
ENDBRANCH  22  23
ENDBRANCH  17  22
BRANCH  18  25
ATOM     25  O   UNL     1      51.429  18.583  -7.224  1.00  0.00    -0.385 OA
ATOM     26  H   UNL     1      51.391  18.394  -8.198  1.00  0.00     0.211 HD
ENDBRANCH  18  25
BRANCH  20  27
ATOM     27  O   UNL     1      48.462  20.474  -7.736  1.00  0.00    -0.387 OA
ATOM     28  H   UNL     1      48.206  19.945  -8.537  1.00  0.00     0.211 HD
ENDBRANCH  20  27
BRANCH  21  29
ATOM     29  C   UNL     1      51.677  22.020  -7.145  1.00  0.00     0.191 C 
BRANCH  29  30
ATOM     30  O   UNL     1      52.808  21.413  -6.583  1.00  0.00    -0.394 OA
ATOM     31  H   UNL     1      52.877  21.750  -5.650  1.00  0.00     0.210 HD
ENDBRANCH  29  30
ENDBRANCH  21  29
ENDBRANCH   1  17
TORSDOF 13
ENDMDL
