MODEL 1
REMARK VINA RESULT:    -3.741      0.000      0.000
REMARK INTER + INTRA:          -5.689
REMARK INTER:                  -5.054
REMARK INTRA:                  -0.635
REMARK UNBOUND:                -0.635
REMARK SMILES O=C[C@@H](O)[C@@H](O)[C@@H](O)CO
REMARK SMILES IDX 7 1 9 2 10 3 5 5 3 6 2 7 1 8 4 9 6 11 8 13
REMARK H PARENT 10 4 4 10 6 12 8 14
REMARK Flexibility Score: inf
ROOT
ATOM      1  C   UNL     1      35.522  -5.341  23.235  1.00  0.00     0.171 C 
ENDROOT
BRANCH   1   2
ATOM      2  C   UNL     1      36.040  -6.556  24.024  1.00  0.00     0.190 C 
BRANCH   2   3
ATOM      3  O   UNL     1      35.023  -7.506  24.195  1.00  0.00    -0.394 OA
ATOM      4  H   UNL     1      34.348  -7.082  24.787  1.00  0.00     0.210 HD
ENDBRANCH   2   3
ENDBRANCH   1   2
BRANCH   1   5
ATOM      5  C   UNL     1      35.526  -5.585  21.702  1.00  0.00     0.181 C 
BRANCH   5   6
ATOM      6  C   UNL     1      34.131  -6.006  21.171  1.00  0.00     0.209 C 
BRANCH   6   7
ATOM      7  C   UNL     1      34.064  -5.984  19.668  1.00  0.00     0.258 C 
ATOM      8  O   UNL     1      35.084  -5.991  18.995  1.00  0.00    -0.300 OA
ENDBRANCH   6   7
BRANCH   6   9
ATOM      9  O   UNL     1      33.809  -7.297  21.619  1.00  0.00    -0.383 OA
ATOM     10  H   UNL     1      33.316  -7.189  22.474  1.00  0.00     0.211 HD
ENDBRANCH   6   9
ENDBRANCH   5   6
BRANCH   5  11
ATOM     11  O   UNL     1      35.965  -4.422  21.044  1.00  0.00    -0.387 OA
ATOM     12  H   UNL     1      35.230  -3.757  21.107  1.00  0.00     0.211 HD
ENDBRANCH   5  11
ENDBRANCH   1   5
BRANCH   1  13
ATOM     13  O   UNL     1      34.243  -4.973  23.693  1.00  0.00    -0.388 OA
ATOM     14  H   UNL     1      33.851  -5.758  24.157  1.00  0.00     0.211 HD
ENDBRANCH   1  13
TORSDOF 8
ENDMDL
MODEL 2
REMARK VINA RESULT:    -3.674     11.380     12.367
REMARK INTER + INTRA:          -5.597
REMARK INTER:                  -4.912
REMARK INTRA:                  -0.685
REMARK UNBOUND:                -0.635
REMARK SMILES O=C[C@@H](O)[C@@H](O)[C@@H](O)CO
REMARK SMILES IDX 7 1 9 2 10 3 5 5 3 6 2 7 1 8 4 9 6 11 8 13
REMARK H PARENT 10 4 4 10 6 12 8 14
REMARK Flexibility Score: inf
ROOT
ATOM      1  C   UNL     1      25.358 -11.856  25.630  1.00  0.00     0.171 C 
ENDROOT
BRANCH   1   2
ATOM      2  C   UNL     1      26.832 -11.550  25.951  1.00  0.00     0.190 C 
BRANCH   2   3
ATOM      3  O   UNL     1      27.438 -10.866  24.887  1.00  0.00    -0.394 OA
ATOM      4  H   UNL     1      26.719 -10.334  24.457  1.00  0.00     0.210 HD
ENDBRANCH   2   3
ENDBRANCH   1   2
BRANCH   1   5
ATOM      5  C   UNL     1      24.504 -10.568  25.489  1.00  0.00     0.181 C 
BRANCH   5   6
ATOM      6  C   UNL     1      23.069 -10.751  26.048  1.00  0.00     0.209 C 
BRANCH   6   7
ATOM      7  C   UNL     1      22.190  -9.564  25.760  1.00  0.00     0.258 C 
ATOM      8  O   UNL     1      22.490  -8.760  24.891  1.00  0.00    -0.300 OA
ENDBRANCH   6   7
BRANCH   6   9
ATOM      9  O   UNL     1      22.475 -11.897  25.497  1.00  0.00    -0.383 OA
ATOM     10  H   UNL     1      22.740 -11.926  24.540  1.00  0.00     0.211 HD
ENDBRANCH   6   9
ENDBRANCH   5   6
BRANCH   5  11
ATOM     11  O   UNL     1      25.148  -9.505  26.147  1.00  0.00    -0.387 OA
ATOM     12  H   UNL     1      25.967  -9.293  25.625  1.00  0.00     0.211 HD
ENDBRANCH   5  11
ENDBRANCH   1   5
BRANCH   1  13
ATOM     13  O   UNL     1      25.268 -12.660  24.479  1.00  0.00    -0.388 OA
ATOM     14  H   UNL     1      24.406 -13.152  24.521  1.00  0.00     0.211 HD
ENDBRANCH   1  13
TORSDOF 8
ENDMDL
MODEL 3
REMARK VINA RESULT:    -3.638     16.375     18.316
REMARK INTER + INTRA:          -5.549
REMARK INTER:                  -4.943
REMARK INTRA:                  -0.606
REMARK UNBOUND:                -0.635
REMARK SMILES O=C[C@@H](O)[C@@H](O)[C@@H](O)CO
REMARK SMILES IDX 7 1 9 2 10 3 5 5 3 6 2 7 1 8 4 9 6 11 8 13
REMARK H PARENT 10 4 4 10 6 12 8 14
REMARK Flexibility Score: inf
ROOT
ATOM      1  C   UNL     1      23.626  -2.879   9.929  1.00  0.00     0.171 C 
ENDROOT
BRANCH   1   2
ATOM      2  C   UNL     1      23.271  -2.226  11.277  1.00  0.00     0.190 C 
BRANCH   2   3
ATOM      3  O   UNL     1      23.549  -0.852  11.249  1.00  0.00    -0.394 OA
ATOM      4  H   UNL     1      23.641  -0.571  12.197  1.00  0.00     0.210 HD
ENDBRANCH   2   3
ENDBRANCH   1   2
BRANCH   1   5
ATOM      5  C   UNL     1      22.621  -2.506   8.808  1.00  0.00     0.181 C 
BRANCH   5   6
ATOM      6  C   UNL     1      22.335  -3.696   7.855  1.00  0.00     0.209 C 
BRANCH   6   7
ATOM      7  C   UNL     1      21.137  -3.449   6.978  1.00  0.00     0.258 C 
ATOM      8  O   UNL     1      20.010  -3.707   7.371  1.00  0.00    -0.300 OA
ENDBRANCH   6   7
BRANCH   6   9
ATOM      9  O   UNL     1      23.449  -3.945   7.039  1.00  0.00    -0.383 OA
ATOM     10  H   UNL     1      24.210  -3.439   7.430  1.00  0.00     0.211 HD
ENDBRANCH   6   9
ENDBRANCH   5   6
BRANCH   5  11
ATOM     11  O   UNL     1      21.423  -2.049   9.386  1.00  0.00    -0.387 OA
ATOM     12  H   UNL     1      21.630  -1.194   9.847  1.00  0.00     0.211 HD
ENDBRANCH   5  11
ENDBRANCH   1   5
BRANCH   1  13
ATOM     13  O   UNL     1      24.946  -2.555   9.565  1.00  0.00    -0.388 OA
ATOM     14  H   UNL     1      25.387  -2.147  10.356  1.00  0.00     0.211 HD
ENDBRANCH   1  13
TORSDOF 8
ENDMDL
MODEL 4
REMARK VINA RESULT:    -3.589     14.835     16.651
REMARK INTER + INTRA:          -5.483
REMARK INTER:                  -4.867
REMARK INTRA:                  -0.616
REMARK UNBOUND:                -0.635
REMARK SMILES O=C[C@@H](O)[C@@H](O)[C@@H](O)CO
REMARK SMILES IDX 7 1 9 2 10 3 5 5 3 6 2 7 1 8 4 9 6 11 8 13
REMARK H PARENT 10 4 4 10 6 12 8 14
REMARK Flexibility Score: inf
ROOT
ATOM      1  C   UNL     1      23.196  -1.948  10.862  1.00  0.00     0.171 C 
ENDROOT
BRANCH   1   2
ATOM      2  C   UNL     1      22.264  -1.594   9.689  1.00  0.00     0.190 C 
BRANCH   2   3
ATOM      3  O   UNL     1      21.480  -2.700   9.329  1.00  0.00    -0.394 OA
ATOM      4  H   UNL     1      22.062  -3.496   9.436  1.00  0.00     0.210 HD
ENDBRANCH   2   3
ENDBRANCH   1   2
BRANCH   1   5
ATOM      5  C   UNL     1      24.306  -2.953  10.454  1.00  0.00     0.181 C 
BRANCH   5   6
ATOM      6  C   UNL     1      24.034  -4.380  10.997  1.00  0.00     0.209 C 
BRANCH   6   7
ATOM      7  C   UNL     1      23.318  -4.358  12.321  1.00  0.00     0.258 C 
ATOM      8  O   UNL     1      23.750  -4.985  13.276  1.00  0.00    -0.300 OA
ENDBRANCH   6   7
BRANCH   6   9
ATOM      9  O   UNL     1      23.266  -5.113  10.079  1.00  0.00    -0.383 OA
ATOM     10  H   UNL     1      23.398  -4.687   9.192  1.00  0.00     0.211 HD
ENDBRANCH   6   9
ENDBRANCH   5   6
BRANCH   5  11
ATOM     11  O   UNL     1      24.418  -2.982   9.052  1.00  0.00    -0.387 OA
ATOM     12  H   UNL     1      24.652  -2.062   8.760  1.00  0.00     0.211 HD
ENDBRANCH   5  11
ENDBRANCH   1   5
BRANCH   1  13
ATOM     13  O   UNL     1      23.744  -0.777  11.417  1.00  0.00    -0.388 OA
ATOM     14  H   UNL     1      24.412  -0.421  10.775  1.00  0.00     0.211 HD
ENDBRANCH   1  13
TORSDOF 8
ENDMDL
MODEL 5
REMARK VINA RESULT:    -3.548     14.149     16.233
REMARK INTER + INTRA:          -5.428
REMARK INTER:                  -4.730
REMARK INTRA:                  -0.698
REMARK UNBOUND:                -0.635
REMARK SMILES O=C[C@@H](O)[C@@H](O)[C@@H](O)CO
REMARK SMILES IDX 7 1 9 2 10 3 5 5 3 6 2 7 1 8 4 9 6 11 8 13
REMARK H PARENT 10 4 4 10 6 12 8 14
REMARK Flexibility Score: inf
ROOT
ATOM      1  C   UNL     1      23.804  -2.614   9.641  1.00  0.00     0.171 C 
ENDROOT
BRANCH   1   2
ATOM      2  C   UNL     1      22.819  -1.661  10.342  1.00  0.00     0.190 C 
BRANCH   2   3
ATOM      3  O   UNL     1      23.497  -0.815  11.231  1.00  0.00    -0.394 OA
ATOM      4  H   UNL     1      23.688  -1.360  12.038  1.00  0.00     0.210 HD
ENDBRANCH   2   3
ENDBRANCH   1   2
BRANCH   1   5
ATOM      5  C   UNL     1      23.991  -3.946  10.415  1.00  0.00     0.181 C 
BRANCH   5   6
ATOM      6  C   UNL     1      25.430  -4.508  10.277  1.00  0.00     0.209 C 
BRANCH   6   7
ATOM      7  C   UNL     1      25.582  -5.850  10.941  1.00  0.00     0.258 C 
ATOM      8  O   UNL     1      25.590  -5.949  12.158  1.00  0.00    -0.300 OA
ENDBRANCH   6   7
BRANCH   6   9
ATOM      9  O   UNL     1      25.775  -4.633   8.922  1.00  0.00    -0.383 OA
ATOM     10  H   UNL     1      26.726  -4.919   8.894  1.00  0.00     0.211 HD
ENDBRANCH   6   9
ENDBRANCH   5   6
BRANCH   5  11
ATOM     11  O   UNL     1      23.676  -3.747  11.771  1.00  0.00    -0.387 OA
ATOM     12  H   UNL     1      23.057  -2.971  11.816  1.00  0.00     0.211 HD
ENDBRANCH   5  11
ENDBRANCH   1   5
BRANCH   1  13
ATOM     13  O   UNL     1      23.396  -2.844   8.314  1.00  0.00    -0.388 OA
ATOM     14  H   UNL     1      24.114  -2.510   7.715  1.00  0.00     0.211 HD
ENDBRANCH   1  13
TORSDOF 8
ENDMDL
MODEL 6
REMARK VINA RESULT:    -3.534     16.186     18.252
REMARK INTER + INTRA:          -5.408
REMARK INTER:                  -4.585
REMARK INTRA:                  -0.823
REMARK UNBOUND:                -0.635
REMARK SMILES O=C[C@@H](O)[C@@H](O)[C@@H](O)CO
REMARK SMILES IDX 7 1 9 2 10 3 5 5 3 6 2 7 1 8 4 9 6 11 8 13
REMARK H PARENT 10 4 4 10 6 12 8 14
REMARK Flexibility Score: inf
ROOT
ATOM      1  C   UNL     1      21.214  -3.871   9.053  1.00  0.00     0.171 C 
ENDROOT
BRANCH   1   2
ATOM      2  C   UNL     1      21.832  -5.009   8.221  1.00  0.00     0.190 C 
BRANCH   2   3
ATOM      3  O   UNL     1      23.054  -5.419   8.774  1.00  0.00    -0.394 OA
ATOM      4  H   UNL     1      23.123  -6.393   8.596  1.00  0.00     0.210 HD
ENDBRANCH   2   3
ENDBRANCH   1   2
BRANCH   1   5
ATOM      5  C   UNL     1      22.019  -2.549   8.938  1.00  0.00     0.181 C 
BRANCH   5   6
ATOM      6  C   UNL     1      22.643  -2.121  10.291  1.00  0.00     0.209 C 
BRANCH   6   7
ATOM      7  C   UNL     1      24.144  -2.232  10.286  1.00  0.00     0.258 C 
ATOM      8  O   UNL     1      24.691  -3.322  10.234  1.00  0.00    -0.300 OA
ENDBRANCH   6   7
BRANCH   6   9
ATOM      9  O   UNL     1      22.288  -0.797  10.594  1.00  0.00    -0.383 OA
ATOM     10  H   UNL     1      21.323  -0.703  10.378  1.00  0.00     0.211 HD
ENDBRANCH   6   9
ENDBRANCH   5   6
BRANCH   5  11
ATOM     11  O   UNL     1      23.024  -2.697   7.965  1.00  0.00    -0.387 OA
ATOM     12  H   UNL     1      23.159  -3.672   7.832  1.00  0.00     0.211 HD
ENDBRANCH   5  11
ENDBRANCH   1   5
BRANCH   1  13
ATOM     13  O   UNL     1      19.866  -3.684   8.696  1.00  0.00    -0.388 OA
ATOM     14  H   UNL     1      19.315  -3.822   9.510  1.00  0.00     0.211 HD
ENDBRANCH   1  13
TORSDOF 8
ENDMDL
MODEL 7
REMARK VINA RESULT:    -3.526     15.482     17.366
REMARK INTER + INTRA:          -5.397
REMARK INTER:                  -4.620
REMARK INTRA:                  -0.777
REMARK UNBOUND:                -0.635
REMARK SMILES O=C[C@@H](O)[C@@H](O)[C@@H](O)CO
REMARK SMILES IDX 7 1 9 2 10 3 5 5 3 6 2 7 1 8 4 9 6 11 8 13
REMARK H PARENT 10 4 4 10 6 12 8 14
REMARK Flexibility Score: inf
ROOT
ATOM      1  C   UNL     1      22.192  -2.394   9.272  1.00  0.00     0.171 C 
ENDROOT
BRANCH   1   2
ATOM      2  C   UNL     1      22.606  -2.399   7.790  1.00  0.00     0.190 C 
BRANCH   2   3
ATOM      3  O   UNL     1      23.243  -3.603   7.458  1.00  0.00    -0.394 OA
ATOM      4  H   UNL     1      23.530  -4.008   8.317  1.00  0.00     0.210 HD
ENDBRANCH   2   3
ENDBRANCH   1   2
BRANCH   1   5
ATOM      5  C   UNL     1      23.399  -2.602  10.224  1.00  0.00     0.181 C 
BRANCH   5   6
ATOM      6  C   UNL     1      23.372  -3.992  10.912  1.00  0.00     0.209 C 
BRANCH   6   7
ATOM      7  C   UNL     1      24.557  -4.838  10.534  1.00  0.00     0.258 C 
ATOM      8  O   UNL     1      24.673  -5.283   9.403  1.00  0.00    -0.300 OA
ENDBRANCH   6   7
BRANCH   6   9
ATOM      9  O   UNL     1      23.349  -3.843  12.308  1.00  0.00    -0.383 OA
ATOM     10  H   UNL     1      24.268  -3.584  12.583  1.00  0.00     0.211 HD
ENDBRANCH   6   9
ENDBRANCH   5   6
BRANCH   5  11
ATOM     11  O   UNL     1      24.596  -2.441   9.504  1.00  0.00    -0.387 OA
ATOM     12  H   UNL     1      24.347  -2.300   8.553  1.00  0.00     0.211 HD
ENDBRANCH   5  11
ENDBRANCH   1   5
BRANCH   1  13
ATOM     13  O   UNL     1      21.495  -1.210   9.578  1.00  0.00    -0.388 OA
ATOM     14  H   UNL     1      21.289  -0.751   8.722  1.00  0.00     0.211 HD
ENDBRANCH   1  13
TORSDOF 8
ENDMDL
MODEL 8
REMARK VINA RESULT:    -3.518      1.776      3.723
REMARK INTER + INTRA:          -5.386
REMARK INTER:                  -5.095
REMARK INTRA:                  -0.291
REMARK UNBOUND:                -0.635
REMARK SMILES O=C[C@@H](O)[C@@H](O)[C@@H](O)CO
REMARK SMILES IDX 7 1 9 2 10 3 5 5 3 6 2 7 1 8 4 9 6 11 8 13
REMARK H PARENT 10 4 4 10 6 12 8 14
REMARK Flexibility Score: inf
ROOT
ATOM      1  C   UNL     1      33.185  -6.929  20.413  1.00  0.00     0.171 C 
ENDROOT
BRANCH   1   2
ATOM      2  C   UNL     1      31.756  -6.361  20.366  1.00  0.00     0.190 C 
BRANCH   2   3
ATOM      3  O   UNL     1      30.826  -7.378  20.104  1.00  0.00    -0.394 OA
ATOM      4  H   UNL     1      30.623  -7.321  19.135  1.00  0.00     0.210 HD
ENDBRANCH   2   3
ENDBRANCH   1   2
BRANCH   1   5
ATOM      5  C   UNL     1      34.261  -5.848  20.129  1.00  0.00     0.181 C 
BRANCH   5   6
ATOM      6  C   UNL     1      35.693  -6.343  20.462  1.00  0.00     0.209 C 
BRANCH   6   7
ATOM      7  C   UNL     1      36.125  -5.947  21.848  1.00  0.00     0.258 C 
ATOM      8  O   UNL     1      35.311  -5.550  22.667  1.00  0.00    -0.300 OA
ENDBRANCH   6   7
BRANCH   6   9
ATOM      9  O   UNL     1      35.764  -7.740  20.348  1.00  0.00    -0.383 OA
ATOM     10  H   UNL     1      36.728  -7.977  20.325  1.00  0.00     0.211 HD
ENDBRANCH   6   9
ENDBRANCH   5   6
BRANCH   5  11
ATOM     11  O   UNL     1      34.185  -5.455  18.781  1.00  0.00    -0.387 OA
ATOM     12  H   UNL     1      33.238  -5.558  18.501  1.00  0.00     0.211 HD
ENDBRANCH   5  11
ENDBRANCH   1   5
BRANCH   1  13
ATOM     13  O   UNL     1      33.413  -7.570  21.645  1.00  0.00    -0.388 OA
ATOM     14  H   UNL     1      32.881  -8.408  21.653  1.00  0.00     0.211 HD
ENDBRANCH   1  13
TORSDOF 8
ENDMDL
MODEL 9
REMARK VINA RESULT:    -3.514     16.004     17.454
REMARK INTER + INTRA:          -5.381
REMARK INTER:                  -4.639
REMARK INTRA:                  -0.742
REMARK UNBOUND:                -0.635
REMARK SMILES O=C[C@@H](O)[C@@H](O)[C@@H](O)CO
REMARK SMILES IDX 7 1 9 2 10 3 5 5 3 6 2 7 1 8 4 9 6 11 8 13
REMARK H PARENT 10 4 4 10 6 12 8 14
REMARK Flexibility Score: inf
ROOT
ATOM      1  C   UNL     1      22.992  -3.172  10.997  1.00  0.00     0.171 C 
ENDROOT
BRANCH   1   2
ATOM      2  C   UNL     1      23.185  -1.649  11.097  1.00  0.00     0.190 C 
BRANCH   2   3
ATOM      3  O   UNL     1      22.187  -0.975  10.378  1.00  0.00    -0.394 OA
ATOM      4  H   UNL     1      22.025  -0.125  10.864  1.00  0.00     0.210 HD
ENDBRANCH   2   3
ENDBRANCH   1   2
BRANCH   1   5
ATOM      5  C   UNL     1      23.733  -3.783   9.778  1.00  0.00     0.181 C 
BRANCH   5   6
ATOM      6  C   UNL     1      22.753  -4.277   8.681  1.00  0.00     0.209 C 
BRANCH   6   7
ATOM      7  C   UNL     1      22.737  -3.369   7.481  1.00  0.00     0.258 C 
ATOM      8  O   UNL     1      22.393  -2.202   7.584  1.00  0.00    -0.300 OA
ENDBRANCH   6   7
BRANCH   6   9
ATOM      9  O   UNL     1      23.101  -5.571   8.265  1.00  0.00    -0.383 OA
ATOM     10  H   UNL     1      22.365  -6.173   8.555  1.00  0.00     0.211 HD
ENDBRANCH   6   9
ENDBRANCH   5   6
BRANCH   5  11
ATOM     11  O   UNL     1      24.619  -2.831   9.243  1.00  0.00    -0.387 OA
ATOM     12  H   UNL     1      24.529  -2.009   9.793  1.00  0.00     0.211 HD
ENDBRANCH   5  11
ENDBRANCH   1   5
BRANCH   1  13
ATOM     13  O   UNL     1      23.382  -3.792  12.198  1.00  0.00    -0.388 OA
ATOM     14  H   UNL     1      24.021  -4.518  11.971  1.00  0.00     0.211 HD
ENDBRANCH   1  13
TORSDOF 8
ENDMDL
