MODEL 1
REMARK VINA RESULT:    -4.538      0.000      0.000
REMARK INTER + INTRA:          -6.882
REMARK INTER:                  -6.925
REMARK INTRA:                   0.043
REMARK UNBOUND:                 0.043
REMARK SMILES CC1=CCC[C@H](C)C(=O)C[C@H](C(C)C)C(=O)C1
REMARK SMILES IDX 8 1 9 2 6 3 7 4 5 5 4 6 3 7 2 8 1 9 10 11 11 12 15 13 16 14
REMARK SMILES IDX 17 15 12 17 13 18 14 19
REMARK H PARENT
REMARK Flexibility Score: 70.00
ROOT
ATOM      1  C   UNL     1     -25.870  20.249 -34.162  1.00  0.00     0.136 C 
ATOM      2  O   UNL     1     -26.084  20.242 -35.366  1.00  0.00    -0.299 OA
ENDROOT
BRANCH   1   3
ATOM      3  C   UNL     1     -27.030  20.254 -33.188  1.00  0.00     0.053 C 
ATOM      4  C   UNL     1     -28.090  21.250 -33.669  1.00  0.00     0.016 C 
BRANCH   3   5
ATOM      5  C   UNL     1     -27.658  18.853 -33.002  1.00  0.00     0.015 C 
BRANCH   5   6
ATOM      6  C   UNL     1     -27.734  18.398 -31.531  1.00  0.00     0.028 C 
BRANCH   6   7
ATOM      7  C   UNL     1     -26.850  17.197 -31.271  1.00  0.00    -0.028 C 
ATOM      8  C   UNL     1     -25.614  17.214 -30.718  1.00  0.00    -0.070 CG0
ATOM      9  C   UNL     1     -24.915  15.892 -30.515  1.00  0.00     0.039 C 
ATOM     10  G   UNL     1     -24.867  18.482 -30.361  1.00  0.00     0.000 G0
ENDBRANCH   6   7
ENDBRANCH   5   6
ENDBRANCH   3   5
ENDBRANCH   1   3
BRANCH   1  11
ATOM     11  C   UNL     1     -24.445  20.282 -33.661  1.00  0.00     0.087 C 
BRANCH  11  12
ATOM     12  C   UNL     1     -24.373  20.357 -32.120  1.00  0.00     0.066 C 
BRANCH  12  13
ATOM     13  C   UNL     1     -24.083  18.989 -31.528  1.00  0.00     0.140 C 
ATOM     14  O   UNL     1     -23.230  18.275 -32.034  1.00  0.00    -0.299 OA
BRANCH  13  15
ATOM     15  C   UNL     1     -24.862  18.470 -30.350  1.00  0.00     0.106 CG0
ATOM     16  G   UNL     1     -25.605  17.206 -30.736  1.00  0.00     0.000 G0
ENDBRANCH  13  15
ENDBRANCH  12  13
BRANCH  12  17
ATOM     17  C   UNL     1     -23.385  21.454 -31.624  1.00  0.00    -0.006 C 
ATOM     18  C   UNL     1     -22.916  21.276 -30.169  1.00  0.00     0.008 C 
ATOM     19  C   UNL     1     -23.976  22.860 -31.817  1.00  0.00     0.008 C 
ENDBRANCH  12  17
ENDBRANCH  11  12
ENDBRANCH   1  11
TORSDOF 1
ENDMDL
MODEL 2
REMARK VINA RESULT:    -4.112     10.689     12.650
REMARK INTER + INTRA:          -6.233
REMARK INTER:                  -5.793
REMARK INTRA:                  -0.440
REMARK UNBOUND:                 0.043
REMARK SMILES CC1=CCC[C@H](C)C(=O)C[C@H](C(C)C)C(=O)C1
REMARK SMILES IDX 8 1 9 2 6 3 7 4 5 5 4 6 3 7 2 8 1 9 10 11 11 12 15 13 16 14
REMARK SMILES IDX 17 15 12 17 13 18 14 19
REMARK H PARENT
REMARK Flexibility Score: 70.00
ROOT
ATOM      1  C   UNL     1     -13.435  14.887 -28.881  1.00  0.00     0.136 C 
ATOM      2  O   UNL     1     -13.133  15.599 -27.934  1.00  0.00    -0.299 OA
ENDROOT
BRANCH   1   3
ATOM      3  C   UNL     1     -13.405  13.380 -28.733  1.00  0.00     0.053 C 
ATOM      4  C   UNL     1     -12.032  12.951 -28.204  1.00  0.00     0.016 C 
BRANCH   3   5
ATOM      5  C   UNL     1     -14.524  12.849 -27.809  1.00  0.00     0.015 C 
BRANCH   5   6
ATOM      6  C   UNL     1     -15.907  13.470 -28.089  1.00  0.00     0.028 C 
BRANCH   6   7
ATOM      7  C   UNL     1     -16.660  12.700 -29.152  1.00  0.00    -0.028 C 
ATOM      8  C   UNL     1     -16.835  13.073 -30.442  1.00  0.00    -0.070 CG0
ATOM      9  C   UNL     1     -17.593  12.136 -31.349  1.00  0.00     0.039 C 
ATOM     10  G   UNL     1     -16.378  14.403 -31.005  1.00  0.00     0.000 G0
ENDBRANCH   6   7
ENDBRANCH   5   6
ENDBRANCH   3   5
ENDBRANCH   1   3
BRANCH   1  11
ATOM     11  C   UNL     1     -13.809  15.523 -30.199  1.00  0.00     0.087 C 
BRANCH  11  12
ATOM     12  C   UNL     1     -13.782  14.508 -31.362  1.00  0.00     0.066 C 
BRANCH  12  13
ATOM     13  C   UNL     1     -15.182  14.263 -31.895  1.00  0.00     0.140 C 
ATOM     14  O   UNL     1     -15.344  13.972 -33.071  1.00  0.00    -0.299 OA
BRANCH  13  15
ATOM     15  C   UNL     1     -16.390  14.417 -31.011  1.00  0.00     0.106 CG0
ATOM     16  G   UNL     1     -16.816  13.066 -30.473  1.00  0.00     0.000 G0
ENDBRANCH  13  15
ENDBRANCH  12  13
BRANCH  12  17
ATOM     17  C   UNL     1     -12.770  14.908 -32.477  1.00  0.00    -0.006 C 
ATOM     18  C   UNL     1     -11.527  14.005 -32.560  1.00  0.00     0.008 C 
ATOM     19  C   UNL     1     -12.344  16.377 -32.338  1.00  0.00     0.008 C 
ENDBRANCH  12  17
ENDBRANCH  11  12
ENDBRANCH   1  11
TORSDOF 1
ENDMDL
MODEL 3
REMARK VINA RESULT:    -3.923      1.573      3.681
REMARK INTER + INTRA:          -5.944
REMARK INTER:                  -6.550
REMARK INTRA:                   0.607
REMARK UNBOUND:                 0.043
REMARK SMILES CC1=CCC[C@H](C)C(=O)C[C@H](C(C)C)C(=O)C1
REMARK SMILES IDX 8 1 9 2 6 3 7 4 5 5 4 6 3 7 2 8 1 9 10 11 11 12 15 13 16 14
REMARK SMILES IDX 17 15 12 17 13 18 14 19
REMARK H PARENT
REMARK Flexibility Score: 70.00
ROOT
ATOM      1  C   UNL     1     -24.330  20.370 -33.021  1.00  0.00     0.136 C 
ATOM      2  O   UNL     1     -24.032  20.069 -34.168  1.00  0.00    -0.299 OA
ENDROOT
BRANCH   1   3
ATOM      3  C   UNL     1     -23.255  20.443 -31.956  1.00  0.00     0.053 C 
ATOM      4  C   UNL     1     -23.515  21.657 -31.057  1.00  0.00     0.016 C 
BRANCH   3   5
ATOM      5  C   UNL     1     -23.170  19.156 -31.104  1.00  0.00     0.015 C 
BRANCH   5   6
ATOM      6  C   UNL     1     -23.313  17.858 -31.925  1.00  0.00     0.028 C 
BRANCH   6   7
ATOM      7  C   UNL     1     -24.209  16.855 -31.232  1.00  0.00    -0.028 C 
ATOM      8  C   UNL     1     -25.466  17.077 -30.780  1.00  0.00    -0.070 CG0
ATOM      9  C   UNL     1     -26.202  15.923 -30.147  1.00  0.00     0.039 C 
ATOM     10  G   UNL     1     -26.146  18.431 -30.809  1.00  0.00     0.000 G0
ENDBRANCH   6   7
ENDBRANCH   5   6
ENDBRANCH   3   5
ENDBRANCH   1   3
BRANCH   1  11
ATOM     11  C   UNL     1     -25.775  20.637 -32.674  1.00  0.00     0.087 C 
BRANCH  11  12
ATOM     12  C   UNL     1     -26.708  19.509 -33.163  1.00  0.00     0.066 C 
BRANCH  12  13
ATOM     13  C   UNL     1     -27.047  18.560 -32.027  1.00  0.00     0.140 C 
ATOM     14  O   UNL     1     -28.078  17.905 -32.068  1.00  0.00    -0.299 OA
BRANCH  13  15
ATOM     15  C   UNL     1     -26.157  18.441 -30.819  1.00  0.00     0.106 CG0
ATOM     16  G   UNL     1     -25.492  17.080 -30.796  1.00  0.00     0.000 G0
ENDBRANCH  13  15
ENDBRANCH  12  13
BRANCH  12  17
ATOM     17  C   UNL     1     -27.971  20.056 -33.892  1.00  0.00    -0.006 C 
ATOM     18  C   UNL     1     -27.667  20.911 -35.135  1.00  0.00     0.008 C 
ATOM     19  C   UNL     1     -28.875  20.838 -32.926  1.00  0.00     0.008 C 
ENDBRANCH  12  17
ENDBRANCH  11  12
ENDBRANCH   1  11
TORSDOF 1
ENDMDL
MODEL 4
REMARK VINA RESULT:    -3.647     10.927     13.053
REMARK INTER + INTRA:          -5.524
REMARK INTER:                  -5.278
REMARK INTRA:                  -0.245
REMARK UNBOUND:                 0.043
REMARK SMILES CC1=CCC[C@H](C)C(=O)C[C@H](C(C)C)C(=O)C1
REMARK SMILES IDX 8 1 9 2 6 3 7 4 5 5 4 6 3 7 2 8 1 9 10 11 11 12 15 13 16 14
REMARK SMILES IDX 17 15 12 17 13 18 14 19
REMARK H PARENT
REMARK Flexibility Score: 70.00
ROOT
ATOM      1  C   UNL     1     -15.259  15.182 -30.153  1.00  0.00     0.136 C 
ATOM      2  O   UNL     1     -15.136  16.393 -30.037  1.00  0.00    -0.299 OA
ENDROOT
BRANCH   1   3
ATOM      3  C   UNL     1     -14.341  14.415 -31.082  1.00  0.00     0.053 C 
ATOM      4  C   UNL     1     -14.659  14.792 -32.533  1.00  0.00     0.016 C 
BRANCH   3   5
ATOM      5  C   UNL     1     -12.845  14.663 -30.780  1.00  0.00     0.015 C 
BRANCH   5   6
ATOM      6  C   UNL     1     -12.193  13.558 -29.926  1.00  0.00     0.028 C 
BRANCH   6   7
ATOM      7  C   UNL     1     -12.248  13.888 -28.450  1.00  0.00    -0.028 C 
ATOM      8  C   UNL     1     -12.981  13.246 -27.509  1.00  0.00    -0.070 CG0
ATOM      9  C   UNL     1     -12.862  13.716 -26.081  1.00  0.00     0.039 C 
ATOM     10  G   UNL     1     -13.964  12.135 -27.819  1.00  0.00     0.000 G0
ENDBRANCH   6   7
ENDBRANCH   5   6
ENDBRANCH   3   5
ENDBRANCH   1   3
BRANCH   1  11
ATOM     11  C   UNL     1     -16.348  14.469 -29.387  1.00  0.00     0.087 C 
BRANCH  11  12
ATOM     12  C   UNL     1     -16.047  12.965 -29.214  1.00  0.00     0.066 C 
BRANCH  12  13
ATOM     13  C   UNL     1     -15.365  12.702 -27.883  1.00  0.00     0.140 C 
ATOM     14  O   UNL     1     -15.938  12.982 -26.840  1.00  0.00    -0.299 OA
BRANCH  13  15
ATOM     15  C   UNL     1     -13.970  12.143 -27.820  1.00  0.00     0.106 CG0
ATOM     16  G   UNL     1     -12.981  13.251 -27.517  1.00  0.00     0.000 G0
ENDBRANCH  13  15
ENDBRANCH  12  13
BRANCH  12  17
ATOM     17  C   UNL     1     -17.308  12.077 -29.435  1.00  0.00    -0.006 C 
ATOM     18  C   UNL     1     -17.252  11.196 -30.696  1.00  0.00     0.008 C 
ATOM     19  C   UNL     1     -18.589  12.925 -29.445  1.00  0.00     0.008 C 
ENDBRANCH  12  17
ENDBRANCH  11  12
ENDBRANCH   1  11
TORSDOF 1
ENDMDL
MODEL 5
REMARK VINA RESULT:    -3.279      1.891      4.533
REMARK INTER + INTRA:          -4.961
REMARK INTER:                  -5.379
REMARK INTRA:                   0.418
REMARK UNBOUND:                 0.043
REMARK SMILES CC1=CCC[C@H](C)C(=O)C[C@H](C(C)C)C(=O)C1
REMARK SMILES IDX 8 1 9 2 6 3 7 4 5 5 4 6 3 7 2 8 1 9 10 11 11 12 15 13 16 14
REMARK SMILES IDX 17 15 12 17 13 18 14 19
REMARK H PARENT
REMARK Flexibility Score: 70.00
ROOT
ATOM      1  C   UNL     1     -23.574  19.584 -31.103  1.00  0.00     0.136 C 
ATOM      2  O   UNL     1     -22.798  19.622 -30.159  1.00  0.00    -0.299 OA
ENDROOT
BRANCH   1   3
ATOM      3  C   UNL     1     -24.212  20.861 -31.608  1.00  0.00     0.053 C 
ATOM      4  C   UNL     1     -23.514  22.065 -30.965  1.00  0.00     0.016 C 
BRANCH   3   5
ATOM      5  C   UNL     1     -24.171  20.980 -33.149  1.00  0.00     0.015 C 
BRANCH   5   6
ATOM      6  C   UNL     1     -25.089  19.975 -33.873  1.00  0.00     0.028 C 
BRANCH   6   7
ATOM      7  C   UNL     1     -26.542  20.179 -33.501  1.00  0.00    -0.028 C 
ATOM      8  C   UNL     1     -27.333  19.300 -32.842  1.00  0.00    -0.070 CG0
ATOM      9  C   UNL     1     -28.751  19.718 -32.539  1.00  0.00     0.039 C 
ATOM     10  G   UNL     1     -26.901  17.899 -32.458  1.00  0.00     0.000 G0
ENDBRANCH   6   7
ENDBRANCH   5   6
ENDBRANCH   3   5
ENDBRANCH   1   3
BRANCH   1  11
ATOM     11  C   UNL     1     -23.907  18.255 -31.738  1.00  0.00     0.087 C 
BRANCH  11  12
ATOM     12  C   UNL     1     -24.869  17.420 -30.865  1.00  0.00     0.066 C 
BRANCH  12  13
ATOM     13  C   UNL     1     -26.307  17.854 -31.081  1.00  0.00     0.140 C 
ATOM     14  O   UNL     1     -27.008  18.137 -30.120  1.00  0.00    -0.299 OA
BRANCH  13  15
ATOM     15  C   UNL     1     -26.909  17.898 -32.459  1.00  0.00     0.106 CG0
ATOM     16  G   UNL     1     -27.313  19.317 -32.804  1.00  0.00     0.000 G0
ENDBRANCH  13  15
ENDBRANCH  12  13
BRANCH  12  17
ATOM     17  C   UNL     1     -24.664  15.887 -31.054  1.00  0.00    -0.006 C 
ATOM     18  C   UNL     1     -25.466  15.013 -30.074  1.00  0.00     0.008 C 
ATOM     19  C   UNL     1     -23.174  15.514 -30.991  1.00  0.00     0.008 C 
ENDBRANCH  12  17
ENDBRANCH  11  12
ENDBRANCH   1  11
TORSDOF 1
ENDMDL
MODEL 6
REMARK VINA RESULT:    -3.242      1.817      4.178
REMARK INTER + INTRA:          -4.905
REMARK INTER:                  -6.461
REMARK INTRA:                   1.556
REMARK UNBOUND:                 0.043
REMARK SMILES CC1=CCC[C@H](C)C(=O)C[C@H](C(C)C)C(=O)C1
REMARK SMILES IDX 8 1 9 2 6 3 7 4 5 5 4 6 3 7 2 8 1 9 10 11 11 12 15 13 16 14
REMARK SMILES IDX 17 15 12 17 13 18 14 19
REMARK H PARENT
REMARK Flexibility Score: 70.00
ROOT
ATOM      1  C   UNL     1     -26.947  18.349 -31.627  1.00  0.00     0.136 C 
ATOM      2  O   UNL     1     -27.819  17.580 -31.246  1.00  0.00    -0.299 OA
ENDROOT
BRANCH   1   3
ATOM      3  C   UNL     1     -27.098  19.066 -32.952  1.00  0.00     0.053 C 
ATOM      4  C   UNL     1     -28.576  19.076 -33.357  1.00  0.00     0.016 C 
BRANCH   3   5
ATOM      5  C   UNL     1     -26.544  20.509 -32.916  1.00  0.00     0.015 C 
BRANCH   5   6
ATOM      6  C   UNL     1     -25.056  20.612 -33.308  1.00  0.00     0.028 C 
BRANCH   6   7
ATOM      7  C   UNL     1     -24.361  21.736 -32.571  1.00  0.00    -0.028 C 
ATOM      8  C   UNL     1     -23.625  21.622 -31.440  1.00  0.00    -0.070 CG0
ATOM      9  C   UNL     1     -22.986  22.871 -30.886  1.00  0.00     0.039 C 
ATOM     10  G   UNL     1     -23.466  20.331 -30.664  1.00  0.00     0.000 G0
ENDBRANCH   6   7
ENDBRANCH   5   6
ENDBRANCH   3   5
ENDBRANCH   1   3
BRANCH   1  11
ATOM     11  C   UNL     1     -25.714  18.552 -30.779  1.00  0.00     0.087 C 
BRANCH  11  12
ATOM     12  C   UNL     1     -24.437  18.044 -31.481  1.00  0.00     0.066 C 
BRANCH  12  13
ATOM     13  C   UNL     1     -23.374  19.127 -31.517  1.00  0.00     0.140 C 
ATOM     14  O   UNL     1     -22.410  19.011 -32.259  1.00  0.00    -0.299 OA
BRANCH  13  15
ATOM     15  C   UNL     1     -23.458  20.331 -30.617  1.00  0.00     0.106 CG0
ATOM     16  G   UNL     1     -23.605  21.590 -31.446  1.00  0.00     0.000 G0
ENDBRANCH  13  15
ENDBRANCH  12  13
BRANCH  12  17
ATOM     17  C   UNL     1     -23.917  16.706 -30.874  1.00  0.00    -0.006 C 
ATOM     18  C   UNL     1     -22.940  15.935 -31.779  1.00  0.00     0.008 C 
ATOM     19  C   UNL     1     -25.083  15.793 -30.463  1.00  0.00     0.008 C 
ENDBRANCH  12  17
ENDBRANCH  11  12
ENDBRANCH   1  11
TORSDOF 1
ENDMDL
MODEL 7
REMARK VINA RESULT:    -3.222      1.908      4.618
REMARK INTER + INTRA:          -4.875
REMARK INTER:                  -5.222
REMARK INTRA:                   0.347
REMARK UNBOUND:                 0.043
REMARK SMILES CC1=CCC[C@H](C)C(=O)C[C@H](C(C)C)C(=O)C1
REMARK SMILES IDX 8 1 9 2 6 3 7 4 5 5 4 6 3 7 2 8 1 9 10 11 11 12 15 13 16 14
REMARK SMILES IDX 17 15 12 17 13 18 14 19
REMARK H PARENT
REMARK Flexibility Score: 70.00
ROOT
ATOM      1  C   UNL     1     -27.187  18.260 -31.715  1.00  0.00     0.136 C 
ATOM      2  O   UNL     1     -28.279  18.027 -31.217  1.00  0.00    -0.299 OA
ENDROOT
BRANCH   1   3
ATOM      3  C   UNL     1     -25.945  18.259 -30.848  1.00  0.00     0.053 C 
ATOM      4  C   UNL     1     -26.252  17.547 -29.525  1.00  0.00     0.016 C 
BRANCH   3   5
ATOM      5  C   UNL     1     -24.733  17.596 -31.542  1.00  0.00     0.015 C 
BRANCH   5   6
ATOM      6  C   UNL     1     -23.438  18.428 -31.457  1.00  0.00     0.028 C 
BRANCH   6   7
ATOM      7  C   UNL     1     -23.728  19.913 -31.440  1.00  0.00    -0.028 C 
ATOM      8  C   UNL     1     -24.127  20.666 -32.493  1.00  0.00    -0.070 CG0
ATOM      9  C   UNL     1     -24.397  22.130 -32.250  1.00  0.00     0.039 C 
ATOM     10  G   UNL     1     -24.246  20.140 -33.909  1.00  0.00     0.000 G0
ENDBRANCH   6   7
ENDBRANCH   5   6
ENDBRANCH   3   5
ENDBRANCH   1   3
BRANCH   1  11
ATOM     11  C   UNL     1     -27.095  18.575 -33.189  1.00  0.00     0.087 C 
BRANCH  11  12
ATOM     12  C   UNL     1     -26.846  20.076 -33.448  1.00  0.00     0.066 C 
BRANCH  12  13
ATOM     13  C   UNL     1     -25.679  20.273 -34.398  1.00  0.00     0.140 C 
ATOM     14  O   UNL     1     -25.888  20.492 -35.583  1.00  0.00    -0.299 OA
BRANCH  13  15
ATOM     15  C   UNL     1     -24.257  20.155 -33.921  1.00  0.00     0.106 CG0
ATOM     16  G   UNL     1     -24.145  20.661 -32.496  1.00  0.00     0.000 G0
ENDBRANCH  13  15
ENDBRANCH  12  13
BRANCH  12  17
ATOM     17  C   UNL     1     -28.134  20.822 -33.908  1.00  0.00    -0.006 C 
ATOM     18  C   UNL     1     -28.463  22.085 -33.092  1.00  0.00     0.008 C 
ATOM     19  C   UNL     1     -29.346  19.877 -33.923  1.00  0.00     0.008 C 
ENDBRANCH  12  17
ENDBRANCH  11  12
ENDBRANCH   1  11
TORSDOF 1
ENDMDL
MODEL 8
REMARK VINA RESULT:    -3.025      1.492      3.715
REMARK INTER + INTRA:          -4.574
REMARK INTER:                  -6.978
REMARK INTRA:                   2.404
REMARK UNBOUND:                 0.043
REMARK SMILES CC1=CCC[C@H](C)C(=O)C[C@H](C(C)C)C(=O)C1
REMARK SMILES IDX 8 1 9 2 6 3 7 4 5 5 4 6 3 7 2 8 1 9 10 11 11 12 15 13 16 14
REMARK SMILES IDX 17 15 12 17 13 18 14 19
REMARK H PARENT
REMARK Flexibility Score: 70.00
ROOT
ATOM      1  C   UNL     1     -23.890  17.214 -31.360  1.00  0.00     0.136 C 
ATOM      2  O   UNL     1     -22.867  16.920 -31.962  1.00  0.00    -0.299 OA
ENDROOT
BRANCH   1   3
ATOM      3  C   UNL     1     -24.917  16.145 -31.048  1.00  0.00     0.053 C 
ATOM      4  C   UNL     1     -24.236  14.989 -30.307  1.00  0.00     0.016 C 
BRANCH   3   5
ATOM      5  C   UNL     1     -26.106  16.684 -30.220  1.00  0.00     0.015 C 
BRANCH   5   6
ATOM      6  C   UNL     1     -26.440  18.162 -30.504  1.00  0.00     0.028 C 
BRANCH   6   7
ATOM      7  C   UNL     1     -27.239  18.319 -31.780  1.00  0.00    -0.028 C 
ATOM      8  C   UNL     1     -27.042  19.252 -32.742  1.00  0.00    -0.070 CG0
ATOM      9  C   UNL     1     -27.934  19.209 -33.957  1.00  0.00     0.039 C 
ATOM     10  G   UNL     1     -26.031  20.375 -32.633  1.00  0.00     0.000 G0
ENDBRANCH   6   7
ENDBRANCH   5   6
ENDBRANCH   3   5
ENDBRANCH   1   3
BRANCH   1  11
ATOM     11  C   UNL     1     -24.129  18.650 -30.957  1.00  0.00     0.087 C 
BRANCH  11  12
ATOM     12  C   UNL     1     -23.595  19.644 -32.011  1.00  0.00     0.066 C 
BRANCH  12  13
ATOM     13  C   UNL     1     -24.660  19.952 -33.048  1.00  0.00     0.140 C 
ATOM     14  O   UNL     1     -24.391  19.875 -34.238  1.00  0.00    -0.299 OA
BRANCH  13  15
ATOM     15  C   UNL     1     -26.037  20.401 -32.642  1.00  0.00     0.106 CG0
ATOM     16  G   UNL     1     -27.008  19.242 -32.732  1.00  0.00     0.000 G0
ENDBRANCH  13  15
ENDBRANCH  12  13
BRANCH  12  17
ATOM     17  C   UNL     1     -22.989  20.926 -31.365  1.00  0.00    -0.006 C 
ATOM     18  C   UNL     1     -22.953  20.906 -29.826  1.00  0.00     0.008 C 
ATOM     19  C   UNL     1     -23.713  22.190 -31.856  1.00  0.00     0.008 C 
ENDBRANCH  12  17
ENDBRANCH  11  12
ENDBRANCH   1  11
TORSDOF 1
ENDMDL
MODEL 9
REMARK VINA RESULT:    -2.519      1.729      4.102
REMARK INTER + INTRA:          -3.802
REMARK INTER:                  -4.159
REMARK INTRA:                   0.357
REMARK UNBOUND:                 0.043
REMARK SMILES CC1=CCC[C@H](C)C(=O)C[C@H](C(C)C)C(=O)C1
REMARK SMILES IDX 8 1 9 2 6 3 7 4 5 5 4 6 3 7 2 8 1 9 10 11 11 12 15 13 16 14
REMARK SMILES IDX 17 15 12 17 13 18 14 19
REMARK H PARENT
REMARK Flexibility Score: 70.00
ROOT
ATOM      1  C   UNL     1     -27.999  18.741 -32.374  1.00  0.00     0.136 C 
ATOM      2  O   UNL     1     -29.163  18.383 -32.488  1.00  0.00    -0.299 OA
ENDROOT
BRANCH   1   3
ATOM      3  C   UNL     1     -27.329  19.504 -33.498  1.00  0.00     0.053 C 
ATOM      4  C   UNL     1     -28.381  19.894 -34.542  1.00  0.00     0.016 C 
BRANCH   3   5
ATOM      5  C   UNL     1     -26.578  20.761 -33.001  1.00  0.00     0.015 C 
BRANCH   5   6
ATOM      6  C   UNL     1     -25.140  20.879 -33.544  1.00  0.00     0.028 C 
BRANCH   6   7
ATOM      7  C   UNL     1     -24.175  21.340 -32.473  1.00  0.00    -0.028 C 
ATOM      8  C   UNL     1     -23.433  20.546 -31.665  1.00  0.00    -0.070 CG0
ATOM      9  C   UNL     1     -22.502  21.214 -30.683  1.00  0.00     0.039 C 
ATOM     10  G   UNL     1     -23.537  19.035 -31.639  1.00  0.00     0.000 G0
ENDBRANCH   6   7
ENDBRANCH   5   6
ENDBRANCH   3   5
ENDBRANCH   1   3
BRANCH   1  11
ATOM     11  C   UNL     1     -27.234  18.391 -31.120  1.00  0.00     0.087 C 
BRANCH  11  12
ATOM     12  C   UNL     1     -25.852  17.778 -31.434  1.00  0.00     0.066 C 
BRANCH  12  13
ATOM     13  C   UNL     1     -24.741  18.614 -30.827  1.00  0.00     0.140 C 
ATOM     14  O   UNL     1     -24.831  19.000 -29.670  1.00  0.00    -0.299 OA
BRANCH  13  15
ATOM     15  C   UNL     1     -23.541  19.023 -31.638  1.00  0.00     0.106 CG0
ATOM     16  G   UNL     1     -23.423  20.533 -31.666  1.00  0.00     0.000 G0
ENDBRANCH  13  15
ENDBRANCH  12  13
BRANCH  12  17
ATOM     17  C   UNL     1     -25.765  16.274 -31.037  1.00  0.00    -0.006 C 
ATOM     18  C   UNL     1     -26.564  15.902 -29.775  1.00  0.00     0.008 C 
ATOM     19  C   UNL     1     -24.303  15.824 -30.884  1.00  0.00     0.008 C 
ENDBRANCH  12  17
ENDBRANCH  11  12
ENDBRANCH   1  11
TORSDOF 1
ENDMDL
