MODEL 1
REMARK VINA RESULT:    -6.239      0.000      0.000
REMARK INTER + INTRA:          -7.647
REMARK INTER:                  -7.333
REMARK INTRA:                  -0.313
REMARK UNBOUND:                -0.313
REMARK SMILES O=c1cc(-c2ccc(O)c(O)c2)oc2cc(O)cc(O)c12
REMARK SMILES IDX 4 1 3 2 2 3 1 4 21 5 19 6 18 7 16 8 15 9 14 10 13 11 5 12
REMARK SMILES IDX 6 13 7 14 8 15 12 16 10 17 9 18 11 20 20 22 17 24
REMARK H PARENT 9 19 11 21 20 23 17 25
REMARK Flexibility Score: inf
ROOT
ATOM      1  C   UNL     1      46.480 -29.523 -30.231  1.00  0.00     0.138 A 
ATOM      2  C   UNL     1      46.479 -30.459 -29.188  1.00  0.00     0.100 A 
ATOM      3  C   UNL     1      45.272 -30.826 -28.591  1.00  0.00     0.197 A 
ATOM      4  O   UNL     1      45.297 -31.709 -27.696  1.00  0.00    -0.289 OA
ATOM      5  C   UNL     1      44.063 -30.223 -29.018  1.00  0.00     0.107 A 
ATOM      6  C   UNL     1      42.777 -30.493 -28.460  1.00  0.00     0.134 A 
ATOM      7  C   UNL     1      41.640 -29.909 -29.033  1.00  0.00     0.093 A 
ATOM      8  C   UNL     1      41.749 -29.020 -30.104  1.00  0.00     0.123 A 
ATOM      9  C   UNL     1      43.003 -28.710 -30.623  1.00  0.00     0.094 A 
ATOM     10  C   UNL     1      44.154 -29.304 -30.097  1.00  0.00     0.146 A 
ATOM     11  O   UNL     1      45.329 -28.995 -30.634  1.00  0.00    -0.456 OA
ENDROOT
BRANCH   1  12
ATOM     12  C   UNL     1      47.735 -29.094 -30.899  1.00  0.00     0.021 A 
ATOM     13  C   UNL     1      48.965 -29.303 -30.254  1.00  0.00     0.016 A 
ATOM     14  C   UNL     1      50.159 -28.903 -30.856  1.00  0.00     0.051 A 
ATOM     15  C   UNL     1      50.153 -28.277 -32.107  1.00  0.00     0.157 A 
ATOM     16  C   UNL     1      47.728 -28.450 -32.151  1.00  0.00     0.062 A 
ATOM     17  C   UNL     1      48.921 -28.043 -32.760  1.00  0.00     0.158 A 
BRANCH  15  18
ATOM     18  O   UNL     1      51.382 -27.907 -32.657  1.00  0.00    -0.504 OA
ATOM     19  H   UNL     1      51.606 -26.971 -32.962  1.00  0.00     0.293 HD
ENDBRANCH  15  18
BRANCH  17  20
ATOM     20  O   UNL     1      48.834 -27.410 -34.002  1.00  0.00    -0.504 OA
ATOM     21  H   UNL     1      49.553 -27.455 -34.710  1.00  0.00     0.293 HD
ENDBRANCH  17  20
ENDBRANCH   1  12
BRANCH   6  22
ATOM     22  O   UNL     1      42.563 -31.303 -27.341  1.00  0.00    -0.507 OA
ATOM     23  H   UNL     1      42.653 -31.003 -26.382  1.00  0.00     0.293 HD
ENDBRANCH   6  22
BRANCH   8  24
ATOM     24  O   UNL     1      40.614 -28.431 -30.657  1.00  0.00    -0.508 OA
ATOM     25  H   UNL     1      40.024 -28.929 -31.314  1.00  0.00     0.293 HD
ENDBRANCH   8  24
TORSDOF 5
ENDMDL
MODEL 2
REMARK VINA RESULT:    -6.217      1.379      6.906
REMARK INTER + INTRA:          -7.620
REMARK INTER:                  -7.333
REMARK INTRA:                  -0.287
REMARK UNBOUND:                -0.313
REMARK SMILES O=c1cc(-c2ccc(O)c(O)c2)oc2cc(O)cc(O)c12
REMARK SMILES IDX 4 1 3 2 2 3 1 4 21 5 19 6 18 7 16 8 15 9 14 10 13 11 5 12
REMARK SMILES IDX 6 13 7 14 8 15 12 16 10 17 9 18 11 20 20 22 17 24
REMARK H PARENT 9 19 11 21 20 23 17 25
REMARK Flexibility Score: inf
ROOT
ATOM      1  C   UNL     1      45.632 -29.304 -30.044  1.00  0.00     0.138 A 
ATOM      2  C   UNL     1      46.435 -29.696 -28.963  1.00  0.00     0.100 A 
ATOM      3  C   UNL     1      47.824 -29.616 -29.071  1.00  0.00     0.197 A 
ATOM      4  O   UNL     1      48.515 -29.922 -28.066  1.00  0.00    -0.289 OA
ATOM      5  C   UNL     1      48.412 -29.176 -30.282  1.00  0.00     0.107 A 
ATOM      6  C   UNL     1      49.817 -29.086 -30.520  1.00  0.00     0.134 A 
ATOM      7  C   UNL     1      50.279 -28.542 -31.725  1.00  0.00     0.093 A 
ATOM      8  C   UNL     1      49.389 -28.138 -32.722  1.00  0.00     0.123 A 
ATOM      9  C   UNL     1      48.017 -28.269 -32.521  1.00  0.00     0.094 A 
ATOM     10  C   UNL     1      47.524 -28.775 -31.316  1.00  0.00     0.146 A 
ATOM     11  O   UNL     1      46.207 -28.865 -31.158  1.00  0.00    -0.456 OA
ENDROOT
BRANCH   1  12
ATOM     12  C   UNL     1      44.149 -29.372 -29.984  1.00  0.00     0.021 A 
ATOM     13  C   UNL     1      43.387 -28.439 -30.704  1.00  0.00     0.016 A 
ATOM     14  C   UNL     1      41.993 -28.477 -30.660  1.00  0.00     0.051 A 
ATOM     15  C   UNL     1      41.329 -29.436 -29.888  1.00  0.00     0.157 A 
ATOM     16  C   UNL     1      43.482 -30.329 -29.196  1.00  0.00     0.062 A 
ATOM     17  C   UNL     1      42.083 -30.371 -29.143  1.00  0.00     0.158 A 
BRANCH  15  18
ATOM     18  O   UNL     1      39.932 -29.423 -29.892  1.00  0.00    -0.504 OA
ATOM     19  H   UNL     1      39.374 -28.862 -30.519  1.00  0.00     0.293 HD
ENDBRANCH  15  18
BRANCH  17  20
ATOM     20  O   UNL     1      41.491 -31.347 -28.339  1.00  0.00    -0.504 OA
ATOM     21  H   UNL     1      40.569 -31.728 -28.498  1.00  0.00     0.293 HD
ENDBRANCH  17  20
ENDBRANCH   1  12
BRANCH   6  22
ATOM     22  O   UNL     1      50.793 -29.533 -29.625  1.00  0.00    -0.507 OA
ATOM     23  H   UNL     1      51.788 -29.509 -29.791  1.00  0.00     0.293 HD
ENDBRANCH   6  22
BRANCH   8  24
ATOM     24  O   UNL     1      49.859 -27.613 -33.924  1.00  0.00    -0.508 OA
ATOM     25  H   UNL     1      49.802 -28.136 -34.790  1.00  0.00     0.293 HD
ENDBRANCH   8  24
TORSDOF 5
ENDMDL
MODEL 3
REMARK VINA RESULT:    -6.052     14.822     16.354
REMARK INTER + INTRA:          -7.427
REMARK INTER:                  -7.126
REMARK INTRA:                  -0.301
REMARK UNBOUND:                -0.313
REMARK SMILES O=c1cc(-c2ccc(O)c(O)c2)oc2cc(O)cc(O)c12
REMARK SMILES IDX 4 1 3 2 2 3 1 4 21 5 19 6 18 7 16 8 15 9 14 10 13 11 5 12
REMARK SMILES IDX 6 13 7 14 8 15 12 16 10 17 9 18 11 20 20 22 17 24
REMARK H PARENT 9 19 11 21 20 23 17 25
REMARK Flexibility Score: inf
ROOT
ATOM      1  C   UNL     1      55.814 -40.514 -25.899  1.00  0.00     0.138 A 
ATOM      2  C   UNL     1      55.994 -41.904 -25.896  1.00  0.00     0.100 A 
ATOM      3  C   UNL     1      56.187 -42.578 -27.104  1.00  0.00     0.197 A 
ATOM      4  O   UNL     1      56.400 -43.816 -27.064  1.00  0.00    -0.289 OA
ATOM      5  C   UNL     1      56.163 -41.857 -28.323  1.00  0.00     0.107 A 
ATOM      6  C   UNL     1      56.314 -42.441 -29.617  1.00  0.00     0.134 A 
ATOM      7  C   UNL     1      56.372 -41.613 -30.745  1.00  0.00     0.093 A 
ATOM      8  C   UNL     1      56.227 -40.229 -30.631  1.00  0.00     0.123 A 
ATOM      9  C   UNL     1      56.028 -39.653 -29.379  1.00  0.00     0.094 A 
ATOM     10  C   UNL     1      56.001 -40.449 -28.231  1.00  0.00     0.146 A 
ATOM     11  O   UNL     1      55.827 -39.857 -27.054  1.00  0.00    -0.456 OA
ENDROOT
BRANCH   1  12
ATOM     12  C   UNL     1      55.601 -39.749 -24.644  1.00  0.00     0.021 A 
ATOM     13  C   UNL     1      54.845 -40.319 -23.609  1.00  0.00     0.016 A 
ATOM     14  C   UNL     1      54.623 -39.619 -22.422  1.00  0.00     0.051 A 
ATOM     15  C   UNL     1      55.142 -38.332 -22.246  1.00  0.00     0.157 A 
ATOM     16  C   UNL     1      56.111 -38.448 -24.473  1.00  0.00     0.062 A 
ATOM     17  C   UNL     1      55.890 -37.736 -23.287  1.00  0.00     0.158 A 
BRANCH  15  18
ATOM     18  O   UNL     1      54.890 -37.688 -21.032  1.00  0.00    -0.504 OA
ATOM     19  H   UNL     1      55.326 -37.940 -20.158  1.00  0.00     0.293 HD
ENDBRANCH  15  18
BRANCH  17  20
ATOM     20  O   UNL     1      56.426 -36.450 -23.189  1.00  0.00    -0.504 OA
ATOM     21  H   UNL     1      57.075 -36.162 -22.472  1.00  0.00     0.293 HD
ENDBRANCH  17  20
ENDBRANCH   1  12
BRANCH   6  22
ATOM     22  O   UNL     1      56.389 -43.817 -29.852  1.00  0.00    -0.507 OA
ATOM     23  H   UNL     1      56.650 -44.243 -30.728  1.00  0.00     0.293 HD
ENDBRANCH   6  22
BRANCH   8  24
ATOM     24  O   UNL     1      56.270 -39.414 -31.761  1.00  0.00    -0.508 OA
ATOM     25  H   UNL     1      56.700 -39.728 -32.624  1.00  0.00     0.293 HD
ENDBRANCH   8  24
TORSDOF 5
ENDMDL
MODEL 4
REMARK VINA RESULT:    -6.032      2.021      7.604
REMARK INTER + INTRA:          -7.404
REMARK INTER:                  -7.114
REMARK INTRA:                  -0.290
REMARK UNBOUND:                -0.313
REMARK SMILES O=c1cc(-c2ccc(O)c(O)c2)oc2cc(O)cc(O)c12
REMARK SMILES IDX 4 1 3 2 2 3 1 4 21 5 19 6 18 7 16 8 15 9 14 10 13 11 5 12
REMARK SMILES IDX 6 13 7 14 8 15 12 16 10 17 9 18 11 20 20 22 17 24
REMARK H PARENT 9 19 11 21 20 23 17 25
REMARK Flexibility Score: inf
ROOT
ATOM      1  C   UNL     1      47.910 -29.154 -30.768  1.00  0.00     0.138 A 
ATOM      2  C   UNL     1      48.276 -28.458 -31.928  1.00  0.00     0.100 A 
ATOM      3  C   UNL     1      49.627 -28.294 -32.237  1.00  0.00     0.197 A 
ATOM      4  O   UNL     1      49.923 -27.714 -33.313  1.00  0.00    -0.289 OA
ATOM      5  C   UNL     1      50.616 -28.799 -31.357  1.00  0.00     0.107 A 
ATOM      6  C   UNL     1      52.024 -28.661 -31.551  1.00  0.00     0.134 A 
ATOM      7  C   UNL     1      52.907 -29.289 -30.663  1.00  0.00     0.093 A 
ATOM      8  C   UNL     1      52.434 -29.999 -29.557  1.00  0.00     0.123 A 
ATOM      9  C   UNL     1      51.063 -30.096 -29.331  1.00  0.00     0.094 A 
ATOM     10  C   UNL     1      50.156 -29.511 -30.218  1.00  0.00     0.146 A 
ATOM     11  O   UNL     1      48.856 -29.644 -29.975  1.00  0.00    -0.456 OA
ENDROOT
BRANCH   1  12
ATOM     12  C   UNL     1      46.487 -29.354 -30.390  1.00  0.00     0.021 A 
ATOM     13  C   UNL     1      46.129 -30.472 -29.621  1.00  0.00     0.016 A 
ATOM     14  C   UNL     1      44.799 -30.688 -29.258  1.00  0.00     0.051 A 
ATOM     15  C   UNL     1      43.796 -29.801 -29.663  1.00  0.00     0.157 A 
ATOM     16  C   UNL     1      45.476 -28.469 -30.809  1.00  0.00     0.062 A 
ATOM     17  C   UNL     1      44.139 -28.680 -30.453  1.00  0.00     0.158 A 
BRANCH  15  18
ATOM     18  O   UNL     1      42.485 -30.070 -29.261  1.00  0.00    -0.504 OA
ATOM     19  H   UNL     1      42.181 -30.956 -28.886  1.00  0.00     0.293 HD
ENDBRANCH  15  18
BRANCH  17  20
ATOM     20  O   UNL     1      43.191 -27.760 -30.907  1.00  0.00    -0.504 OA
ATOM     21  H   UNL     1      42.302 -28.017 -31.312  1.00  0.00     0.293 HD
ENDBRANCH  17  20
ENDBRANCH   1  12
BRANCH   6  22
ATOM     22  O   UNL     1      52.604 -27.908 -32.576  1.00  0.00    -0.507 OA
ATOM     23  H   UNL     1      52.404 -28.015 -33.558  1.00  0.00     0.293 HD
ENDBRANCH   6  22
BRANCH   8  24
ATOM     24  O   UNL     1      53.320 -30.606 -28.671  1.00  0.00    -0.508 OA
ATOM     25  H   UNL     1      52.993 -31.093 -27.844  1.00  0.00     0.293 HD
ENDBRANCH   8  24
TORSDOF 5
ENDMDL
MODEL 5
REMARK VINA RESULT:    -5.869      1.748      2.917
REMARK INTER + INTRA:          -7.212
REMARK INTER:                  -6.915
REMARK INTRA:                  -0.297
REMARK UNBOUND:                -0.313
REMARK SMILES O=c1cc(-c2ccc(O)c(O)c2)oc2cc(O)cc(O)c12
REMARK SMILES IDX 4 1 3 2 2 3 1 4 21 5 19 6 18 7 16 8 15 9 14 10 13 11 5 12
REMARK SMILES IDX 6 13 7 14 8 15 12 16 10 17 9 18 11 20 20 22 17 24
REMARK H PARENT 9 19 11 21 20 23 17 25
REMARK Flexibility Score: inf
ROOT
ATOM      1  C   UNL     1      48.839 -29.428 -30.374  1.00  0.00     0.138 A 
ATOM      2  C   UNL     1      48.710 -30.476 -29.452  1.00  0.00     0.100 A 
ATOM      3  C   UNL     1      47.441 -30.845 -29.000  1.00  0.00     0.197 A 
ATOM      4  O   UNL     1      47.353 -31.824 -28.216  1.00  0.00    -0.289 OA
ATOM      5  C   UNL     1      46.301 -30.134 -29.447  1.00  0.00     0.107 A 
ATOM      6  C   UNL     1      44.961 -30.397 -29.027  1.00  0.00     0.134 A 
ATOM      7  C   UNL     1      43.904 -29.692 -29.614  1.00  0.00     0.093 A 
ATOM      8  C   UNL     1      44.141 -28.693 -30.561  1.00  0.00     0.123 A 
ATOM      9  C   UNL     1      45.447 -28.393 -30.940  1.00  0.00     0.094 A 
ATOM     10  C   UNL     1      46.522 -29.103 -30.399  1.00  0.00     0.146 A 
ATOM     11  O   UNL     1      47.750 -28.798 -30.801  1.00  0.00    -0.456 OA
ENDROOT
BRANCH   1  12
ATOM     12  C   UNL     1      50.164 -28.993 -30.886  1.00  0.00     0.021 A 
ATOM     13  C   UNL     1      50.231 -27.962 -31.835  1.00  0.00     0.016 A 
ATOM     14  C   UNL     1      51.463 -27.538 -32.337  1.00  0.00     0.051 A 
ATOM     15  C   UNL     1      52.652 -28.141 -31.913  1.00  0.00     0.157 A 
ATOM     16  C   UNL     1      51.359 -29.610 -30.470  1.00  0.00     0.062 A 
ATOM     17  C   UNL     1      52.598 -29.195 -30.971  1.00  0.00     0.158 A 
BRANCH  15  18
ATOM     18  O   UNL     1      53.851 -27.667 -32.449  1.00  0.00    -0.504 OA
ATOM     19  H   UNL     1      54.740 -27.713 -31.972  1.00  0.00     0.293 HD
ENDBRANCH  15  18
BRANCH  17  20
ATOM     20  O   UNL     1      53.741 -29.854 -30.513  1.00  0.00    -0.504 OA
ATOM     21  H   UNL     1      54.132 -30.677 -30.949  1.00  0.00     0.293 HD
ENDBRANCH  17  20
ENDBRANCH   1  12
BRANCH   6  22
ATOM     22  O   UNL     1      44.619 -31.317 -28.032  1.00  0.00    -0.507 OA
ATOM     23  H   UNL     1      44.171 -32.206 -28.193  1.00  0.00     0.293 HD
ENDBRANCH   6  22
BRANCH   8  24
ATOM     24  O   UNL     1      43.083 -27.985 -31.128  1.00  0.00    -0.508 OA
ATOM     25  H   UNL     1      43.243 -27.205 -31.755  1.00  0.00     0.293 HD
ENDBRANCH   8  24
TORSDOF 5
ENDMDL
MODEL 6
REMARK VINA RESULT:    -5.840      1.999      7.002
REMARK INTER + INTRA:          -7.178
REMARK INTER:                  -6.886
REMARK INTRA:                  -0.291
REMARK UNBOUND:                -0.313
REMARK SMILES O=c1cc(-c2ccc(O)c(O)c2)oc2cc(O)cc(O)c12
REMARK SMILES IDX 4 1 3 2 2 3 1 4 21 5 19 6 18 7 16 8 15 9 14 10 13 11 5 12
REMARK SMILES IDX 6 13 7 14 8 15 12 16 10 17 9 18 11 20 20 22 17 24
REMARK H PARENT 9 19 11 21 20 23 17 25
REMARK Flexibility Score: inf
ROOT
ATOM      1  C   UNL     1      45.589 -28.053 -30.299  1.00  0.00     0.138 A 
ATOM      2  C   UNL     1      46.134 -27.263 -29.278  1.00  0.00     0.100 A 
ATOM      3  C   UNL     1      47.457 -26.827 -29.374  1.00  0.00     0.197 A 
ATOM      4  O   UNL     1      47.900 -26.074 -28.471  1.00  0.00    -0.289 OA
ATOM      5  C   UNL     1      48.247 -27.217 -30.483  1.00  0.00     0.107 A 
ATOM      6  C   UNL     1      49.618 -26.862 -30.671  1.00  0.00     0.134 A 
ATOM      7  C   UNL     1      50.268 -27.226 -31.857  1.00  0.00     0.093 A 
ATOM      8  C   UNL     1      49.615 -27.980 -32.835  1.00  0.00     0.123 A 
ATOM      9  C   UNL     1      48.295 -28.374 -32.639  1.00  0.00     0.094 A 
ATOM     10  C   UNL     1      47.607 -27.998 -31.482  1.00  0.00     0.146 A 
ATOM     11  O   UNL     1      46.342 -28.380 -31.343  1.00  0.00    -0.456 OA
ENDROOT
BRANCH   1  12
ATOM     12  C   UNL     1      44.189 -28.547 -30.245  1.00  0.00     0.021 A 
ATOM     13  C   UNL     1      43.711 -29.136 -29.065  1.00  0.00     0.016 A 
ATOM     14  C   UNL     1      42.402 -29.614 -28.990  1.00  0.00     0.051 A 
ATOM     15  C   UNL     1      41.545 -29.526 -30.092  1.00  0.00     0.157 A 
ATOM     16  C   UNL     1      43.332 -28.471 -31.360  1.00  0.00     0.062 A 
ATOM     17  C   UNL     1      42.019 -28.952 -31.294  1.00  0.00     0.158 A 
BRANCH  15  18
ATOM     18  O   UNL     1      40.246 -30.018 -29.950  1.00  0.00    -0.504 OA
ATOM     19  H   UNL     1      40.027 -30.963 -29.673  1.00  0.00     0.293 HD
ENDBRANCH  15  18
BRANCH  17  20
ATOM     20  O   UNL     1      41.228 -28.843 -32.440  1.00  0.00    -0.504 OA
ATOM     21  H   UNL     1      41.373 -29.384 -33.280  1.00  0.00     0.293 HD
ENDBRANCH  17  20
ENDBRANCH   1  12
BRANCH   6  22
ATOM     22  O   UNL     1      50.387 -26.180 -29.724  1.00  0.00    -0.507 OA
ATOM     23  H   UNL     1      51.370 -26.331 -29.558  1.00  0.00     0.293 HD
ENDBRANCH   6  22
BRANCH   8  24
ATOM     24  O   UNL     1      50.275 -28.350 -34.005  1.00  0.00    -0.508 OA
ATOM     25  H   UNL     1      50.060 -29.218 -34.483  1.00  0.00     0.293 HD
ENDBRANCH   8  24
TORSDOF 5
ENDMDL
MODEL 7
REMARK VINA RESULT:    -5.832      3.630      6.109
REMARK INTER + INTRA:          -7.168
REMARK INTER:                  -6.872
REMARK INTRA:                  -0.296
REMARK UNBOUND:                -0.313
REMARK SMILES O=c1cc(-c2ccc(O)c(O)c2)oc2cc(O)cc(O)c12
REMARK SMILES IDX 4 1 3 2 2 3 1 4 21 5 19 6 18 7 16 8 15 9 14 10 13 11 5 12
REMARK SMILES IDX 6 13 7 14 8 15 12 16 10 17 9 18 11 20 20 22 17 24
REMARK H PARENT 9 19 11 21 20 23 17 25
REMARK Flexibility Score: inf
ROOT
ATOM      1  C   UNL     1      51.923 -29.235 -30.279  1.00  0.00     0.138 A 
ATOM      2  C   UNL     1      51.312 -30.183 -29.448  1.00  0.00     0.100 A 
ATOM      3  C   UNL     1      49.922 -30.312 -29.452  1.00  0.00     0.197 A 
ATOM      4  O   UNL     1      49.407 -31.209 -28.737  1.00  0.00    -0.289 OA
ATOM      5  C   UNL     1      49.139 -29.458 -30.268  1.00  0.00     0.107 A 
ATOM      6  C   UNL     1      47.712 -29.474 -30.330  1.00  0.00     0.134 A 
ATOM      7  C   UNL     1      47.053 -28.649 -31.249  1.00  0.00     0.093 A 
ATOM      8  C   UNL     1      47.764 -27.768 -32.067  1.00  0.00     0.123 A 
ATOM      9  C   UNL     1      49.152 -27.708 -31.978  1.00  0.00     0.094 A 
ATOM     10  C   UNL     1      49.842 -28.544 -31.097  1.00  0.00     0.146 A 
ATOM     11  O   UNL     1      51.168 -28.467 -31.058  1.00  0.00    -0.456 OA
ENDROOT
BRANCH   1  12
ATOM     12  C   UNL     1      53.397 -29.054 -30.310  1.00  0.00     0.021 A 
ATOM     13  C   UNL     1      53.943 -27.966 -31.010  1.00  0.00     0.016 A 
ATOM     14  C   UNL     1      55.325 -27.777 -31.061  1.00  0.00     0.051 A 
ATOM     15  C   UNL     1      56.192 -28.673 -30.426  1.00  0.00     0.157 A 
ATOM     16  C   UNL     1      54.270 -29.963 -29.684  1.00  0.00     0.062 A 
ATOM     17  C   UNL     1      55.657 -29.783 -29.734  1.00  0.00     0.158 A 
BRANCH  15  18
ATOM     18  O   UNL     1      57.564 -28.423 -30.510  1.00  0.00    -0.504 OA
ATOM     19  H   UNL     1      58.273 -29.139 -30.447  1.00  0.00     0.293 HD
ENDBRANCH  15  18
BRANCH  17  20
ATOM     20  O   UNL     1      56.461 -30.727 -29.090  1.00  0.00    -0.504 OA
ATOM     21  H   UNL     1      57.446 -30.849 -29.273  1.00  0.00     0.293 HD
ENDBRANCH  17  20
ENDBRANCH   1  12
BRANCH   6  22
ATOM     22  O   UNL     1      46.902 -30.258 -29.503  1.00  0.00    -0.507 OA
ATOM     23  H   UNL     1      47.211 -30.734 -28.670  1.00  0.00     0.293 HD
ENDBRANCH   6  22
BRANCH   8  24
ATOM     24  O   UNL     1      47.097 -26.939 -32.967  1.00  0.00    -0.508 OA
ATOM     25  H   UNL     1      46.126 -26.683 -32.831  1.00  0.00     0.293 HD
ENDBRANCH   8  24
TORSDOF 5
ENDMDL
MODEL 8
REMARK VINA RESULT:    -5.777      3.142      6.051
REMARK INTER + INTRA:          -7.103
REMARK INTER:                  -6.792
REMARK INTRA:                  -0.312
REMARK UNBOUND:                -0.313
REMARK SMILES O=c1cc(-c2ccc(O)c(O)c2)oc2cc(O)cc(O)c12
REMARK SMILES IDX 4 1 3 2 2 3 1 4 21 5 19 6 18 7 16 8 15 9 14 10 13 11 5 12
REMARK SMILES IDX 6 13 7 14 8 15 12 16 10 17 9 18 11 20 20 22 17 24
REMARK H PARENT 9 19 11 21 20 23 17 25
REMARK Flexibility Score: inf
ROOT
ATOM      1  C   UNL     1      51.367 -28.648 -31.100  1.00  0.00     0.138 A 
ATOM      2  C   UNL     1      50.776 -28.078 -32.235  1.00  0.00     0.100 A 
ATOM      3  C   UNL     1      49.388 -28.117 -32.384  1.00  0.00     0.197 A 
ATOM      4  O   UNL     1      48.883 -27.548 -33.385  1.00  0.00    -0.289 OA
ATOM      5  C   UNL     1      48.594 -28.763 -31.405  1.00  0.00     0.107 A 
ATOM      6  C   UNL     1      47.173 -28.895 -31.468  1.00  0.00     0.134 A 
ATOM      7  C   UNL     1      46.486 -29.469 -30.391  1.00  0.00     0.093 A 
ATOM      8  C   UNL     1      47.172 -29.968 -29.282  1.00  0.00     0.123 A 
ATOM      9  C   UNL     1      48.562 -29.891 -29.234  1.00  0.00     0.094 A 
ATOM     10  C   UNL     1      49.274 -29.292 -30.276  1.00  0.00     0.146 A 
ATOM     11  O   UNL     1      50.597 -29.222 -30.181  1.00  0.00    -0.456 OA
ENDROOT
BRANCH   1  12
ATOM     12  C   UNL     1      52.839 -28.638 -30.893  1.00  0.00     0.021 A 
ATOM     13  C   UNL     1      53.624 -27.698 -31.578  1.00  0.00     0.016 A 
ATOM     14  C   UNL     1      55.009 -27.671 -31.407  1.00  0.00     0.051 A 
ATOM     15  C   UNL     1      55.642 -28.588 -30.560  1.00  0.00     0.157 A 
ATOM     16  C   UNL     1      53.476 -29.570 -30.052  1.00  0.00     0.062 A 
ATOM     17  C   UNL     1      54.865 -29.553 -29.879  1.00  0.00     0.158 A 
BRANCH  15  18
ATOM     18  O   UNL     1      57.030 -28.504 -30.429  1.00  0.00    -0.504 OA
ATOM     19  H   UNL     1      57.539 -28.809 -29.612  1.00  0.00     0.293 HD
ENDBRANCH  15  18
BRANCH  17  20
ATOM     20  O   UNL     1      55.427 -30.508 -29.029  1.00  0.00    -0.504 OA
ATOM     21  H   UNL     1      56.351 -30.435 -28.629  1.00  0.00     0.293 HD
ENDBRANCH  17  20
ENDBRANCH   1  12
BRANCH   6  22
ATOM     22  O   UNL     1      46.397 -28.503 -32.563  1.00  0.00    -0.507 OA
ATOM     23  H   UNL     1      46.348 -28.992 -33.443  1.00  0.00     0.293 HD
ENDBRANCH   6  22
BRANCH   8  24
ATOM     24  O   UNL     1      46.481 -30.552 -28.223  1.00  0.00    -0.508 OA
ATOM     25  H   UNL     1      46.539 -30.179 -27.282  1.00  0.00     0.293 HD
ENDBRANCH   8  24
TORSDOF 5
ENDMDL
MODEL 9
REMARK VINA RESULT:    -5.739     14.194     16.251
REMARK INTER + INTRA:          -7.058
REMARK INTER:                  -6.788
REMARK INTRA:                  -0.270
REMARK UNBOUND:                -0.313
REMARK SMILES O=c1cc(-c2ccc(O)c(O)c2)oc2cc(O)cc(O)c12
REMARK SMILES IDX 4 1 3 2 2 3 1 4 21 5 19 6 18 7 16 8 15 9 14 10 13 11 5 12
REMARK SMILES IDX 6 13 7 14 8 15 12 16 10 17 9 18 11 20 20 22 17 24
REMARK H PARENT 9 19 11 21 20 23 17 25
REMARK Flexibility Score: inf
ROOT
ATOM      1  C   UNL     1      55.133 -39.705 -24.205  1.00  0.00     0.138 A 
ATOM      2  C   UNL     1      55.378 -41.085 -24.232  1.00  0.00     0.100 A 
ATOM      3  C   UNL     1      55.942 -41.663 -25.370  1.00  0.00     0.197 A 
ATOM      4  O   UNL     1      56.201 -42.893 -25.344  1.00  0.00    -0.289 OA
ATOM      5  C   UNL     1      56.227 -40.858 -26.501  1.00  0.00     0.107 A 
ATOM      6  C   UNL     1      56.771 -41.344 -27.729  1.00  0.00     0.134 A 
ATOM      7  C   UNL     1      57.103 -40.436 -28.742  1.00  0.00     0.093 A 
ATOM      8  C   UNL     1      56.857 -39.069 -28.595  1.00  0.00     0.123 A 
ATOM      9  C   UNL     1      56.280 -38.592 -27.421  1.00  0.00     0.094 A 
ATOM     10  C   UNL     1      55.970 -39.467 -26.377  1.00  0.00     0.146 A 
ATOM     11  O   UNL     1      55.438 -38.967 -25.267  1.00  0.00    -0.456 OA
ENDROOT
BRANCH   1  12
ATOM     12  C   UNL     1      54.531 -39.039 -23.021  1.00  0.00     0.021 A 
ATOM     13  C   UNL     1      53.166 -39.219 -22.748  1.00  0.00     0.016 A 
ATOM     14  C   UNL     1      52.575 -38.599 -21.647  1.00  0.00     0.051 A 
ATOM     15  C   UNL     1      53.327 -37.777 -20.801  1.00  0.00     0.157 A 
ATOM     16  C   UNL     1      55.286 -38.201 -22.178  1.00  0.00     0.062 A 
ATOM     17  C   UNL     1      54.699 -37.571 -21.073  1.00  0.00     0.158 A 
BRANCH  15  18
ATOM     18  O   UNL     1      52.677 -37.192 -19.712  1.00  0.00    -0.504 OA
ATOM     19  H   UNL     1      53.036 -36.401 -19.198  1.00  0.00     0.293 HD
ENDBRANCH  15  18
BRANCH  17  20
ATOM     20  O   UNL     1      55.510 -36.754 -20.283  1.00  0.00    -0.504 OA
ATOM     21  H   UNL     1      55.198 -35.896 -19.852  1.00  0.00     0.293 HD
ENDBRANCH  17  20
ENDBRANCH   1  12
BRANCH   6  22
ATOM     22  O   UNL     1      56.982 -42.696 -28.012  1.00  0.00    -0.507 OA
ATOM     23  H   UNL     1      57.687 -43.054 -28.638  1.00  0.00     0.293 HD
ENDBRANCH   6  22
BRANCH   8  24
ATOM     24  O   UNL     1      57.176 -38.175 -29.615  1.00  0.00    -0.508 OA
ATOM     25  H   UNL     1      56.890 -37.203 -29.577  1.00  0.00     0.293 HD
ENDBRANCH   8  24
TORSDOF 5
ENDMDL
