MODEL 1
REMARK VINA RESULT:    -3.579      0.000      0.000
REMARK INTER + INTRA:          -7.432
REMARK INTER:                  -6.090
REMARK INTRA:                  -1.342
REMARK UNBOUND:                -1.342
REMARK SMILES CCCCCCCCCCCCCC(=O)[O-]
REMARK SMILES IDX 8 1 9 2 10 3 11 4 12 5 13 6 14 7 15 8 16 9 7 10 6 11 5 12
REMARK SMILES IDX 4 13 3 14 2 15 1 16
REMARK H PARENT
REMARK Flexibility Score: inf
ROOT
ATOM      1  C   UNL     1     -14.328 -16.154   3.215  1.00  0.00     0.000 C 
ENDROOT
BRANCH   1   2
ATOM      2  C   UNL     1     -14.270 -15.090   2.101  1.00  0.00     0.000 C 
BRANCH   2   3
ATOM      3  C   UNL     1     -12.854 -14.761   1.586  1.00  0.00     0.000 C 
BRANCH   3   4
ATOM      4  C   UNL     1     -12.448 -13.281   1.698  1.00  0.00     0.000 C 
BRANCH   4   5
ATOM      5  C   UNL     1     -13.373 -12.476   2.626  1.00  0.00     0.006 C 
BRANCH   5   6
ATOM      6  C   UNL     1     -12.626 -11.914   3.843  1.00  0.00     0.053 C 
BRANCH   6   7
ATOM      7  C   UNL     1     -13.360 -12.179   5.122  1.00  0.00     0.041 C 
ATOM      8  O   UNL     1     -12.756 -12.675   6.108  1.00  0.00    -0.550 OA
ATOM      9  O   UNL     1     -14.720 -11.906   5.213  1.00  0.00    -0.550 OA
ENDBRANCH   6   7
ENDBRANCH   5   6
ENDBRANCH   4   5
ENDBRANCH   3   4
ENDBRANCH   2   3
ENDBRANCH   1   2
BRANCH   1  10
ATOM     10  C   UNL     1     -14.253 -15.599   4.652  1.00  0.00     0.000 C 
BRANCH  10  11
ATOM     11  C   UNL     1     -15.236 -16.236   5.651  1.00  0.00    -0.000 C 
BRANCH  11  12
ATOM     12  C   UNL     1     -15.287 -17.770   5.542  1.00  0.00    -0.000 C 
BRANCH  12  13
ATOM     13  C   UNL     1     -14.266 -18.460   6.462  1.00  0.00    -0.000 C 
BRANCH  13  14
ATOM     14  C   UNL     1     -13.355 -19.439   5.701  1.00  0.00    -0.000 C 
BRANCH  14  15
ATOM     15  C   UNL     1     -12.103 -18.755   5.129  1.00  0.00    -0.003 C 
ATOM     16  C   UNL     1     -11.928 -18.998   3.630  1.00  0.00     0.004 C 
ENDBRANCH  14  15
ENDBRANCH  13  14
ENDBRANCH  12  13
ENDBRANCH  11  12
ENDBRANCH  10  11
ENDBRANCH   1  10
TORSDOF 12
ENDMDL
MODEL 2
REMARK VINA RESULT:    -3.535      1.524      3.019
REMARK INTER + INTRA:          -7.357
REMARK INTER:                  -5.699
REMARK INTRA:                  -1.658
REMARK UNBOUND:                -1.342
REMARK SMILES CCCCCCCCCCCCCC(=O)[O-]
REMARK SMILES IDX 8 1 9 2 10 3 11 4 12 5 13 6 14 7 15 8 16 9 7 10 6 11 5 12
REMARK SMILES IDX 4 13 3 14 2 15 1 16
REMARK H PARENT
REMARK Flexibility Score: inf
ROOT
ATOM      1  C   UNL     1     -13.382 -16.790   2.453  1.00  0.00     0.000 C 
ENDROOT
BRANCH   1   2
ATOM      2  C   UNL     1     -14.472 -15.971   3.174  1.00  0.00     0.000 C 
BRANCH   2   3
ATOM      3  C   UNL     1     -14.060 -15.406   4.548  1.00  0.00     0.000 C 
BRANCH   3   4
ATOM      4  C   UNL     1     -15.197 -14.745   5.348  1.00  0.00     0.000 C 
BRANCH   4   5
ATOM      5  C   UNL     1     -14.987 -13.235   5.549  1.00  0.00     0.006 C 
BRANCH   5   6
ATOM      6  C   UNL     1     -13.500 -12.857   5.586  1.00  0.00     0.053 C 
BRANCH   6   7
ATOM      7  C   UNL     1     -13.175 -11.771   4.606  1.00  0.00     0.041 C 
ATOM      8  O   UNL     1     -12.308 -11.962   3.713  1.00  0.00    -0.550 OA
ATOM      9  O   UNL     1     -13.808 -10.538   4.699  1.00  0.00    -0.550 OA
ENDBRANCH   6   7
ENDBRANCH   5   6
ENDBRANCH   4   5
ENDBRANCH   3   4
ENDBRANCH   2   3
ENDBRANCH   1   2
BRANCH   1  10
ATOM     10  C   UNL     1     -13.766 -18.247   2.132  1.00  0.00     0.000 C 
BRANCH  10  11
ATOM     11  C   UNL     1     -13.219 -19.300   3.114  1.00  0.00    -0.000 C 
BRANCH  11  12
ATOM     12  C   UNL     1     -11.974 -18.813   3.876  1.00  0.00    -0.000 C 
BRANCH  12  13
ATOM     13  C   UNL     1     -12.198 -18.758   5.397  1.00  0.00    -0.000 C 
BRANCH  13  14
ATOM     14  C   UNL     1     -13.507 -19.443   5.825  1.00  0.00    -0.000 C 
BRANCH  14  15
ATOM     15  C   UNL     1     -14.483 -18.474   6.510  1.00  0.00    -0.003 C 
ATOM     16  C   UNL     1     -15.847 -18.419   5.821  1.00  0.00     0.004 C 
ENDBRANCH  14  15
ENDBRANCH  13  14
ENDBRANCH  12  13
ENDBRANCH  11  12
ENDBRANCH  10  11
ENDBRANCH   1  10
TORSDOF 12
ENDMDL
MODEL 3
REMARK VINA RESULT:    -3.529      2.488      6.235
REMARK INTER + INTRA:          -7.347
REMARK INTER:                  -5.918
REMARK INTRA:                  -1.429
REMARK UNBOUND:                -1.342
REMARK SMILES CCCCCCCCCCCCCC(=O)[O-]
REMARK SMILES IDX 8 1 9 2 10 3 11 4 12 5 13 6 14 7 15 8 16 9 7 10 6 11 5 12
REMARK SMILES IDX 4 13 3 14 2 15 1 16
REMARK H PARENT
REMARK Flexibility Score: inf
ROOT
ATOM      1  C   UNL     1     -13.869 -15.688   3.500  1.00  0.00     0.000 C 
ENDROOT
BRANCH   1   2
ATOM      2  C   UNL     1     -15.145 -16.256   4.154  1.00  0.00     0.000 C 
BRANCH   2   3
ATOM      3  C   UNL     1     -15.102 -16.350   5.693  1.00  0.00     0.000 C 
BRANCH   3   4
ATOM      4  C   UNL     1     -15.162 -17.780   6.260  1.00  0.00     0.000 C 
BRANCH   4   5
ATOM      5  C   UNL     1     -14.562 -18.826   5.306  1.00  0.00     0.006 C 
BRANCH   5   6
ATOM      6  C   UNL     1     -13.151 -19.256   5.731  1.00  0.00     0.053 C 
BRANCH   6   7
ATOM      7  C   UNL     1     -12.110 -18.800   4.755  1.00  0.00     0.041 C 
ATOM      8  O   UNL     1     -12.333 -18.857   3.518  1.00  0.00    -0.550 OA
ATOM      9  O   UNL     1     -10.881 -18.342   5.213  1.00  0.00    -0.550 OA
ENDBRANCH   6   7
ENDBRANCH   5   6
ENDBRANCH   4   5
ENDBRANCH   3   4
ENDBRANCH   2   3
ENDBRANCH   1   2
BRANCH   1  10
ATOM     10  C   UNL     1     -14.111 -14.777   2.280  1.00  0.00     0.000 C 
BRANCH  10  11
ATOM     11  C   UNL     1     -12.842 -14.358   1.515  1.00  0.00    -0.000 C 
BRANCH  11  12
ATOM     12  C   UNL     1     -12.224 -13.056   2.052  1.00  0.00    -0.000 C 
BRANCH  12  13
ATOM     13  C   UNL     1     -13.262 -12.146   2.730  1.00  0.00    -0.000 C 
BRANCH  13  14
ATOM     14  C   UNL     1     -12.745 -11.539   4.045  1.00  0.00    -0.000 C 
BRANCH  14  15
ATOM     15  C   UNL     1     -13.049 -12.426   5.263  1.00  0.00    -0.003 C 
ATOM     16  C   UNL     1     -14.548 -12.614   5.500  1.00  0.00     0.004 C 
ENDBRANCH  14  15
ENDBRANCH  13  14
ENDBRANCH  12  13
ENDBRANCH  11  12
ENDBRANCH  10  11
ENDBRANCH   1  10
TORSDOF 12
ENDMDL
MODEL 4
REMARK VINA RESULT:    -3.511      2.576      5.993
REMARK INTER + INTRA:          -7.317
REMARK INTER:                  -5.880
REMARK INTRA:                  -1.437
REMARK UNBOUND:                -1.342
REMARK SMILES CCCCCCCCCCCCCC(=O)[O-]
REMARK SMILES IDX 8 1 9 2 10 3 11 4 12 5 13 6 14 7 15 8 16 9 7 10 6 11 5 12
REMARK SMILES IDX 4 13 3 14 2 15 1 16
REMARK H PARENT
REMARK Flexibility Score: inf
ROOT
ATOM      1  C   UNL     1     -15.320 -13.935   5.514  1.00  0.00     0.000 C 
ENDROOT
BRANCH   1   2
ATOM      2  C   UNL     1     -15.216 -14.765   4.219  1.00  0.00     0.000 C 
BRANCH   2   3
ATOM      3  C   UNL     1     -14.281 -15.989   4.303  1.00  0.00     0.000 C 
BRANCH   3   4
ATOM      4  C   UNL     1     -14.619 -16.992   5.420  1.00  0.00     0.000 C 
BRANCH   4   5
ATOM      5  C   UNL     1     -14.361 -18.451   5.011  1.00  0.00     0.006 C 
BRANCH   5   6
ATOM      6  C   UNL     1     -13.079 -19.011   5.642  1.00  0.00     0.053 C 
BRANCH   6   7
ATOM      7  C   UNL     1     -11.880 -18.773   4.775  1.00  0.00     0.041 C 
ATOM      8  O   UNL     1     -10.804 -18.360   5.282  1.00  0.00    -0.550 OA
ATOM      9  O   UNL     1     -11.961 -18.980   3.404  1.00  0.00    -0.550 OA
ENDBRANCH   6   7
ENDBRANCH   5   6
ENDBRANCH   4   5
ENDBRANCH   3   4
ENDBRANCH   2   3
ENDBRANCH   1   2
BRANCH   1  10
ATOM     10  C   UNL     1     -14.698 -12.526   5.438  1.00  0.00     0.000 C 
BRANCH  10  11
ATOM     11  C   UNL     1     -13.160 -12.493   5.381  1.00  0.00    -0.000 C 
BRANCH  11  12
ATOM     12  C   UNL     1     -12.626 -11.743   4.148  1.00  0.00    -0.000 C 
BRANCH  12  13
ATOM     13  C   UNL     1     -13.737 -11.388   3.146  1.00  0.00    -0.000 C 
BRANCH  13  14
ATOM     14  C   UNL     1     -13.558 -12.095   1.792  1.00  0.00    -0.000 C 
BRANCH  14  15
ATOM     15  C   UNL     1     -12.355 -13.052   1.783  1.00  0.00    -0.003 C 
ATOM     16  C   UNL     1     -12.718 -14.456   1.297  1.00  0.00     0.004 C 
ENDBRANCH  14  15
ENDBRANCH  13  14
ENDBRANCH  12  13
ENDBRANCH  11  12
ENDBRANCH  10  11
ENDBRANCH   1  10
TORSDOF 12
ENDMDL
MODEL 5
REMARK VINA RESULT:    -3.442      2.726      5.979
REMARK INTER + INTRA:          -7.198
REMARK INTER:                  -5.667
REMARK INTRA:                  -1.531
REMARK UNBOUND:                -1.342
REMARK SMILES CCCCCCCCCCCCCC(=O)[O-]
REMARK SMILES IDX 8 1 9 2 10 3 11 4 12 5 13 6 14 7 15 8 16 9 7 10 6 11 5 12
REMARK SMILES IDX 4 13 3 14 2 15 1 16
REMARK H PARENT
REMARK Flexibility Score: inf
ROOT
ATOM      1  C   UNL     1     -14.259 -15.266   4.799  1.00  0.00     0.000 C 
ENDROOT
BRANCH   1   2
ATOM      2  C   UNL     1     -14.445 -15.706   3.334  1.00  0.00     0.000 C 
BRANCH   2   3
ATOM      3  C   UNL     1     -13.318 -16.597   2.773  1.00  0.00     0.000 C 
BRANCH   3   4
ATOM      4  C   UNL     1     -13.540 -18.111   2.940  1.00  0.00     0.000 C 
BRANCH   4   5
ATOM      5  C   UNL     1     -12.328 -18.827   3.561  1.00  0.00     0.006 C 
BRANCH   5   6
ATOM      6  C   UNL     1     -12.237 -18.602   5.076  1.00  0.00     0.053 C 
BRANCH   6   7
ATOM      7  C   UNL     1     -13.370 -19.254   5.807  1.00  0.00     0.041 C 
ATOM      8  O   UNL     1     -14.097 -18.578   6.582  1.00  0.00    -0.550 OA
ATOM      9  O   UNL     1     -13.604 -20.616   5.656  1.00  0.00    -0.550 OA
ENDBRANCH   6   7
ENDBRANCH   5   6
ENDBRANCH   4   5
ENDBRANCH   3   4
ENDBRANCH   2   3
ENDBRANCH   1   2
BRANCH   1  10
ATOM     10  C   UNL     1     -15.283 -14.231   5.305  1.00  0.00     0.000 C 
BRANCH  10  11
ATOM     11  C   UNL     1     -14.692 -12.865   5.702  1.00  0.00    -0.000 C 
BRANCH  11  12
ATOM     12  C   UNL     1     -13.176 -12.777   5.455  1.00  0.00    -0.000 C 
BRANCH  12  13
ATOM     13  C   UNL     1     -12.816 -11.760   4.359  1.00  0.00    -0.000 C 
BRANCH  13  14
ATOM     14  C   UNL     1     -12.660 -12.414   2.976  1.00  0.00    -0.000 C 
BRANCH  14  15
ATOM     15  C   UNL     1     -13.904 -12.228   2.093  1.00  0.00    -0.003 C 
ATOM     16  C   UNL     1     -14.644 -10.921   2.379  1.00  0.00     0.004 C 
ENDBRANCH  14  15
ENDBRANCH  13  14
ENDBRANCH  12  13
ENDBRANCH  11  12
ENDBRANCH  10  11
ENDBRANCH   1  10
TORSDOF 12
ENDMDL
MODEL 6
REMARK VINA RESULT:    -3.393      1.899      2.675
REMARK INTER + INTRA:          -7.115
REMARK INTER:                  -5.888
REMARK INTRA:                  -1.228
REMARK UNBOUND:                -1.342
REMARK SMILES CCCCCCCCCCCCCC(=O)[O-]
REMARK SMILES IDX 8 1 9 2 10 3 11 4 12 5 13 6 14 7 15 8 16 9 7 10 6 11 5 12
REMARK SMILES IDX 4 13 3 14 2 15 1 16
REMARK H PARENT
REMARK Flexibility Score: inf
ROOT
ATOM      1  C   UNL     1     -14.448 -14.881   4.717  1.00  0.00     0.000 C 
ENDROOT
BRANCH   1   2
ATOM      2  C   UNL     1     -15.247 -13.779   5.441  1.00  0.00     0.000 C 
BRANCH   2   3
ATOM      3  C   UNL     1     -14.547 -12.406   5.511  1.00  0.00     0.000 C 
BRANCH   3   4
ATOM      4  C   UNL     1     -13.042 -12.425   5.191  1.00  0.00     0.000 C 
BRANCH   4   5
ATOM      5  C   UNL     1     -12.670 -11.510   4.012  1.00  0.00     0.006 C 
BRANCH   5   6
ATOM      6  C   UNL     1     -13.575 -11.738   2.795  1.00  0.00     0.053 C 
BRANCH   6   7
ATOM      7  C   UNL     1     -13.092 -12.872   1.943  1.00  0.00     0.041 C 
ATOM      8  O   UNL     1     -11.858 -13.086   1.814  1.00  0.00    -0.550 OA
ATOM      9  O   UNL     1     -14.005 -13.672   1.267  1.00  0.00    -0.550 OA
ENDBRANCH   6   7
ENDBRANCH   5   6
ENDBRANCH   4   5
ENDBRANCH   3   4
ENDBRANCH   2   3
ENDBRANCH   1   2
BRANCH   1  10
ATOM     10  C   UNL     1     -15.057 -16.295   4.808  1.00  0.00     0.000 C 
BRANCH  10  11
ATOM     11  C   UNL     1     -15.634 -16.671   6.185  1.00  0.00    -0.000 C 
BRANCH  11  12
ATOM     12  C   UNL     1     -15.153 -18.047   6.677  1.00  0.00    -0.000 C 
BRANCH  12  13
ATOM     13  C   UNL     1     -14.587 -18.915   5.541  1.00  0.00    -0.000 C 
BRANCH  13  14
ATOM     14  C   UNL     1     -13.143 -19.372   5.812  1.00  0.00    -0.000 C 
BRANCH  14  15
ATOM     15  C   UNL     1     -12.116 -18.619   4.951  1.00  0.00    -0.003 C 
ATOM     16  C   UNL     1     -12.517 -18.544   3.478  1.00  0.00     0.004 C 
ENDBRANCH  14  15
ENDBRANCH  13  14
ENDBRANCH  12  13
ENDBRANCH  11  12
ENDBRANCH  10  11
ENDBRANCH   1  10
TORSDOF 12
ENDMDL
MODEL 7
REMARK VINA RESULT:    -3.346      2.637      5.881
REMARK INTER + INTRA:          -7.035
REMARK INTER:                  -5.754
REMARK INTRA:                  -1.282
REMARK UNBOUND:                -1.342
REMARK SMILES CCCCCCCCCCCCCC(=O)[O-]
REMARK SMILES IDX 8 1 9 2 10 3 11 4 12 5 13 6 14 7 15 8 16 9 7 10 6 11 5 12
REMARK SMILES IDX 4 13 3 14 2 15 1 16
REMARK H PARENT
REMARK Flexibility Score: inf
ROOT
ATOM      1  C   UNL     1     -12.555 -14.680   1.298  1.00  0.00     0.000 C 
ENDROOT
BRANCH   1   2
ATOM      2  C   UNL     1     -13.783 -15.228   2.052  1.00  0.00     0.000 C 
BRANCH   2   3
ATOM      3  C   UNL     1     -13.483 -16.371   3.043  1.00  0.00     0.000 C 
BRANCH   3   4
ATOM      4  C   UNL     1     -13.255 -17.750   2.397  1.00  0.00     0.000 C 
BRANCH   4   5
ATOM      5  C   UNL     1     -12.588 -18.754   3.351  1.00  0.00     0.006 C 
BRANCH   5   6
ATOM      6  C   UNL     1     -12.532 -18.233   4.793  1.00  0.00     0.053 C 
BRANCH   6   7
ATOM      7  C   UNL     1     -13.407 -19.032   5.711  1.00  0.00     0.041 C 
ATOM      8  O   UNL     1     -13.387 -20.290   5.668  1.00  0.00    -0.550 OA
ATOM      9  O   UNL     1     -14.265 -18.387   6.592  1.00  0.00    -0.550 OA
ENDBRANCH   6   7
ENDBRANCH   5   6
ENDBRANCH   4   5
ENDBRANCH   3   4
ENDBRANCH   2   3
ENDBRANCH   1   2
BRANCH   1  10
ATOM     10  C   UNL     1     -12.237 -13.195   1.559  1.00  0.00     0.000 C 
BRANCH  10  11
ATOM     11  C   UNL     1     -13.454 -12.252   1.537  1.00  0.00    -0.000 C 
BRANCH  11  12
ATOM     12  C   UNL     1     -13.674 -11.530   2.878  1.00  0.00    -0.000 C 
BRANCH  12  13
ATOM     13  C   UNL     1     -12.590 -11.868   3.914  1.00  0.00    -0.000 C 
BRANCH  13  14
ATOM     14  C   UNL     1     -13.179 -12.218   5.291  1.00  0.00    -0.000 C 
BRANCH  14  15
ATOM     15  C   UNL     1     -13.921 -13.564   5.289  1.00  0.00    -0.003 C 
ATOM     16  C   UNL     1     -15.418 -13.417   5.558  1.00  0.00     0.004 C 
ENDBRANCH  14  15
ENDBRANCH  13  14
ENDBRANCH  12  13
ENDBRANCH  11  12
ENDBRANCH  10  11
ENDBRANCH   1  10
TORSDOF 12
ENDMDL
MODEL 8
REMARK VINA RESULT:    -3.326      1.786      2.460
REMARK INTER + INTRA:          -7.001
REMARK INTER:                  -6.034
REMARK INTRA:                  -0.967
REMARK UNBOUND:                -1.342
REMARK SMILES CCCCCCCCCCCCCC(=O)[O-]
REMARK SMILES IDX 8 1 9 2 10 3 11 4 12 5 13 6 14 7 15 8 16 9 7 10 6 11 5 12
REMARK SMILES IDX 4 13 3 14 2 15 1 16
REMARK H PARENT
REMARK Flexibility Score: inf
ROOT
ATOM      1  C   UNL     1     -14.507 -16.071   4.503  1.00  0.00     0.000 C 
ENDROOT
BRANCH   1   2
ATOM      2  C   UNL     1     -14.203 -14.595   4.174  1.00  0.00     0.000 C 
BRANCH   2   3
ATOM      3  C   UNL     1     -14.428 -13.608   5.337  1.00  0.00     0.000 C 
BRANCH   3   4
ATOM      4  C   UNL     1     -13.262 -12.640   5.606  1.00  0.00     0.000 C 
BRANCH   4   5
ATOM      5  C   UNL     1     -12.801 -11.896   4.342  1.00  0.00     0.006 C 
BRANCH   5   6
ATOM      6  C   UNL     1     -13.932 -11.077   3.707  1.00  0.00     0.053 C 
BRANCH   6   7
ATOM      7  C   UNL     1     -14.282  -9.875   4.530  1.00  0.00     0.041 C 
ATOM      8  O   UNL     1     -15.356  -9.847   5.187  1.00  0.00    -0.550 OA
ATOM      9  O   UNL     1     -13.437  -8.773   4.546  1.00  0.00    -0.550 OA
ENDBRANCH   6   7
ENDBRANCH   5   6
ENDBRANCH   4   5
ENDBRANCH   3   4
ENDBRANCH   2   3
ENDBRANCH   1   2
BRANCH   1  10
ATOM     10  C   UNL     1     -15.390 -16.293   5.746  1.00  0.00     0.000 C 
BRANCH  10  11
ATOM     11  C   UNL     1     -15.155 -17.623   6.486  1.00  0.00    -0.000 C 
BRANCH  11  12
ATOM     12  C   UNL     1     -14.641 -18.739   5.558  1.00  0.00    -0.000 C 
BRANCH  12  13
ATOM     13  C   UNL     1     -13.237 -19.230   5.950  1.00  0.00    -0.000 C 
BRANCH  13  14
ATOM     14  C   UNL     1     -12.154 -18.768   4.960  1.00  0.00    -0.000 C 
BRANCH  14  15
ATOM     15  C   UNL     1     -12.292 -19.436   3.583  1.00  0.00    -0.003 C 
ATOM     16  C   UNL     1     -12.565 -18.434   2.462  1.00  0.00     0.004 C 
ENDBRANCH  14  15
ENDBRANCH  13  14
ENDBRANCH  12  13
ENDBRANCH  11  12
ENDBRANCH  10  11
ENDBRANCH   1  10
TORSDOF 12
ENDMDL
MODEL 9
REMARK VINA RESULT:    -3.303      2.845      6.194
REMARK INTER + INTRA:          -6.962
REMARK INTER:                  -5.762
REMARK INTRA:                  -1.201
REMARK UNBOUND:                -1.342
REMARK SMILES CCCCCCCCCCCCCC(=O)[O-]
REMARK SMILES IDX 8 1 9 2 10 3 11 4 12 5 13 6 14 7 15 8 16 9 7 10 6 11 5 12
REMARK SMILES IDX 4 13 3 14 2 15 1 16
REMARK H PARENT
REMARK Flexibility Score: inf
ROOT
ATOM      1  C   UNL     1     -15.399 -17.740   5.503  1.00  0.00     0.000 C 
ENDROOT
BRANCH   1   2
ATOM      2  C   UNL     1     -14.459 -18.507   6.455  1.00  0.00     0.000 C 
BRANCH   2   3
ATOM      3  C   UNL     1     -13.437 -19.429   5.759  1.00  0.00     0.000 C 
BRANCH   3   4
ATOM      4  C   UNL     1     -12.135 -18.738   5.313  1.00  0.00     0.000 C 
BRANCH   4   5
ATOM      5  C   UNL     1     -11.865 -18.888   3.807  1.00  0.00     0.006 C 
BRANCH   5   6
ATOM      6  C   UNL     1     -13.040 -19.543   3.071  1.00  0.00     0.053 C 
BRANCH   6   7
ATOM      7  C   UNL     1     -13.481 -18.734   1.889  1.00  0.00     0.041 C 
ATOM      8  O   UNL     1     -12.819 -17.726   1.529  1.00  0.00    -0.550 OA
ATOM      9  O   UNL     1     -14.640 -19.077   1.204  1.00  0.00    -0.550 OA
ENDBRANCH   6   7
ENDBRANCH   5   6
ENDBRANCH   4   5
ENDBRANCH   3   4
ENDBRANCH   2   3
ENDBRANCH   1   2
BRANCH   1  10
ATOM     10  C   UNL     1     -15.118 -16.229   5.386  1.00  0.00     0.000 C 
BRANCH  10  11
ATOM     11  C   UNL     1     -14.237 -15.819   4.192  1.00  0.00    -0.000 C 
BRANCH  11  12
ATOM     12  C   UNL     1     -14.118 -14.292   4.036  1.00  0.00    -0.000 C 
BRANCH  12  13
ATOM     13  C   UNL     1     -14.160 -13.557   5.385  1.00  0.00    -0.000 C 
BRANCH  13  14
ATOM     14  C   UNL     1     -13.149 -12.400   5.458  1.00  0.00    -0.000 C 
BRANCH  14  15
ATOM     15  C   UNL     1     -12.782 -11.851   4.070  1.00  0.00    -0.003 C 
ATOM     16  C   UNL     1     -13.162 -10.381   3.895  1.00  0.00     0.004 C 
ENDBRANCH  14  15
ENDBRANCH  13  14
ENDBRANCH  12  13
ENDBRANCH  11  12
ENDBRANCH  10  11
ENDBRANCH   1  10
TORSDOF 12
ENDMDL
