MODEL 1
REMARK VINA RESULT:    -5.232      0.000      0.000
REMARK INTER + INTRA:          -5.636
REMARK INTER:                  -5.538
REMARK INTRA:                  -0.098
REMARK UNBOUND:                -0.098
REMARK SMILES C=C(C)[C@@H]1CC=C(C)C(=O)C1
REMARK SMILES IDX 8 1 7 2 6 3 5 4 4 5 11 6 9 7 10 8 2 9 1 10 3 11
REMARK H PARENT
REMARK Flexibility Score: inf
ROOT
ATOM      1  C   UNL     1     -16.438   6.558  27.975  1.00  0.00     0.048 C 
ATOM      2  C   UNL     1     -15.161   6.329  27.216  1.00  0.00    -0.012 C 
ATOM      3  C   UNL     1     -14.408   5.248  27.483  1.00  0.00    -0.019 C 
ATOM      4  C   UNL     1     -13.130   4.961  26.741  1.00  0.00     0.036 C 
ATOM      5  C   UNL     1     -12.422   6.266  26.334  1.00  0.00     0.025 C 
ATOM      6  C   UNL     1     -13.376   7.163  25.526  1.00  0.00     0.089 C 
ATOM      7  C   UNL     1     -14.672   7.358  26.264  1.00  0.00     0.158 C 
ATOM      8  O   UNL     1     -15.359   8.390  26.039  1.00  0.00    -0.295 OA
ENDROOT
BRANCH   5   9
ATOM      9  C   UNL     1     -11.137   5.986  25.565  1.00  0.00    -0.077 C 
ATOM     10  C   UNL     1     -10.790   6.767  24.529  1.00  0.00     0.008 C 
ATOM     11  C   UNL     1     -10.230   4.840  25.938  1.00  0.00     0.039 C 
ENDBRANCH   5   9
TORSDOF 1
ENDMDL
MODEL 2
REMARK VINA RESULT:    -5.114      1.914      4.439
REMARK INTER + INTRA:          -5.511
REMARK INTER:                  -5.419
REMARK INTRA:                  -0.092
REMARK UNBOUND:                -0.098
REMARK SMILES C=C(C)[C@@H]1CC=C(C)C(=O)C1
REMARK SMILES IDX 8 1 7 2 6 3 5 4 4 5 11 6 9 7 10 8 2 9 1 10 3 11
REMARK H PARENT
REMARK Flexibility Score: inf
ROOT
ATOM      1  C   UNL     1      -9.743   4.599  25.253  1.00  0.00     0.048 C 
ATOM      2  C   UNL     1     -10.916   5.463  25.629  1.00  0.00    -0.012 C 
ATOM      3  C   UNL     1     -11.754   5.065  26.601  1.00  0.00    -0.019 C 
ATOM      4  C   UNL     1     -12.933   5.899  27.030  1.00  0.00     0.036 C 
ATOM      5  C   UNL     1     -13.508   6.695  25.844  1.00  0.00     0.025 C 
ATOM      6  C   UNL     1     -12.406   7.541  25.182  1.00  0.00     0.089 C 
ATOM      7  C   UNL     1     -11.214   6.687  24.844  1.00  0.00     0.158 C 
ATOM      8  O   UNL     1     -10.449   7.043  23.909  1.00  0.00    -0.295 OA
ENDROOT
BRANCH   5   9
ATOM      9  C   UNL     1     -14.689   7.556  26.272  1.00  0.00    -0.077 C 
ATOM     10  C   UNL     1     -15.830   6.979  26.682  1.00  0.00     0.008 C 
ATOM     11  C   UNL     1     -14.613   9.063  26.246  1.00  0.00     0.039 C 
ENDBRANCH   5   9
TORSDOF 1
ENDMDL
MODEL 3
REMARK VINA RESULT:    -5.001      1.730      4.272
REMARK INTER + INTRA:          -5.392
REMARK INTER:                  -5.293
REMARK INTRA:                  -0.099
REMARK UNBOUND:                -0.098
REMARK SMILES C=C(C)[C@@H]1CC=C(C)C(=O)C1
REMARK SMILES IDX 8 1 7 2 6 3 5 4 4 5 11 6 9 7 10 8 2 9 1 10 3 11
REMARK H PARENT
REMARK Flexibility Score: inf
ROOT
ATOM      1  C   UNL     1      -9.967   4.677  25.579  1.00  0.00     0.048 C 
ATOM      2  C   UNL     1     -11.255   5.372  25.924  1.00  0.00    -0.012 C 
ATOM      3  C   UNL     1     -12.093   4.822  26.820  1.00  0.00    -0.019 C 
ATOM      4  C   UNL     1     -13.386   5.483  27.215  1.00  0.00     0.036 C 
ATOM      5  C   UNL     1     -13.987   6.272  26.038  1.00  0.00     0.025 C 
ATOM      6  C   UNL     1     -12.960   7.281  25.491  1.00  0.00     0.089 C 
ATOM      7  C   UNL     1     -11.656   6.596  25.186  1.00  0.00     0.158 C 
ATOM      8  O   UNL     1     -10.888   7.094  24.320  1.00  0.00    -0.295 OA
ENDROOT
BRANCH   5   9
ATOM      9  C   UNL     1     -15.286   6.962  26.434  1.00  0.00    -0.077 C 
ATOM     10  C   UNL     1     -15.468   8.263  26.159  1.00  0.00     0.008 C 
ATOM     11  C   UNL     1     -16.391   6.213  27.138  1.00  0.00     0.039 C 
ENDBRANCH   5   9
TORSDOF 1
ENDMDL
MODEL 4
REMARK VINA RESULT:    -4.920      1.902      4.654
REMARK INTER + INTRA:          -5.306
REMARK INTER:                  -5.208
REMARK INTRA:                  -0.098
REMARK UNBOUND:                -0.098
REMARK SMILES C=C(C)[C@@H]1CC=C(C)C(=O)C1
REMARK SMILES IDX 8 1 7 2 6 3 5 4 4 5 11 6 9 7 10 8 2 9 1 10 3 11
REMARK H PARENT
REMARK Flexibility Score: inf
ROOT
ATOM      1  C   UNL     1     -10.504   4.892  25.997  1.00  0.00     0.048 C 
ATOM      2  C   UNL     1     -11.879   5.500  25.988  1.00  0.00    -0.012 C 
ATOM      3  C   UNL     1     -12.056   6.748  25.519  1.00  0.00    -0.019 C 
ATOM      4  C   UNL     1     -13.413   7.397  25.469  1.00  0.00     0.036 C 
ATOM      5  C   UNL     1     -14.298   6.920  26.634  1.00  0.00     0.025 C 
ATOM      6  C   UNL     1     -14.389   5.383  26.642  1.00  0.00     0.089 C 
ATOM      7  C   UNL     1     -13.014   4.772  26.608  1.00  0.00     0.158 C 
ATOM      8  O   UNL     1     -12.843   3.617  27.081  1.00  0.00    -0.295 OA
ENDROOT
BRANCH   5   9
ATOM      9  C   UNL     1     -15.680   7.557  26.582  1.00  0.00    -0.077 C 
ATOM     10  C   UNL     1     -16.742   6.904  27.081  1.00  0.00     0.008 C 
ATOM     11  C   UNL     1     -15.895   8.921  25.975  1.00  0.00     0.039 C 
ENDBRANCH   5   9
TORSDOF 1
ENDMDL
MODEL 5
REMARK VINA RESULT:    -4.914      1.373      2.029
REMARK INTER + INTRA:          -5.300
REMARK INTER:                  -5.203
REMARK INTRA:                  -0.097
REMARK UNBOUND:                -0.098
REMARK SMILES C=C(C)[C@@H]1CC=C(C)C(=O)C1
REMARK SMILES IDX 8 1 7 2 6 3 5 4 4 5 11 6 9 7 10 8 2 9 1 10 3 11
REMARK H PARENT
REMARK Flexibility Score: inf
ROOT
ATOM      1  C   UNL     1     -16.722   6.830  27.426  1.00  0.00     0.048 C 
ATOM      2  C   UNL     1     -15.273   6.726  27.040  1.00  0.00    -0.012 C 
ATOM      3  C   UNL     1     -14.768   7.551  26.107  1.00  0.00    -0.019 C 
ATOM      4  C   UNL     1     -13.320   7.502  25.696  1.00  0.00     0.036 C 
ATOM      5  C   UNL     1     -12.769   6.067  25.782  1.00  0.00     0.025 C 
ATOM      6  C   UNL     1     -12.994   5.491  27.191  1.00  0.00     0.089 C 
ATOM      7  C   UNL     1     -14.436   5.634  27.597  1.00  0.00     0.158 C 
ATOM      8  O   UNL     1     -14.918   4.836  28.446  1.00  0.00    -0.295 OA
ENDROOT
BRANCH   5   9
ATOM      9  C   UNL     1     -11.299   6.010  25.387  1.00  0.00    -0.077 C 
ATOM     10  C   UNL     1     -10.812   6.873  24.480  1.00  0.00     0.008 C 
ATOM     11  C   UNL     1     -10.361   4.996  25.992  1.00  0.00     0.039 C 
ENDBRANCH   5   9
TORSDOF 1
ENDMDL
MODEL 6
REMARK VINA RESULT:    -4.753      2.074      4.665
REMARK INTER + INTRA:          -5.129
REMARK INTER:                  -5.031
REMARK INTRA:                  -0.098
REMARK UNBOUND:                -0.098
REMARK SMILES C=C(C)[C@@H]1CC=C(C)C(=O)C1
REMARK SMILES IDX 8 1 7 2 6 3 5 4 4 5 11 6 9 7 10 8 2 9 1 10 3 11
REMARK H PARENT
REMARK Flexibility Score: inf
ROOT
ATOM      1  C   UNL     1     -10.572   7.160  24.052  1.00  0.00     0.048 C 
ATOM      2  C   UNL     1     -11.647   6.594  24.937  1.00  0.00    -0.012 C 
ATOM      3  C   UNL     1     -12.849   7.192  24.996  1.00  0.00    -0.019 C 
ATOM      4  C   UNL     1     -13.967   6.657  25.852  1.00  0.00     0.036 C 
ATOM      5  C   UNL     1     -13.417   5.987  27.124  1.00  0.00     0.025 C 
ATOM      6  C   UNL     1     -12.393   4.898  26.756  1.00  0.00     0.089 C 
ATOM      7  C   UNL     1     -11.340   5.452  25.835  1.00  0.00     0.158 C 
ATOM      8  O   UNL     1     -10.202   4.912  25.807  1.00  0.00    -0.295 OA
ENDROOT
BRANCH   5   9
ATOM      9  C   UNL     1     -14.539   5.425  27.987  1.00  0.00    -0.077 C 
ATOM     10  C   UNL     1     -14.364   4.272  28.653  1.00  0.00     0.008 C 
ATOM     11  C   UNL     1     -15.864   6.136  28.117  1.00  0.00     0.039 C 
ENDBRANCH   5   9
TORSDOF 1
ENDMDL
MODEL 7
REMARK VINA RESULT:    -4.599      0.925      1.427
REMARK INTER + INTRA:          -4.966
REMARK INTER:                  -4.873
REMARK INTRA:                  -0.093
REMARK UNBOUND:                -0.098
REMARK SMILES C=C(C)[C@@H]1CC=C(C)C(=O)C1
REMARK SMILES IDX 8 1 7 2 6 3 5 4 4 5 11 6 9 7 10 8 2 9 1 10 3 11
REMARK H PARENT
REMARK Flexibility Score: inf
ROOT
ATOM      1  C   UNL     1     -16.949   7.664  27.869  1.00  0.00     0.048 C 
ATOM      2  C   UNL     1     -15.678   7.289  27.158  1.00  0.00    -0.012 C 
ATOM      3  C   UNL     1     -15.239   6.019  27.198  1.00  0.00    -0.019 C 
ATOM      4  C   UNL     1     -13.984   5.586  26.489  1.00  0.00     0.036 C 
ATOM      5  C   UNL     1     -12.944   6.721  26.459  1.00  0.00     0.025 C 
ATOM      6  C   UNL     1     -13.555   7.990  25.838  1.00  0.00     0.089 C 
ATOM      7  C   UNL     1     -14.849   8.343  26.520  1.00  0.00     0.158 C 
ATOM      8  O   UNL     1     -15.242   9.540  26.512  1.00  0.00    -0.295 OA
ENDROOT
BRANCH   5   9
ATOM      9  C   UNL     1     -11.678   6.298  25.727  1.00  0.00    -0.077 C 
ATOM     10  C   UNL     1     -10.972   5.240  26.158  1.00  0.00     0.008 C 
ATOM     11  C   UNL     1     -11.185   7.045  24.512  1.00  0.00     0.039 C 
ENDBRANCH   5   9
TORSDOF 1
ENDMDL
MODEL 8
REMARK VINA RESULT:    -4.453      1.450      1.670
REMARK INTER + INTRA:          -4.812
REMARK INTER:                  -4.714
REMARK INTRA:                  -0.098
REMARK UNBOUND:                -0.098
REMARK SMILES C=C(C)[C@@H]1CC=C(C)C(=O)C1
REMARK SMILES IDX 8 1 7 2 6 3 5 4 4 5 11 6 9 7 10 8 2 9 1 10 3 11
REMARK H PARENT
REMARK Flexibility Score: inf
ROOT
ATOM      1  C   UNL     1     -16.712   4.093  28.691  1.00  0.00     0.048 C 
ATOM      2  C   UNL     1     -15.518   4.444  27.847  1.00  0.00    -0.012 C 
ATOM      3  C   UNL     1     -14.432   3.652  27.863  1.00  0.00    -0.019 C 
ATOM      4  C   UNL     1     -13.217   3.946  27.023  1.00  0.00     0.036 C 
ATOM      5  C   UNL     1     -13.017   5.463  26.851  1.00  0.00     0.025 C 
ATOM      6  C   UNL     1     -14.292   6.108  26.277  1.00  0.00     0.089 C 
ATOM      7  C   UNL     1     -15.494   5.724  27.095  1.00  0.00     0.158 C 
ATOM      8  O   UNL     1     -16.498   6.485  27.107  1.00  0.00    -0.295 OA
ENDROOT
BRANCH   5   9
ATOM      9  C   UNL     1     -11.801   5.770  25.986  1.00  0.00    -0.077 C 
ATOM     10  C   UNL     1     -11.801   6.847  25.185  1.00  0.00     0.008 C 
ATOM     11  C   UNL     1     -10.580   4.885  26.004  1.00  0.00     0.039 C 
ENDBRANCH   5   9
TORSDOF 1
ENDMDL
MODEL 9
REMARK VINA RESULT:    -4.322      1.895      4.332
REMARK INTER + INTRA:          -4.673
REMARK INTER:                  -4.575
REMARK INTRA:                  -0.098
REMARK UNBOUND:                -0.098
REMARK SMILES C=C(C)[C@@H]1CC=C(C)C(=O)C1
REMARK SMILES IDX 8 1 7 2 6 3 5 4 4 5 11 6 9 7 10 8 2 9 1 10 3 11
REMARK H PARENT
REMARK Flexibility Score: inf
ROOT
ATOM      1  C   UNL     1     -11.119   6.275  25.910  1.00  0.00     0.048 C 
ATOM      2  C   UNL     1     -12.457   5.688  26.268  1.00  0.00    -0.012 C 
ATOM      3  C   UNL     1     -12.536   4.416  26.697  1.00  0.00    -0.019 C 
ATOM      4  C   UNL     1     -13.846   3.785  27.086  1.00  0.00     0.036 C 
ATOM      5  C   UNL     1     -15.004   4.348  26.242  1.00  0.00     0.025 C 
ATOM      6  C   UNL     1     -15.044   5.883  26.346  1.00  0.00     0.089 C 
ATOM      7  C   UNL     1     -13.695   6.470  26.030  1.00  0.00     0.158 C 
ATOM      8  O   UNL     1     -13.626   7.650  25.594  1.00  0.00    -0.295 OA
ENDROOT
BRANCH   5   9
ATOM      9  C   UNL     1     -16.337   3.729  26.642  1.00  0.00    -0.077 C 
ATOM     10  C   UNL     1     -17.127   4.350  27.533  1.00  0.00     0.008 C 
ATOM     11  C   UNL     1     -16.802   2.418  26.058  1.00  0.00     0.039 C 
ENDBRANCH   5   9
TORSDOF 1
ENDMDL
