MODEL 1
REMARK VINA RESULT:    -5.270      0.000      0.000
REMARK INTER + INTRA:          -7.922
REMARK INTER:                  -7.735
REMARK INTRA:                  -0.188
REMARK UNBOUND:                -0.188
REMARK SMILES O=C([O-])CCCCCCCC(=O)[O-]
REMARK SMILES IDX 7 1 6 2 5 3 4 4 2 5 1 6 3 7 8 8 9 9 10 10 11 11 12 12 13 13
REMARK H PARENT
REMARK Flexibility Score: inf
ROOT
ATOM      1  C   UNL     1      18.859  26.957   0.799  1.00  0.00     0.000 C 
ENDROOT
BRANCH   1   2
ATOM      2  C   UNL     1      18.326  26.888  -0.639  1.00  0.00     0.000 C 
BRANCH   2   3
ATOM      3  C   UNL     1      16.998  26.119  -0.697  1.00  0.00     0.006 C 
BRANCH   3   4
ATOM      4  C   UNL     1      16.830  25.348  -2.013  1.00  0.00     0.053 C 
BRANCH   4   5
ATOM      5  C   UNL     1      15.388  25.200  -2.390  1.00  0.00     0.041 C 
ATOM      6  O   UNL     1      14.997  25.522  -3.543  1.00  0.00    -0.550 OA
ATOM      7  O   UNL     1      14.482  24.676  -1.477  1.00  0.00    -0.550 OA
ENDBRANCH   4   5
ENDBRANCH   3   4
ENDBRANCH   2   3
ENDBRANCH   1   2
BRANCH   1   8
ATOM      8  C   UNL     1      18.873  25.588   1.499  1.00  0.00     0.000 C 
BRANCH   8   9
ATOM      9  C   UNL     1      19.249  25.662   2.995  1.00  0.00     0.006 C 
BRANCH   9  10
ATOM     10  C   UNL     1      19.693  24.301   3.548  1.00  0.00     0.053 C 
BRANCH  10  11
ATOM     11  C   UNL     1      21.087  23.986   3.109  1.00  0.00     0.041 C 
ATOM     12  O   UNL     1      22.056  24.178   3.891  1.00  0.00    -0.550 OA
ATOM     13  O   UNL     1      21.313  23.432   1.855  1.00  0.00    -0.550 OA
ENDBRANCH  10  11
ENDBRANCH   9  10
ENDBRANCH   8   9
ENDBRANCH   1   8
TORSDOF 8
ENDMDL
MODEL 2
REMARK VINA RESULT:    -5.171      0.661      1.552
REMARK INTER + INTRA:          -7.777
REMARK INTER:                  -7.367
REMARK INTRA:                  -0.410
REMARK UNBOUND:                -0.188
REMARK SMILES O=C([O-])CCCCCCCC(=O)[O-]
REMARK SMILES IDX 7 1 6 2 5 3 4 4 2 5 1 6 3 7 8 8 9 9 10 10 11 11 12 12 13 13
REMARK H PARENT
REMARK Flexibility Score: inf
ROOT
ATOM      1  C   UNL     1      18.436  26.868  -0.100  1.00  0.00     0.000 C 
ENDROOT
BRANCH   1   2
ATOM      2  C   UNL     1      18.898  25.772  -1.070  1.00  0.00     0.000 C 
BRANCH   2   3
ATOM      3  C   UNL     1      17.697  25.043  -1.691  1.00  0.00     0.006 C 
BRANCH   3   4
ATOM      4  C   UNL     1      16.358  25.586  -1.176  1.00  0.00     0.053 C 
BRANCH   4   5
ATOM      5  C   UNL     1      15.210  25.117  -2.015  1.00  0.00     0.041 C 
ATOM      6  O   UNL     1      14.285  24.434  -1.501  1.00  0.00    -0.550 OA
ATOM      7  O   UNL     1      15.144  25.463  -3.359  1.00  0.00    -0.550 OA
ENDBRANCH   4   5
ENDBRANCH   3   4
ENDBRANCH   2   3
ENDBRANCH   1   2
BRANCH   1   8
ATOM      8  C   UNL     1      18.928  26.640   1.339  1.00  0.00     0.000 C 
BRANCH   8   9
ATOM      9  C   UNL     1      18.990  25.152   1.743  1.00  0.00     0.006 C 
BRANCH   9  10
ATOM     10  C   UNL     1      19.672  24.949   3.103  1.00  0.00     0.053 C 
BRANCH  10  11
ATOM     11  C   UNL     1      20.940  24.173   2.943  1.00  0.00     0.041 C 
ATOM     12  O   UNL     1      21.141  23.495   1.901  1.00  0.00    -0.550 OA
ATOM     13  O   UNL     1      21.924  24.238   3.922  1.00  0.00    -0.550 OA
ENDBRANCH  10  11
ENDBRANCH   9  10
ENDBRANCH   8   9
ENDBRANCH   1   8
TORSDOF 8
ENDMDL
MODEL 3
REMARK VINA RESULT:    -5.125      0.664      6.572
REMARK INTER + INTRA:          -7.710
REMARK INTER:                  -7.286
REMARK INTRA:                  -0.423
REMARK UNBOUND:                -0.188
REMARK SMILES O=C([O-])CCCCCCCC(=O)[O-]
REMARK SMILES IDX 7 1 6 2 5 3 4 4 2 5 1 6 3 7 8 8 9 9 10 10 11 11 12 12 13 13
REMARK H PARENT
REMARK Flexibility Score: inf
ROOT
ATOM      1  C   UNL     1      18.533  26.890  -0.020  1.00  0.00     0.000 C 
ENDROOT
BRANCH   1   2
ATOM      2  C   UNL     1      18.949  26.686   1.443  1.00  0.00     0.000 C 
BRANCH   2   3
ATOM      3  C   UNL     1      18.999  25.193   1.799  1.00  0.00     0.006 C 
BRANCH   3   4
ATOM      4  C   UNL     1      19.683  24.940   3.149  1.00  0.00     0.053 C 
BRANCH   4   5
ATOM      5  C   UNL     1      20.970  24.191   2.987  1.00  0.00     0.041 C 
ATOM      6  O   UNL     1      21.831  24.202   3.907  1.00  0.00    -0.550 OA
ATOM      7  O   UNL     1      21.204  23.452   1.834  1.00  0.00    -0.550 OA
ENDBRANCH   4   5
ENDBRANCH   3   4
ENDBRANCH   2   3
ENDBRANCH   1   2
BRANCH   1   8
ATOM      8  C   UNL     1      18.897  25.696  -0.918  1.00  0.00     0.000 C 
BRANCH   8   9
ATOM      9  C   UNL     1      17.702  25.137  -1.720  1.00  0.00     0.006 C 
BRANCH   9  10
ATOM     10  C   UNL     1      16.363  25.713  -1.241  1.00  0.00     0.053 C 
BRANCH  10  11
ATOM     11  C   UNL     1      15.233  25.148  -2.041  1.00  0.00     0.041 C 
ATOM     12  O   UNL     1      14.365  24.422  -1.488  1.00  0.00    -0.550 OA
ATOM     13  O   UNL     1      15.109  25.463  -3.389  1.00  0.00    -0.550 OA
ENDBRANCH  10  11
ENDBRANCH   9  10
ENDBRANCH   8   9
ENDBRANCH   1   8
TORSDOF 8
ENDMDL
MODEL 4
REMARK VINA RESULT:    -4.772      1.296      6.538
REMARK INTER + INTRA:          -7.191
REMARK INTER:                  -6.990
REMARK INTRA:                  -0.200
REMARK UNBOUND:                -0.188
REMARK SMILES O=C([O-])CCCCCCCC(=O)[O-]
REMARK SMILES IDX 7 1 6 2 5 3 4 4 2 5 1 6 3 7 8 8 9 9 10 10 11 11 12 12 13 13
REMARK H PARENT
REMARK Flexibility Score: inf
ROOT
ATOM      1  C   UNL     1      18.474  24.259  -0.147  1.00  0.00     0.000 C 
ENDROOT
BRANCH   1   2
ATOM      2  C   UNL     1      19.424  24.475   1.039  1.00  0.00     0.000 C 
BRANCH   2   3
ATOM      3  C   UNL     1      19.155  25.825   1.721  1.00  0.00     0.006 C 
BRANCH   3   4
ATOM      4  C   UNL     1      19.283  25.741   3.247  1.00  0.00     0.053 C 
BRANCH   4   5
ATOM      5  C   UNL     1      19.925  24.458   3.680  1.00  0.00     0.041 C 
ATOM      6  O   UNL     1      19.217  23.506   4.103  1.00  0.00    -0.550 OA
ATOM      7  O   UNL     1      21.302  24.303   3.584  1.00  0.00    -0.550 OA
ENDBRANCH   4   5
ENDBRANCH   3   4
ENDBRANCH   2   3
ENDBRANCH   1   2
BRANCH   1   8
ATOM      8  C   UNL     1      18.731  25.237  -1.306  1.00  0.00     0.000 C 
BRANCH   8   9
ATOM      9  C   UNL     1      17.568  26.222  -1.553  1.00  0.00     0.006 C 
BRANCH   9  10
ATOM     10  C   UNL     1      16.257  25.743  -0.917  1.00  0.00     0.053 C 
BRANCH  10  11
ATOM     11  C   UNL     1      15.330  25.212  -1.963  1.00  0.00     0.041 C 
ATOM     12  O   UNL     1      15.479  25.544  -3.169  1.00  0.00    -0.550 OA
ATOM     13  O   UNL     1      14.331  24.311  -1.615  1.00  0.00    -0.550 OA
ENDBRANCH  10  11
ENDBRANCH   9  10
ENDBRANCH   8   9
ENDBRANCH   1   8
TORSDOF 8
ENDMDL
MODEL 5
REMARK VINA RESULT:    -3.677     15.860     17.224
REMARK INTER + INTRA:          -5.584
REMARK INTER:                  -4.811
REMARK INTRA:                  -0.773
REMARK UNBOUND:                -0.188
REMARK SMILES O=C([O-])CCCCCCCC(=O)[O-]
REMARK SMILES IDX 7 1 6 2 5 3 4 4 2 5 1 6 3 7 8 8 9 9 10 10 11 11 12 12 13 13
REMARK H PARENT
REMARK Flexibility Score: inf
ROOT
ATOM      1  C   UNL     1      24.429  33.613  15.290  1.00  0.00     0.000 C 
ENDROOT
BRANCH   1   2
ATOM      2  C   UNL     1      23.759  32.446  14.551  1.00  0.00     0.000 C 
BRANCH   2   3
ATOM      3  C   UNL     1      23.139  32.916  13.227  1.00  0.00     0.006 C 
BRANCH   3   4
ATOM      4  C   UNL     1      22.557  34.331  13.327  1.00  0.00     0.053 C 
BRANCH   4   5
ATOM      5  C   UNL     1      21.121  34.311  13.754  1.00  0.00     0.041 C 
ATOM      6  O   UNL     1      20.823  34.279  14.977  1.00  0.00    -0.550 OA
ATOM      7  O   UNL     1      20.112  34.361  12.800  1.00  0.00    -0.550 OA
ENDBRANCH   4   5
ENDBRANCH   3   4
ENDBRANCH   2   3
ENDBRANCH   1   2
BRANCH   1   8
ATOM      8  C   UNL     1      25.877  33.307  15.705  1.00  0.00     0.000 C 
BRANCH   8   9
ATOM      9  C   UNL     1      26.930  33.798  14.688  1.00  0.00     0.006 C 
BRANCH   9  10
ATOM     10  C   UNL     1      26.394  34.926  13.797  1.00  0.00     0.053 C 
BRANCH  10  11
ATOM     11  C   UNL     1      26.536  34.566  12.353  1.00  0.00     0.041 C 
ATOM     12  O   UNL     1      26.801  35.455  11.501  1.00  0.00    -0.550 OA
ATOM     13  O   UNL     1      26.426  33.240  11.953  1.00  0.00    -0.550 OA
ENDBRANCH  10  11
ENDBRANCH   9  10
ENDBRANCH   8   9
ENDBRANCH   1   8
TORSDOF 8
ENDMDL
MODEL 6
REMARK VINA RESULT:    -3.677     15.671     17.550
REMARK INTER + INTRA:          -5.584
REMARK INTER:                  -4.907
REMARK INTRA:                  -0.677
REMARK UNBOUND:                -0.188
REMARK SMILES O=C([O-])CCCCCCCC(=O)[O-]
REMARK SMILES IDX 7 1 6 2 5 3 4 4 2 5 1 6 3 7 8 8 9 9 10 10 11 11 12 12 13 13
REMARK H PARENT
REMARK Flexibility Score: inf
ROOT
ATOM      1  C   UNL     1      23.944  33.457  15.378  1.00  0.00     0.000 C 
ENDROOT
BRANCH   1   2
ATOM      2  C   UNL     1      25.460  33.253  15.505  1.00  0.00     0.000 C 
BRANCH   2   3
ATOM      3  C   UNL     1      26.228  34.420  14.868  1.00  0.00     0.006 C 
BRANCH   3   4
ATOM      4  C   UNL     1      27.124  33.962  13.709  1.00  0.00     0.053 C 
BRANCH   4   5
ATOM      5  C   UNL     1      26.426  34.076  12.389  1.00  0.00     0.041 C 
ATOM      6  O   UNL     1      25.947  35.180  12.018  1.00  0.00    -0.550 OA
ATOM      7  O   UNL     1      26.332  32.969  11.554  1.00  0.00    -0.550 OA
ENDBRANCH   4   5
ENDBRANCH   3   4
ENDBRANCH   2   3
ENDBRANCH   1   2
BRANCH   1   8
ATOM      8  C   UNL     1      23.286  32.471  14.399  1.00  0.00     0.000 C 
BRANCH   8   9
ATOM      9  C   UNL     1      22.978  33.084  13.016  1.00  0.00     0.006 C 
BRANCH   9  10
ATOM     10  C   UNL     1      22.370  34.489  13.127  1.00  0.00     0.053 C 
BRANCH  10  11
ATOM     11  C   UNL     1      20.926  34.407  13.506  1.00  0.00     0.041 C 
ATOM     12  O   UNL     1      20.039  34.356  12.614  1.00  0.00    -0.550 OA
ATOM     13  O   UNL     1      20.562  34.336  14.845  1.00  0.00    -0.550 OA
ENDBRANCH  10  11
ENDBRANCH   9  10
ENDBRANCH   8   9
ENDBRANCH   1   8
TORSDOF 8
ENDMDL
MODEL 7
REMARK VINA RESULT:    -3.641     16.020     17.482
REMARK INTER + INTRA:          -5.532
REMARK INTER:                  -4.756
REMARK INTRA:                  -0.776
REMARK UNBOUND:                -0.188
REMARK SMILES O=C([O-])CCCCCCCC(=O)[O-]
REMARK SMILES IDX 7 1 6 2 5 3 4 4 2 5 1 6 3 7 8 8 9 9 10 10 11 11 12 12 13 13
REMARK H PARENT
REMARK Flexibility Score: inf
ROOT
ATOM      1  C   UNL     1      23.288  36.471  14.589  1.00  0.00     0.000 C 
ENDROOT
BRANCH   1   2
ATOM      2  C   UNL     1      24.746  35.997  14.652  1.00  0.00     0.000 C 
BRANCH   2   3
ATOM      3  C   UNL     1      25.338  35.848  13.242  1.00  0.00     0.006 C 
BRANCH   3   4
ATOM      4  C   UNL     1      26.498  34.845  13.203  1.00  0.00     0.053 C 
BRANCH   4   5
ATOM      5  C   UNL     1      26.676  34.257  11.837  1.00  0.00     0.041 C 
ATOM      6  O   UNL     1      27.125  34.962  10.895  1.00  0.00    -0.550 OA
ATOM      7  O   UNL     1      26.376  32.919  11.612  1.00  0.00    -0.550 OA
ENDBRANCH   4   5
ENDBRANCH   3   4
ENDBRANCH   2   3
ENDBRANCH   1   2
BRANCH   1   8
ATOM      8  C   UNL     1      22.308  35.484  15.244  1.00  0.00     0.000 C 
BRANCH   8   9
ATOM      9  C   UNL     1      21.486  34.661  14.228  1.00  0.00     0.006 C 
BRANCH   9  10
ATOM     10  C   UNL     1      21.764  33.156  14.341  1.00  0.00     0.053 C 
BRANCH  10  11
ATOM     11  C   UNL     1      23.071  32.815  13.700  1.00  0.00     0.041 C 
ATOM     12  O   UNL     1      23.194  32.861  12.447  1.00  0.00    -0.550 OA
ATOM     13  O   UNL     1      24.170  32.495  14.488  1.00  0.00    -0.550 OA
ENDBRANCH  10  11
ENDBRANCH   9  10
ENDBRANCH   8   9
ENDBRANCH   1   8
TORSDOF 8
ENDMDL
MODEL 8
REMARK VINA RESULT:    -3.619     15.921     17.216
REMARK INTER + INTRA:          -5.499
REMARK INTER:                  -4.838
REMARK INTRA:                  -0.661
REMARK UNBOUND:                -0.188
REMARK SMILES O=C([O-])CCCCCCCC(=O)[O-]
REMARK SMILES IDX 7 1 6 2 5 3 4 4 2 5 1 6 3 7 8 8 9 9 10 10 11 11 12 12 13 13
REMARK H PARENT
REMARK Flexibility Score: inf
ROOT
ATOM      1  C   UNL     1      24.124  36.574  14.452  1.00  0.00     0.000 C 
ENDROOT
BRANCH   1   2
ATOM      2  C   UNL     1      23.034  35.642  14.997  1.00  0.00     0.000 C 
BRANCH   2   3
ATOM      3  C   UNL     1      21.986  35.330  13.919  1.00  0.00     0.006 C 
BRANCH   3   4
ATOM      4  C   UNL     1      21.526  33.866  13.962  1.00  0.00     0.053 C 
BRANCH   4   5
ATOM      5  C   UNL     1      22.640  32.925  13.622  1.00  0.00     0.041 C 
ATOM      6  O   UNL     1      23.096  32.879  12.449  1.00  0.00    -0.550 OA
ATOM      7  O   UNL     1      23.197  32.122  14.609  1.00  0.00    -0.550 OA
ENDBRANCH   4   5
ENDBRANCH   3   4
ENDBRANCH   2   3
ENDBRANCH   1   2
BRANCH   1   8
ATOM      8  C   UNL     1      25.058  35.879  13.447  1.00  0.00     0.000 C 
BRANCH   8   9
ATOM      9  C   UNL     1      25.804  34.662  14.035  1.00  0.00     0.006 C 
BRANCH   9  10
ATOM     10  C   UNL     1      27.121  34.379  13.301  1.00  0.00     0.053 C 
BRANCH  10  11
ATOM     11  C   UNL     1      26.858  34.005  11.877  1.00  0.00     0.041 C 
ATOM     12  O   UNL     1      26.350  32.886  11.599  1.00  0.00    -0.550 OA
ATOM     13  O   UNL     1      27.125  34.912  10.859  1.00  0.00    -0.550 OA
ENDBRANCH  10  11
ENDBRANCH   9  10
ENDBRANCH   8   9
ENDBRANCH   1   8
TORSDOF 8
ENDMDL
MODEL 9
REMARK VINA RESULT:    -3.577     16.023     17.600
REMARK INTER + INTRA:          -5.438
REMARK INTER:                  -4.617
REMARK INTRA:                  -0.821
REMARK UNBOUND:                -0.188
REMARK SMILES O=C([O-])CCCCCCCC(=O)[O-]
REMARK SMILES IDX 7 1 6 2 5 3 4 4 2 5 1 6 3 7 8 8 9 9 10 10 11 11 12 12 13 13
REMARK H PARENT
REMARK Flexibility Score: inf
ROOT
ATOM      1  C   UNL     1      24.968  36.721  13.923  1.00  0.00     0.000 C 
ENDROOT
BRANCH   1   2
ATOM      2  C   UNL     1      25.004  35.781  12.710  1.00  0.00     0.000 C 
BRANCH   2   3
ATOM      3  C   UNL     1      26.109  34.725  12.864  1.00  0.00     0.006 C 
BRANCH   3   4
ATOM      4  C   UNL     1      25.658  33.339  12.386  1.00  0.00     0.053 C 
BRANCH   4   5
ATOM      5  C   UNL     1      24.422  32.882  13.096  1.00  0.00     0.041 C 
ATOM      6  O   UNL     1      23.342  32.740  12.464  1.00  0.00    -0.550 OA
ATOM      7  O   UNL     1      24.470  32.581  14.452  1.00  0.00    -0.550 OA
ENDBRANCH   4   5
ENDBRANCH   3   4
ENDBRANCH   2   3
ENDBRANCH   1   2
BRANCH   1   8
ATOM      8  C   UNL     1      24.156  36.151  15.098  1.00  0.00     0.000 C 
BRANCH   8   9
ATOM      9  C   UNL     1      22.728  35.713  14.709  1.00  0.00     0.006 C 
BRANCH   9  10
ATOM     10  C   UNL     1      22.088  34.812  15.773  1.00  0.00     0.053 C 
BRANCH  10  11
ATOM     11  C   UNL     1      21.255  33.750  15.130  1.00  0.00     0.041 C 
ATOM     12  O   UNL     1      20.700  33.966  14.020  1.00  0.00    -0.550 OA
ATOM     13  O   UNL     1      21.132  32.503  15.730  1.00  0.00    -0.550 OA
ENDBRANCH  10  11
ENDBRANCH   9  10
ENDBRANCH   8   9
ENDBRANCH   1   8
TORSDOF 8
ENDMDL
