MODEL 1
REMARK VINA RESULT:    -2.129      0.000      0.000
REMARK INTER + INTRA:          -2.129
REMARK INTER:                  -2.129
REMARK INTRA:                   0.000
REMARK UNBOUND:                 0.000
REMARK SMILES CC(=O)[O-]
REMARK SMILES IDX 1 1 2 2 3 3 4 4
REMARK H PARENT
REMARK Flexibility Score: inf
ROOT
ATOM      1  C   UNL     1      20.214 128.008  63.632  1.00  0.00     0.063 C 
ATOM      2  C   UNL     1      18.943 128.579  64.161  1.00  0.00     0.038 C 
ATOM      3  O   UNL     1      18.957 129.657  64.812  1.00  0.00    -0.550 OA
ATOM      4  O   UNL     1      17.733 127.953  63.891  1.00  0.00    -0.550 OA
ENDROOT
TORSDOF 0
ENDMDL
MODEL 2
REMARK VINA RESULT:    -2.107      0.100      1.619
REMARK INTER + INTRA:          -2.107
REMARK INTER:                  -2.107
REMARK INTRA:                   0.000
REMARK UNBOUND:                 0.000
REMARK SMILES CC(=O)[O-]
REMARK SMILES IDX 1 1 2 2 3 3 4 4
REMARK H PARENT
REMARK Flexibility Score: inf
ROOT
ATOM      1  C   UNL     1      20.234 128.034  63.639  1.00  0.00     0.063 C 
ATOM      2  C   UNL     1      18.936 128.595  64.111  1.00  0.00     0.038 C 
ATOM      3  O   UNL     1      17.864 127.970  63.903  1.00  0.00    -0.550 OA
ATOM      4  O   UNL     1      18.911 129.784  64.830  1.00  0.00    -0.550 OA
ENDROOT
TORSDOF 0
ENDMDL
MODEL 3
REMARK VINA RESULT:    -1.975      4.220      4.621
REMARK INTER + INTRA:          -1.975
REMARK INTER:                  -1.975
REMARK INTRA:                   0.000
REMARK UNBOUND:                 0.000
REMARK SMILES CC(=O)[O-]
REMARK SMILES IDX 1 1 2 2 3 3 4 4
REMARK H PARENT
REMARK Flexibility Score: inf
ROOT
ATOM      1  C   UNL     1      19.663 131.620  63.447  1.00  0.00     0.063 C 
ATOM      2  C   UNL     1      20.675 131.976  62.411  1.00  0.00     0.038 C 
ATOM      3  O   UNL     1      21.796 131.405  62.401  1.00  0.00    -0.550 OA
ATOM      4  O   UNL     1      20.364 132.901  61.423  1.00  0.00    -0.550 OA
ENDROOT
TORSDOF 0
ENDMDL
MODEL 4
REMARK VINA RESULT:    -1.956     16.390     16.741
REMARK INTER + INTRA:          -1.956
REMARK INTER:                  -1.956
REMARK INTRA:                   0.000
REMARK UNBOUND:                 0.000
REMARK SMILES CC(=O)[O-]
REMARK SMILES IDX 1 1 2 2 3 3 4 4
REMARK H PARENT
REMARK Flexibility Score: inf
ROOT
ATOM      1  C   UNL     1      21.329 120.578  49.410  1.00  0.00     0.063 C 
ATOM      2  C   UNL     1      20.209 121.491  49.041  1.00  0.00     0.038 C 
ATOM      3  O   UNL     1      20.296 122.724  49.276  1.00  0.00    -0.550 OA
ATOM      4  O   UNL     1      19.089 120.991  48.388  1.00  0.00    -0.550 OA
ENDROOT
TORSDOF 0
ENDMDL
MODEL 5
REMARK VINA RESULT:    -1.940      1.402      2.119
REMARK INTER + INTRA:          -1.940
REMARK INTER:                  -1.940
REMARK INTRA:                   0.000
REMARK UNBOUND:                 0.000
REMARK SMILES CC(=O)[O-]
REMARK SMILES IDX 1 1 2 2 3 3 4 4
REMARK H PARENT
REMARK Flexibility Score: inf
ROOT
ATOM      1  C   UNL     1      18.889 130.079  64.376  1.00  0.00     0.063 C 
ATOM      2  C   UNL     1      19.058 128.638  64.033  1.00  0.00     0.038 C 
ATOM      3  O   UNL     1      18.062 127.869  64.026  1.00  0.00    -0.550 OA
ATOM      4  O   UNL     1      20.307 128.152  63.667  1.00  0.00    -0.550 OA
ENDROOT
TORSDOF 0
ENDMDL
MODEL 6
REMARK VINA RESULT:    -1.915      1.315      1.682
REMARK INTER + INTRA:          -1.915
REMARK INTER:                  -1.915
REMARK INTRA:                   0.000
REMARK UNBOUND:                 0.000
REMARK SMILES CC(=O)[O-]
REMARK SMILES IDX 1 1 2 2 3 3 4 4
REMARK H PARENT
REMARK Flexibility Score: inf
ROOT
ATOM      1  C   UNL     1      18.893 130.157  64.398  1.00  0.00     0.063 C 
ATOM      2  C   UNL     1      18.916 128.692  64.118  1.00  0.00     0.038 C 
ATOM      3  O   UNL     1      20.013 128.101  63.935  1.00  0.00    -0.550 OA
ATOM      4  O   UNL     1      17.733 127.965  64.113  1.00  0.00    -0.550 OA
ENDROOT
TORSDOF 0
ENDMDL
MODEL 7
REMARK VINA RESULT:    -1.866      3.929      4.431
REMARK INTER + INTRA:          -1.866
REMARK INTER:                  -1.866
REMARK INTRA:                   0.000
REMARK UNBOUND:                 0.000
REMARK SMILES CC(=O)[O-]
REMARK SMILES IDX 1 1 2 2 3 3 4 4
REMARK H PARENT
REMARK Flexibility Score: inf
ROOT
ATOM      1  C   UNL     1      19.568 132.936  61.782  1.00  0.00     0.063 C 
ATOM      2  C   UNL     1      20.258 131.972  62.686  1.00  0.00     0.038 C 
ATOM      3  O   UNL     1      19.649 131.487  63.676  1.00  0.00    -0.550 OA
ATOM      4  O   UNL     1      21.557 131.565  62.410  1.00  0.00    -0.550 OA
ENDROOT
TORSDOF 0
ENDMDL
MODEL 8
REMARK VINA RESULT:    -1.791      3.379      3.644
REMARK INTER + INTRA:          -1.791
REMARK INTER:                  -1.791
REMARK INTRA:                   0.000
REMARK UNBOUND:                 0.000
REMARK SMILES CC(=O)[O-]
REMARK SMILES IDX 1 1 2 2 3 3 4 4
REMARK H PARENT
REMARK Flexibility Score: inf
ROOT
ATOM      1  C   UNL     1      18.855 130.508  64.196  1.00  0.00     0.063 C 
ATOM      2  C   UNL     1      19.466 131.730  63.597  1.00  0.00     0.038 C 
ATOM      3  O   UNL     1      18.970 132.863  63.831  1.00  0.00    -0.550 OA
ATOM      4  O   UNL     1      20.615 131.626  62.824  1.00  0.00    -0.550 OA
ENDROOT
TORSDOF 0
ENDMDL
MODEL 9
REMARK VINA RESULT:    -1.717      2.818      3.361
REMARK INTER + INTRA:          -1.717
REMARK INTER:                  -1.717
REMARK INTRA:                   0.000
REMARK UNBOUND:                 0.000
REMARK SMILES CC(=O)[O-]
REMARK SMILES IDX 1 1 2 2 3 3 4 4
REMARK H PARENT
REMARK Flexibility Score: inf
ROOT
ATOM      1  C   UNL     1      18.853 132.087  65.537  1.00  0.00     0.063 C 
ATOM      2  C   UNL     1      19.159 131.423  64.238  1.00  0.00     0.038 C 
ATOM      3  O   UNL     1      19.571 132.103  63.262  1.00  0.00    -0.550 OA
ATOM      4  O   UNL     1      19.044 130.044  64.117  1.00  0.00    -0.550 OA
ENDROOT
TORSDOF 0
ENDMDL
