MODEL 1
REMARK VINA RESULT:    -1.341      0.000      0.000
REMARK INTER + INTRA:          -3.097
REMARK INTER:                  -2.204
REMARK INTRA:                  -0.893
REMARK UNBOUND:                -0.893
REMARK SMILES CCCCCCCCCCCC(=O)OC
REMARK SMILES IDX 7 1 6 2 5 3 4 4 3 5 2 6 1 7 8 8 9 9 10 10 11 11 12 12 13 13
REMARK SMILES IDX 14 14 15 15
REMARK H PARENT
REMARK Flexibility Score: inf
ROOT
ATOM      1  C   UNL     1     176.549 179.324 171.665  1.00  0.00     0.000 C 
ENDROOT
BRANCH   1   2
ATOM      2  C   UNL     1     176.537 180.446 172.720  1.00  0.00     0.000 C 
BRANCH   2   3
ATOM      3  C   UNL     1     177.321 181.708 172.297  1.00  0.00    -0.000 C 
BRANCH   3   4
ATOM      4  C   UNL     1     178.608 181.908 173.116  1.00  0.00    -0.000 C 
BRANCH   4   5
ATOM      5  C   UNL     1     178.650 183.286 173.809  1.00  0.00    -0.000 C 
BRANCH   5   6
ATOM      6  C   UNL     1     179.846 183.461 174.759  1.00  0.00    -0.003 C 
ATOM      7  C   UNL     1     179.498 184.246 176.022  1.00  0.00     0.004 C 
ENDBRANCH   5   6
ENDBRANCH   4   5
ENDBRANCH   3   4
ENDBRANCH   2   3
ENDBRANCH   1   2
BRANCH   1   8
ATOM      8  C   UNL     1     177.823 178.461 171.651  1.00  0.00     0.000 C 
BRANCH   8   9
ATOM      9  C   UNL     1     178.816 178.778 170.514  1.00  0.00     0.001 C 
BRANCH   9  10
ATOM     10  C   UNL     1     180.258 179.069 170.968  1.00  0.00     0.012 C 
BRANCH  10  11
ATOM     11  C   UNL     1     180.414 179.072 172.494  1.00  0.00     0.123 C 
BRANCH  11  12
ATOM     12  C   UNL     1     181.190 177.873 172.939  1.00  0.00     0.305 C 
ATOM     13  O   UNL     1     181.983 177.966 173.915  1.00  0.00    -0.252 OA
BRANCH  12  14
ATOM     14  O   UNL     1     181.058 176.671 172.237  1.00  0.00    -0.469 OA
ATOM     15  C   UNL     1     180.047 175.716 172.535  1.00  0.00     0.282 C 
ENDBRANCH  12  14
ENDBRANCH  11  12
ENDBRANCH  10  11
ENDBRANCH   9  10
ENDBRANCH   8   9
ENDBRANCH   1   8
TORSDOF 11
ENDMDL
MODEL 2
REMARK VINA RESULT:    -0.799      1.057      1.720
REMARK INTER + INTRA:          -2.206
REMARK INTER:                  -1.419
REMARK INTRA:                  -0.787
REMARK UNBOUND:                -0.893
REMARK SMILES CCCCCCCCCCCC(=O)OC
REMARK SMILES IDX 7 1 6 2 5 3 4 4 3 5 2 6 1 7 8 8 9 9 10 10 11 11 12 12 13 13
REMARK SMILES IDX 14 14 15 15
REMARK H PARENT
REMARK Flexibility Score: inf
ROOT
ATOM      1  C   UNL     1     177.835 178.618 171.910  1.00  0.00     0.000 C 
ENDROOT
BRANCH   1   2
ATOM      2  C   UNL     1     176.504 179.390 171.852  1.00  0.00     0.000 C 
BRANCH   2   3
ATOM      3  C   UNL     1     176.499 180.687 172.691  1.00  0.00    -0.000 C 
BRANCH   3   4
ATOM      4  C   UNL     1     177.494 181.737 172.164  1.00  0.00    -0.000 C 
BRANCH   4   5
ATOM      5  C   UNL     1     178.682 181.950 173.126  1.00  0.00    -0.000 C 
BRANCH   5   6
ATOM      6  C   UNL     1     178.620 183.278 173.896  1.00  0.00    -0.003 C 
ATOM      7  C   UNL     1     179.792 183.469 174.856  1.00  0.00     0.004 C 
ENDBRANCH   5   6
ENDBRANCH   4   5
ENDBRANCH   3   4
ENDBRANCH   2   3
ENDBRANCH   1   2
BRANCH   1   8
ATOM      8  C   UNL     1     178.818 178.931 170.767  1.00  0.00     0.000 C 
BRANCH   8   9
ATOM      9  C   UNL     1     180.283 179.141 171.201  1.00  0.00     0.001 C 
BRANCH   9  10
ATOM     10  C   UNL     1     180.567 178.877 172.691  1.00  0.00     0.012 C 
BRANCH  10  11
ATOM     11  C   UNL     1     181.467 177.657 172.920  1.00  0.00     0.123 C 
BRANCH  11  12
ATOM     12  C   UNL     1     180.895 176.454 172.238  1.00  0.00     0.305 C 
ATOM     13  O   UNL     1     181.505 175.937 171.262  1.00  0.00    -0.252 OA
BRANCH  12  14
ATOM     14  O   UNL     1     179.665 175.944 172.663  1.00  0.00    -0.469 OA
ATOM     15  C   UNL     1     179.525 174.637 173.207  1.00  0.00     0.282 C 
ENDBRANCH  12  14
ENDBRANCH  11  12
ENDBRANCH  10  11
ENDBRANCH   9  10
ENDBRANCH   8   9
ENDBRANCH   1   8
TORSDOF 11
ENDMDL
MODEL 3
REMARK VINA RESULT:    -0.665      2.713      5.259
REMARK INTER + INTRA:          -1.985
REMARK INTER:                  -1.364
REMARK INTRA:                  -0.621
REMARK UNBOUND:                -0.893
REMARK SMILES CCCCCCCCCCCC(=O)OC
REMARK SMILES IDX 7 1 6 2 5 3 4 4 3 5 2 6 1 7 8 8 9 9 10 10 11 11 12 12 13 13
REMARK SMILES IDX 14 14 15 15
REMARK H PARENT
REMARK Flexibility Score: inf
ROOT
ATOM      1  C   UNL     1     179.333 179.048 170.506  1.00  0.00     0.000 C 
ENDROOT
BRANCH   1   2
ATOM      2  C   UNL     1     180.483 178.904 171.521  1.00  0.00     0.000 C 
BRANCH   2   3
ATOM      3  C   UNL     1     181.151 177.512 171.510  1.00  0.00    -0.000 C 
BRANCH   3   4
ATOM      4  C   UNL     1     181.622 177.069 172.907  1.00  0.00    -0.000 C 
BRANCH   4   5
ATOM      5  C   UNL     1     181.718 178.253 173.892  1.00  0.00    -0.000 C 
BRANCH   5   6
ATOM      6  C   UNL     1     182.486 177.921 175.182  1.00  0.00    -0.003 C 
ATOM      7  C   UNL     1     182.415 179.033 176.225  1.00  0.00     0.004 C 
ENDBRANCH   5   6
ENDBRANCH   4   5
ENDBRANCH   3   4
ENDBRANCH   2   3
ENDBRANCH   1   2
BRANCH   1   8
ATOM      8  C   UNL     1     177.981 178.476 170.971  1.00  0.00     0.000 C 
BRANCH   8   9
ATOM      9  C   UNL     1     177.831 178.309 172.496  1.00  0.00     0.001 C 
BRANCH   9  10
ATOM     10  C   UNL     1     176.889 179.320 173.175  1.00  0.00     0.012 C 
BRANCH  10  11
ATOM     11  C   UNL     1     176.205 180.261 172.176  1.00  0.00     0.123 C 
BRANCH  11  12
ATOM     12  C   UNL     1     177.055 181.469 171.936  1.00  0.00     0.305 C 
ATOM     13  O   UNL     1     176.711 182.315 171.065  1.00  0.00    -0.252 OA
BRANCH  12  14
ATOM     14  O   UNL     1     178.246 181.624 172.651  1.00  0.00    -0.469 OA
ATOM     15  C   UNL     1     178.516 182.767 173.452  1.00  0.00     0.282 C 
ENDBRANCH  12  14
ENDBRANCH  11  12
ENDBRANCH  10  11
ENDBRANCH   9  10
ENDBRANCH   8   9
ENDBRANCH   1   8
TORSDOF 11
ENDMDL
MODEL 4
REMARK VINA RESULT:    -0.660     14.024     15.967
REMARK INTER + INTRA:          -1.977
REMARK INTER:                  -1.801
REMARK INTRA:                  -0.176
REMARK UNBOUND:                -0.893
REMARK SMILES CCCCCCCCCCCC(=O)OC
REMARK SMILES IDX 7 1 6 2 5 3 4 4 3 5 2 6 1 7 8 8 9 9 10 10 11 11 12 12 13 13
REMARK SMILES IDX 14 14 15 15
REMARK H PARENT
REMARK Flexibility Score: inf
ROOT
ATOM      1  C   UNL     1     171.825 169.037 180.463  1.00  0.00     0.000 C 
ENDROOT
BRANCH   1   2
ATOM      2  C   UNL     1     171.278 170.460 180.239  1.00  0.00     0.000 C 
BRANCH   2   3
ATOM      3  C   UNL     1     171.557 171.019 178.826  1.00  0.00    -0.000 C 
BRANCH   3   4
ATOM      4  C   UNL     1     170.327 170.939 177.904  1.00  0.00    -0.000 C 
BRANCH   4   5
ATOM      5  C   UNL     1     170.587 170.062 176.660  1.00  0.00    -0.000 C 
BRANCH   5   6
ATOM      6  C   UNL     1     170.304 170.780 175.331  1.00  0.00    -0.003 C 
ATOM      7  C   UNL     1     168.879 170.566 174.826  1.00  0.00     0.004 C 
ENDBRANCH   5   6
ENDBRANCH   4   5
ENDBRANCH   3   4
ENDBRANCH   2   3
ENDBRANCH   1   2
BRANCH   1   8
ATOM      8  C   UNL     1     173.104 168.961 181.317  1.00  0.00     0.000 C 
BRANCH   8   9
ATOM      9  C   UNL     1     172.871 168.878 182.839  1.00  0.00     0.001 C 
BRANCH   9  10
ATOM     10  C   UNL     1     171.805 169.842 183.391  1.00  0.00     0.012 C 
BRANCH  10  11
ATOM     11  C   UNL     1     171.879 170.006 184.913  1.00  0.00     0.123 C 
BRANCH  11  12
ATOM     12  C   UNL     1     172.377 171.373 185.264  1.00  0.00     0.305 C 
ATOM     13  O   UNL     1     172.877 172.108 184.370  1.00  0.00    -0.252 OA
BRANCH  12  14
ATOM     14  O   UNL     1     172.322 171.802 186.594  1.00  0.00    -0.469 OA
ATOM     15  C   UNL     1     172.128 170.905 187.681  1.00  0.00     0.282 C 
ENDBRANCH  12  14
ENDBRANCH  11  12
ENDBRANCH  10  11
ENDBRANCH   9  10
ENDBRANCH   8   9
ENDBRANCH   1   8
TORSDOF 11
ENDMDL
MODEL 5
REMARK VINA RESULT:    -0.462      2.350      5.927
REMARK INTER + INTRA:          -1.652
REMARK INTER:                  -1.062
REMARK INTRA:                  -0.590
REMARK UNBOUND:                -0.893
REMARK SMILES CCCCCCCCCCCC(=O)OC
REMARK SMILES IDX 7 1 6 2 5 3 4 4 3 5 2 6 1 7 8 8 9 9 10 10 11 11 12 12 13 13
REMARK SMILES IDX 14 14 15 15
REMARK H PARENT
REMARK Flexibility Score: inf
ROOT
ATOM      1  C   UNL     1     180.137 179.198 171.168  1.00  0.00     0.000 C 
ENDROOT
BRANCH   1   2
ATOM      2  C   UNL     1     180.236 179.104 172.702  1.00  0.00     0.000 C 
BRANCH   2   3
ATOM      3  C   UNL     1     181.356 178.164 173.198  1.00  0.00    -0.000 C 
BRANCH   3   4
ATOM      4  C   UNL     1     181.948 177.301 172.069  1.00  0.00    -0.000 C 
BRANCH   4   5
ATOM      5  C   UNL     1     181.097 176.044 171.789  1.00  0.00    -0.000 C 
BRANCH   5   6
ATOM      6  C   UNL     1     179.855 175.928 172.687  1.00  0.00    -0.003 C 
ATOM      7  C   UNL     1     179.544 174.490 173.096  1.00  0.00     0.004 C 
ENDBRANCH   5   6
ENDBRANCH   4   5
ENDBRANCH   3   4
ENDBRANCH   2   3
ENDBRANCH   1   2
BRANCH   1   8
ATOM      8  C   UNL     1     178.731 178.949 170.592  1.00  0.00     0.000 C 
BRANCH   8   9
ATOM      9  C   UNL     1     177.678 178.476 171.614  1.00  0.00     0.001 C 
BRANCH   9  10
ATOM     10  C   UNL     1     176.420 179.358 171.711  1.00  0.00     0.012 C 
BRANCH  10  11
ATOM     11  C   UNL     1     176.519 180.422 172.811  1.00  0.00     0.123 C 
BRANCH  11  12
ATOM     12  C   UNL     1     177.339 181.581 172.339  1.00  0.00     0.305 C 
ATOM     13  O   UNL     1     176.962 182.251 171.340  1.00  0.00    -0.252 OA
BRANCH  12  14
ATOM     14  O   UNL     1     178.541 181.881 172.988  1.00  0.00    -0.469 OA
ATOM     15  C   UNL     1     178.732 183.079 173.730  1.00  0.00     0.282 C 
ENDBRANCH  12  14
ENDBRANCH  11  12
ENDBRANCH  10  11
ENDBRANCH   9  10
ENDBRANCH   8   9
ENDBRANCH   1   8
TORSDOF 11
ENDMDL
MODEL 6
REMARK VINA RESULT:    -0.173      3.256      5.168
REMARK INTER + INTRA:          -1.178
REMARK INTER:                  -0.615
REMARK INTRA:                  -0.563
REMARK UNBOUND:                -0.893
REMARK SMILES CCCCCCCCCCCC(=O)OC
REMARK SMILES IDX 7 1 6 2 5 3 4 4 3 5 2 6 1 7 8 8 9 9 10 10 11 11 12 12 13 13
REMARK SMILES IDX 14 14 15 15
REMARK H PARENT
REMARK Flexibility Score: inf
ROOT
ATOM      1  C   UNL     1     180.921 177.212 172.388  1.00  0.00     0.000 C 
ENDROOT
BRANCH   1   2
ATOM      2  C   UNL     1     182.029 177.272 173.457  1.00  0.00     0.000 C 
BRANCH   2   3
ATOM      3  C   UNL     1     181.791 178.347 174.540  1.00  0.00    -0.000 C 
BRANCH   3   4
ATOM      4  C   UNL     1     182.801 178.256 175.697  1.00  0.00    -0.000 C 
BRANCH   4   5
ATOM      5  C   UNL     1     182.432 179.190 176.869  1.00  0.00    -0.000 C 
BRANCH   5   6
ATOM      6  C   UNL     1     183.169 180.538 176.838  1.00  0.00    -0.003 C 
ATOM      7  C   UNL     1     182.795 181.452 178.002  1.00  0.00     0.004 C 
ENDBRANCH   5   6
ENDBRANCH   4   5
ENDBRANCH   3   4
ENDBRANCH   2   3
ENDBRANCH   1   2
BRANCH   1   8
ATOM      8  C   UNL     1     180.953 178.354 171.355  1.00  0.00     0.000 C 
BRANCH   8   9
ATOM      9  C   UNL     1     179.590 179.014 171.067  1.00  0.00     0.001 C 
BRANCH   9  10
ATOM     10  C   UNL     1     178.392 178.390 171.805  1.00  0.00     0.012 C 
BRANCH  10  11
ATOM     11  C   UNL     1     177.052 179.023 171.411  1.00  0.00     0.123 C 
BRANCH  11  12
ATOM     12  C   UNL     1     176.737 180.175 172.312  1.00  0.00     0.305 C 
ATOM     13  O   UNL     1     175.954 180.014 173.287  1.00  0.00    -0.252 OA
BRANCH  12  14
ATOM     14  O   UNL     1     177.283 181.432 172.033  1.00  0.00    -0.469 OA
ATOM     15  C   UNL     1     178.243 182.054 172.878  1.00  0.00     0.282 C 
ENDBRANCH  12  14
ENDBRANCH  11  12
ENDBRANCH  10  11
ENDBRANCH   9  10
ENDBRANCH   8   9
ENDBRANCH   1   8
TORSDOF 11
ENDMDL
MODEL 7
REMARK VINA RESULT:    -0.093      2.750      6.361
REMARK INTER + INTRA:          -1.046
REMARK INTER:                  -0.057
REMARK INTRA:                  -0.989
REMARK UNBOUND:                -0.893
REMARK SMILES CCCCCCCCCCCC(=O)OC
REMARK SMILES IDX 7 1 6 2 5 3 4 4 3 5 2 6 1 7 8 8 9 9 10 10 11 11 12 12 13 13
REMARK SMILES IDX 14 14 15 15
REMARK H PARENT
REMARK Flexibility Score: inf
ROOT
ATOM      1  C   UNL     1     181.262 177.765 173.044  1.00  0.00     0.000 C 
ENDROOT
BRANCH   1   2
ATOM      2  C   UNL     1     181.456 176.818 171.845  1.00  0.00     0.000 C 
BRANCH   2   3
ATOM      3  C   UNL     1     180.544 175.572 171.882  1.00  0.00    -0.000 C 
BRANCH   3   4
ATOM      4  C   UNL     1     179.490 175.643 173.003  1.00  0.00    -0.000 C 
BRANCH   4   5
ATOM      5  C   UNL     1     179.370 174.312 173.775  1.00  0.00    -0.000 C 
BRANCH   5   6
ATOM      6  C   UNL     1     178.079 174.194 174.602  1.00  0.00    -0.003 C 
ATOM      7  C   UNL     1     178.304 173.565 175.975  1.00  0.00     0.004 C 
ENDBRANCH   5   6
ENDBRANCH   4   5
ENDBRANCH   3   4
ENDBRANCH   2   3
ENDBRANCH   1   2
BRANCH   1   8
ATOM      8  C   UNL     1     180.499 179.064 172.727  1.00  0.00     0.000 C 
BRANCH   8   9
ATOM      9  C   UNL     1     180.039 179.213 171.262  1.00  0.00     0.001 C 
BRANCH   9  10
ATOM     10  C   UNL     1     178.587 178.784 170.987  1.00  0.00     0.012 C 
BRANCH  10  11
ATOM     11  C   UNL     1     177.708 178.810 172.244  1.00  0.00     0.123 C 
BRANCH  11  12
ATOM     12  C   UNL     1     176.903 180.070 172.289  1.00  0.00     0.305 C 
ATOM     13  O   UNL     1     175.679 180.022 172.587  1.00  0.00    -0.252 OA
BRANCH  12  14
ATOM     14  O   UNL     1     177.511 181.285 171.956  1.00  0.00    -0.469 OA
ATOM     15  C   UNL     1     178.225 182.069 172.904  1.00  0.00     0.282 C 
ENDBRANCH  12  14
ENDBRANCH  11  12
ENDBRANCH  10  11
ENDBRANCH   9  10
ENDBRANCH   8   9
ENDBRANCH   1   8
TORSDOF 11
ENDMDL
MODEL 8
REMARK VINA RESULT:     0.123      2.440      5.674
REMARK INTER + INTRA:          -0.691
REMARK INTER:                   0.091
REMARK INTRA:                  -0.782
REMARK UNBOUND:                -0.893
REMARK SMILES CCCCCCCCCCCC(=O)OC
REMARK SMILES IDX 7 1 6 2 5 3 4 4 3 5 2 6 1 7 8 8 9 9 10 10 11 11 12 12 13 13
REMARK SMILES IDX 14 14 15 15
REMARK H PARENT
REMARK Flexibility Score: inf
ROOT
ATOM      1  C   UNL     1     178.284 178.433 171.671  1.00  0.00     0.000 C 
ENDROOT
BRANCH   1   2
ATOM      2  C   UNL     1     179.329 178.953 170.667  1.00  0.00     0.000 C 
BRANCH   2   3
ATOM      3  C   UNL     1     180.739 179.133 171.272  1.00  0.00    -0.000 C 
BRANCH   3   4
ATOM      4  C   UNL     1     180.768 178.879 172.790  1.00  0.00    -0.000 C 
BRANCH   4   5
ATOM      5  C   UNL     1     181.595 177.629 173.157  1.00  0.00    -0.000 C 
BRANCH   5   6
ATOM      6  C   UNL     1     181.406 176.457 172.180  1.00  0.00    -0.003 C 
ATOM      7  C   UNL     1     180.143 175.645 172.457  1.00  0.00     0.004 C 
ENDBRANCH   5   6
ENDBRANCH   4   5
ENDBRANCH   3   4
ENDBRANCH   2   3
ENDBRANCH   1   2
BRANCH   1   8
ATOM      8  C   UNL     1     176.825 178.789 171.332  1.00  0.00     0.000 C 
BRANCH   8   9
ATOM      9  C   UNL     1     176.279 180.051 172.031  1.00  0.00     0.001 C 
BRANCH   9  10
ATOM     10  C   UNL     1     177.208 181.278 171.982  1.00  0.00     0.012 C 
BRANCH  10  11
ATOM     11  C   UNL     1     177.905 181.552 173.320  1.00  0.00     0.123 C 
BRANCH  11  12
ATOM     12  C   UNL     1     178.577 182.888 173.292  1.00  0.00     0.305 C 
ATOM     13  O   UNL     1     178.223 183.750 172.442  1.00  0.00    -0.252 OA
BRANCH  12  14
ATOM     14  O   UNL     1     179.623 183.150 174.182  1.00  0.00    -0.469 OA
ATOM     15  C   UNL     1     179.447 183.920 175.365  1.00  0.00     0.282 C 
ENDBRANCH  12  14
ENDBRANCH  11  12
ENDBRANCH  10  11
ENDBRANCH   9  10
ENDBRANCH   8   9
ENDBRANCH   1   8
TORSDOF 11
ENDMDL
MODEL 9
REMARK VINA RESULT:     0.418     14.857     16.694
REMARK INTER + INTRA:          -0.206
REMARK INTER:                   0.216
REMARK INTRA:                  -0.422
REMARK UNBOUND:                -0.893
REMARK SMILES CCCCCCCCCCCC(=O)OC
REMARK SMILES IDX 7 1 6 2 5 3 4 4 3 5 2 6 1 7 8 8 9 9 10 10 11 11 12 12 13 13
REMARK SMILES IDX 14 14 15 15
REMARK H PARENT
REMARK Flexibility Score: inf
ROOT
ATOM      1  C   UNL     1     172.340 168.980 181.145  1.00  0.00     0.000 C 
ENDROOT
BRANCH   1   2
ATOM      2  C   UNL     1     171.602 169.452 179.878  1.00  0.00     0.000 C 
BRANCH   2   3
ATOM      3  C   UNL     1     171.453 170.986 179.780  1.00  0.00    -0.000 C 
BRANCH   3   4
ATOM      4  C   UNL     1     170.767 171.433 178.476  1.00  0.00    -0.000 C 
BRANCH   4   5
ATOM      5  C   UNL     1     170.629 170.276 177.464  1.00  0.00    -0.000 C 
BRANCH   5   6
ATOM      6  C   UNL     1     170.527 170.745 176.003  1.00  0.00    -0.003 C 
ATOM      7  C   UNL     1     169.200 170.374 175.346  1.00  0.00     0.004 C 
ENDBRANCH   5   6
ENDBRANCH   4   5
ENDBRANCH   3   4
ENDBRANCH   2   3
ENDBRANCH   1   2
BRANCH   1   8
ATOM      8  C   UNL     1     171.517 169.063 182.443  1.00  0.00     0.000 C 
BRANCH   8   9
ATOM      9  C   UNL     1     172.299 169.535 183.686  1.00  0.00     0.001 C 
BRANCH   9  10
ATOM     10  C   UNL     1     171.441 170.173 184.794  1.00  0.00     0.012 C 
BRANCH  10  11
ATOM     11  C   UNL     1     172.236 171.134 185.685  1.00  0.00     0.123 C 
BRANCH  11  12
ATOM     12  C   UNL     1     172.249 170.641 187.098  1.00  0.00     0.305 C 
ATOM     13  O   UNL     1     172.613 169.460 187.347  1.00  0.00    -0.252 OA
BRANCH  12  14
ATOM     14  O   UNL     1     171.814 171.486 188.123  1.00  0.00    -0.469 OA
ATOM     15  C   UNL     1     170.820 172.484 187.923  1.00  0.00     0.282 C 
ENDBRANCH  12  14
ENDBRANCH  11  12
ENDBRANCH  10  11
ENDBRANCH   9  10
ENDBRANCH   8   9
ENDBRANCH   1   8
TORSDOF 11
ENDMDL
