MODEL 1
REMARK VINA RESULT:     7.267      0.000      0.000
REMARK INTER + INTRA:          11.666
REMARK INTER:                  12.366
REMARK INTRA:                  -0.700
REMARK UNBOUND:                -0.700
REMARK SMILES CCCCCCCCCCCCCC(=O)[O-]
REMARK SMILES IDX 8 1 9 2 10 3 11 4 12 5 13 6 14 7 15 8 16 9 7 10 6 11 5 12
REMARK SMILES IDX 4 13 3 14 2 15 1 16
REMARK H PARENT
REMARK Flexibility Score: inf
ROOT
ATOM      1  C   UNL     1      11.575  46.898   8.967  1.00  0.00     0.000 C 
ENDROOT
BRANCH   1   2
ATOM      2  C   UNL     1      12.791  47.402   9.756  1.00  0.00     0.000 C 
BRANCH   2   3
ATOM      3  C   UNL     1      14.058  47.371   8.892  1.00  0.00     0.000 C 
BRANCH   3   4
ATOM      4  C   UNL     1      15.204  46.657   9.617  1.00  0.00     0.000 C 
BRANCH   4   5
ATOM      5  C   UNL     1      15.524  45.313   8.954  1.00  0.00     0.006 C 
BRANCH   5   6
ATOM      6  C   UNL     1      15.444  44.166   9.966  1.00  0.00     0.053 C 
BRANCH   6   7
ATOM      7  C   UNL     1      14.410  43.170   9.548  1.00  0.00     0.041 C 
ATOM      8  O   UNL     1      14.591  41.941   9.761  1.00  0.00    -0.550 OA
ATOM      9  O   UNL     1      13.267  43.591   8.880  1.00  0.00    -0.550 OA
ENDBRANCH   6   7
ENDBRANCH   5   6
ENDBRANCH   4   5
ENDBRANCH   3   4
ENDBRANCH   2   3
ENDBRANCH   1   2
BRANCH   1  10
ATOM     10  C   UNL     1      10.445  47.940   8.880  1.00  0.00     0.000 C 
BRANCH  10  11
ATOM     11  C   UNL     1       9.019  47.362   8.981  1.00  0.00    -0.000 C 
BRANCH  11  12
ATOM     12  C   UNL     1       8.469  47.217  10.414  1.00  0.00    -0.000 C 
BRANCH  12  13
ATOM     13  C   UNL     1       7.610  48.396  10.903  1.00  0.00    -0.000 C 
BRANCH  13  14
ATOM     14  C   UNL     1       7.337  49.432   9.803  1.00  0.00    -0.000 C 
BRANCH  14  15
ATOM     15  C   UNL     1       5.952  49.222   9.182  1.00  0.00    -0.003 C 
ATOM     16  C   UNL     1       4.981  48.619  10.193  1.00  0.00     0.004 C 
ENDBRANCH  14  15
ENDBRANCH  13  14
ENDBRANCH  12  13
ENDBRANCH  11  12
ENDBRANCH  10  11
ENDBRANCH   1  10
TORSDOF 12
ENDMDL
MODEL 2
REMARK VINA RESULT:     7.520      3.862      8.628
REMARK INTER + INTRA:          12.096
REMARK INTER:                  11.048
REMARK INTRA:                   1.048
REMARK UNBOUND:                -0.700
REMARK SMILES CCCCCCCCCCCCCC(=O)[O-]
REMARK SMILES IDX 8 1 9 2 10 3 11 4 12 5 13 6 14 7 15 8 16 9 7 10 6 11 5 12
REMARK SMILES IDX 4 13 3 14 2 15 1 16
REMARK H PARENT
REMARK Flexibility Score: inf
ROOT
ATOM      1  C   UNL     1      11.019  47.128   9.238  1.00  0.00     0.000 C 
ENDROOT
BRANCH   1   2
ATOM      2  C   UNL     1       9.742  47.898   8.875  1.00  0.00     0.000 C 
BRANCH   2   3
ATOM      3  C   UNL     1       8.504  47.002   9.007  1.00  0.00     0.000 C 
BRANCH   3   4
ATOM      4  C   UNL     1       7.413  47.687   9.837  1.00  0.00     0.000 C 
BRANCH   4   5
ATOM      5  C   UNL     1       6.660  48.731   9.005  1.00  0.00     0.006 C 
BRANCH   5   6
ATOM      6  C   UNL     1       5.707  49.550   9.880  1.00  0.00     0.053 C 
BRANCH   6   7
ATOM      7  C   UNL     1       4.668  48.666  10.494  1.00  0.00     0.041 C 
ATOM      8  O   UNL     1       5.012  47.647  11.151  1.00  0.00    -0.550 OA
ATOM      9  O   UNL     1       3.320  48.937  10.298  1.00  0.00    -0.550 OA
ENDBRANCH   6   7
ENDBRANCH   5   6
ENDBRANCH   4   5
ENDBRANCH   3   4
ENDBRANCH   2   3
ENDBRANCH   1   2
BRANCH   1  10
ATOM     10  C   UNL     1      12.301  47.938   8.977  1.00  0.00     0.000 C 
BRANCH  10  11
ATOM     11  C   UNL     1      13.591  47.100   8.876  1.00  0.00    -0.000 C 
BRANCH  11  12
ATOM     12  C   UNL     1      13.551  45.743   9.607  1.00  0.00    -0.000 C 
BRANCH  12  13
ATOM     13  C   UNL     1      14.429  44.644   8.984  1.00  0.00    -0.000 C 
BRANCH  13  14
ATOM     14  C   UNL     1      15.932  44.929   9.122  1.00  0.00    -0.000 C 
BRANCH  14  15
ATOM     15  C   UNL     1      16.226  46.421   8.936  1.00  0.00    -0.003 C 
ATOM     16  C   UNL     1      17.700  46.727   9.188  1.00  0.00     0.004 C 
ENDBRANCH  14  15
ENDBRANCH  13  14
ENDBRANCH  12  13
ENDBRANCH  11  12
ENDBRANCH  10  11
ENDBRANCH   1  10
TORSDOF 12
ENDMDL
MODEL 3
REMARK VINA RESULT:     9.448      4.106      8.507
REMARK INTER + INTRA:          15.376
REMARK INTER:                  13.895
REMARK INTRA:                   1.481
REMARK UNBOUND:                -0.700
REMARK SMILES CCCCCCCCCCCCCC(=O)[O-]
REMARK SMILES IDX 8 1 9 2 10 3 11 4 12 5 13 6 14 7 15 8 16 9 7 10 6 11 5 12
REMARK SMILES IDX 4 13 3 14 2 15 1 16
REMARK H PARENT
REMARK Flexibility Score: inf
ROOT
ATOM      1  C   UNL     1       8.626  47.412  10.439  1.00  0.00     0.000 C 
ENDROOT
BRANCH   1   2
ATOM      2  C   UNL     1       7.244  48.081  10.455  1.00  0.00     0.000 C 
BRANCH   2   3
ATOM      3  C   UNL     1       7.360  49.586  10.185  1.00  0.00     0.000 C 
BRANCH   3   4
ATOM      4  C   UNL     1       6.661  49.967   8.875  1.00  0.00     0.000 C 
BRANCH   4   5
ATOM      5  C   UNL     1       5.186  49.552   8.897  1.00  0.00     0.006 C 
BRANCH   5   6
ATOM      6  C   UNL     1       5.008  48.185   9.565  1.00  0.00     0.053 C 
BRANCH   6   7
ATOM      7  C   UNL     1       4.122  48.298  10.764  1.00  0.00     0.041 C 
ATOM      8  O   UNL     1       3.157  49.108  10.764  1.00  0.00    -0.550 OA
ATOM      9  O   UNL     1       4.389  47.545  11.901  1.00  0.00    -0.550 OA
ENDBRANCH   6   7
ENDBRANCH   5   6
ENDBRANCH   4   5
ENDBRANCH   3   4
ENDBRANCH   2   3
ENDBRANCH   1   2
BRANCH   1  10
ATOM     10  C   UNL     1       9.299  47.462   9.056  1.00  0.00     0.000 C 
BRANCH  10  11
ATOM     11  C   UNL     1      10.488  46.496   8.876  1.00  0.00    -0.000 C 
BRANCH  11  12
ATOM     12  C   UNL     1      11.879  47.161   8.876  1.00  0.00    -0.000 C 
BRANCH  12  13
ATOM     13  C   UNL     1      12.953  46.421   9.694  1.00  0.00    -0.000 C 
BRANCH  13  14
ATOM     14  C   UNL     1      14.301  46.327   8.965  1.00  0.00    -0.000 C 
BRANCH  14  15
ATOM     15  C   UNL     1      15.351  47.218   9.636  1.00  0.00    -0.003 C 
ATOM     16  C   UNL     1      15.107  47.319  11.139  1.00  0.00     0.004 C 
ENDBRANCH  14  15
ENDBRANCH  13  14
ENDBRANCH  12  13
ENDBRANCH  11  12
ENDBRANCH  10  11
ENDBRANCH   1  10
TORSDOF 12
ENDMDL
MODEL 4
REMARK VINA RESULT:     9.809      5.245      7.739
REMARK INTER + INTRA:          15.991
REMARK INTER:                  16.203
REMARK INTRA:                  -0.212
REMARK UNBOUND:                -0.700
REMARK SMILES CCCCCCCCCCCCCC(=O)[O-]
REMARK SMILES IDX 8 1 9 2 10 3 11 4 12 5 13 6 14 7 15 8 16 9 7 10 6 11 5 12
REMARK SMILES IDX 4 13 3 14 2 15 1 16
REMARK H PARENT
REMARK Flexibility Score: inf
ROOT
ATOM      1  C   UNL     1       4.536  47.855  10.233  1.00  0.00     0.000 C 
ENDROOT
BRANCH   1   2
ATOM      2  C   UNL     1       4.266  48.841   9.088  1.00  0.00     0.000 C 
BRANCH   2   3
ATOM      3  C   UNL     1       5.294  49.980   9.090  1.00  0.00     0.000 C 
BRANCH   3   4
ATOM      4  C   UNL     1       6.550  49.587   9.874  1.00  0.00     0.000 C 
BRANCH   4   5
ATOM      5  C   UNL     1       7.743  49.378   8.935  1.00  0.00     0.006 C 
BRANCH   5   6
ATOM      6  C   UNL     1       8.144  47.900   8.875  1.00  0.00     0.053 C 
BRANCH   6   7
ATOM      7  C   UNL     1       7.892  47.235  10.191  1.00  0.00     0.041 C 
ATOM      8  O   UNL     1       7.171  46.204  10.252  1.00  0.00    -0.550 OA
ATOM      9  O   UNL     1       8.412  47.781  11.358  1.00  0.00    -0.550 OA
ENDBRANCH   6   7
ENDBRANCH   5   6
ENDBRANCH   4   5
ENDBRANCH   3   4
ENDBRANCH   2   3
ENDBRANCH   1   2
BRANCH   1  10
ATOM     10  C   UNL     1       3.982  48.341  11.584  1.00  0.00     0.000 C 
BRANCH  10  11
ATOM     11  C   UNL     1       4.929  48.140  12.785  1.00  0.00    -0.000 C 
BRANCH  11  12
ATOM     12  C   UNL     1       4.232  47.987  14.151  1.00  0.00    -0.000 C 
BRANCH  12  13
ATOM     13  C   UNL     1       2.998  47.066  14.151  1.00  0.00    -0.000 C 
BRANCH  13  14
ATOM     14  C   UNL     1       2.308  46.992  15.521  1.00  0.00    -0.000 C 
BRANCH  14  15
ATOM     15  C   UNL     1       3.252  46.414  16.580  1.00  0.00    -0.003 C 
ATOM     16  C   UNL     1       3.260  44.889  16.538  1.00  0.00     0.004 C 
ENDBRANCH  14  15
ENDBRANCH  13  14
ENDBRANCH  12  13
ENDBRANCH  11  12
ENDBRANCH  10  11
ENDBRANCH   1  10
TORSDOF 12
ENDMDL
