MODEL 1
REMARK VINA RESULT:    -3.221      0.000      0.000
REMARK INTER + INTRA:          -6.268
REMARK INTER:                  -5.103
REMARK INTRA:                  -1.165
REMARK UNBOUND:                -1.165
REMARK SMILES CCCCCCCCCCCC(=O)[O-]
REMARK SMILES IDX 7 1 8 2 9 3 10 4 11 5 12 6 13 7 14 8 6 9 5 10 4 11 3 12 2 13
REMARK SMILES IDX 1 14
REMARK H PARENT
REMARK Flexibility Score: inf
ROOT
ATOM      1  C   UNL     1      10.037  -3.455  20.522  1.00  0.00     0.000 C 
ENDROOT
BRANCH   1   2
ATOM      2  C   UNL     1       9.142  -2.996  19.357  1.00  0.00     0.000 C 
BRANCH   2   3
ATOM      3  C   UNL     1       7.696  -2.716  19.800  1.00  0.00     0.000 C 
BRANCH   3   4
ATOM      4  C   UNL     1       6.665  -3.068  18.719  1.00  0.00     0.006 C 
BRANCH   4   5
ATOM      5  C   UNL     1       6.173  -1.807  18.000  1.00  0.00     0.053 C 
BRANCH   5   6
ATOM      6  C   UNL     1       6.186  -2.009  16.518  1.00  0.00     0.041 C 
ATOM      7  O   UNL     1       5.125  -1.876  15.852  1.00  0.00    -0.550 OA
ATOM      8  O   UNL     1       7.378  -2.294  15.866  1.00  0.00    -0.550 OA
ENDBRANCH   5   6
ENDBRANCH   4   5
ENDBRANCH   3   4
ENDBRANCH   2   3
ENDBRANCH   1   2
BRANCH   1   9
ATOM      9  C   UNL     1      10.826  -4.733  20.190  1.00  0.00     0.000 C 
BRANCH   9  10
ATOM     10  C   UNL     1       9.928  -5.976  20.091  1.00  0.00    -0.000 C 
BRANCH  10  11
ATOM     11  C   UNL     1      10.371  -6.883  18.936  1.00  0.00    -0.000 C 
BRANCH  11  12
ATOM     12  C   UNL     1       9.161  -7.390  18.139  1.00  0.00    -0.000 C 
BRANCH  12  13
ATOM     13  C   UNL     1       8.241  -6.250  17.674  1.00  0.00    -0.003 C 
ATOM     14  C   UNL     1       8.872  -5.390  16.579  1.00  0.00     0.004 C 
ENDBRANCH  12  13
ENDBRANCH  11  12
ENDBRANCH  10  11
ENDBRANCH   9  10
ENDBRANCH   1   9
TORSDOF 10
ENDMDL
MODEL 2
REMARK VINA RESULT:    -3.147      0.940      1.823
REMARK INTER + INTRA:          -6.151
REMARK INTER:                  -5.053
REMARK INTRA:                  -1.099
REMARK UNBOUND:                -1.165
REMARK SMILES CCCCCCCCCCCC(=O)[O-]
REMARK SMILES IDX 7 1 8 2 9 3 10 4 11 5 12 6 13 7 14 8 6 9 5 10 4 11 3 12 2 13
REMARK SMILES IDX 1 14
REMARK H PARENT
REMARK Flexibility Score: inf
ROOT
ATOM      1  C   UNL     1       9.024  -2.602  19.622  1.00  0.00     0.000 C 
ENDROOT
BRANCH   1   2
ATOM      2  C   UNL     1       7.579  -2.496  20.141  1.00  0.00     0.000 C 
BRANCH   2   3
ATOM      3  C   UNL     1       6.546  -2.980  19.111  1.00  0.00     0.000 C 
BRANCH   3   4
ATOM      4  C   UNL     1       5.631  -1.852  18.612  1.00  0.00     0.006 C 
BRANCH   4   5
ATOM      5  C   UNL     1       6.321  -1.032  17.516  1.00  0.00     0.053 C 
BRANCH   5   6
ATOM      6  C   UNL     1       6.240  -1.741  16.201  1.00  0.00     0.041 C 
ATOM      7  O   UNL     1       7.253  -2.326  15.734  1.00  0.00    -0.550 OA
ATOM      8  O   UNL     1       5.033  -1.800  15.516  1.00  0.00    -0.550 OA
ENDBRANCH   5   6
ENDBRANCH   4   5
ENDBRANCH   3   4
ENDBRANCH   2   3
ENDBRANCH   1   2
BRANCH   1   9
ATOM      9  C   UNL     1       9.762  -3.833  20.178  1.00  0.00     0.000 C 
BRANCH   9  10
ATOM     10  C   UNL     1       9.892  -4.963  19.145  1.00  0.00    -0.000 C 
BRANCH  10  11
ATOM     11  C   UNL     1       9.697  -4.430  17.721  1.00  0.00    -0.000 C 
BRANCH  11  12
ATOM     12  C   UNL     1       8.695  -5.295  16.942  1.00  0.00    -0.000 C 
BRANCH  12  13
ATOM     13  C   UNL     1       8.047  -6.380  17.817  1.00  0.00    -0.003 C 
ATOM     14  C   UNL     1       7.796  -7.681  17.057  1.00  0.00     0.004 C 
ENDBRANCH  12  13
ENDBRANCH  11  12
ENDBRANCH  10  11
ENDBRANCH   9  10
ENDBRANCH   1   9
TORSDOF 10
ENDMDL
MODEL 3
REMARK VINA RESULT:    -3.090      8.958      9.979
REMARK INTER + INTRA:          -6.061
REMARK INTER:                  -5.513
REMARK INTRA:                  -0.548
REMARK UNBOUND:                -1.165
REMARK SMILES CCCCCCCCCCCC(=O)[O-]
REMARK SMILES IDX 7 1 8 2 9 3 10 4 11 5 12 6 13 7 14 8 6 9 5 10 4 11 3 12 2 13
REMARK SMILES IDX 1 14
REMARK H PARENT
REMARK Flexibility Score: inf
ROOT
ATOM      1  C   UNL     1       1.271  -3.781  24.356  1.00  0.00     0.000 C 
ENDROOT
BRANCH   1   2
ATOM      2  C   UNL     1       0.502  -2.529  23.896  1.00  0.00     0.000 C 
BRANCH   2   3
ATOM      3  C   UNL     1       0.011  -2.641  22.443  1.00  0.00     0.000 C 
BRANCH   3   4
ATOM      4  C   UNL     1      -1.022  -1.565  22.081  1.00  0.00     0.006 C 
BRANCH   4   5
ATOM      5  C   UNL     1      -0.735  -0.973  20.696  1.00  0.00     0.053 C 
BRANCH   5   6
ATOM      6  C   UNL     1       0.399  -0.001  20.767  1.00  0.00     0.041 C 
ATOM      7  O   UNL     1       0.514   0.767  21.758  1.00  0.00    -0.550 OA
ATOM      8  O   UNL     1       1.357   0.024  19.762  1.00  0.00    -0.550 OA
ENDBRANCH   5   6
ENDBRANCH   4   5
ENDBRANCH   3   4
ENDBRANCH   2   3
ENDBRANCH   1   2
BRANCH   1   9
ATOM      9  C   UNL     1       0.344  -4.981  24.614  1.00  0.00     0.000 C 
BRANCH   9  10
ATOM     10  C   UNL     1       0.795  -6.249  23.873  1.00  0.00    -0.000 C 
BRANCH  10  11
ATOM     11  C   UNL     1       0.583  -7.496  24.740  1.00  0.00    -0.000 C 
BRANCH  11  12
ATOM     12  C   UNL     1      -0.065  -7.129  26.083  1.00  0.00    -0.000 C 
BRANCH  12  13
ATOM     13  C   UNL     1       0.308  -8.111  27.205  1.00  0.00    -0.003 C 
ATOM     14  C   UNL     1       1.353  -9.137  26.771  1.00  0.00     0.004 C 
ENDBRANCH  12  13
ENDBRANCH  11  12
ENDBRANCH  10  11
ENDBRANCH   9  10
ENDBRANCH   1   9
TORSDOF 10
ENDMDL
MODEL 4
REMARK VINA RESULT:    -3.071      1.119      2.337
REMARK INTER + INTRA:          -6.031
REMARK INTER:                  -4.717
REMARK INTRA:                  -1.313
REMARK UNBOUND:                -1.165
REMARK SMILES CCCCCCCCCCCC(=O)[O-]
REMARK SMILES IDX 7 1 8 2 9 3 10 4 11 5 12 6 13 7 14 8 6 9 5 10 4 11 3 12 2 13
REMARK SMILES IDX 1 14
REMARK H PARENT
REMARK Flexibility Score: inf
ROOT
ATOM      1  C   UNL     1       9.007  -2.202  17.930  1.00  0.00     0.000 C 
ENDROOT
BRANCH   1   2
ATOM      2  C   UNL     1       8.804  -2.355  19.448  1.00  0.00     0.000 C 
BRANCH   2   3
ATOM      3  C   UNL     1       7.332  -2.586  19.826  1.00  0.00     0.000 C 
BRANCH   3   4
ATOM      4  C   UNL     1       6.439  -2.848  18.605  1.00  0.00     0.006 C 
BRANCH   4   5
ATOM      5  C   UNL     1       5.435  -1.708  18.405  1.00  0.00     0.053 C 
BRANCH   5   6
ATOM      6  C   UNL     1       5.402  -1.282  16.972  1.00  0.00     0.041 C 
ATOM      7  O   UNL     1       4.856  -0.195  16.647  1.00  0.00    -0.550 OA
ATOM      8  O   UNL     1       6.018  -2.061  16.001  1.00  0.00    -0.550 OA
ENDBRANCH   5   6
ENDBRANCH   4   5
ENDBRANCH   3   4
ENDBRANCH   2   3
ENDBRANCH   1   2
BRANCH   1   9
ATOM      9  C   UNL     1       9.755  -3.395  17.312  1.00  0.00     0.000 C 
BRANCH   9  10
ATOM     10  C   UNL     1       8.884  -4.202  16.337  1.00  0.00    -0.000 C 
BRANCH  10  11
ATOM     11  C   UNL     1       8.884  -5.691  16.703  1.00  0.00    -0.000 C 
BRANCH  11  12
ATOM     12  C   UNL     1       8.425  -5.900  18.154  1.00  0.00    -0.000 C 
BRANCH  12  13
ATOM     13  C   UNL     1       9.471  -6.641  19.002  1.00  0.00    -0.003 C 
ATOM     14  C   UNL     1       9.947  -5.822  20.201  1.00  0.00     0.004 C 
ENDBRANCH  12  13
ENDBRANCH  11  12
ENDBRANCH  10  11
ENDBRANCH   9  10
ENDBRANCH   1   9
TORSDOF 10
ENDMDL
MODEL 5
REMARK VINA RESULT:    -3.016      9.800     11.985
REMARK INTER + INTRA:          -5.944
REMARK INTER:                  -4.754
REMARK INTRA:                  -1.191
REMARK UNBOUND:                -1.165
REMARK SMILES CCCCCCCCCCCC(=O)[O-]
REMARK SMILES IDX 7 1 8 2 9 3 10 4 11 5 12 6 13 7 14 8 6 9 5 10 4 11 3 12 2 13
REMARK SMILES IDX 1 14
REMARK H PARENT
REMARK Flexibility Score: inf
ROOT
ATOM      1  C   UNL     1      -2.313  -2.796  24.106  1.00  0.00     0.000 C 
ENDROOT
BRANCH   1   2
ATOM      2  C   UNL     1      -0.837  -2.381  24.239  1.00  0.00     0.000 C 
BRANCH   2   3
ATOM      3  C   UNL     1       0.098  -3.241  23.373  1.00  0.00     0.000 C 
BRANCH   3   4
ATOM      4  C   UNL     1       1.045  -4.114  24.207  1.00  0.00     0.006 C 
BRANCH   4   5
ATOM      5  C   UNL     1       0.914  -5.591  23.818  1.00  0.00     0.053 C 
BRANCH   5   6
ATOM      6  C   UNL     1       0.146  -6.342  24.858  1.00  0.00     0.041 C 
ATOM      7  O   UNL     1      -0.462  -5.719  25.768  1.00  0.00    -0.550 OA
ATOM      8  O   UNL     1       0.058  -7.726  24.793  1.00  0.00    -0.550 OA
ENDBRANCH   5   6
ENDBRANCH   4   5
ENDBRANCH   3   4
ENDBRANCH   2   3
ENDBRANCH   1   2
BRANCH   1   9
ATOM      9  C   UNL     1      -3.189  -1.680  23.513  1.00  0.00     0.000 C 
BRANCH   9  10
ATOM     10  C   UNL     1      -3.670  -1.996  22.088  1.00  0.00    -0.000 C 
BRANCH  10  11
ATOM     11  C   UNL     1      -2.778  -1.315  21.044  1.00  0.00    -0.000 C 
BRANCH  11  12
ATOM     12  C   UNL     1      -2.264   0.038  21.557  1.00  0.00    -0.000 C 
BRANCH  12  13
ATOM     13  C   UNL     1      -0.745   0.197  21.382  1.00  0.00    -0.003 C 
ATOM     14  C   UNL     1      -0.143  -0.857  20.453  1.00  0.00     0.004 C 
ENDBRANCH  12  13
ENDBRANCH  11  12
ENDBRANCH  10  11
ENDBRANCH   9  10
ENDBRANCH   1   9
TORSDOF 10
ENDMDL
MODEL 6
REMARK VINA RESULT:    -2.993      8.979     10.139
REMARK INTER + INTRA:          -5.907
REMARK INTER:                  -5.354
REMARK INTRA:                  -0.553
REMARK UNBOUND:                -1.165
REMARK SMILES CCCCCCCCCCCC(=O)[O-]
REMARK SMILES IDX 7 1 8 2 9 3 10 4 11 5 12 6 13 7 14 8 6 9 5 10 4 11 3 12 2 13
REMARK SMILES IDX 1 14
REMARK H PARENT
REMARK Flexibility Score: inf
ROOT
ATOM      1  C   UNL     1      -1.018  -2.831  23.883  1.00  0.00     0.000 C 
ENDROOT
BRANCH   1   2
ATOM      2  C   UNL     1      -1.373  -1.473  23.252  1.00  0.00     0.000 C 
BRANCH   2   3
ATOM      3  C   UNL     1      -2.245  -1.619  21.994  1.00  0.00     0.000 C 
BRANCH   3   4
ATOM      4  C   UNL     1      -1.686  -0.847  20.790  1.00  0.00     0.006 C 
BRANCH   4   5
ATOM      5  C   UNL     1      -0.185  -1.109  20.622  1.00  0.00     0.053 C 
BRANCH   5   6
ATOM      6  C   UNL     1       0.554   0.179  20.441  1.00  0.00     0.041 C 
ATOM      7  O   UNL     1       1.502   0.254  19.615  1.00  0.00    -0.550 OA
ATOM      8  O   UNL     1       0.165   1.310  21.148  1.00  0.00    -0.550 OA
ENDBRANCH   5   6
ENDBRANCH   4   5
ENDBRANCH   3   4
ENDBRANCH   2   3
ENDBRANCH   1   2
BRANCH   1   9
ATOM      9  C   UNL     1       0.258  -3.445  23.283  1.00  0.00     0.000 C 
BRANCH   9  10
ATOM     10  C   UNL     1       1.071  -4.248  24.310  1.00  0.00    -0.000 C 
BRANCH  10  11
ATOM     11  C   UNL     1       0.255  -5.426  24.856  1.00  0.00    -0.000 C 
BRANCH  11  12
ATOM     12  C   UNL     1       0.636  -6.734  24.147  1.00  0.00    -0.000 C 
BRANCH  12  13
ATOM     13  C   UNL     1       0.224  -7.980  24.948  1.00  0.00    -0.003 C 
ATOM     14  C   UNL     1       0.224  -7.740  26.457  1.00  0.00     0.004 C 
ENDBRANCH  12  13
ENDBRANCH  11  12
ENDBRANCH  10  11
ENDBRANCH   9  10
ENDBRANCH   1   9
TORSDOF 10
ENDMDL
MODEL 7
REMARK VINA RESULT:    -2.976      8.705     10.220
REMARK INTER + INTRA:          -5.881
REMARK INTER:                  -4.718
REMARK INTRA:                  -1.163
REMARK UNBOUND:                -1.165
REMARK SMILES CCCCCCCCCCCC(=O)[O-]
REMARK SMILES IDX 7 1 8 2 9 3 10 4 11 5 12 6 13 7 14 8 6 9 5 10 4 11 3 12 2 13
REMARK SMILES IDX 1 14
REMARK H PARENT
REMARK Flexibility Score: inf
ROOT
ATOM      1  C   UNL     1      -2.667  -1.156  23.051  1.00  0.00     0.000 C 
ENDROOT
BRANCH   1   2
ATOM      2  C   UNL     1      -1.873  -0.232  22.110  1.00  0.00     0.000 C 
BRANCH   2   3
ATOM      3  C   UNL     1      -1.524  -0.911  20.775  1.00  0.00     0.000 C 
BRANCH   3   4
ATOM      4  C   UNL     1      -0.023  -0.861  20.457  1.00  0.00     0.006 C 
BRANCH   4   5
ATOM      5  C   UNL     1       0.624   0.390  21.063  1.00  0.00     0.053 C 
BRANCH   5   6
ATOM      6  C   UNL     1       1.323   1.183  20.005  1.00  0.00     0.041 C 
ATOM      7  O   UNL     1       2.243   0.657  19.324  1.00  0.00    -0.550 OA
ATOM      8  O   UNL     1       0.926   2.487  19.737  1.00  0.00    -0.550 OA
ENDBRANCH   5   6
ENDBRANCH   4   5
ENDBRANCH   3   4
ENDBRANCH   2   3
ENDBRANCH   1   2
BRANCH   1   9
ATOM      9  C   UNL     1      -1.772  -1.843  24.097  1.00  0.00     0.000 C 
BRANCH   9  10
ATOM     10  C   UNL     1      -0.474  -1.068  24.369  1.00  0.00    -0.000 C 
BRANCH  10  11
ATOM     11  C   UNL     1       0.755  -1.921  24.035  1.00  0.00    -0.000 C 
BRANCH  11  12
ATOM     12  C   UNL     1       0.344  -3.342  23.625  1.00  0.00    -0.000 C 
BRANCH  12  13
ATOM     13  C   UNL     1       1.255  -4.419  24.237  1.00  0.00    -0.003 C 
ATOM     14  C   UNL     1       0.825  -5.838  23.865  1.00  0.00     0.004 C 
ENDBRANCH  12  13
ENDBRANCH  11  12
ENDBRANCH  10  11
ENDBRANCH   9  10
ENDBRANCH   1   9
TORSDOF 10
ENDMDL
MODEL 8
REMARK VINA RESULT:    -2.964      2.704      4.867
REMARK INTER + INTRA:          -5.861
REMARK INTER:                  -4.850
REMARK INTRA:                  -1.012
REMARK UNBOUND:                -1.165
REMARK SMILES CCCCCCCCCCCC(=O)[O-]
REMARK SMILES IDX 7 1 8 2 9 3 10 4 11 5 12 6 13 7 14 8 6 9 5 10 4 11 3 12 2 13
REMARK SMILES IDX 1 14
REMARK H PARENT
REMARK Flexibility Score: inf
ROOT
ATOM      1  C   UNL     1       9.562  -2.981  19.916  1.00  0.00     0.000 C 
ENDROOT
BRANCH   1   2
ATOM      2  C   UNL     1       9.780  -4.497  20.064  1.00  0.00     0.000 C 
BRANCH   2   3
ATOM      3  C   UNL     1       9.865  -5.216  18.708  1.00  0.00     0.000 C 
BRANCH   3   4
ATOM      4  C   UNL     1       9.188  -6.594  18.722  1.00  0.00     0.006 C 
BRANCH   4   5
ATOM      5  C   UNL     1       8.066  -6.663  17.680  1.00  0.00     0.053 C 
BRANCH   5   6
ATOM      6  C   UNL     1       7.922  -8.056  17.156  1.00  0.00     0.041 C 
ATOM      7  O   UNL     1       6.991  -8.339  16.357  1.00  0.00    -0.550 OA
ATOM      8  O   UNL     1       8.845  -9.032  17.512  1.00  0.00    -0.550 OA
ENDBRANCH   5   6
ENDBRANCH   4   5
ENDBRANCH   3   4
ENDBRANCH   2   3
ENDBRANCH   1   2
BRANCH   1   9
ATOM      9  C   UNL     1       8.397  -2.464  20.777  1.00  0.00     0.000 C 
BRANCH   9  10
ATOM     10  C   UNL     1       7.296  -1.791  19.944  1.00  0.00    -0.000 C 
BRANCH  10  11
ATOM     11  C   UNL     1       6.582  -2.812  19.051  1.00  0.00    -0.000 C 
BRANCH  11  12
ATOM     12  C   UNL     1       5.838  -2.114  17.902  1.00  0.00    -0.000 C 
BRANCH  12  13
ATOM     13  C   UNL     1       6.691  -2.006  16.628  1.00  0.00    -0.003 C 
ATOM     14  C   UNL     1       7.760  -3.094  16.537  1.00  0.00     0.004 C 
ENDBRANCH  12  13
ENDBRANCH  11  12
ENDBRANCH  10  11
ENDBRANCH   9  10
ENDBRANCH   1   9
TORSDOF 10
ENDMDL
MODEL 9
REMARK VINA RESULT:    -2.884      1.569      2.580
REMARK INTER + INTRA:          -5.735
REMARK INTER:                  -4.867
REMARK INTRA:                  -0.868
REMARK UNBOUND:                -1.165
REMARK SMILES CCCCCCCCCCCC(=O)[O-]
REMARK SMILES IDX 7 1 8 2 9 3 10 4 11 5 12 6 13 7 14 8 6 9 5 10 4 11 3 12 2 13
REMARK SMILES IDX 1 14
REMARK H PARENT
REMARK Flexibility Score: inf
ROOT
ATOM      1  C   UNL     1      10.786  -5.150  20.148  1.00  0.00     0.000 C 
ENDROOT
BRANCH   1   2
ATOM      2  C   UNL     1      10.242  -3.787  20.611  1.00  0.00     0.000 C 
BRANCH   2   3
ATOM      3  C   UNL     1       9.343  -3.123  19.555  1.00  0.00     0.000 C 
BRANCH   3   4
ATOM      4  C   UNL     1       7.956  -2.756  20.101  1.00  0.00     0.006 C 
BRANCH   4   5
ATOM      5  C   UNL     1       6.860  -3.099  19.087  1.00  0.00     0.053 C 
BRANCH   5   6
ATOM      6  C   UNL     1       6.115  -1.866  18.683  1.00  0.00     0.041 C 
ATOM      7  O   UNL     1       6.735  -0.788  18.486  1.00  0.00    -0.550 OA
ATOM      8  O   UNL     1       4.742  -1.920  18.476  1.00  0.00    -0.550 OA
ENDBRANCH   5   6
ENDBRANCH   4   5
ENDBRANCH   3   4
ENDBRANCH   2   3
ENDBRANCH   1   2
BRANCH   1   9
ATOM      9  C   UNL     1       9.666  -6.146  19.803  1.00  0.00     0.000 C 
BRANCH   9  10
ATOM     10  C   UNL     1       9.733  -6.631  18.346  1.00  0.00    -0.000 C 
BRANCH  10  11
ATOM     11  C   UNL     1       8.442  -6.287  17.594  1.00  0.00    -0.000 C 
BRANCH  11  12
ATOM     12  C   UNL     1       7.702  -7.561  17.159  1.00  0.00    -0.000 C 
BRANCH  12  13
ATOM     13  C   UNL     1       8.540  -8.831  17.370  1.00  0.00    -0.003 C 
ATOM     14  C   UNL     1       7.714 -10.112  17.253  1.00  0.00     0.004 C 
ENDBRANCH  12  13
ENDBRANCH  11  12
ENDBRANCH  10  11
ENDBRANCH   9  10
ENDBRANCH   1   9
TORSDOF 10
ENDMDL
