MODEL 1
REMARK VINA RESULT:    -3.351      0.000      0.000
REMARK INTER + INTRA:          -9.070
REMARK INTER:                  -6.485
REMARK INTRA:                  -2.584
REMARK UNBOUND:                -2.584
REMARK SMILES CCCCCCCCCCCCCCCCCC(=O)[O-]
REMARK SMILES IDX 10 1 11 2 12 3 13 4 14 5 15 6 16 7 17 8 18 9 19 10 20 11
REMARK SMILES IDX 9 12 8 13 7 14 6 15 5 16 4 17 3 18 2 19 1 20
REMARK H PARENT
REMARK Flexibility Score: inf
ROOT
ATOM      1  C   UNL     1      55.921  26.168  49.795  1.00  0.00     0.000 C 
ENDROOT
BRANCH   1   2
ATOM      2  C   UNL     1      55.977  26.333  51.324  1.00  0.00     0.000 C 
BRANCH   2   3
ATOM      3  C   UNL     1      56.657  27.644  51.749  1.00  0.00     0.000 C 
BRANCH   3   4
ATOM      4  C   UNL     1      56.836  28.623  50.573  1.00  0.00     0.000 C 
BRANCH   4   5
ATOM      5  C   UNL     1      58.242  29.242  50.527  1.00  0.00     0.000 C 
BRANCH   5   6
ATOM      6  C   UNL     1      58.897  29.112  49.140  1.00  0.00     0.000 C 
BRANCH   6   7
ATOM      7  C   UNL     1      60.010  28.048  49.107  1.00  0.00     0.006 C 
BRANCH   7   8
ATOM      8  C   UNL     1      59.532  26.620  49.414  1.00  0.00     0.053 C 
BRANCH   8   9
ATOM      9  C   UNL     1      60.272  26.015  50.566  1.00  0.00     0.041 C 
ATOM     10  O   UNL     1      61.266  25.269  50.359  1.00  0.00    -0.550 OA
ATOM     11  O   UNL     1      59.886  26.302  51.869  1.00  0.00    -0.550 OA
ENDBRANCH   8   9
ENDBRANCH   7   8
ENDBRANCH   6   7
ENDBRANCH   5   6
ENDBRANCH   4   5
ENDBRANCH   3   4
ENDBRANCH   2   3
ENDBRANCH   1   2
BRANCH   1  12
ATOM     12  C   UNL     1      54.523  25.767  49.294  1.00  0.00     0.000 C 
BRANCH  12  13
ATOM     13  C   UNL     1      53.397  26.481  50.062  1.00  0.00    -0.000 C 
BRANCH  13  14
ATOM     14  C   UNL     1      52.998  27.823  49.424  1.00  0.00    -0.000 C 
BRANCH  14  15
ATOM     15  C   UNL     1      53.178  29.057  50.329  1.00  0.00    -0.000 C 
BRANCH  15  16
ATOM     16  C   UNL     1      53.204  28.727  51.837  1.00  0.00    -0.000 C 
BRANCH  16  17
ATOM     17  C   UNL     1      53.060  29.985  52.711  1.00  0.00    -0.000 C 
BRANCH  17  18
ATOM     18  C   UNL     1      54.030  31.106  52.304  1.00  0.00    -0.000 C 
BRANCH  18  19
ATOM     19  C   UNL     1      54.946  31.572  53.456  1.00  0.00    -0.003 C 
ATOM     20  C   UNL     1      56.393  31.116  53.268  1.00  0.00     0.004 C 
ENDBRANCH  18  19
ENDBRANCH  17  18
ENDBRANCH  16  17
ENDBRANCH  15  16
ENDBRANCH  14  15
ENDBRANCH  13  14
ENDBRANCH  12  13
ENDBRANCH   1  12
TORSDOF 16
ENDMDL
MODEL 2
REMARK VINA RESULT:    -3.291      1.845      4.207
REMARK INTER + INTRA:          -8.953
REMARK INTER:                  -6.255
REMARK INTRA:                  -2.698
REMARK UNBOUND:                -2.584
REMARK SMILES CCCCCCCCCCCCCCCCCC(=O)[O-]
REMARK SMILES IDX 10 1 11 2 12 3 13 4 14 5 15 6 16 7 17 8 18 9 19 10 20 11
REMARK SMILES IDX 9 12 8 13 7 14 6 15 5 16 4 17 3 18 2 19 1 20
REMARK H PARENT
REMARK Flexibility Score: inf
ROOT
ATOM      1  C   UNL     1      58.336  29.426  51.684  1.00  0.00     0.000 C 
ENDROOT
BRANCH   1   2
ATOM      2  C   UNL     1      57.855  29.223  50.237  1.00  0.00     0.000 C 
BRANCH   2   3
ATOM      3  C   UNL     1      59.017  29.147  49.235  1.00  0.00     0.000 C 
BRANCH   3   4
ATOM      4  C   UNL     1      59.692  27.763  49.220  1.00  0.00     0.000 C 
BRANCH   4   5
ATOM      5  C   UNL     1      60.940  27.703  50.114  1.00  0.00     0.000 C 
BRANCH   5   6
ATOM      6  C   UNL     1      61.279  26.268  50.557  1.00  0.00     0.000 C 
BRANCH   6   7
ATOM      7  C   UNL     1      60.499  25.202  49.765  1.00  0.00     0.006 C 
BRANCH   7   8
ATOM      8  C   UNL     1      60.363  23.851  50.483  1.00  0.00     0.053 C 
BRANCH   8   9
ATOM      9  C   UNL     1      61.265  22.809  49.899  1.00  0.00     0.041 C 
ATOM     10  O   UNL     1      62.385  22.573  50.424  1.00  0.00    -0.550 OA
ATOM     11  O   UNL     1      60.855  22.074  48.793  1.00  0.00    -0.550 OA
ENDBRANCH   8   9
ENDBRANCH   7   8
ENDBRANCH   6   7
ENDBRANCH   5   6
ENDBRANCH   4   5
ENDBRANCH   3   4
ENDBRANCH   2   3
ENDBRANCH   1   2
BRANCH   1  12
ATOM     12  C   UNL     1      57.207  29.257  52.714  1.00  0.00     0.000 C 
BRANCH  12  13
ATOM     13  C   UNL     1      55.854  29.771  52.191  1.00  0.00    -0.000 C 
BRANCH  13  14
ATOM     14  C   UNL     1      54.655  29.039  52.819  1.00  0.00    -0.000 C 
BRANCH  14  15
ATOM     15  C   UNL     1      53.994  27.975  51.921  1.00  0.00    -0.000 C 
BRANCH  15  16
ATOM     16  C   UNL     1      54.152  28.249  50.409  1.00  0.00    -0.000 C 
BRANCH  16  17
ATOM     17  C   UNL     1      54.808  27.070  49.670  1.00  0.00    -0.000 C 
BRANCH  17  18
ATOM     18  C   UNL     1      55.348  25.995  50.627  1.00  0.00    -0.000 C 
BRANCH  18  19
ATOM     19  C   UNL     1      56.883  25.842  50.574  1.00  0.00    -0.003 C 
ATOM     20  C   UNL     1      57.508  25.768  51.967  1.00  0.00     0.004 C 
ENDBRANCH  18  19
ENDBRANCH  17  18
ENDBRANCH  16  17
ENDBRANCH  15  16
ENDBRANCH  14  15
ENDBRANCH  13  14
ENDBRANCH  12  13
ENDBRANCH   1  12
TORSDOF 16
ENDMDL
MODEL 3
REMARK VINA RESULT:    -3.266     10.825     12.994
REMARK INTER + INTRA:          -8.906
REMARK INTER:                  -6.630
REMARK INTRA:                  -2.276
REMARK UNBOUND:                -2.584
REMARK SMILES CCCCCCCCCCCCCCCCCC(=O)[O-]
REMARK SMILES IDX 10 1 11 2 12 3 13 4 14 5 15 6 16 7 17 8 18 9 19 10 20 11
REMARK SMILES IDX 9 12 8 13 7 14 6 15 5 16 4 17 3 18 2 19 1 20
REMARK H PARENT
REMARK Flexibility Score: inf
ROOT
ATOM      1  C   UNL     1      60.571  31.510  59.554  1.00  0.00     0.000 C 
ENDROOT
BRANCH   1   2
ATOM      2  C   UNL     1      61.156  31.784  60.950  1.00  0.00     0.000 C 
BRANCH   2   3
ATOM      3  C   UNL     1      61.174  30.529  61.837  1.00  0.00     0.000 C 
BRANCH   3   4
ATOM      4  C   UNL     1      62.424  29.661  61.603  1.00  0.00     0.000 C 
BRANCH   4   5
ATOM      5  C   UNL     1      63.689  30.499  61.358  1.00  0.00     0.000 C 
BRANCH   5   6
ATOM      6  C   UNL     1      64.639  29.847  60.338  1.00  0.00     0.000 C 
BRANCH   6   7
ATOM      7  C   UNL     1      65.606  28.839  60.986  1.00  0.00     0.006 C 
BRANCH   7   8
ATOM      8  C   UNL     1      66.706  28.319  60.047  1.00  0.00     0.053 C 
BRANCH   8   9
ATOM      9  C   UNL     1      68.023  28.182  60.744  1.00  0.00     0.041 C 
ATOM     10  O   UNL     1      68.191  28.685  61.887  1.00  0.00    -0.550 OA
ATOM     11  O   UNL     1      69.055  27.469  60.147  1.00  0.00    -0.550 OA
ENDBRANCH   8   9
ENDBRANCH   7   8
ENDBRANCH   6   7
ENDBRANCH   5   6
ENDBRANCH   4   5
ENDBRANCH   3   4
ENDBRANCH   2   3
ENDBRANCH   1   2
BRANCH   1  12
ATOM     12  C   UNL     1      61.029  32.539  58.507  1.00  0.00     0.000 C 
BRANCH  12  13
ATOM     13  C   UNL     1      62.493  32.335  58.083  1.00  0.00    -0.000 C 
BRANCH  13  14
ATOM     14  C   UNL     1      63.360  33.586  58.310  1.00  0.00    -0.000 C 
BRANCH  14  15
ATOM     15  C   UNL     1      64.583  33.379  59.225  1.00  0.00    -0.000 C 
BRANCH  15  16
ATOM     16  C   UNL     1      64.632  34.345  60.428  1.00  0.00    -0.000 C 
BRANCH  16  17
ATOM     17  C   UNL     1      63.231  34.657  60.982  1.00  0.00    -0.000 C 
BRANCH  17  18
ATOM     18  C   UNL     1      63.038  36.148  61.305  1.00  0.00    -0.000 C 
BRANCH  18  19
ATOM     19  C   UNL     1      61.801  36.767  60.620  1.00  0.00    -0.003 C 
ATOM     20  C   UNL     1      60.694  35.740  60.384  1.00  0.00     0.004 C 
ENDBRANCH  18  19
ENDBRANCH  17  18
ENDBRANCH  16  17
ENDBRANCH  15  16
ENDBRANCH  14  15
ENDBRANCH  13  14
ENDBRANCH  12  13
ENDBRANCH   1  12
TORSDOF 16
ENDMDL
MODEL 4
REMARK VINA RESULT:    -3.236     10.390     13.164
REMARK INTER + INTRA:          -8.847
REMARK INTER:                  -5.656
REMARK INTRA:                  -3.191
REMARK UNBOUND:                -2.584
REMARK SMILES CCCCCCCCCCCCCCCCCC(=O)[O-]
REMARK SMILES IDX 10 1 11 2 12 3 13 4 14 5 15 6 16 7 17 8 18 9 19 10 20 11
REMARK SMILES IDX 9 12 8 13 7 14 6 15 5 16 4 17 3 18 2 19 1 20
REMARK H PARENT
REMARK Flexibility Score: inf
ROOT
ATOM      1  C   UNL     1      62.073  32.995  59.068  1.00  0.00     0.000 C 
ENDROOT
BRANCH   1   2
ATOM      2  C   UNL     1      63.360  32.232  58.713  1.00  0.00     0.000 C 
BRANCH   2   3
ATOM      3  C   UNL     1      64.292  32.056  59.923  1.00  0.00     0.000 C 
BRANCH   3   4
ATOM      4  C   UNL     1      65.107  30.751  59.853  1.00  0.00     0.000 C 
BRANCH   4   5
ATOM      5  C   UNL     1      64.503  29.629  60.713  1.00  0.00     0.000 C 
BRANCH   5   6
ATOM      6  C   UNL     1      63.412  30.142  61.670  1.00  0.00     0.000 C 
BRANCH   6   7
ATOM      7  C   UNL     1      62.127  29.295  61.613  1.00  0.00     0.006 C 
BRANCH   7   8
ATOM      8  C   UNL     1      60.906  30.031  61.040  1.00  0.00     0.053 C 
BRANCH   8   9
ATOM      9  C   UNL     1      60.597  29.603  59.640  1.00  0.00     0.041 C 
ATOM     10  O   UNL     1      61.522  29.222  58.874  1.00  0.00    -0.550 OA
ATOM     11  O   UNL     1      59.283  29.591  59.190  1.00  0.00    -0.550 OA
ENDBRANCH   8   9
ENDBRANCH   7   8
ENDBRANCH   6   7
ENDBRANCH   5   6
ENDBRANCH   4   5
ENDBRANCH   3   4
ENDBRANCH   2   3
ENDBRANCH   1   2
BRANCH   1  12
ATOM     12  C   UNL     1      62.082  33.537  60.507  1.00  0.00     0.000 C 
BRANCH  12  13
ATOM     13  C   UNL     1      61.636  35.008  60.584  1.00  0.00    -0.000 C 
BRANCH  13  14
ATOM     14  C   UNL     1      62.797  35.968  60.896  1.00  0.00    -0.000 C 
BRANCH  14  15
ATOM     15  C   UNL     1      64.036  35.311  61.535  1.00  0.00    -0.000 C 
BRANCH  15  16
ATOM     16  C   UNL     1      65.348  35.570  60.762  1.00  0.00    -0.000 C 
BRANCH  16  17
ATOM     17  C   UNL     1      65.105  36.304  59.433  1.00  0.00    -0.000 C 
BRANCH  17  18
ATOM     18  C   UNL     1      65.369  35.416  58.206  1.00  0.00    -0.000 C 
BRANCH  18  19
ATOM     19  C   UNL     1      64.207  35.415  57.189  1.00  0.00    -0.003 C 
ATOM     20  C   UNL     1      63.340  36.668  57.299  1.00  0.00     0.004 C 
ENDBRANCH  18  19
ENDBRANCH  17  18
ENDBRANCH  16  17
ENDBRANCH  15  16
ENDBRANCH  14  15
ENDBRANCH  13  14
ENDBRANCH  12  13
ENDBRANCH   1  12
TORSDOF 16
ENDMDL
MODEL 5
REMARK VINA RESULT:    -3.233      2.577      6.402
REMARK INTER + INTRA:          -8.841
REMARK INTER:                  -6.062
REMARK INTRA:                  -2.779
REMARK UNBOUND:                -2.584
REMARK SMILES CCCCCCCCCCCCCCCCCC(=O)[O-]
REMARK SMILES IDX 10 1 11 2 12 3 13 4 14 5 15 6 16 7 17 8 18 9 19 10 20 11
REMARK SMILES IDX 9 12 8 13 7 14 6 15 5 16 4 17 3 18 2 19 1 20
REMARK H PARENT
REMARK Flexibility Score: inf
ROOT
ATOM      1  C   UNL     1      57.035  28.608  51.534  1.00  0.00     0.000 C 
ENDROOT
BRANCH   1   2
ATOM      2  C   UNL     1      56.237  27.987  50.375  1.00  0.00     0.000 C 
BRANCH   2   3
ATOM      3  C   UNL     1      54.794  28.514  50.306  1.00  0.00     0.000 C 
BRANCH   3   4
ATOM      4  C   UNL     1      53.826  27.497  49.674  1.00  0.00     0.000 C 
BRANCH   4   5
ATOM      5  C   UNL     1      54.506  26.159  49.343  1.00  0.00     0.000 C 
BRANCH   5   6
ATOM      6  C   UNL     1      53.714  24.950  49.872  1.00  0.00     0.000 C 
BRANCH   6   7
ATOM      7  C   UNL     1      53.404  25.055  51.378  1.00  0.00     0.006 C 
BRANCH   7   8
ATOM      8  C   UNL     1      54.633  24.919  52.290  1.00  0.00     0.053 C 
BRANCH   8   9
ATOM      9  C   UNL     1      54.797  26.102  53.193  1.00  0.00     0.041 C 
ATOM     10  O   UNL     1      55.865  26.261  53.841  1.00  0.00    -0.550 OA
ATOM     11  O   UNL     1      53.783  27.046  53.293  1.00  0.00    -0.550 OA
ENDBRANCH   8   9
ENDBRANCH   7   8
ENDBRANCH   6   7
ENDBRANCH   5   6
ENDBRANCH   4   5
ENDBRANCH   3   4
ENDBRANCH   2   3
ENDBRANCH   1   2
BRANCH   1  12
ATOM     12  C   UNL     1      58.472  28.980  51.131  1.00  0.00     0.000 C 
BRANCH  12  13
ATOM     13  C   UNL     1      58.635  29.129  49.609  1.00  0.00    -0.000 C 
BRANCH  13  14
ATOM     14  C   UNL     1      59.636  28.123  49.015  1.00  0.00    -0.000 C 
BRANCH  14  15
ATOM     15  C   UNL     1      61.065  28.206  49.586  1.00  0.00    -0.000 C 
BRANCH  15  16
ATOM     16  C   UNL     1      61.721  26.829  49.829  1.00  0.00    -0.000 C 
BRANCH  16  17
ATOM     17  C   UNL     1      60.700  25.770  50.277  1.00  0.00    -0.000 C 
BRANCH  17  18
ATOM     18  C   UNL     1      60.597  25.654  51.807  1.00  0.00    -0.000 C 
BRANCH  18  19
ATOM     19  C   UNL     1      59.145  25.508  52.314  1.00  0.00    -0.003 C 
ATOM     20  C   UNL     1      58.189  25.057  51.210  1.00  0.00     0.004 C 
ENDBRANCH  18  19
ENDBRANCH  17  18
ENDBRANCH  16  17
ENDBRANCH  15  16
ENDBRANCH  14  15
ENDBRANCH  13  14
ENDBRANCH  12  13
ENDBRANCH   1  12
TORSDOF 16
ENDMDL
MODEL 6
REMARK VINA RESULT:    -3.206      1.453      3.694
REMARK INTER + INTRA:          -8.789
REMARK INTER:                  -5.980
REMARK INTRA:                  -2.809
REMARK UNBOUND:                -2.584
REMARK SMILES CCCCCCCCCCCCCCCCCC(=O)[O-]
REMARK SMILES IDX 10 1 11 2 12 3 13 4 14 5 15 6 16 7 17 8 18 9 19 10 20 11
REMARK SMILES IDX 9 12 8 13 7 14 6 15 5 16 4 17 3 18 2 19 1 20
REMARK H PARENT
REMARK Flexibility Score: inf
ROOT
ATOM      1  C   UNL     1      57.312  29.536  52.215  1.00  0.00     0.000 C 
ENDROOT
BRANCH   1   2
ATOM      2  C   UNL     1      58.563  29.295  51.353  1.00  0.00     0.000 C 
BRANCH   2   3
ATOM      3  C   UNL     1      58.250  29.296  49.849  1.00  0.00     0.000 C 
BRANCH   3   4
ATOM      4  C   UNL     1      59.358  28.625  49.016  1.00  0.00     0.000 C 
BRANCH   4   5
ATOM      5  C   UNL     1      60.290  27.748  49.868  1.00  0.00     0.000 C 
BRANCH   5   6
ATOM      6  C   UNL     1      60.116  26.247  49.577  1.00  0.00     0.000 C 
BRANCH   6   7
ATOM      7  C   UNL     1      61.270  25.395  50.137  1.00  0.00     0.006 C 
BRANCH   7   8
ATOM      8  C   UNL     1      60.847  24.010  50.650  1.00  0.00     0.053 C 
BRANCH   8   9
ATOM      9  C   UNL     1      60.060  24.098  51.920  1.00  0.00     0.041 C 
ATOM     10  O   UNL     1      60.444  24.851  52.854  1.00  0.00    -0.550 OA
ATOM     11  O   UNL     1      58.883  23.372  52.061  1.00  0.00    -0.550 OA
ENDBRANCH   8   9
ENDBRANCH   7   8
ENDBRANCH   6   7
ENDBRANCH   5   6
ENDBRANCH   4   5
ENDBRANCH   3   4
ENDBRANCH   2   3
ENDBRANCH   1   2
BRANCH   1  12
ATOM     12  C   UNL     1      56.887  28.286  53.005  1.00  0.00     0.000 C 
BRANCH  12  13
ATOM     13  C   UNL     1      57.596  27.012  52.514  1.00  0.00    -0.000 C 
BRANCH  13  14
ATOM     14  C   UNL     1      56.634  26.012  51.850  1.00  0.00    -0.000 C 
BRANCH  14  15
ATOM     15  C   UNL     1      56.636  26.025  50.309  1.00  0.00    -0.000 C 
BRANCH  15  16
ATOM     16  C   UNL     1      55.228  26.120  49.684  1.00  0.00    -0.000 C 
BRANCH  16  17
ATOM     17  C   UNL     1      54.323  27.111  50.436  1.00  0.00    -0.000 C 
BRANCH  17  18
ATOM     18  C   UNL     1      54.538  28.567  49.991  1.00  0.00    -0.000 C 
BRANCH  18  19
ATOM     19  C   UNL     1      53.413  29.520  50.450  1.00  0.00    -0.003 C 
ATOM     20  C   UNL     1      53.669  30.090  51.845  1.00  0.00     0.004 C 
ENDBRANCH  18  19
ENDBRANCH  17  18
ENDBRANCH  16  17
ENDBRANCH  15  16
ENDBRANCH  14  15
ENDBRANCH  13  14
ENDBRANCH  12  13
ENDBRANCH   1  12
TORSDOF 16
ENDMDL
MODEL 7
REMARK VINA RESULT:    -3.170      1.433      5.449
REMARK INTER + INTRA:          -8.719
REMARK INTER:                  -6.339
REMARK INTRA:                  -2.380
REMARK UNBOUND:                -2.584
REMARK SMILES CCCCCCCCCCCCCCCCCC(=O)[O-]
REMARK SMILES IDX 10 1 11 2 12 3 13 4 14 5 15 6 16 7 17 8 18 9 19 10 20 11
REMARK SMILES IDX 9 12 8 13 7 14 6 15 5 16 4 17 3 18 2 19 1 20
REMARK H PARENT
REMARK Flexibility Score: inf
ROOT
ATOM      1  C   UNL     1      55.011  29.780  52.927  1.00  0.00     0.000 C 
ENDROOT
BRANCH   1   2
ATOM      2  C   UNL     1      54.015  30.440  51.958  1.00  0.00     0.000 C 
BRANCH   2   3
ATOM      3  C   UNL     1      54.183  29.944  50.513  1.00  0.00     0.000 C 
BRANCH   3   4
ATOM      4  C   UNL     1      53.119  28.902  50.121  1.00  0.00     0.000 C 
BRANCH   4   5
ATOM      5  C   UNL     1      53.736  27.575  49.652  1.00  0.00     0.000 C 
BRANCH   5   6
ATOM      6  C   UNL     1      55.223  27.450  50.028  1.00  0.00     0.000 C 
BRANCH   6   7
ATOM      7  C   UNL     1      55.651  25.993  50.283  1.00  0.00     0.006 C 
BRANCH   7   8
ATOM      8  C   UNL     1      56.348  25.763  51.633  1.00  0.00     0.053 C 
BRANCH   8   9
ATOM      9  C   UNL     1      57.825  25.575  51.478  1.00  0.00     0.041 C 
ATOM     10  O   UNL     1      58.295  25.094  50.413  1.00  0.00    -0.550 OA
ATOM     11  O   UNL     1      58.686  25.961  52.498  1.00  0.00    -0.550 OA
ENDBRANCH   8   9
ENDBRANCH   7   8
ENDBRANCH   6   7
ENDBRANCH   5   6
ENDBRANCH   4   5
ENDBRANCH   3   4
ENDBRANCH   2   3
ENDBRANCH   1   2
BRANCH   1  12
ATOM     12  C   UNL     1      56.434  30.348  52.791  1.00  0.00     0.000 C 
BRANCH  12  13
ATOM     13  C   UNL     1      57.508  29.247  52.791  1.00  0.00    -0.000 C 
BRANCH  13  14
ATOM     14  C   UNL     1      58.558  29.438  51.682  1.00  0.00    -0.000 C 
BRANCH  14  15
ATOM     15  C   UNL     1      58.038  29.236  50.246  1.00  0.00    -0.000 C 
BRANCH  15  16
ATOM     16  C   UNL     1      59.153  29.199  49.178  1.00  0.00    -0.000 C 
BRANCH  16  17
ATOM     17  C   UNL     1      59.797  27.807  49.058  1.00  0.00    -0.000 C 
BRANCH  17  18
ATOM     18  C   UNL     1      61.273  27.796  49.489  1.00  0.00    -0.000 C 
BRANCH  18  19
ATOM     19  C   UNL     1      61.526  27.003  50.789  1.00  0.00    -0.003 C 
ATOM     20  C   UNL     1      61.955  27.906  51.945  1.00  0.00     0.004 C 
ENDBRANCH  18  19
ENDBRANCH  17  18
ENDBRANCH  16  17
ENDBRANCH  15  16
ENDBRANCH  14  15
ENDBRANCH  13  14
ENDBRANCH  12  13
ENDBRANCH   1  12
TORSDOF 16
ENDMDL
MODEL 8
REMARK VINA RESULT:    -3.166      9.471     12.344
REMARK INTER + INTRA:          -8.711
REMARK INTER:                  -6.018
REMARK INTRA:                  -2.693
REMARK UNBOUND:                -2.584
REMARK SMILES CCCCCCCCCCCCCCCCCC(=O)[O-]
REMARK SMILES IDX 10 1 11 2 12 3 13 4 14 5 15 6 16 7 17 8 18 9 19 10 20 11
REMARK SMILES IDX 9 12 8 13 7 14 6 15 5 16 4 17 3 18 2 19 1 20
REMARK H PARENT
REMARK Flexibility Score: inf
ROOT
ATOM      1  C   UNL     1      64.151  33.149  60.762  1.00  0.00     0.000 C 
ENDROOT
BRANCH   1   2
ATOM      2  C   UNL     1      64.160  32.123  59.616  1.00  0.00     0.000 C 
BRANCH   2   3
ATOM      3  C   UNL     1      64.443  30.695  60.107  1.00  0.00     0.000 C 
BRANCH   3   4
ATOM      4  C   UNL     1      63.838  30.419  61.496  1.00  0.00     0.000 C 
BRANCH   4   5
ATOM      5  C   UNL     1      62.500  29.665  61.419  1.00  0.00     0.000 C 
BRANCH   5   6
ATOM      6  C   UNL     1      61.303  30.549  61.809  1.00  0.00     0.000 C 
BRANCH   6   7
ATOM      7  C   UNL     1      60.654  31.240  60.595  1.00  0.00     0.006 C 
BRANCH   7   8
ATOM      8  C   UNL     1      60.793  30.466  59.275  1.00  0.00     0.053 C 
BRANCH   8   9
ATOM      9  C   UNL     1      59.578  29.645  58.973  1.00  0.00     0.041 C 
ATOM     10  O   UNL     1      58.623  30.143  58.320  1.00  0.00    -0.550 OA
ATOM     11  O   UNL     1      59.515  28.319  59.383  1.00  0.00    -0.550 OA
ENDBRANCH   8   9
ENDBRANCH   7   8
ENDBRANCH   6   7
ENDBRANCH   5   6
ENDBRANCH   4   5
ENDBRANCH   3   4
ENDBRANCH   2   3
ENDBRANCH   1   2
BRANCH   1  12
ATOM     12  C   UNL     1      62.910  34.057  60.735  1.00  0.00     0.000 C 
BRANCH  12  13
ATOM     13  C   UNL     1      63.240  35.514  61.100  1.00  0.00    -0.000 C 
BRANCH  13  14
ATOM     14  C   UNL     1      62.025  36.450  60.974  1.00  0.00    -0.000 C 
BRANCH  14  15
ATOM     15  C   UNL     1      60.738  35.787  60.446  1.00  0.00    -0.000 C 
BRANCH  15  16
ATOM     16  C   UNL     1      60.240  36.370  59.105  1.00  0.00    -0.000 C 
BRANCH  16  17
ATOM     17  C   UNL     1      59.565  35.306  58.223  1.00  0.00    -0.000 C 
BRANCH  17  18
ATOM     18  C   UNL     1      60.356  33.988  58.171  1.00  0.00    -0.000 C 
BRANCH  18  19
ATOM     19  C   UNL     1      61.223  33.844  56.901  1.00  0.00    -0.003 C 
ATOM     20  C   UNL     1      62.631  34.406  57.093  1.00  0.00     0.004 C 
ENDBRANCH  18  19
ENDBRANCH  17  18
ENDBRANCH  16  17
ENDBRANCH  15  16
ENDBRANCH  14  15
ENDBRANCH  13  14
ENDBRANCH  12  13
ENDBRANCH   1  12
TORSDOF 16
ENDMDL
MODEL 9
REMARK VINA RESULT:    -3.119      1.275      2.720
REMARK INTER + INTRA:          -8.621
REMARK INTER:                  -5.932
REMARK INTRA:                  -2.689
REMARK UNBOUND:                -2.584
REMARK SMILES CCCCCCCCCCCCCCCCCC(=O)[O-]
REMARK SMILES IDX 10 1 11 2 12 3 13 4 14 5 15 6 16 7 17 8 18 9 19 10 20 11
REMARK SMILES IDX 9 12 8 13 7 14 6 15 5 16 4 17 3 18 2 19 1 20
REMARK H PARENT
REMARK Flexibility Score: inf
ROOT
ATOM      1  C   UNL     1      56.635  26.770  53.666  1.00  0.00     0.000 C 
ENDROOT
BRANCH   1   2
ATOM      2  C   UNL     1      56.860  28.273  53.429  1.00  0.00     0.000 C 
BRANCH   2   3
ATOM      3  C   UNL     1      58.126  28.556  52.605  1.00  0.00     0.000 C 
BRANCH   3   4
ATOM      4  C   UNL     1      57.880  29.578  51.480  1.00  0.00     0.000 C 
BRANCH   4   5
ATOM      5  C   UNL     1      57.774  28.920  50.095  1.00  0.00     0.000 C 
BRANCH   5   6
ATOM      6  C   UNL     1      59.041  29.127  49.246  1.00  0.00     0.000 C 
BRANCH   6   7
ATOM      7  C   UNL     1      60.007  27.930  49.319  1.00  0.00     0.006 C 
BRANCH   7   8
ATOM      8  C   UNL     1      59.318  26.557  49.335  1.00  0.00     0.053 C 
BRANCH   8   9
ATOM      9  C   UNL     1      59.752  25.722  50.499  1.00  0.00     0.041 C 
ATOM     10  O   UNL     1      59.234  24.591  50.697  1.00  0.00    -0.550 OA
ATOM     11  O   UNL     1      60.753  26.179  51.348  1.00  0.00    -0.550 OA
ENDBRANCH   8   9
ENDBRANCH   7   8
ENDBRANCH   6   7
ENDBRANCH   5   6
ENDBRANCH   4   5
ENDBRANCH   3   4
ENDBRANCH   2   3
ENDBRANCH   1   2
BRANCH   1  12
ATOM     12  C   UNL     1      55.187  26.336  53.386  1.00  0.00     0.000 C 
BRANCH  12  13
ATOM     13  C   UNL     1      55.076  25.421  52.154  1.00  0.00    -0.000 C 
BRANCH  13  14
ATOM     14  C   UNL     1      55.997  25.858  51.002  1.00  0.00    -0.000 C 
BRANCH  14  15
ATOM     15  C   UNL     1      55.280  26.172  49.674  1.00  0.00    -0.000 C 
BRANCH  15  16
ATOM     16  C   UNL     1      53.740  26.185  49.783  1.00  0.00    -0.000 C 
BRANCH  16  17
ATOM     17  C   UNL     1      53.205  27.534  50.294  1.00  0.00    -0.000 C 
BRANCH  17  18
ATOM     18  C   UNL     1      54.170  28.699  50.016  1.00  0.00    -0.000 C 
BRANCH  18  19
ATOM     19  C   UNL     1      53.972  29.898  50.969  1.00  0.00    -0.003 C 
ATOM     20  C   UNL     1      53.536  29.462  52.367  1.00  0.00     0.004 C 
ENDBRANCH  18  19
ENDBRANCH  17  18
ENDBRANCH  16  17
ENDBRANCH  15  16
ENDBRANCH  14  15
ENDBRANCH  13  14
ENDBRANCH  12  13
ENDBRANCH   1  12
TORSDOF 16
ENDMDL
