MODEL 1
REMARK VINA RESULT:    -5.325      0.000      0.000
REMARK INTER + INTRA:          -8.911
REMARK INTER:                  -8.283
REMARK INTRA:                  -0.629
REMARK UNBOUND:                -0.629
REMARK SMILES COc1cc(CNC(=O)CCCCC=CC(C)C)ccc1O
REMARK SMILES IDX 11 1 12 2 13 3 14 4 15 5 16 6 17 7 18 8 10 9 8 10 9 11 7 12
REMARK SMILES IDX 6 14 5 15 4 16 19 17 3 18 20 19 21 20 2 21 1 22 22 23
REMARK H PARENT 7 13 22 24
REMARK Flexibility Score: inf
ROOT
ATOM      1  C   UNL     1     115.030 256.848 337.500  1.00  0.00     0.010 C 
ENDROOT
BRANCH   1   2
ATOM      2  C   UNL     1     114.075 258.030 337.257  1.00  0.00     0.005 C 
BRANCH   2   3
ATOM      3  C   UNL     1     113.088 257.793 336.099  1.00  0.00     0.027 C 
BRANCH   3   4
ATOM      4  C   UNL     1     113.181 258.868 335.041  1.00  0.00    -0.031 C 
ATOM      5  C   UNL     1     113.251 258.643 333.715  1.00  0.00    -0.028 C 
BRANCH   5   6
ATOM      6  C   UNL     1     113.201 257.282 333.052  1.00  0.00     0.005 C 
ATOM      7  C   UNL     1     114.595 256.908 332.537  1.00  0.00     0.012 C 
ATOM      8  C   UNL     1     112.193 257.309 331.900  1.00  0.00     0.012 C 
ENDBRANCH   5   6
ENDBRANCH   3   4
ENDBRANCH   2   3
ENDBRANCH   1   2
BRANCH   1   9
ATOM      9  C   UNL     1     116.254 257.240 338.340  1.00  0.00     0.100 C 
BRANCH   9  10
ATOM     10  C   UNL     1     116.622 256.115 339.257  1.00  0.00     0.220 C 
ATOM     11  O   UNL     1     117.752 255.568 339.149  1.00  0.00    -0.275 OA
ATOM     12  N   UNL     1     115.719 255.717 340.298  1.00  0.00    -0.352 N 
ATOM     13  H   UNL     1     114.763 256.139 340.321  1.00  0.00     0.163 HD
BRANCH  12  14
ATOM     14  C   UNL     1     116.169 254.991 341.482  1.00  0.00     0.151 C 
BRANCH  14  15
ATOM     15  C   UNL     1     115.025 254.853 342.450  1.00  0.00    -0.025 A 
ATOM     16  C   UNL     1     114.947 255.682 343.582  1.00  0.00     0.056 A 
ATOM     17  C   UNL     1     113.983 253.954 342.182  1.00  0.00     0.009 A 
ATOM     18  C   UNL     1     113.846 255.597 344.457  1.00  0.00     0.160 A 
ATOM     19  C   UNL     1     112.890 253.865 343.045  1.00  0.00     0.050 A 
ATOM     20  C   UNL     1     112.819 254.682 344.182  1.00  0.00     0.157 A 
BRANCH  18  21
ATOM     21  O   UNL     1     113.735 256.404 345.601  1.00  0.00    -0.493 OA
ATOM     22  C   UNL     1     114.765 257.258 346.087  1.00  0.00     0.278 C 
ENDBRANCH  18  21
BRANCH  20  23
ATOM     23  O   UNL     1     111.726 254.594 345.043  1.00  0.00    -0.504 OA
ATOM     24  H   UNL     1     110.933 253.999 344.834  1.00  0.00     0.293 HD
ENDBRANCH  20  23
ENDBRANCH  14  15
ENDBRANCH  12  14
ENDBRANCH   9  10
ENDBRANCH   1   9
TORSDOF 10
ENDMDL
MODEL 2
REMARK VINA RESULT:    -4.859      2.689     10.277
REMARK INTER + INTRA:          -8.186
REMARK INTER:                  -7.505
REMARK INTRA:                  -0.681
REMARK UNBOUND:                -0.629
REMARK SMILES COc1cc(CNC(=O)CCCCC=CC(C)C)ccc1O
REMARK SMILES IDX 11 1 12 2 13 3 14 4 15 5 16 6 17 7 18 8 10 9 8 10 9 11 7 12
REMARK SMILES IDX 6 14 5 15 4 16 19 17 3 18 20 19 21 20 2 21 1 22 22 23
REMARK H PARENT 7 13 22 24
REMARK Flexibility Score: inf
ROOT
ATOM      1  C   UNL     1     115.098 257.057 346.002  1.00  0.00     0.010 C 
ENDROOT
BRANCH   1   2
ATOM      2  C   UNL     1     115.149 258.593 346.084  1.00  0.00     0.005 C 
BRANCH   2   3
ATOM      3  C   UNL     1     115.742 259.117 347.405  1.00  0.00     0.027 C 
BRANCH   3   4
ATOM      4  C   UNL     1     116.850 258.232 347.925  1.00  0.00    -0.031 C 
ATOM      5  C   UNL     1     117.137 258.035 349.226  1.00  0.00    -0.028 C 
BRANCH   5   6
ATOM      6  C   UNL     1     116.372 258.625 350.393  1.00  0.00     0.005 C 
ATOM      7  C   UNL     1     117.356 259.122 351.457  1.00  0.00     0.012 C 
ATOM      8  C   UNL     1     115.434 257.567 350.980  1.00  0.00     0.012 C 
ENDBRANCH   5   6
ENDBRANCH   3   4
ENDBRANCH   2   3
ENDBRANCH   1   2
BRANCH   1   9
ATOM      9  C   UNL     1     113.802 256.542 345.360  1.00  0.00     0.100 C 
BRANCH   9  10
ATOM     10  C   UNL     1     114.108 255.392 344.451  1.00  0.00     0.220 C 
ATOM     11  O   UNL     1     113.600 254.262 344.684  1.00  0.00    -0.275 OA
ATOM     12  N   UNL     1     114.914 255.599 343.283  1.00  0.00    -0.352 N 
ATOM     13  H   UNL     1     115.377 256.526 343.151  1.00  0.00     0.163 HD
BRANCH  12  14
ATOM     14  C   UNL     1     114.870 254.694 342.138  1.00  0.00     0.151 C 
BRANCH  14  15
ATOM     15  C   UNL     1     115.942 255.078 341.154  1.00  0.00    -0.025 A 
ATOM     16  C   UNL     1     115.625 255.846 340.021  1.00  0.00     0.056 A 
ATOM     17  C   UNL     1     117.280 254.745 341.408  1.00  0.00     0.009 A 
ATOM     18  C   UNL     1     116.636 256.259 339.131  1.00  0.00     0.160 A 
ATOM     19  C   UNL     1     118.286 255.151 340.530  1.00  0.00     0.050 A 
ATOM     20  C   UNL     1     117.968 255.905 339.392  1.00  0.00     0.157 A 
BRANCH  18  21
ATOM     21  O   UNL     1     116.359 257.022 337.984  1.00  0.00    -0.493 OA
ATOM     22  C   UNL     1     115.057 257.212 337.440  1.00  0.00     0.278 C 
ENDBRANCH  18  21
BRANCH  20  23
ATOM     23  O   UNL     1     118.973 256.312 338.515  1.00  0.00    -0.504 OA
ATOM     24  H   UNL     1     118.804 256.404 337.520  1.00  0.00     0.293 HD
ENDBRANCH  20  23
ENDBRANCH  14  15
ENDBRANCH  12  14
ENDBRANCH   9  10
ENDBRANCH   1   9
TORSDOF 10
ENDMDL
MODEL 3
REMARK VINA RESULT:    -4.131      2.934      8.999
REMARK INTER + INTRA:          -7.053
REMARK INTER:                  -6.571
REMARK INTRA:                  -0.482
REMARK UNBOUND:                -0.629
REMARK SMILES COc1cc(CNC(=O)CCCCC=CC(C)C)ccc1O
REMARK SMILES IDX 11 1 12 2 13 3 14 4 15 5 16 6 17 7 18 8 10 9 8 10 9 11 7 12
REMARK SMILES IDX 6 14 5 15 4 16 19 17 3 18 20 19 21 20 2 21 1 22 22 23
REMARK H PARENT 7 13 22 24
REMARK Flexibility Score: inf
ROOT
ATOM      1  C   UNL     1     117.252 256.605 340.135  1.00  0.00     0.010 C 
ENDROOT
BRANCH   1   2
ATOM      2  C   UNL     1     116.658 255.327 340.753  1.00  0.00     0.005 C 
BRANCH   2   3
ATOM      3  C   UNL     1     115.432 255.591 341.647  1.00  0.00     0.027 C 
BRANCH   3   4
ATOM      4  C   UNL     1     114.711 254.317 342.019  1.00  0.00    -0.031 C 
ATOM      5  C   UNL     1     113.682 254.234 342.885  1.00  0.00    -0.028 C 
BRANCH   5   6
ATOM      6  C   UNL     1     113.040 255.405 343.598  1.00  0.00     0.005 C 
ATOM      7  C   UNL     1     113.890 255.800 344.810  1.00  0.00     0.012 C 
ATOM      8  C   UNL     1     111.623 255.025 344.036  1.00  0.00     0.012 C 
ENDBRANCH   5   6
ENDBRANCH   3   4
ENDBRANCH   2   3
ENDBRANCH   1   2
BRANCH   1   9
ATOM      9  C   UNL     1     117.257 256.571 338.600  1.00  0.00     0.100 C 
BRANCH   9  10
ATOM     10  C   UNL     1     115.860 256.713 338.083  1.00  0.00     0.220 C 
ATOM     11  O   UNL     1     115.087 255.717 338.094  1.00  0.00    -0.275 OA
ATOM     12  N   UNL     1     115.384 257.996 337.650  1.00  0.00    -0.352 N 
ATOM     13  H   UNL     1     116.064 258.787 337.587  1.00  0.00     0.163 HD
BRANCH  12  14
ATOM     14  C   UNL     1     113.962 258.317 337.587  1.00  0.00     0.151 C 
BRANCH  14  15
ATOM     15  C   UNL     1     113.447 258.044 336.199  1.00  0.00    -0.025 A 
ATOM     16  C   UNL     1     113.969 258.742 335.098  1.00  0.00     0.056 A 
ATOM     17  C   UNL     1     112.504 257.028 335.988  1.00  0.00     0.009 A 
ATOM     18  C   UNL     1     113.533 258.445 333.791  1.00  0.00     0.160 A 
ATOM     19  C   UNL     1     112.068 256.731 334.696  1.00  0.00     0.050 A 
ATOM     20  C   UNL     1     112.579 257.437 333.598  1.00  0.00     0.157 A 
BRANCH  18  21
ATOM     21  O   UNL     1     114.027 259.125 332.665  1.00  0.00    -0.493 OA
ATOM     22  C   UNL     1     115.147 258.701 331.895  1.00  0.00     0.278 C 
ENDBRANCH  18  21
BRANCH  20  23
ATOM     23  O   UNL     1     112.144 257.137 332.307  1.00  0.00    -0.504 OA
ATOM     24  H   UNL     1     112.785 256.808 331.594  1.00  0.00     0.293 HD
ENDBRANCH  20  23
ENDBRANCH  14  15
ENDBRANCH  12  14
ENDBRANCH   9  10
ENDBRANCH   1   9
TORSDOF 10
ENDMDL
MODEL 4
REMARK VINA RESULT:    -3.374      4.211      7.241
REMARK INTER + INTRA:          -5.877
REMARK INTER:                  -5.315
REMARK INTRA:                  -0.562
REMARK UNBOUND:                -0.629
REMARK SMILES COc1cc(CNC(=O)CCCCC=CC(C)C)ccc1O
REMARK SMILES IDX 11 1 12 2 13 3 14 4 15 5 16 6 17 7 18 8 10 9 8 10 9 11 7 12
REMARK SMILES IDX 6 14 5 15 4 16 19 17 3 18 20 19 21 20 2 21 1 22 22 23
REMARK H PARENT 7 13 22 24
REMARK Flexibility Score: inf
ROOT
ATOM      1  C   UNL     1     114.388 254.448 343.026  1.00  0.00     0.010 C 
ENDROOT
BRANCH   1   2
ATOM      2  C   UNL     1     115.083 255.544 342.198  1.00  0.00     0.005 C 
BRANCH   2   3
ATOM      3  C   UNL     1     115.696 255.024 340.884  1.00  0.00     0.027 C 
BRANCH   3   4
ATOM      4  C   UNL     1     117.173 254.737 341.017  1.00  0.00    -0.031 C 
ATOM      5  C   UNL     1     118.159 255.504 340.513  1.00  0.00    -0.028 C 
BRANCH   5   6
ATOM      6  C   UNL     1     117.962 256.808 339.768  1.00  0.00     0.005 C 
ATOM      7  C   UNL     1     117.476 256.520 338.344  1.00  0.00     0.012 C 
ATOM      8  C   UNL     1     119.279 257.587 339.739  1.00  0.00     0.012 C 
ENDBRANCH   5   6
ENDBRANCH   3   4
ENDBRANCH   2   3
ENDBRANCH   1   2
BRANCH   1   9
ATOM      9  C   UNL     1     114.505 254.687 344.538  1.00  0.00     0.100 C 
BRANCH   9  10
ATOM     10  C   UNL     1     114.125 256.098 344.860  1.00  0.00     0.220 C 
ATOM     11  O   UNL     1     112.970 256.514 344.572  1.00  0.00    -0.275 OA
ATOM     12  N   UNL     1     115.047 256.945 345.560  1.00  0.00    -0.352 N 
ATOM     13  H   UNL     1     116.020 256.599 345.725  1.00  0.00     0.163 HD
BRANCH  12  14
ATOM     14  C   UNL     1     114.611 258.122 346.306  1.00  0.00     0.151 C 
BRANCH  14  15
ATOM     15  C   UNL     1     115.525 258.338 347.482  1.00  0.00    -0.025 A 
ATOM     16  C   UNL     1     114.997 258.657 348.744  1.00  0.00     0.056 A 
ATOM     17  C   UNL     1     116.906 258.137 347.343  1.00  0.00     0.009 A 
ATOM     18  C   UNL     1     115.846 258.799 349.859  1.00  0.00     0.160 A 
ATOM     19  C   UNL     1     117.752 258.278 348.444  1.00  0.00     0.050 A 
ATOM     20  C   UNL     1     117.227 258.609 349.701  1.00  0.00     0.157 A 
BRANCH  18  21
ATOM     21  O   UNL     1     115.357 259.123 351.136  1.00  0.00    -0.493 OA
ATOM     22  C   UNL     1     114.491 258.292 351.901  1.00  0.00     0.278 C 
ENDBRANCH  18  21
BRANCH  20  23
ATOM     23  O   UNL     1     118.072 258.748 350.801  1.00  0.00    -0.504 OA
ATOM     24  H   UNL     1     118.842 258.109 350.962  1.00  0.00     0.293 HD
ENDBRANCH  20  23
ENDBRANCH  14  15
ENDBRANCH  12  14
ENDBRANCH   9  10
ENDBRANCH   1   9
TORSDOF 10
ENDMDL
