MODEL 1
REMARK VINA RESULT:    -6.250      0.000      0.000
REMARK INTER + INTRA:         -10.319
REMARK INTER:                  -8.807
REMARK INTRA:                  -1.512
REMARK UNBOUND:                -1.512
REMARK SMILES COc1c(O[C@@H]2O[C@H](C(=O)[O-])[C@H](O)[C@H](O)[C@H]2O)cc(O)c2c(=O)cc(-c3ccccc3)oc12
REMARK SMILES IDX 5 1 6 2 8 3 12 4 7 5 14 6 16 7 9 8 10 9 11 10 13 11 15 13
REMARK SMILES IDX 17 15 4 17 3 18 18 19 33 20 19 21 21 22 32 23 22 24 25 25
REMARK SMILES IDX 24 26 23 27 2 28 1 29 20 30 26 32 27 33 31 34 28 35 30 36
REMARK SMILES IDX 29 37
REMARK H PARENT 13 12 15 14 17 16 20 31
REMARK Flexibility Score: inf
ROOT
ATOM      1  O   UNL     1       8.000  14.487  27.508  1.00  0.00    -0.458 OA
ENDROOT
BRANCH   1   2
ATOM      2  C   UNL     1       7.192  15.426  28.218  1.00  0.00     0.339 C 
ATOM      3  C   UNL     1       5.803  17.270  27.821  1.00  0.00     0.199 C 
ATOM      4  C   UNL     1       6.893  18.367  27.931  1.00  0.00     0.180 C 
ATOM      5  O   UNL     1       6.357  16.090  27.274  1.00  0.00    -0.328 OA
ATOM      6  C   UNL     1       8.279  17.749  28.273  1.00  0.00     0.181 C 
ATOM      7  C   UNL     1       8.138  16.393  28.999  1.00  0.00     0.214 C 
BRANCH   3   8
ATOM      8  C   UNL     1       4.641  17.712  26.976  1.00  0.00     0.073 C 
ATOM      9  O   UNL     1       4.258  17.011  26.002  1.00  0.00    -0.547 OA
ATOM     10  O   UNL     1       3.992  18.907  27.259  1.00  0.00    -0.547 OA
ENDBRANCH   3   8
BRANCH   4  11
ATOM     11  O   UNL     1       6.978  19.120  26.744  1.00  0.00    -0.387 OA
ATOM     12  H   UNL     1       7.940  19.168  26.503  1.00  0.00     0.211 HD
ENDBRANCH   4  11
BRANCH   6  13
ATOM     13  O   UNL     1       9.090  17.626  27.126  1.00  0.00    -0.387 OA
ATOM     14  H   UNL     1       9.893  18.194  27.254  1.00  0.00     0.211 HD
ENDBRANCH   6  13
BRANCH   7  15
ATOM     15  O   UNL     1       7.634  16.621  30.292  1.00  0.00    -0.384 OA
ATOM     16  H   UNL     1       7.590  17.607  30.412  1.00  0.00     0.211 HD
ENDBRANCH   7  15
ENDBRANCH   1   2
BRANCH   1  17
ATOM     17  C   UNL     1       7.923  14.270  26.126  1.00  0.00     0.172 A 
ATOM     18  C   UNL     1       8.961  14.748  25.321  1.00  0.00     0.205 A 
ATOM     19  C   UNL     1       6.835  13.604  25.541  1.00  0.00     0.097 A 
ATOM     20  C   UNL     1       8.914  14.568  23.928  1.00  0.00     0.188 A 
ATOM     21  C   UNL     1       6.775  13.413  24.155  1.00  0.00     0.134 A 
ATOM     22  C   UNL     1       7.817  13.898  23.333  1.00  0.00     0.111 A 
ATOM     23  O   UNL     1       9.910  15.026  23.174  1.00  0.00    -0.452 OA
ATOM     24  C   UNL     1       7.821  13.748  21.932  1.00  0.00     0.197 A 
ATOM     25  C   UNL     1       9.949  14.892  21.850  1.00  0.00     0.138 A 
ATOM     26  C   UNL     1       8.892  14.247  21.189  1.00  0.00     0.100 A 
ATOM     27  O   UNL     1       6.876  13.172  21.327  1.00  0.00    -0.289 OA
BRANCH  18  28
ATOM     28  O   UNL     1      10.036  15.407  25.925  1.00  0.00    -0.490 OA
ATOM     29  C   UNL     1      11.209  14.717  26.336  1.00  0.00     0.278 C 
ENDBRANCH  18  28
BRANCH  21  30
ATOM     30  O   UNL     1       5.682  12.740  23.606  1.00  0.00    -0.507 OA
ATOM     31  H   UNL     1       5.166  13.112  22.818  1.00  0.00     0.293 HD
ENDBRANCH  21  30
BRANCH  25  32
ATOM     32  C   UNL     1      11.107  15.448  21.108  1.00  0.00     0.017 A 
ATOM     33  C   UNL     1      10.884  16.260  19.980  1.00  0.00     0.012 A 
ATOM     34  C   UNL     1      12.432  15.209  21.522  1.00  0.00     0.012 A 
ATOM     35  C   UNL     1      11.960  16.804  19.273  1.00  0.00     0.001 A 
ATOM     36  C   UNL     1      13.506  15.758  20.811  1.00  0.00     0.001 A 
ATOM     37  C   UNL     1      13.269  16.552  19.687  1.00  0.00     0.000 A 
ENDBRANCH  25  32
ENDBRANCH   1  17
TORSDOF 9
ENDMDL
MODEL 2
REMARK VINA RESULT:    -6.110      6.549     10.205
REMARK INTER + INTRA:         -10.123
REMARK INTER:                  -8.551
REMARK INTRA:                  -1.571
REMARK UNBOUND:                -1.512
REMARK SMILES COc1c(O[C@@H]2O[C@H](C(=O)[O-])[C@H](O)[C@H](O)[C@H]2O)cc(O)c2c(=O)cc(-c3ccccc3)oc12
REMARK SMILES IDX 5 1 6 2 8 3 12 4 7 5 14 6 16 7 9 8 10 9 11 10 13 11 15 13
REMARK SMILES IDX 17 15 4 17 3 18 18 19 33 20 19 21 21 22 32 23 22 24 25 25
REMARK SMILES IDX 24 26 23 27 2 28 1 29 20 30 26 32 27 33 31 34 28 35 30 36
REMARK SMILES IDX 29 37
REMARK H PARENT 13 12 15 14 17 16 20 31
REMARK Flexibility Score: inf
ROOT
ATOM      1  O   UNL     1      13.615   8.773  24.474  1.00  0.00    -0.458 OA
ENDROOT
BRANCH   1   2
ATOM      2  C   UNL     1      14.151   7.577  23.906  1.00  0.00     0.339 C 
ATOM      3  C   UNL     1      14.995   6.769  21.876  1.00  0.00     0.199 C 
ATOM      4  C   UNL     1      13.654   6.252  21.295  1.00  0.00     0.180 C 
ATOM      5  O   UNL     1      14.770   7.918  22.669  1.00  0.00    -0.328 OA
ATOM      6  C   UNL     1      12.486   6.470  22.300  1.00  0.00     0.181 C 
ATOM      7  C   UNL     1      12.991   6.543  23.757  1.00  0.00     0.214 C 
BRANCH   3   8
ATOM      8  C   UNL     1      15.989   7.097  20.797  1.00  0.00     0.073 C 
ATOM      9  O   UNL     1      16.591   8.204  20.799  1.00  0.00    -0.547 OA
ATOM     10  O   UNL     1      16.237   6.183  19.781  1.00  0.00    -0.547 OA
ENDBRANCH   3   8
BRANCH   4  11
ATOM     11  O   UNL     1      13.359   6.875  20.066  1.00  0.00    -0.387 OA
ATOM     12  H   UNL     1      13.494   7.850  20.200  1.00  0.00     0.211 HD
ENDBRANCH   4  11
BRANCH   6  13
ATOM     13  O   UNL     1      11.725   7.611  21.971  1.00  0.00    -0.387 OA
ATOM     14  H   UNL     1      11.590   7.618  20.988  1.00  0.00     0.211 HD
ENDBRANCH   6  13
BRANCH   7  15
ATOM     15  O   UNL     1      13.429   5.265  24.149  1.00  0.00    -0.384 OA
ATOM     16  H   UNL     1      12.741   4.619  23.838  1.00  0.00     0.211 HD
ENDBRANCH   7  15
ENDBRANCH   1   2
BRANCH   1  17
ATOM     17  C   UNL     1      14.146  10.051  24.262  1.00  0.00     0.172 A 
ATOM     18  C   UNL     1      13.420  10.950  23.475  1.00  0.00     0.205 A 
ATOM     19  C   UNL     1      15.381  10.438  24.806  1.00  0.00     0.097 A 
ATOM     20  C   UNL     1      13.926  12.236  23.222  1.00  0.00     0.188 A 
ATOM     21  C   UNL     1      15.898  11.718  24.567  1.00  0.00     0.134 A 
ATOM     22  C   UNL     1      15.173  12.631  23.767  1.00  0.00     0.111 A 
ATOM     23  O   UNL     1      13.223  13.082  22.474  1.00  0.00    -0.452 OA
ATOM     24  C   UNL     1      15.633  13.931  23.479  1.00  0.00     0.197 A 
ATOM     25  C   UNL     1      13.624  14.319  22.191  1.00  0.00     0.138 A 
ATOM     26  C   UNL     1      14.854  14.777  22.689  1.00  0.00     0.100 A 
ATOM     27  O   UNL     1      16.737  14.353  23.920  1.00  0.00    -0.289 OA
BRANCH  18  28
ATOM     28  O   UNL     1      12.192  10.543  22.946  1.00  0.00    -0.490 OA
ATOM     29  C   UNL     1      10.965  10.761  23.631  1.00  0.00     0.278 C 
ENDBRANCH  18  28
BRANCH  21  30
ATOM     30  O   UNL     1      17.125  12.074  25.128  1.00  0.00    -0.507 OA
ATOM     31  H   UNL     1      17.209  12.353  26.098  1.00  0.00     0.293 HD
ENDBRANCH  21  30
BRANCH  25  32
ATOM     32  C   UNL     1      12.762  15.175  21.340  1.00  0.00     0.017 A 
ATOM     33  C   UNL     1      11.363  15.096  21.468  1.00  0.00     0.012 A 
ATOM     34  C   UNL     1      13.310  16.093  20.422  1.00  0.00     0.012 A 
ATOM     35  C   UNL     1      10.531  15.902  20.684  1.00  0.00     0.001 A 
ATOM     36  C   UNL     1      12.473  16.898  19.642  1.00  0.00     0.001 A 
ATOM     37  C   UNL     1      11.085  16.800  19.771  1.00  0.00     0.000 A 
ENDBRANCH  25  32
ENDBRANCH   1  17
TORSDOF 9
ENDMDL
MODEL 3
REMARK VINA RESULT:    -6.066      2.451      8.196
REMARK INTER + INTRA:         -10.061
REMARK INTER:                  -8.735
REMARK INTRA:                  -1.325
REMARK UNBOUND:                -1.512
REMARK SMILES COc1c(O[C@@H]2O[C@H](C(=O)[O-])[C@H](O)[C@H](O)[C@H]2O)cc(O)c2c(=O)cc(-c3ccccc3)oc12
REMARK SMILES IDX 5 1 6 2 8 3 12 4 7 5 14 6 16 7 9 8 10 9 11 10 13 11 15 13
REMARK SMILES IDX 17 15 4 17 3 18 18 19 33 20 19 21 21 22 32 23 22 24 25 25
REMARK SMILES IDX 24 26 23 27 2 28 1 29 20 30 26 32 27 33 31 34 28 35 30 36
REMARK SMILES IDX 29 37
REMARK H PARENT 13 12 15 14 17 16 20 31
REMARK Flexibility Score: inf
ROOT
ATOM      1  O   UNL     1       9.187  14.056  25.068  1.00  0.00    -0.458 OA
ENDROOT
BRANCH   1   2
ATOM      2  C   UNL     1      10.197  14.269  24.082  1.00  0.00     0.339 C 
ATOM      3  C   UNL     1      10.423  14.538  21.767  1.00  0.00     0.199 C 
ATOM      4  C   UNL     1      10.617  13.041  21.410  1.00  0.00     0.180 C 
ATOM      5  O   UNL     1       9.554  14.665  22.874  1.00  0.00    -0.328 OA
ATOM      6  C   UNL     1      10.609  12.155  22.689  1.00  0.00     0.181 C 
ATOM      7  C   UNL     1      11.028  12.954  23.942  1.00  0.00     0.214 C 
BRANCH   3   8
ATOM      8  C   UNL     1       9.876  15.327  20.610  1.00  0.00     0.073 C 
ATOM      9  O   UNL     1       8.645  15.289  20.339  1.00  0.00    -0.547 OA
ATOM     10  O   UNL     1      10.729  16.091  19.825  1.00  0.00    -0.547 OA
ENDBRANCH   3   8
BRANCH   4  11
ATOM     11  O   UNL     1       9.627  12.602  20.510  1.00  0.00    -0.387 OA
ATOM     12  H   UNL     1      10.098  12.120  19.780  1.00  0.00     0.211 HD
ENDBRANCH   4  11
BRANCH   6  13
ATOM     13  O   UNL     1       9.359  11.532  22.881  1.00  0.00    -0.387 OA
ATOM     14  H   UNL     1       9.446  10.580  22.617  1.00  0.00     0.211 HD
ENDBRANCH   6  13
BRANCH   7  15
ATOM     15  O   UNL     1      12.398  13.257  23.850  1.00  0.00    -0.384 OA
ATOM     16  H   UNL     1      12.512  14.179  24.203  1.00  0.00     0.211 HD
ENDBRANCH   7  15
ENDBRANCH   1   2
BRANCH   1  17
ATOM     17  C   UNL     1       8.426  15.079  25.648  1.00  0.00     0.172 A 
ATOM     18  C   UNL     1       7.033  15.010  25.545  1.00  0.00     0.205 A 
ATOM     19  C   UNL     1       9.024  16.163  26.309  1.00  0.00     0.097 A 
ATOM     20  C   UNL     1       6.232  16.025  26.096  1.00  0.00     0.188 A 
ATOM     21  C   UNL     1       8.241  17.181  26.867  1.00  0.00     0.134 A 
ATOM     22  C   UNL     1       6.832  17.122  26.763  1.00  0.00     0.111 A 
ATOM     23  O   UNL     1       4.908  15.944  25.994  1.00  0.00    -0.452 OA
ATOM     24  C   UNL     1       5.982  18.112  27.294  1.00  0.00     0.197 A 
ATOM     25  C   UNL     1       4.078  16.857  26.492  1.00  0.00     0.138 A 
ATOM     26  C   UNL     1       4.600  17.977  27.158  1.00  0.00     0.100 A 
ATOM     27  O   UNL     1       6.440  19.123  27.893  1.00  0.00    -0.289 OA
BRANCH  18  28
ATOM     28  O   UNL     1       6.459  13.920  24.884  1.00  0.00    -0.490 OA
ATOM     29  C   UNL     1       6.134  13.961  23.501  1.00  0.00     0.278 C 
ENDBRANCH  18  28
BRANCH  21  30
ATOM     30  O   UNL     1       8.867  18.241  27.524  1.00  0.00    -0.507 OA
ATOM     31  H   UNL     1       9.701  18.681  27.155  1.00  0.00     0.293 HD
ENDBRANCH  21  30
BRANCH  25  32
ATOM     32  C   UNL     1       2.617  16.670  26.312  1.00  0.00     0.017 A 
ATOM     33  C   UNL     1       1.720  17.398  27.116  1.00  0.00     0.012 A 
ATOM     34  C   UNL     1       2.100  15.801  25.331  1.00  0.00     0.012 A 
ATOM     35  C   UNL     1       0.339  17.246  26.956  1.00  0.00     0.001 A 
ATOM     36  C   UNL     1       0.717  15.654  25.174  1.00  0.00     0.001 A 
ATOM     37  C   UNL     1      -0.161  16.374  25.988  1.00  0.00     0.000 A 
ENDBRANCH  25  32
ENDBRANCH   1  17
TORSDOF 9
ENDMDL
MODEL 4
REMARK VINA RESULT:    -6.037      7.789     12.138
REMARK INTER + INTRA:         -10.019
REMARK INTER:                  -8.421
REMARK INTRA:                  -1.598
REMARK UNBOUND:                -1.512
REMARK SMILES COc1c(O[C@@H]2O[C@H](C(=O)[O-])[C@H](O)[C@H](O)[C@H]2O)cc(O)c2c(=O)cc(-c3ccccc3)oc12
REMARK SMILES IDX 5 1 6 2 8 3 12 4 7 5 14 6 16 7 9 8 10 9 11 10 13 11 15 13
REMARK SMILES IDX 17 15 4 17 3 18 18 19 33 20 19 21 21 22 32 23 22 24 25 25
REMARK SMILES IDX 24 26 23 27 2 28 1 29 20 30 26 32 27 33 31 34 28 35 30 36
REMARK SMILES IDX 29 37
REMARK H PARENT 13 12 15 14 17 16 20 31
REMARK Flexibility Score: inf
ROOT
ATOM      1  O   UNL     1      11.756   8.374  20.303  1.00  0.00    -0.458 OA
ENDROOT
BRANCH   1   2
ATOM      2  C   UNL     1      12.739   8.186  19.285  1.00  0.00     0.339 C 
ATOM      3  C   UNL     1      12.893   7.801  16.980  1.00  0.00     0.199 C 
ATOM      4  C   UNL     1      12.887   6.252  17.037  1.00  0.00     0.180 C 
ATOM      5  O   UNL     1      12.096   8.328  18.022  1.00  0.00    -0.328 OA
ATOM      6  C   UNL     1      12.829   5.744  18.506  1.00  0.00     0.181 C 
ATOM      7  C   UNL     1      13.397   6.786  19.494  1.00  0.00     0.214 C 
BRANCH   3   8
ATOM      8  C   UNL     1      12.394   8.320  15.660  1.00  0.00     0.073 C 
ATOM      9  O   UNL     1      11.563   9.268  15.621  1.00  0.00    -0.547 OA
ATOM     10  O   UNL     1      12.836   7.745  14.477  1.00  0.00    -0.547 OA
ENDBRANCH   3   8
BRANCH   4  11
ATOM     11  O   UNL     1      11.813   5.721  16.297  1.00  0.00    -0.387 OA
ATOM     12  H   UNL     1      12.040   4.775  16.100  1.00  0.00     0.211 HD
ENDBRANCH   4  11
BRANCH   6  13
ATOM     13  O   UNL     1      11.523   5.361  18.871  1.00  0.00    -0.387 OA
ATOM     14  H   UNL     1      11.580   4.503  19.366  1.00  0.00     0.211 HD
ENDBRANCH   6  13
BRANCH   7  15
ATOM     15  O   UNL     1      14.789   6.874  19.310  1.00  0.00    -0.384 OA
ATOM     16  H   UNL     1      14.952   7.670  18.737  1.00  0.00     0.211 HD
ENDBRANCH   7  15
ENDBRANCH   1   2
BRANCH   1  17
ATOM     17  C   UNL     1      10.530   9.021  20.102  1.00  0.00     0.172 A 
ATOM     18  C   UNL     1       9.363   8.251  20.117  1.00  0.00     0.205 A 
ATOM     19  C   UNL     1      10.451  10.404  19.877  1.00  0.00     0.097 A 
ATOM     20  C   UNL     1       8.113   8.858  19.902  1.00  0.00     0.188 A 
ATOM     21  C   UNL     1       9.214  11.025  19.664  1.00  0.00     0.134 A 
ATOM     22  C   UNL     1       8.030  10.253  19.672  1.00  0.00     0.111 A 
ATOM     23  O   UNL     1       7.011   8.113  19.922  1.00  0.00    -0.452 OA
ATOM     24  C   UNL     1       6.752  10.808  19.459  1.00  0.00     0.197 A 
ATOM     25  C   UNL     1       5.789   8.607  19.734  1.00  0.00     0.138 A 
ATOM     26  C   UNL     1       5.629   9.980  19.491  1.00  0.00     0.100 A 
ATOM     27  O   UNL     1       6.596  12.040  19.239  1.00  0.00    -0.289 OA
BRANCH  18  28
ATOM     28  O   UNL     1       9.465   6.876  20.346  1.00  0.00    -0.490 OA
ATOM     29  C   UNL     1       9.323   6.314  21.644  1.00  0.00     0.278 C 
ENDBRANCH  18  28
BRANCH  21  30
ATOM     30  O   UNL     1       9.170  12.403  19.450  1.00  0.00    -0.507 OA
ATOM     31  H   UNL     1      10.005  12.976  19.478  1.00  0.00     0.293 HD
ENDBRANCH  21  30
BRANCH  25  32
ATOM     32  C   UNL     1       4.630   7.683  19.770  1.00  0.00     0.017 A 
ATOM     33  C   UNL     1       4.625   6.611  20.682  1.00  0.00     0.012 A 
ATOM     34  C   UNL     1       3.512   7.868  18.933  1.00  0.00     0.012 A 
ATOM     35  C   UNL     1       3.538   5.734  20.742  1.00  0.00     0.001 A 
ATOM     36  C   UNL     1       2.426   6.988  18.998  1.00  0.00     0.001 A 
ATOM     37  C   UNL     1       2.441   5.921  19.900  1.00  0.00     0.000 A 
ENDBRANCH  25  32
ENDBRANCH   1  17
TORSDOF 9
ENDMDL
MODEL 5
REMARK VINA RESULT:    -5.960     10.287     14.073
REMARK INTER + INTRA:          -9.911
REMARK INTER:                  -8.403
REMARK INTRA:                  -1.508
REMARK UNBOUND:                -1.512
REMARK SMILES COc1c(O[C@@H]2O[C@H](C(=O)[O-])[C@H](O)[C@H](O)[C@H]2O)cc(O)c2c(=O)cc(-c3ccccc3)oc12
REMARK SMILES IDX 5 1 6 2 8 3 12 4 7 5 14 6 16 7 9 8 10 9 11 10 13 11 15 13
REMARK SMILES IDX 17 15 4 17 3 18 18 19 33 20 19 21 21 22 32 23 22 24 25 25
REMARK SMILES IDX 24 26 23 27 2 28 1 29 20 30 26 32 27 33 31 34 28 35 30 36
REMARK SMILES IDX 29 37
REMARK H PARENT 13 12 15 14 17 16 20 31
REMARK Flexibility Score: inf
ROOT
ATOM      1  O   UNL     1      15.470   4.932  18.309  1.00  0.00    -0.458 OA
ENDROOT
BRANCH   1   2
ATOM      2  C   UNL     1      15.349   5.569  17.036  1.00  0.00     0.339 C 
ATOM      3  C   UNL     1      14.322   7.425  16.043  1.00  0.00     0.199 C 
ATOM      4  C   UNL     1      12.997   6.726  15.640  1.00  0.00     0.180 C 
ATOM      5  O   UNL     1      14.814   6.873  17.247  1.00  0.00    -0.328 OA
ATOM      6  C   UNL     1      13.016   5.220  16.030  1.00  0.00     0.181 C 
ATOM      7  C   UNL     1      14.456   4.671  16.123  1.00  0.00     0.214 C 
BRANCH   3   8
ATOM      8  C   UNL     1      14.150   8.909  16.209  1.00  0.00     0.073 C 
ATOM      9  O   UNL     1      13.531   9.371  17.205  1.00  0.00    -0.547 OA
ATOM     10  O   UNL     1      14.660   9.778  15.254  1.00  0.00    -0.547 OA
ENDBRANCH   3   8
BRANCH   4  11
ATOM     11  O   UNL     1      11.888   7.365  16.227  1.00  0.00    -0.387 OA
ATOM     12  H   UNL     1      11.731   6.922  17.101  1.00  0.00     0.211 HD
ENDBRANCH   4  11
BRANCH   6  13
ATOM     13  O   UNL     1      12.306   4.985  17.225  1.00  0.00    -0.387 OA
ATOM     14  H   UNL     1      12.096   5.862  17.637  1.00  0.00     0.211 HD
ENDBRANCH   6  13
BRANCH   7  15
ATOM     15  O   UNL     1      15.001   4.606  14.828  1.00  0.00    -0.384 OA
ATOM     16  H   UNL     1      15.478   3.736  14.762  1.00  0.00     0.211 HD
ENDBRANCH   7  15
ENDBRANCH   1   2
BRANCH   1  17
ATOM     17  C   UNL     1      15.343   5.596  19.536  1.00  0.00     0.172 A 
ATOM     18  C   UNL     1      14.213   5.334  20.317  1.00  0.00     0.205 A 
ATOM     19  C   UNL     1      16.305   6.514  19.984  1.00  0.00     0.097 A 
ATOM     20  C   UNL     1      14.037   5.991  21.546  1.00  0.00     0.188 A 
ATOM     21  C   UNL     1      16.146   7.175  21.208  1.00  0.00     0.134 A 
ATOM     22  C   UNL     1      15.004   6.921  22.002  1.00  0.00     0.111 A 
ATOM     23  O   UNL     1      12.959   5.730  22.281  1.00  0.00    -0.452 OA
ATOM     24  C   UNL     1      14.775   7.553  23.240  1.00  0.00     0.197 A 
ATOM     25  C   UNL     1      12.718   6.303  23.458  1.00  0.00     0.138 A 
ATOM     26  C   UNL     1      13.627   7.241  23.970  1.00  0.00     0.100 A 
ATOM     27  O   UNL     1      15.585   8.398  23.709  1.00  0.00    -0.289 OA
BRANCH  18  28
ATOM     28  O   UNL     1      13.269   4.414  19.852  1.00  0.00    -0.490 OA
ATOM     29  C   UNL     1      13.419   3.013  20.048  1.00  0.00     0.278 C 
ENDBRANCH  18  28
BRANCH  21  30
ATOM     30  O   UNL     1      17.125   8.077  21.629  1.00  0.00    -0.507 OA
ATOM     31  H   UNL     1      16.994   8.669  22.440  1.00  0.00     0.293 HD
ENDBRANCH  21  30
BRANCH  25  32
ATOM     32  C   UNL     1      11.478   5.942  24.189  1.00  0.00     0.017 A 
ATOM     33  C   UNL     1      11.510   4.903  25.138  1.00  0.00     0.012 A 
ATOM     34  C   UNL     1      10.270   6.636  23.982  1.00  0.00     0.012 A 
ATOM     35  C   UNL     1      10.356   4.553  25.847  1.00  0.00     0.001 A 
ATOM     36  C   UNL     1       9.119   6.284  24.696  1.00  0.00     0.001 A 
ATOM     37  C   UNL     1       9.163   5.241  25.625  1.00  0.00     0.000 A 
ENDBRANCH  25  32
ENDBRANCH   1  17
TORSDOF 9
ENDMDL
MODEL 6
REMARK VINA RESULT:    -5.958      1.993      8.024
REMARK INTER + INTRA:          -9.909
REMARK INTER:                  -8.611
REMARK INTRA:                  -1.297
REMARK UNBOUND:                -1.512
REMARK SMILES COc1c(O[C@@H]2O[C@H](C(=O)[O-])[C@H](O)[C@H](O)[C@H]2O)cc(O)c2c(=O)cc(-c3ccccc3)oc12
REMARK SMILES IDX 5 1 6 2 8 3 12 4 7 5 14 6 16 7 9 8 10 9 11 10 13 11 15 13
REMARK SMILES IDX 17 15 4 17 3 18 18 19 33 20 19 21 21 22 32 23 22 24 25 25
REMARK SMILES IDX 24 26 23 27 2 28 1 29 20 30 26 32 27 33 31 34 28 35 30 36
REMARK SMILES IDX 29 37
REMARK H PARENT 13 12 15 14 17 16 20 31
REMARK Flexibility Score: inf
ROOT
ATOM      1  O   UNL     1       9.847  12.847  22.910  1.00  0.00    -0.458 OA
ENDROOT
BRANCH   1   2
ATOM      2  C   UNL     1      10.545  13.118  21.694  1.00  0.00     0.339 C 
ATOM      3  C   UNL     1      11.720  14.849  20.642  1.00  0.00     0.199 C 
ATOM      4  C   UNL     1      10.515  15.488  19.905  1.00  0.00     0.180 C 
ATOM      5  O   UNL     1      11.302  14.311  21.880  1.00  0.00    -0.328 OA
ATOM      6  C   UNL     1       9.206  14.692  20.174  1.00  0.00     0.181 C 
ATOM      7  C   UNL     1       9.496  13.221  20.542  1.00  0.00     0.214 C 
BRANCH   3   8
ATOM      8  C   UNL     1      12.827  15.838  20.877  1.00  0.00     0.073 C 
ATOM      9  O   UNL     1      13.115  16.694  19.997  1.00  0.00    -0.547 OA
ATOM     10  O   UNL     1      13.550  15.802  22.062  1.00  0.00    -0.547 OA
ENDBRANCH   3   8
BRANCH   4  11
ATOM     11  O   UNL     1      10.349  16.836  20.279  1.00  0.00    -0.387 OA
ATOM     12  H   UNL     1       9.391  16.952  20.514  1.00  0.00     0.211 HD
ENDBRANCH   4  11
BRANCH   6  13
ATOM     13  O   UNL     1       8.415  15.313  21.163  1.00  0.00    -0.387 OA
ATOM     14  H   UNL     1       8.010  14.603  21.725  1.00  0.00     0.211 HD
ENDBRANCH   6  13
BRANCH   7  15
ATOM     15  O   UNL     1       9.970  12.553  19.398  1.00  0.00    -0.384 OA
ATOM     16  H   UNL     1       9.676  13.088  18.612  1.00  0.00     0.211 HD
ENDBRANCH   7  15
ENDBRANCH   1   2
BRANCH   1  17
ATOM     17  C   UNL     1       9.768  13.738  23.988  1.00  0.00     0.172 A 
ATOM     18  C   UNL     1       8.522  14.286  24.306  1.00  0.00     0.205 A 
ATOM     19  C   UNL     1      10.900  14.097  24.735  1.00  0.00     0.097 A 
ATOM     20  C   UNL     1       8.401  15.199  25.368  1.00  0.00     0.188 A 
ATOM     21  C   UNL     1      10.797  15.002  25.799  1.00  0.00     0.134 A 
ATOM     22  C   UNL     1       9.542  15.565  26.124  1.00  0.00     0.111 A 
ATOM     23  O   UNL     1       7.209  15.710  25.661  1.00  0.00    -0.452 OA
ATOM     24  C   UNL     1       9.364  16.486  27.175  1.00  0.00     0.197 A 
ATOM     25  C   UNL     1       7.005  16.574  26.653  1.00  0.00     0.138 A 
ATOM     26  C   UNL     1       8.090  16.991  27.440  1.00  0.00     0.100 A 
ATOM     27  O   UNL     1      10.332  16.869  27.888  1.00  0.00    -0.289 OA
BRANCH  18  28
ATOM     28  O   UNL     1       7.407  13.912  23.549  1.00  0.00    -0.490 OA
ATOM     29  C   UNL     1       6.587  12.808  23.908  1.00  0.00     0.278 C 
ENDBRANCH  18  28
BRANCH  21  30
ATOM     30  O   UNL     1      11.941  15.332  26.527  1.00  0.00    -0.507 OA
ATOM     31  H   UNL     1      12.144  16.286  26.801  1.00  0.00     0.293 HD
ENDBRANCH  21  30
BRANCH  25  32
ATOM     32  C   UNL     1       5.633  17.086  26.886  1.00  0.00     0.017 A 
ATOM     33  C   UNL     1       5.450  18.418  27.302  1.00  0.00     0.012 A 
ATOM     34  C   UNL     1       4.497  16.279  26.670  1.00  0.00     0.012 A 
ATOM     35  C   UNL     1       4.164  18.925  27.516  1.00  0.00     0.001 A 
ATOM     36  C   UNL     1       3.213  16.792  26.885  1.00  0.00     0.001 A 
ATOM     37  C   UNL     1       3.048  18.113  27.310  1.00  0.00     0.000 A 
ENDBRANCH  25  32
ENDBRANCH   1  17
TORSDOF 9
ENDMDL
MODEL 7
REMARK VINA RESULT:    -5.951      9.716     13.435
REMARK INTER + INTRA:          -9.899
REMARK INTER:                  -8.686
REMARK INTRA:                  -1.213
REMARK UNBOUND:                -1.512
REMARK SMILES COc1c(O[C@@H]2O[C@H](C(=O)[O-])[C@H](O)[C@H](O)[C@H]2O)cc(O)c2c(=O)cc(-c3ccccc3)oc12
REMARK SMILES IDX 5 1 6 2 8 3 12 4 7 5 14 6 16 7 9 8 10 9 11 10 13 11 15 13
REMARK SMILES IDX 17 15 4 17 3 18 18 19 33 20 19 21 21 22 32 23 22 24 25 25
REMARK SMILES IDX 24 26 23 27 2 28 1 29 20 30 26 32 27 33 31 34 28 35 30 36
REMARK SMILES IDX 29 37
REMARK H PARENT 13 12 15 14 17 16 20 31
REMARK Flexibility Score: inf
ROOT
ATOM      1  O   UNL     1      14.524   4.655  18.309  1.00  0.00    -0.458 OA
ENDROOT
BRANCH   1   2
ATOM      2  C   UNL     1      14.943   5.313  17.113  1.00  0.00     0.339 C 
ATOM      3  C   UNL     1      14.519   7.264  15.889  1.00  0.00     0.199 C 
ATOM      4  C   UNL     1      13.394   6.693  14.988  1.00  0.00     0.180 C 
ATOM      5  O   UNL     1      14.475   6.658  17.165  1.00  0.00    -0.328 OA
ATOM      6  C   UNL     1      13.143   5.187  15.290  1.00  0.00     0.181 C 
ATOM      7  C   UNL     1      14.392   4.509  15.894  1.00  0.00     0.214 C 
BRANCH   3   8
ATOM      8  C   UNL     1      14.417   8.756  16.043  1.00  0.00     0.073 C 
ATOM      9  O   UNL     1      13.767   9.254  17.001  1.00  0.00    -0.547 OA
ATOM     10  O   UNL     1      15.026   9.593  15.117  1.00  0.00    -0.547 OA
ENDBRANCH   3   8
BRANCH   4  11
ATOM     11  O   UNL     1      12.200   7.424  15.143  1.00  0.00    -0.387 OA
ATOM     12  H   UNL     1      12.273   7.913  16.004  1.00  0.00     0.211 HD
ENDBRANCH   4  11
BRANCH   6  13
ATOM     13  O   UNL     1      12.018   5.005  16.121  1.00  0.00    -0.387 OA
ATOM     14  H   UNL     1      12.147   5.551  16.939  1.00  0.00     0.211 HD
ENDBRANCH   6  13
BRANCH   7  15
ATOM     15  O   UNL     1      15.379   4.408  14.896  1.00  0.00    -0.384 OA
ATOM     16  H   UNL     1      16.227   4.164  15.356  1.00  0.00     0.211 HD
ENDBRANCH   7  15
ENDBRANCH   1   2
BRANCH   1  17
ATOM     17  C   UNL     1      13.793   5.273  19.332  1.00  0.00     0.172 A 
ATOM     18  C   UNL     1      14.496   5.950  20.333  1.00  0.00     0.205 A 
ATOM     19  C   UNL     1      12.392   5.216  19.379  1.00  0.00     0.097 A 
ATOM     20  C   UNL     1      13.803   6.568  21.388  1.00  0.00     0.188 A 
ATOM     21  C   UNL     1      11.686   5.830  20.421  1.00  0.00     0.134 A 
ATOM     22  C   UNL     1      12.389   6.512  21.441  1.00  0.00     0.111 A 
ATOM     23  O   UNL     1      14.485   7.212  22.332  1.00  0.00    -0.452 OA
ATOM     24  C   UNL     1      11.746   7.146  22.522  1.00  0.00     0.197 A 
ATOM     25  C   UNL     1      13.908   7.829  23.361  1.00  0.00     0.138 A 
ATOM     26  C   UNL     1      12.511   7.808  23.484  1.00  0.00     0.100 A 
ATOM     27  O   UNL     1      10.491   7.132  22.644  1.00  0.00    -0.289 OA
BRANCH  18  28
ATOM     28  O   UNL     1      15.892   5.996  20.264  1.00  0.00    -0.490 OA
ATOM     29  C   UNL     1      16.590   7.171  19.874  1.00  0.00     0.278 C 
ENDBRANCH  18  28
BRANCH  21  30
ATOM     30  O   UNL     1      10.292   5.761  20.435  1.00  0.00    -0.507 OA
ATOM     31  H   UNL     1       9.797   5.029  20.930  1.00  0.00     0.293 HD
ENDBRANCH  21  30
BRANCH  25  32
ATOM     32  C   UNL     1      14.767   8.510  24.360  1.00  0.00     0.017 A 
ATOM     33  C   UNL     1      14.373   8.539  25.710  1.00  0.00     0.012 A 
ATOM     34  C   UNL     1      15.992   9.106  23.997  1.00  0.00     0.012 A 
ATOM     35  C   UNL     1      15.173   9.165  26.671  1.00  0.00     0.001 A 
ATOM     36  C   UNL     1      16.790   9.729  24.963  1.00  0.00     0.001 A 
ATOM     37  C   UNL     1      16.378   9.761  26.297  1.00  0.00     0.000 A 
ENDBRANCH  25  32
ENDBRANCH   1  17
TORSDOF 9
ENDMDL
MODEL 8
REMARK VINA RESULT:    -5.905      4.193      7.132
REMARK INTER + INTRA:          -9.833
REMARK INTER:                  -8.366
REMARK INTRA:                  -1.467
REMARK UNBOUND:                -1.512
REMARK SMILES COc1c(O[C@@H]2O[C@H](C(=O)[O-])[C@H](O)[C@H](O)[C@H]2O)cc(O)c2c(=O)cc(-c3ccccc3)oc12
REMARK SMILES IDX 5 1 6 2 8 3 12 4 7 5 14 6 16 7 9 8 10 9 11 10 13 11 15 13
REMARK SMILES IDX 17 15 4 17 3 18 18 19 33 20 19 21 21 22 32 23 22 24 25 25
REMARK SMILES IDX 24 26 23 27 2 28 1 29 20 30 26 32 27 33 31 34 28 35 30 36
REMARK SMILES IDX 29 37
REMARK H PARENT 13 12 15 14 17 16 20 31
REMARK Flexibility Score: inf
ROOT
ATOM      1  O   UNL     1       8.462  14.955  21.277  1.00  0.00    -0.458 OA
ENDROOT
BRANCH   1   2
ATOM      2  C   UNL     1       7.623  14.201  20.402  1.00  0.00     0.339 C 
ATOM      3  C   UNL     1       5.511  13.190  20.362  1.00  0.00     0.199 C 
ATOM      4  C   UNL     1       5.947  11.797  20.884  1.00  0.00     0.180 C 
ATOM      5  O   UNL     1       6.307  14.199  20.949  1.00  0.00    -0.328 OA
ATOM      6  C   UNL     1       7.484  11.743  21.123  1.00  0.00     0.181 C 
ATOM      7  C   UNL     1       8.235  12.772  20.251  1.00  0.00     0.214 C 
BRANCH   3   8
ATOM      8  C   UNL     1       4.062  13.470  20.646  1.00  0.00     0.073 C 
ATOM      9  O   UNL     1       3.213  13.442  19.715  1.00  0.00    -0.547 OA
ATOM     10  O   UNL     1       3.655  13.778  21.937  1.00  0.00    -0.547 OA
ENDBRANCH   3   8
BRANCH   4  11
ATOM     11  O   UNL     1       5.261  11.460  22.067  1.00  0.00    -0.387 OA
ATOM     12  H   UNL     1       4.291  11.504  21.858  1.00  0.00     0.211 HD
ENDBRANCH   4  11
BRANCH   6  13
ATOM     13  O   UNL     1       7.803  11.907  22.487  1.00  0.00    -0.387 OA
ATOM     14  H   UNL     1       7.451  12.786  22.782  1.00  0.00     0.211 HD
ENDBRANCH   6  13
BRANCH   7  15
ATOM     15  O   UNL     1       8.171  12.360  18.907  1.00  0.00    -0.384 OA
ATOM     16  H   UNL     1       7.814  13.129  18.388  1.00  0.00     0.211 HD
ENDBRANCH   7  15
ENDBRANCH   1   2
BRANCH   1  17
ATOM     17  C   UNL     1       9.829  15.172  21.063  1.00  0.00     0.172 A 
ATOM     18  C   UNL     1      10.740  14.589  21.949  1.00  0.00     0.205 A 
ATOM     19  C   UNL     1      10.295  15.962  20.001  1.00  0.00     0.097 A 
ATOM     20  C   UNL     1      12.120  14.796  21.781  1.00  0.00     0.188 A 
ATOM     21  C   UNL     1      11.667  16.175  19.817  1.00  0.00     0.134 A 
ATOM     22  C   UNL     1      12.595  15.594  20.711  1.00  0.00     0.111 A 
ATOM     23  O   UNL     1      12.976  14.232  22.629  1.00  0.00    -0.452 OA
ATOM     24  C   UNL     1      13.988  15.770  20.592  1.00  0.00     0.197 A 
ATOM     25  C   UNL     1      14.296  14.371  22.539  1.00  0.00     0.138 A 
ATOM     26  C   UNL     1      14.840  15.155  21.511  1.00  0.00     0.100 A 
ATOM     27  O   UNL     1      14.488  16.474  19.673  1.00  0.00    -0.289 OA
BRANCH  18  28
ATOM     28  O   UNL     1      10.253  13.804  22.998  1.00  0.00    -0.490 OA
ATOM     29  C   UNL     1       9.961  14.351  24.277  1.00  0.00     0.278 C 
ENDBRANCH  18  28
BRANCH  21  30
ATOM     30  O   UNL     1      12.099  16.960  18.747  1.00  0.00    -0.507 OA
ATOM     31  H   UNL     1      11.758  16.812  17.804  1.00  0.00     0.293 HD
ENDBRANCH  21  30
BRANCH  25  32
ATOM     32  C   UNL     1      15.157  13.702  23.546  1.00  0.00     0.017 A 
ATOM     33  C   UNL     1      15.659  14.443  24.632  1.00  0.00     0.012 A 
ATOM     34  C   UNL     1      15.460  12.329  23.462  1.00  0.00     0.012 A 
ATOM     35  C   UNL     1      16.463  13.831  25.598  1.00  0.00     0.001 A 
ATOM     36  C   UNL     1      16.263  11.720  24.433  1.00  0.00     0.001 A 
ATOM     37  C   UNL     1      16.765  12.472  25.498  1.00  0.00     0.000 A 
ENDBRANCH  25  32
ENDBRANCH   1  17
TORSDOF 9
ENDMDL
MODEL 9
REMARK VINA RESULT:    -5.895     10.127     14.505
REMARK INTER + INTRA:          -9.819
REMARK INTER:                  -8.302
REMARK INTRA:                  -1.517
REMARK UNBOUND:                -1.512
REMARK SMILES COc1c(O[C@@H]2O[C@H](C(=O)[O-])[C@H](O)[C@H](O)[C@H]2O)cc(O)c2c(=O)cc(-c3ccccc3)oc12
REMARK SMILES IDX 5 1 6 2 8 3 12 4 7 5 14 6 16 7 9 8 10 9 11 10 13 11 15 13
REMARK SMILES IDX 17 15 4 17 3 18 18 19 33 20 19 21 21 22 32 23 22 24 25 25
REMARK SMILES IDX 24 26 23 27 2 28 1 29 20 30 26 32 27 33 31 34 28 35 30 36
REMARK SMILES IDX 29 37
REMARK H PARENT 13 12 15 14 17 16 20 31
REMARK Flexibility Score: inf
ROOT
ATOM      1  O   UNL     1      14.108   6.161  18.039  1.00  0.00    -0.458 OA
ENDROOT
BRANCH   1   2
ATOM      2  C   UNL     1      14.604   4.982  17.402  1.00  0.00     0.339 C 
ATOM      3  C   UNL     1      15.156   4.185  15.271  1.00  0.00     0.199 C 
ATOM      4  C   UNL     1      13.766   3.600  14.911  1.00  0.00     0.180 C 
ATOM      5  O   UNL     1      15.004   5.333  16.081  1.00  0.00    -0.328 OA
ATOM      6  C   UNL     1      12.761   3.779  16.086  1.00  0.00     0.181 C 
ATOM      7  C   UNL     1      13.484   3.895  17.445  1.00  0.00     0.214 C 
BRANCH   3   8
ATOM      8  C   UNL     1      15.952   4.541  14.047  1.00  0.00     0.073 C 
ATOM      9  O   UNL     1      16.438   5.697  13.916  1.00  0.00    -0.547 OA
ATOM     10  O   UNL     1      16.144   3.598  13.045  1.00  0.00    -0.547 OA
ENDBRANCH   3   8
BRANCH   4  11
ATOM     11  O   UNL     1      13.254   4.191  13.740  1.00  0.00    -0.387 OA
ATOM     12  H   UNL     1      12.345   3.815  13.603  1.00  0.00     0.211 HD
ENDBRANCH   4  11
BRANCH   6  13
ATOM     13  O   UNL     1      11.905   4.880  15.872  1.00  0.00    -0.387 OA
ATOM     14  H   UNL     1      12.413   5.708  16.072  1.00  0.00     0.211 HD
ENDBRANCH   6  13
BRANCH   7  15
ATOM     15  O   UNL     1      14.037   2.644  17.772  1.00  0.00    -0.384 OA
ATOM     16  H   UNL     1      14.087   2.124  16.927  1.00  0.00     0.211 HD
ENDBRANCH   7  15
ENDBRANCH   1   2
BRANCH   1  17
ATOM     17  C   UNL     1      13.276   6.155  19.165  1.00  0.00     0.172 A 
ATOM     18  C   UNL     1      11.944   6.552  19.009  1.00  0.00     0.205 A 
ATOM     19  C   UNL     1      13.747   5.776  20.432  1.00  0.00     0.097 A 
ATOM     20  C   UNL     1      11.080   6.578  20.117  1.00  0.00     0.188 A 
ATOM     21  C   UNL     1      12.898   5.793  21.546  1.00  0.00     0.134 A 
ATOM     22  C   UNL     1      11.552   6.199  21.398  1.00  0.00     0.111 A 
ATOM     23  O   UNL     1       9.814   6.955  19.953  1.00  0.00    -0.452 OA
ATOM     24  C   UNL     1      10.643   6.247  22.473  1.00  0.00     0.197 A 
ATOM     25  C   UNL     1       8.929   7.002  20.945  1.00  0.00     0.138 A 
ATOM     26  C   UNL     1       9.327   6.650  22.244  1.00  0.00     0.100 A 
ATOM     27  O   UNL     1      10.990   5.934  23.644  1.00  0.00    -0.289 OA
BRANCH  18  28
ATOM     28  O   UNL     1      11.496   6.922  17.738  1.00  0.00    -0.490 OA
ATOM     29  C   UNL     1      11.522   8.272  17.291  1.00  0.00     0.278 C 
ENDBRANCH  18  28
BRANCH  21  30
ATOM     30  O   UNL     1      13.397   5.404  22.790  1.00  0.00    -0.507 OA
ATOM     31  H   UNL     1      12.950   5.682  23.656  1.00  0.00     0.293 HD
ENDBRANCH  21  30
BRANCH  25  32
ATOM     32  C   UNL     1       7.545   7.445  20.649  1.00  0.00     0.017 A 
ATOM     33  C   UNL     1       6.461   6.804  21.278  1.00  0.00     0.012 A 
ATOM     34  C   UNL     1       7.285   8.519  19.774  1.00  0.00     0.012 A 
ATOM     35  C   UNL     1       5.148   7.213  21.022  1.00  0.00     0.001 A 
ATOM     36  C   UNL     1       5.969   8.925  19.523  1.00  0.00     0.001 A 
ATOM     37  C   UNL     1       4.903   8.270  20.145  1.00  0.00     0.000 A 
ENDBRANCH  25  32
ENDBRANCH   1  17
TORSDOF 9
ENDMDL
