MODEL 1
REMARK VINA RESULT:    -5.198      0.000      0.000
REMARK INTER + INTRA:          -5.821
REMARK INTER:                  -5.654
REMARK INTRA:                  -0.167
REMARK UNBOUND:                -0.167
REMARK SMILES CC(=O)[C@H]1CC[C@@H]2[C@H]3CC=C4C[C@@H](O)CC[C@@]4(C)[C@@H]3CC[C@@]12C
REMARK SMILES IDX 4 1 5 2 6 3 7 4 22 5 21 6 20 7 19 8 8 9 9 10 10 11 11 12
REMARK SMILES IDX 17 13 16 14 15 15 13 16 12 17 18 18 23 19 2 20 1 21 3 22
REMARK SMILES IDX 14 23
REMARK H PARENT 14 24
REMARK Flexibility Score: inf
ROOT
ATOM      1  C   UNL     1      23.995  19.455  25.772  1.00  0.00     0.062 C 
ATOM      2  C   UNL     1      24.440  20.736  26.523  1.00  0.00     0.012 C 
ATOM      3  C   UNL     1      23.352  21.052  27.565  1.00  0.00     0.005 C 
ATOM      4  C   UNL     1      22.205  20.106  27.225  1.00  0.00    -0.001 C 
ATOM      5  C   UNL     1      22.879  18.849  26.669  1.00  0.00    -0.020 C 
ATOM      6  C   UNL     1      21.787  18.008  25.962  1.00  0.00     0.008 C 
ATOM      7  C   UNL     1      20.650  17.633  26.940  1.00  0.00     0.005 C 
ATOM      8  C   UNL     1      20.059  18.861  27.712  1.00  0.00     0.003 C 
ATOM      9  C   UNL     1      21.156  19.794  28.314  1.00  0.00     0.000 C 
ATOM     10  C   UNL     1      20.498  21.091  28.810  1.00  0.00     0.031 C 
ATOM     11  C   UNL     1      19.276  20.843  29.648  1.00  0.00    -0.027 C 
ATOM     12  C   UNL     1      18.514  19.730  29.558  1.00  0.00    -0.065 C 
ATOM     13  C   UNL     1      18.974  18.478  28.792  1.00  0.00    -0.008 C 
ATOM     14  C   UNL     1      17.744  17.847  28.068  1.00  0.00     0.014 C 
ATOM     15  C   UNL     1      16.504  17.695  28.960  1.00  0.00     0.033 C 
ATOM     16  C   UNL     1      16.090  19.019  29.620  1.00  0.00     0.118 C 
ATOM     17  C   UNL     1      17.252  19.656  30.397  1.00  0.00     0.063 C 
ATOM     18  C   UNL     1      19.535  17.461  29.824  1.00  0.00     0.016 C 
ATOM     19  C   UNL     1      23.581  17.983  27.764  1.00  0.00     0.012 C 
ENDROOT
BRANCH   1  20
ATOM     20  C   UNL     1      23.576  19.706  24.326  1.00  0.00     0.133 C 
ATOM     21  C   UNL     1      23.965  18.822  23.171  1.00  0.00     0.088 C 
ATOM     22  O   UNL     1      22.915  20.705  24.082  1.00  0.00    -0.300 OA
ENDBRANCH   1  20
BRANCH  16  23
ATOM     23  O   UNL     1      15.546  19.912  28.677  1.00  0.00    -0.393 OA
ATOM     24  H   UNL     1      15.067  20.628  29.167  1.00  0.00     0.210 HD
ENDBRANCH  16  23
TORSDOF 2
ENDMDL
MODEL 2
REMARK VINA RESULT:    -5.195     10.882     12.918
REMARK INTER + INTRA:          -5.817
REMARK INTER:                  -5.687
REMARK INTRA:                  -0.130
REMARK UNBOUND:                -0.167
REMARK SMILES CC(=O)[C@H]1CC[C@@H]2[C@H]3CC=C4C[C@@H](O)CC[C@@]4(C)[C@@H]3CC[C@@]12C
REMARK SMILES IDX 4 1 5 2 6 3 7 4 22 5 21 6 20 7 19 8 8 9 9 10 10 11 11 12
REMARK SMILES IDX 17 13 16 14 15 15 13 16 12 17 18 18 23 19 2 20 1 21 3 22
REMARK SMILES IDX 14 23
REMARK H PARENT 14 24
REMARK Flexibility Score: inf
ROOT
ATOM      1  C   UNL     1       9.507  20.458  24.476  1.00  0.00     0.062 C 
ATOM      2  C   UNL     1      10.785  20.637  23.616  1.00  0.00     0.012 C 
ATOM      3  C   UNL     1      11.189  19.241  23.108  1.00  0.00     0.005 C 
ATOM      4  C   UNL     1      10.296  18.275  23.878  1.00  0.00    -0.001 C 
ATOM      5  C   UNL     1       8.989  19.040  24.105  1.00  0.00    -0.020 C 
ATOM      6  C   UNL     1       8.186  18.279  25.190  1.00  0.00     0.008 C 
ATOM      7  C   UNL     1       7.902  16.822  24.755  1.00  0.00     0.005 C 
ATOM      8  C   UNL     1       9.181  16.045  24.297  1.00  0.00     0.003 C 
ATOM      9  C   UNL     1      10.073  16.858  23.307  1.00  0.00     0.000 C 
ATOM     10  C   UNL     1      11.417  16.136  23.129  1.00  0.00     0.031 C 
ATOM     11  C   UNL     1      11.260  14.667  22.857  1.00  0.00    -0.027 C 
ATOM     12  C   UNL     1      10.186  13.941  23.242  1.00  0.00    -0.065 C 
ATOM     13  C   UNL     1       8.889  14.595  23.748  1.00  0.00    -0.008 C 
ATOM     14  C   UNL     1       8.303  13.728  24.905  1.00  0.00     0.014 C 
ATOM     15  C   UNL     1       8.243  12.225  24.592  1.00  0.00     0.033 C 
ATOM     16  C   UNL     1       9.606  11.661  24.165  1.00  0.00     0.118 C 
ATOM     17  C   UNL     1      10.203  12.445  22.987  1.00  0.00     0.063 C 
ATOM     18  C   UNL     1       7.875  14.627  22.571  1.00  0.00     0.016 C 
ATOM     19  C   UNL     1       8.120  19.184  22.815  1.00  0.00     0.012 C 
ENDROOT
BRANCH   1  20
ATOM     20  C   UNL     1       9.737  20.675  25.969  1.00  0.00     0.133 C 
ATOM     21  C   UNL     1       8.666  21.123  26.929  1.00  0.00     0.088 C 
ATOM     22  O   UNL     1      10.866  20.514  26.409  1.00  0.00    -0.300 OA
ENDBRANCH   1  20
BRANCH  16  23
ATOM     23  O   UNL     1      10.498  11.600  25.253  1.00  0.00    -0.393 OA
ATOM     24  H   UNL     1      10.478  12.472  25.722  1.00  0.00     0.210 HD
ENDBRANCH  16  23
TORSDOF 2
ENDMDL
MODEL 3
REMARK VINA RESULT:    -5.191      8.092     10.538
REMARK INTER + INTRA:          -5.813
REMARK INTER:                  -5.664
REMARK INTRA:                  -0.149
REMARK UNBOUND:                -0.167
REMARK SMILES CC(=O)[C@H]1CC[C@@H]2[C@H]3CC=C4C[C@@H](O)CC[C@@]4(C)[C@@H]3CC[C@@]12C
REMARK SMILES IDX 4 1 5 2 6 3 7 4 22 5 21 6 20 7 19 8 8 9 9 10 10 11 11 12
REMARK SMILES IDX 17 13 16 14 15 15 13 16 12 17 18 18 23 19 2 20 1 21 3 22
REMARK SMILES IDX 14 23
REMARK H PARENT 14 24
REMARK Flexibility Score: inf
ROOT
ATOM      1  C   UNL     1      24.035   7.465  28.814  1.00  0.00     0.062 C 
ATOM      2  C   UNL     1      25.375   7.061  29.482  1.00  0.00     0.012 C 
ATOM      3  C   UNL     1      26.096   8.364  29.874  1.00  0.00     0.005 C 
ATOM      4  C   UNL     1      25.285   9.471  29.209  1.00  0.00    -0.001 C 
ATOM      5  C   UNL     1      23.843   8.957  29.205  1.00  0.00    -0.020 C 
ATOM      6  C   UNL     1      23.035   9.843  28.223  1.00  0.00     0.008 C 
ATOM      7  C   UNL     1      23.087  11.330  28.642  1.00  0.00     0.005 C 
ATOM      8  C   UNL     1      24.540  11.864  28.878  1.00  0.00     0.003 C 
ATOM      9  C   UNL     1      25.410  10.909  29.755  1.00  0.00     0.000 C 
ATOM     10  C   UNL     1      26.874  11.374  29.707  1.00  0.00     0.031 C 
ATOM     11  C   UNL     1      27.026  12.850  29.945  1.00  0.00    -0.027 C 
ATOM     12  C   UNL     1      26.055  13.757  29.697  1.00  0.00    -0.065 C 
ATOM     13  C   UNL     1      24.600  13.348  29.411  1.00  0.00    -0.008 C 
ATOM     14  C   UNL     1      24.011  14.297  28.322  1.00  0.00     0.014 C 
ATOM     15  C   UNL     1      24.271  15.788  28.586  1.00  0.00     0.033 C 
ATOM     16  C   UNL     1      25.762  16.096  28.786  1.00  0.00     0.118 C 
ATOM     17  C   UNL     1      26.380  15.226  29.891  1.00  0.00     0.063 C 
ATOM     18  C   UNL     1      23.787  13.512  30.725  1.00  0.00     0.016 C 
ATOM     19  C   UNL     1      23.167   8.986  30.614  1.00  0.00     0.012 C 
ENDROOT
BRANCH   1  20
ATOM     20  C   UNL     1      23.993   7.195  27.312  1.00  0.00     0.133 C 
ATOM     21  C   UNL     1      22.829   6.552  26.604  1.00  0.00     0.088 C 
ATOM     22  O   UNL     1      24.976   7.484  26.646  1.00  0.00    -0.300 OA
ENDBRANCH   1  20
BRANCH  16  23
ATOM     23  O   UNL     1      26.475  15.983  27.578  1.00  0.00    -0.393 OA
ATOM     24  H   UNL     1      26.567  16.888  27.184  1.00  0.00     0.210 HD
ENDBRANCH  16  23
TORSDOF 2
ENDMDL
MODEL 4
REMARK VINA RESULT:    -5.167     11.584     13.201
REMARK INTER + INTRA:          -5.787
REMARK INTER:                  -6.644
REMARK INTRA:                   0.857
REMARK UNBOUND:                -0.167
REMARK SMILES CC(=O)[C@H]1CC[C@@H]2[C@H]3CC=C4C[C@@H](O)CC[C@@]4(C)[C@@H]3CC[C@@]12C
REMARK SMILES IDX 4 1 5 2 6 3 7 4 22 5 21 6 20 7 19 8 8 9 9 10 10 11 11 12
REMARK SMILES IDX 17 13 16 14 15 15 13 16 12 17 18 18 23 19 2 20 1 21 3 22
REMARK SMILES IDX 14 23
REMARK H PARENT 14 24
REMARK Flexibility Score: inf
ROOT
ATOM      1  C   UNL     1      23.674  10.841  29.206  1.00  0.00     0.062 C 
ATOM      2  C   UNL     1      23.015  11.296  30.533  1.00  0.00     0.012 C 
ATOM      3  C   UNL     1      22.628  10.023  31.308  1.00  0.00     0.005 C 
ATOM      4  C   UNL     1      22.842   8.886  30.315  1.00  0.00    -0.001 C 
ATOM      5  C   UNL     1      24.012   9.341  29.438  1.00  0.00    -0.020 C 
ATOM      6  C   UNL     1      24.041   8.426  28.188  1.00  0.00     0.008 C 
ATOM      7  C   UNL     1      24.200   6.940  28.588  1.00  0.00     0.005 C 
ATOM      8  C   UNL     1      23.160   6.466  29.658  1.00  0.00     0.003 C 
ATOM      9  C   UNL     1      23.020   7.452  30.859  1.00  0.00     0.000 C 
ATOM     10  C   UNL     1      21.804   7.047  31.706  1.00  0.00     0.031 C 
ATOM     11  C   UNL     1      21.774   5.578  32.021  1.00  0.00    -0.027 C 
ATOM     12  C   UNL     1      22.372   4.634  31.261  1.00  0.00    -0.065 C 
ATOM     13  C   UNL     1      23.380   4.984  30.153  1.00  0.00    -0.008 C 
ATOM     14  C   UNL     1      23.168   4.014  28.950  1.00  0.00     0.014 C 
ATOM     15  C   UNL     1      23.067   2.534  29.350  1.00  0.00     0.033 C 
ATOM     16  C   UNL     1      21.982   2.286  30.409  1.00  0.00     0.118 C 
ATOM     17  C   UNL     1      22.178   3.178  31.645  1.00  0.00     0.063 C 
ATOM     18  C   UNL     1      24.811   4.783  30.724  1.00  0.00     0.016 C 
ATOM     19  C   UNL     1      25.394   9.281  30.164  1.00  0.00     0.012 C 
ENDROOT
BRANCH   1  20
ATOM     20  C   UNL     1      22.819  11.112  27.972  1.00  0.00     0.133 C 
ATOM     21  C   UNL     1      22.410  10.053  26.981  1.00  0.00     0.088 C 
ATOM     22  O   UNL     1      22.473  12.262  27.750  1.00  0.00    -0.300 OA
ENDBRANCH   1  20
BRANCH  16  23
ATOM     23  O   UNL     1      20.692   2.431  29.865  1.00  0.00    -0.393 OA
ATOM     24  H   UNL     1      20.034   2.107  30.531  1.00  0.00     0.210 HD
ENDBRANCH  16  23
TORSDOF 2
ENDMDL
MODEL 5
REMARK VINA RESULT:    -5.159      9.622     12.010
REMARK INTER + INTRA:          -5.778
REMARK INTER:                  -5.723
REMARK INTRA:                  -0.056
REMARK UNBOUND:                -0.167
REMARK SMILES CC(=O)[C@H]1CC[C@@H]2[C@H]3CC=C4C[C@@H](O)CC[C@@]4(C)[C@@H]3CC[C@@]12C
REMARK SMILES IDX 4 1 5 2 6 3 7 4 22 5 21 6 20 7 19 8 8 9 9 10 10 11 11 12
REMARK SMILES IDX 17 13 16 14 15 15 13 16 12 17 18 18 23 19 2 20 1 21 3 22
REMARK SMILES IDX 14 23
REMARK H PARENT 14 24
REMARK Flexibility Score: inf
ROOT
ATOM      1  C   UNL     1      22.761  12.132  32.919  1.00  0.00     0.062 C 
ATOM      2  C   UNL     1      22.245  11.181  34.029  1.00  0.00     0.012 C 
ATOM      3  C   UNL     1      22.287   9.752  33.457  1.00  0.00     0.005 C 
ATOM      4  C   UNL     1      22.583   9.937  31.973  1.00  0.00    -0.001 C 
ATOM      5  C   UNL     1      23.460  11.191  31.898  1.00  0.00    -0.020 C 
ATOM      6  C   UNL     1      23.487  11.653  30.419  1.00  0.00     0.008 C 
ATOM      7  C   UNL     1      24.038  10.541  29.497  1.00  0.00     0.005 C 
ATOM      8  C   UNL     1      23.323   9.161  29.683  1.00  0.00     0.003 C 
ATOM      9  C   UNL     1      23.166   8.747  31.181  1.00  0.00     0.000 C 
ATOM     10  C   UNL     1      22.228   7.533  31.273  1.00  0.00     0.031 C 
ATOM     11  C   UNL     1      22.581   6.447  30.297  1.00  0.00    -0.027 C 
ATOM     12  C   UNL     1      23.242   6.662  29.138  1.00  0.00    -0.065 C 
ATOM     13  C   UNL     1      23.949   7.993  28.827  1.00  0.00    -0.008 C 
ATOM     14  C   UNL     1      23.763   8.323  27.314  1.00  0.00     0.014 C 
ATOM     15  C   UNL     1      24.064   7.145  26.375  1.00  0.00     0.033 C 
ATOM     16  C   UNL     1      23.253   5.891  26.731  1.00  0.00     0.118 C 
ATOM     17  C   UNL     1      23.446   5.486  28.200  1.00  0.00     0.063 C 
ATOM     18  C   UNL     1      25.462   7.816  29.129  1.00  0.00     0.016 C 
ATOM     19  C   UNL     1      24.921  10.960  32.401  1.00  0.00     0.012 C 
ENDROOT
BRANCH   1  20
ATOM     20  C   UNL     1      21.675  13.019  32.318  1.00  0.00     0.133 C 
ATOM     21  C   UNL     1      21.757  14.522  32.250  1.00  0.00     0.088 C 
ATOM     22  O   UNL     1      20.659  12.485  31.898  1.00  0.00    -0.300 OA
ENDBRANCH   1  20
BRANCH  16  23
ATOM     23  O   UNL     1      21.892   6.053  26.412  1.00  0.00    -0.393 OA
ATOM     24  H   UNL     1      21.401   6.277  27.243  1.00  0.00     0.210 HD
ENDBRANCH  16  23
TORSDOF 2
ENDMDL
MODEL 6
REMARK VINA RESULT:    -5.126     13.580     15.418
REMARK INTER + INTRA:          -5.742
REMARK INTER:                  -5.737
REMARK INTRA:                  -0.004
REMARK UNBOUND:                -0.167
REMARK SMILES CC(=O)[C@H]1CC[C@@H]2[C@H]3CC=C4C[C@@H](O)CC[C@@]4(C)[C@@H]3CC[C@@]12C
REMARK SMILES IDX 4 1 5 2 6 3 7 4 22 5 21 6 20 7 19 8 8 9 9 10 10 11 11 12
REMARK SMILES IDX 17 13 16 14 15 15 13 16 12 17 18 18 23 19 2 20 1 21 3 22
REMARK SMILES IDX 14 23
REMARK H PARENT 14 24
REMARK Flexibility Score: inf
ROOT
ATOM      1  C   UNL     1      25.228   1.564  27.769  1.00  0.00     0.062 C 
ATOM      2  C   UNL     1      26.372   1.245  28.765  1.00  0.00     0.012 C 
ATOM      3  C   UNL     1      26.653   2.533  29.560  1.00  0.00     0.005 C 
ATOM      4  C   UNL     1      25.851   3.614  28.843  1.00  0.00    -0.001 C 
ATOM      5  C   UNL     1      24.616   2.893  28.296  1.00  0.00    -0.020 C 
ATOM      6  C   UNL     1      23.956   3.826  27.251  1.00  0.00     0.008 C 
ATOM      7  C   UNL     1      23.565   5.183  27.882  1.00  0.00     0.005 C 
ATOM      8  C   UNL     1      24.739   5.876  28.652  1.00  0.00     0.003 C 
ATOM      9  C   UNL     1      25.502   4.908  29.609  1.00  0.00     0.000 C 
ATOM     10  C   UNL     1      26.783   5.596  30.107  1.00  0.00     0.031 C 
ATOM     11  C   UNL     1      26.541   6.994  30.600  1.00  0.00    -0.027 C 
ATOM     12  C   UNL     1      25.512   7.769  30.190  1.00  0.00    -0.065 C 
ATOM     13  C   UNL     1      24.324   7.206  29.392  1.00  0.00    -0.008 C 
ATOM     14  C   UNL     1      23.885   8.258  28.326  1.00  0.00     0.014 C 
ATOM     15  C   UNL     1      23.733   9.683  28.881  1.00  0.00     0.033 C 
ATOM     16  C   UNL     1      25.001  10.172  29.596  1.00  0.00     0.118 C 
ATOM     17  C   UNL     1      25.445   9.198  30.697  1.00  0.00     0.063 C 
ATOM     18  C   UNL     1      23.151   6.963  30.382  1.00  0.00     0.016 C 
ATOM     19  C   UNL     1      23.573   2.520  29.399  1.00  0.00     0.012 C 
ENDROOT
BRANCH   1  20
ATOM     20  C   UNL     1      25.679   1.612  26.312  1.00  0.00     0.133 C 
ATOM     21  C   UNL     1      24.737   1.584  25.137  1.00  0.00     0.088 C 
ATOM     22  O   UNL     1      26.878   1.637  26.079  1.00  0.00    -0.300 OA
ENDBRANCH   1  20
BRANCH  16  23
ATOM     23  O   UNL     1      26.039  10.427  28.680  1.00  0.00    -0.393 OA
ATOM     24  H   UNL     1      25.694  10.269  27.765  1.00  0.00     0.210 HD
ENDBRANCH  16  23
TORSDOF 2
ENDMDL
MODEL 7
REMARK VINA RESULT:    -4.857      4.445      7.398
REMARK INTER + INTRA:          -5.450
REMARK INTER:                  -5.241
REMARK INTRA:                  -0.208
REMARK UNBOUND:                -0.167
REMARK SMILES CC(=O)[C@H]1CC[C@@H]2[C@H]3CC=C4C[C@@H](O)CC[C@@]4(C)[C@@H]3CC[C@@]12C
REMARK SMILES IDX 4 1 5 2 6 3 7 4 22 5 21 6 20 7 19 8 8 9 9 10 10 11 11 12
REMARK SMILES IDX 17 13 16 14 15 15 13 16 12 17 18 18 23 19 2 20 1 21 3 22
REMARK SMILES IDX 14 23
REMARK H PARENT 14 24
REMARK Flexibility Score: inf
ROOT
ATOM      1  C   UNL     1      24.986  15.929  29.920  1.00  0.00     0.062 C 
ATOM      2  C   UNL     1      26.530  15.806  29.994  1.00  0.00     0.012 C 
ATOM      3  C   UNL     1      27.110  16.698  28.881  1.00  0.00     0.005 C 
ATOM      4  C   UNL     1      25.902  17.109  28.046  1.00  0.00    -0.001 C 
ATOM      5  C   UNL     1      24.741  17.188  29.041  1.00  0.00    -0.020 C 
ATOM      6  C   UNL     1      23.427  17.229  28.222  1.00  0.00     0.008 C 
ATOM      7  C   UNL     1      23.407  18.438  27.258  1.00  0.00     0.005 C 
ATOM      8  C   UNL     1      24.683  18.539  26.356  1.00  0.00     0.003 C 
ATOM      9  C   UNL     1      26.014  18.362  27.151  1.00  0.00     0.000 C 
ATOM     10  C   UNL     1      27.178  18.208  26.159  1.00  0.00     0.031 C 
ATOM     11  C   UNL     1      27.162  19.249  25.075  1.00  0.00    -0.027 C 
ATOM     12  C   UNL     1      26.046  19.890  24.663  1.00  0.00    -0.065 C 
ATOM     13  C   UNL     1      24.724  19.828  25.446  1.00  0.00    -0.008 C 
ATOM     14  C   UNL     1      23.538  19.769  24.435  1.00  0.00     0.014 C 
ATOM     15  C   UNL     1      23.625  20.808  23.307  1.00  0.00     0.033 C 
ATOM     16  C   UNL     1      24.956  20.734  22.544  1.00  0.00     0.118 C 
ATOM     17  C   UNL     1      26.161  20.846  23.490  1.00  0.00     0.063 C 
ATOM     18  C   UNL     1      24.607  21.125  26.294  1.00  0.00     0.016 C 
ATOM     19  C   UNL     1      24.811  18.434  29.982  1.00  0.00     0.012 C 
ENDROOT
BRANCH   1  20
ATOM     20  C   UNL     1      24.294  14.665  29.419  1.00  0.00     0.133 C 
ATOM     21  C   UNL     1      24.787  13.838  28.260  1.00  0.00     0.088 C 
ATOM     22  O   UNL     1      23.256  14.320  29.964  1.00  0.00    -0.300 OA
ENDBRANCH   1  20
BRANCH  16  23
ATOM     23  O   UNL     1      25.028  19.574  21.749  1.00  0.00    -0.393 OA
ATOM     24  H   UNL     1      25.135  18.792  22.348  1.00  0.00     0.210 HD
ENDBRANCH  16  23
TORSDOF 2
ENDMDL
MODEL 8
REMARK VINA RESULT:    -4.829     11.250     13.129
REMARK INTER + INTRA:          -5.419
REMARK INTER:                  -5.247
REMARK INTRA:                  -0.172
REMARK UNBOUND:                -0.167
REMARK SMILES CC(=O)[C@H]1CC[C@@H]2[C@H]3CC=C4C[C@@H](O)CC[C@@]4(C)[C@@H]3CC[C@@]12C
REMARK SMILES IDX 4 1 5 2 6 3 7 4 22 5 21 6 20 7 19 8 8 9 9 10 10 11 11 12
REMARK SMILES IDX 17 13 16 14 15 15 13 16 12 17 18 18 23 19 2 20 1 21 3 22
REMARK SMILES IDX 14 23
REMARK H PARENT 14 24
REMARK Flexibility Score: inf
ROOT
ATOM      1  C   UNL     1      24.041   4.098  28.830  1.00  0.00     0.062 C 
ATOM      2  C   UNL     1      22.821   3.719  29.709  1.00  0.00     0.012 C 
ATOM      3  C   UNL     1      22.272   5.027  30.309  1.00  0.00     0.005 C 
ATOM      4  C   UNL     1      23.322   6.079  29.970  1.00  0.00    -0.001 C 
ATOM      5  C   UNL     1      23.911   5.634  28.629  1.00  0.00    -0.020 C 
ATOM      6  C   UNL     1      25.222   6.428  28.408  1.00  0.00     0.008 C 
ATOM      7  C   UNL     1      24.959   7.952  28.413  1.00  0.00     0.005 C 
ATOM      8  C   UNL     1      24.160   8.445  29.666  1.00  0.00     0.003 C 
ATOM      9  C   UNL     1      22.908   7.567  29.981  1.00  0.00     0.000 C 
ATOM     10  C   UNL     1      22.353   7.957  31.360  1.00  0.00     0.031 C 
ATOM     11  C   UNL     1      22.206   9.442  31.532  1.00  0.00    -0.027 C 
ATOM     12  C   UNL     1      22.935  10.354  30.851  1.00  0.00    -0.065 C 
ATOM     13  C   UNL     1      23.791   9.979  29.629  1.00  0.00    -0.008 C 
ATOM     14  C   UNL     1      25.108  10.814  29.657  1.00  0.00     0.014 C 
ATOM     15  C   UNL     1      24.893  12.312  29.916  1.00  0.00     0.033 C 
ATOM     16  C   UNL     1      24.089  12.576  31.197  1.00  0.00     0.118 C 
ATOM     17  C   UNL     1      22.752  11.820  31.196  1.00  0.00     0.063 C 
ATOM     18  C   UNL     1      22.986  10.338  28.350  1.00  0.00     0.016 C 
ATOM     19  C   UNL     1      22.948   5.864  27.419  1.00  0.00     0.012 C 
ENDROOT
BRANCH   1  20
ATOM     20  C   UNL     1      25.379   3.650  29.413  1.00  0.00     0.133 C 
ATOM     21  C   UNL     1      26.501   3.065  28.595  1.00  0.00     0.088 C 
ATOM     22  O   UNL     1      25.540   3.734  30.622  1.00  0.00    -0.300 OA
ENDBRANCH   1  20
BRANCH  16  23
ATOM     23  O   UNL     1      24.848  12.285  32.347  1.00  0.00    -0.393 OA
ATOM     24  H   UNL     1      25.481  11.555  32.126  1.00  0.00     0.210 HD
ENDBRANCH  16  23
TORSDOF 2
ENDMDL
MODEL 9
REMARK VINA RESULT:    -4.713     12.077     14.045
REMARK INTER + INTRA:          -5.293
REMARK INTER:                  -5.081
REMARK INTRA:                  -0.212
REMARK UNBOUND:                -0.167
REMARK SMILES CC(=O)[C@H]1CC[C@@H]2[C@H]3CC=C4C[C@@H](O)CC[C@@]4(C)[C@@H]3CC[C@@]12C
REMARK SMILES IDX 4 1 5 2 6 3 7 4 22 5 21 6 20 7 19 8 8 9 9 10 10 11 11 12
REMARK SMILES IDX 17 13 16 14 15 15 13 16 12 17 18 18 23 19 2 20 1 21 3 22
REMARK SMILES IDX 14 23
REMARK H PARENT 14 24
REMARK Flexibility Score: inf
ROOT
ATOM      1  C   UNL     1      24.122  10.641  30.305  1.00  0.00     0.062 C 
ATOM      2  C   UNL     1      23.422  10.984  28.965  1.00  0.00     0.012 C 
ATOM      3  C   UNL     1      23.198   9.657  28.217  1.00  0.00     0.005 C 
ATOM      4  C   UNL     1      23.987   8.625  29.016  1.00  0.00    -0.001 C 
ATOM      5  C   UNL     1      23.914   9.108  30.467  1.00  0.00    -0.020 C 
ATOM      6  C   UNL     1      24.989   8.334  31.270  1.00  0.00     0.008 C 
ATOM      7  C   UNL     1      24.756   6.808  31.188  1.00  0.00     0.005 C 
ATOM      8  C   UNL     1      24.600   6.277  29.723  1.00  0.00     0.003 C 
ATOM      9  C   UNL     1      23.621   7.133  28.860  1.00  0.00     0.000 C 
ATOM     10  C   UNL     1      23.739   6.705  27.389  1.00  0.00     0.031 C 
ATOM     11  C   UNL     1      23.685   5.214  27.208  1.00  0.00    -0.027 C 
ATOM     12  C   UNL     1      24.034   4.327  28.166  1.00  0.00    -0.065 C 
ATOM     13  C   UNL     1      24.254   4.740  29.632  1.00  0.00    -0.008 C 
ATOM     14  C   UNL     1      25.445   3.920  30.216  1.00  0.00     0.014 C 
ATOM     15  C   UNL     1      25.368   2.413  29.927  1.00  0.00     0.033 C 
ATOM     16  C   UNL     1      25.220   2.111  28.429  1.00  0.00     0.118 C 
ATOM     17  C   UNL     1      24.023   2.851  27.814  1.00  0.00     0.063 C 
ATOM     18  C   UNL     1      22.962   4.401  30.426  1.00  0.00     0.016 C 
ATOM     19  C   UNL     1      22.513   8.895  31.126  1.00  0.00     0.012 C 
ENDROOT
BRANCH   1  20
ATOM     20  C   UNL     1      25.579  11.090  30.369  1.00  0.00     0.133 C 
ATOM     21  C   UNL     1      26.551  10.961  29.225  1.00  0.00     0.088 C 
ATOM     22  O   UNL     1      25.996  11.550  31.422  1.00  0.00    -0.300 OA
ENDBRANCH   1  20
BRANCH  16  23
ATOM     23  O   UNL     1      26.412   2.384  27.731  1.00  0.00    -0.393 OA
ATOM     24  H   UNL     1      26.181   2.607  26.794  1.00  0.00     0.210 HD
ENDBRANCH  16  23
TORSDOF 2
ENDMDL
