MODEL 1
REMARK VINA RESULT:    -8.127      0.000      0.000
REMARK INTER + INTRA:          -8.840
REMARK INTER:                  -8.840
REMARK INTRA:                   0.000
REMARK UNBOUND:                 0.000
REMARK SMILES C[C@H]1CC[C@H]2[N@@H+](C1)C[C@@H]1[C@H]3C[C@H]4[C@@H](C[C@@H](O)[C@@H]5C[C@@H](O)CC[C@]45C)[C@H]3CC[C@@H]1[C@]2(C)O
REMARK SMILES IDX 5 1 6 2 8 3 7 4 4 5 29 6 3 7 28 8 30 9 2 10 27 11 9 12 1 13
REMARK SMILES IDX 26 14 10 15 25 16 11 17 13 18 12 19 14 20 23 21 15 22 17 23
REMARK SMILES IDX 22 24 24 25 18 26 21 27 19 28 31 30 16 32 20 34
REMARK H PARENT 6 29 31 31 16 33 20 35
REMARK Flexibility Score: inf
ROOT
ATOM      1  C   UNL     1      13.160  17.872   5.686  1.00  0.00     0.216 C 
ATOM      2  N   UNL     1      13.331  19.174   6.394  1.00  0.00    -0.330 N 
ATOM      3  C   UNL     1      14.751  19.510   6.653  1.00  0.00     0.266 C 
ATOM      4  C   UNL     1      12.479  19.389   7.594  1.00  0.00     0.265 C 
ATOM      5  C   UNL     1      11.667  17.573   5.341  1.00  0.00     0.069 C 
ATOM      6  C   UNL     1      13.931  16.656   6.321  1.00  0.00     0.117 C 
ATOM      7  C   UNL     1      10.679  18.529   6.018  1.00  0.00     0.015 C 
ATOM      8  C   UNL     1      15.426  17.047   6.581  1.00  0.00     0.036 C 
ATOM      9  C   UNL     1      13.293  16.134   7.637  1.00  0.00     0.049 C 
ATOM     10  C   UNL     1      11.067  18.759   7.480  1.00  0.00     0.041 C 
ATOM     11  C   UNL     1      16.274  17.102   5.287  1.00  0.00     0.007 C 
ATOM     12  C   UNL     1      15.536  18.379   7.362  1.00  0.00     0.054 C 
ATOM     13  C   UNL     1      10.015  19.625   8.187  1.00  0.00     0.013 C 
ATOM     14  C   UNL     1      17.744  17.345   5.617  1.00  0.00     0.004 C 
ATOM     15  C   UNL     1      17.011  18.810   7.603  1.00  0.00     0.002 C 
ATOM     16  C   UNL     1      17.958  18.666   6.395  1.00  0.00    -0.004 C 
ATOM     17  C   UNL     1      17.700  18.090   8.779  1.00  0.00     0.009 C 
ATOM     18  C   UNL     1      19.332  18.753   7.078  1.00  0.00    -0.001 C 
ATOM     19  C   UNL     1      19.185  17.960   8.374  1.00  0.00    -0.001 C 
ATOM     20  C   UNL     1      20.586  18.288   6.302  1.00  0.00     0.036 C 
ATOM     21  C   UNL     1      20.325  18.323   9.409  1.00  0.00    -0.024 C 
ATOM     22  C   UNL     1      21.773  17.961   7.260  1.00  0.00     0.118 C 
ATOM     23  C   UNL     1      21.647  18.719   8.618  1.00  0.00     0.026 C 
ATOM     24  C   UNL     1      20.554  17.064  10.305  1.00  0.00     0.010 C 
ATOM     25  C   UNL     1      19.914  19.525  10.302  1.00  0.00     0.012 C 
ATOM     26  C   UNL     1      22.935  18.637   9.483  1.00  0.00     0.038 C 
ATOM     27  C   UNL     1      21.816  17.141  11.164  1.00  0.00     0.032 C 
ATOM     28  C   UNL     1      23.046  17.327  10.272  1.00  0.00     0.114 C 
ATOM     29  H   UNL     1      13.017  19.904   5.708  1.00  0.00     0.348 HD
ENDROOT
BRANCH   6  30
ATOM     30  O   UNL     1      13.876  15.601   5.384  1.00  0.00    -0.384 OA
ATOM     31  H   UNL     1      14.782  15.200   5.312  1.00  0.00     0.211 HD
ENDBRANCH   6  30
BRANCH  22  32
ATOM     32  O   UNL     1      22.980  18.295   6.623  1.00  0.00    -0.393 OA
ATOM     33  H   UNL     1      23.481  17.447   6.495  1.00  0.00     0.210 HD
ENDBRANCH  22  32
BRANCH  28  34
ATOM     34  O   UNL     1      24.223  17.310  11.041  1.00  0.00    -0.393 OA
ATOM     35  H   UNL     1      24.705  16.466  10.839  1.00  0.00     0.210 HD
ENDBRANCH  28  34
TORSDOF 3
ENDMDL
MODEL 2
REMARK VINA RESULT:    -7.939      1.723      2.225
REMARK INTER + INTRA:          -8.635
REMARK INTER:                  -8.635
REMARK INTRA:                   0.000
REMARK UNBOUND:                 0.000
REMARK SMILES C[C@H]1CC[C@H]2[N@@H+](C1)C[C@@H]1[C@H]3C[C@H]4[C@@H](C[C@@H](O)[C@@H]5C[C@@H](O)CC[C@]45C)[C@H]3CC[C@@H]1[C@]2(C)O
REMARK SMILES IDX 5 1 6 2 8 3 7 4 4 5 29 6 3 7 28 8 30 9 2 10 27 11 9 12 1 13
REMARK SMILES IDX 26 14 10 15 25 16 11 17 13 18 12 19 14 20 23 21 15 22 17 23
REMARK SMILES IDX 22 24 24 25 18 26 21 27 19 28 31 30 16 32 20 34
REMARK H PARENT 6 29 31 31 16 33 20 35
REMARK Flexibility Score: inf
ROOT
ATOM      1  C   UNL     1      12.478  17.946   7.800  1.00  0.00     0.216 C 
ATOM      2  N   UNL     1      12.996  19.116   8.569  1.00  0.00    -0.330 N 
ATOM      3  C   UNL     1      14.377  19.492   8.189  1.00  0.00     0.266 C 
ATOM      4  C   UNL     1      12.816  19.065  10.045  1.00  0.00     0.265 C 
ATOM      5  C   UNL     1      10.992  17.616   8.147  1.00  0.00     0.069 C 
ATOM      6  C   UNL     1      13.427  16.691   7.767  1.00  0.00     0.117 C 
ATOM      7  C   UNL     1      10.464  18.376   9.368  1.00  0.00     0.015 C 
ATOM      8  C   UNL     1      14.877  17.127   7.363  1.00  0.00     0.036 C 
ATOM      9  C   UNL     1      13.473  15.910   9.109  1.00  0.00     0.049 C 
ATOM     10  C   UNL     1      11.502  18.376  10.493  1.00  0.00     0.041 C 
ATOM     11  C   UNL     1      15.015  17.458   5.857  1.00  0.00     0.007 C 
ATOM     12  C   UNL     1      15.375  18.309   8.229  1.00  0.00     0.054 C 
ATOM     13  C   UNL     1      10.930  19.037  11.754  1.00  0.00     0.013 C 
ATOM     14  C   UNL     1      16.472  17.735   5.498  1.00  0.00     0.004 C 
ATOM     15  C   UNL     1      16.799  18.786   7.825  1.00  0.00     0.002 C 
ATOM     16  C   UNL     1      17.061  18.913   6.311  1.00  0.00    -0.004 C 
ATOM     17  C   UNL     1      17.944  17.920   8.388  1.00  0.00     0.009 C 
ATOM     18  C   UNL     1      18.596  18.968   6.274  1.00  0.00    -0.001 C 
ATOM     19  C   UNL     1      19.058  17.957   7.320  1.00  0.00    -0.001 C 
ATOM     20  C   UNL     1      19.323  18.726   4.931  1.00  0.00     0.036 C 
ATOM     21  C   UNL     1      20.560  18.209   7.746  1.00  0.00    -0.024 C 
ATOM     22  C   UNL     1      20.813  18.316   5.144  1.00  0.00     0.118 C 
ATOM     23  C   UNL     1      21.362  18.819   6.515  1.00  0.00     0.026 C 
ATOM     24  C   UNL     1      21.153  16.832   8.186  1.00  0.00     0.010 C 
ATOM     25  C   UNL     1      20.650  19.211   8.930  1.00  0.00     0.012 C 
ATOM     26  C   UNL     1      22.903  18.672   6.646  1.00  0.00     0.038 C 
ATOM     27  C   UNL     1      22.673  16.841   8.352  1.00  0.00     0.032 C 
ATOM     28  C   UNL     1      23.341  17.256   7.038  1.00  0.00     0.114 C 
ATOM     29  H   UNL     1      12.413  19.930   8.255  1.00  0.00     0.348 HD
ENDROOT
BRANCH   6  30
ATOM     30  O   UNL     1      12.909  15.811   6.791  1.00  0.00    -0.384 OA
ATOM     31  H   UNL     1      12.579  14.994   7.251  1.00  0.00     0.211 HD
ENDBRANCH   6  30
BRANCH  22  32
ATOM     32  O   UNL     1      21.585  18.831   4.089  1.00  0.00    -0.393 OA
ATOM     33  H   UNL     1      21.568  19.819   4.178  1.00  0.00     0.210 HD
ENDBRANCH  22  32
BRANCH  28  34
ATOM     34  O   UNL     1      24.741  17.183   7.149  1.00  0.00    -0.393 OA
ATOM     35  H   UNL     1      25.111  17.049   6.237  1.00  0.00     0.210 HD
ENDBRANCH  28  34
TORSDOF 3
ENDMDL
MODEL 3
REMARK VINA RESULT:    -7.845      5.996      9.673
REMARK INTER + INTRA:          -8.533
REMARK INTER:                  -8.533
REMARK INTRA:                   0.000
REMARK UNBOUND:                 0.000
REMARK SMILES C[C@H]1CC[C@H]2[N@@H+](C1)C[C@@H]1[C@H]3C[C@H]4[C@@H](C[C@@H](O)[C@@H]5C[C@@H](O)CC[C@]45C)[C@H]3CC[C@@H]1[C@]2(C)O
REMARK SMILES IDX 5 1 6 2 8 3 7 4 4 5 29 6 3 7 28 8 30 9 2 10 27 11 9 12 1 13
REMARK SMILES IDX 26 14 10 15 25 16 11 17 13 18 12 19 14 20 23 21 15 22 17 23
REMARK SMILES IDX 22 24 24 25 18 26 21 27 19 28 31 30 16 32 20 34
REMARK H PARENT 6 29 31 31 16 33 20 35
REMARK Flexibility Score: inf
ROOT
ATOM      1  C   UNL     1      24.371  11.498   3.516  1.00  0.00     0.216 C 
ATOM      2  N   UNL     1      25.356  12.616   3.598  1.00  0.00    -0.330 N 
ATOM      3  C   UNL     1      25.159  13.475   4.788  1.00  0.00     0.266 C 
ATOM      4  C   UNL     1      25.550  13.415   2.358  1.00  0.00     0.265 C 
ATOM      5  C   UNL     1      24.644  10.550   2.306  1.00  0.00     0.069 C 
ATOM      6  C   UNL     1      22.863  11.919   3.677  1.00  0.00     0.117 C 
ATOM      7  C   UNL     1      25.683  11.097   1.322  1.00  0.00     0.015 C 
ATOM      8  C   UNL     1      22.693  12.826   4.944  1.00  0.00     0.036 C 
ATOM      9  C   UNL     1      22.284  12.648   2.434  1.00  0.00     0.049 C 
ATOM     10  C   UNL     1      25.441  12.584   1.054  1.00  0.00     0.041 C 
ATOM     11  C   UNL     1      22.770  12.035   6.272  1.00  0.00     0.007 C 
ATOM     12  C   UNL     1      23.709  13.994   4.945  1.00  0.00     0.054 C 
ATOM     13  C   UNL     1      26.410  13.103  -0.017  1.00  0.00     0.013 C 
ATOM     14  C   UNL     1      22.456  12.943   7.458  1.00  0.00     0.004 C 
ATOM     15  C   UNL     1      23.586  14.891   6.210  1.00  0.00     0.002 C 
ATOM     16  C   UNL     1      23.429  14.144   7.549  1.00  0.00    -0.004 C 
ATOM     17  C   UNL     1      22.438  15.918   6.153  1.00  0.00     0.009 C 
ATOM     18  C   UNL     1      22.920  15.269   8.464  1.00  0.00    -0.001 C 
ATOM     19  C   UNL     1      21.943  16.069   7.607  1.00  0.00    -0.001 C 
ATOM     20  C   UNL     1      22.273  14.900   9.819  1.00  0.00     0.036 C 
ATOM     21  C   UNL     1      21.682  17.506   8.213  1.00  0.00    -0.024 C 
ATOM     22  C   UNL     1      21.380  16.055  10.369  1.00  0.00     0.118 C 
ATOM     23  C   UNL     1      21.810  17.442   9.798  1.00  0.00     0.026 C 
ATOM     24  C   UNL     1      20.247  17.940   7.775  1.00  0.00     0.010 C 
ATOM     25  C   UNL     1      22.717  18.537   7.684  1.00  0.00     0.012 C 
ATOM     26  C   UNL     1      21.132  18.636  10.523  1.00  0.00     0.038 C 
ATOM     27  C   UNL     1      19.725  19.174   8.512  1.00  0.00     0.032 C 
ATOM     28  C   UNL     1      19.711  18.917  10.021  1.00  0.00     0.114 C 
ATOM     29  H   UNL     1      26.283  12.153   3.766  1.00  0.00     0.348 HD
ENDROOT
BRANCH   6  30
ATOM     30  O   UNL     1      22.121  10.729   3.846  1.00  0.00    -0.384 OA
ATOM     31  H   UNL     1      22.712   9.960   3.633  1.00  0.00     0.211 HD
ENDBRANCH   6  30
BRANCH  22  32
ATOM     32  O   UNL     1      21.451  16.060  11.772  1.00  0.00    -0.393 OA
ATOM     33  H   UNL     1      21.751  16.967  12.041  1.00  0.00     0.210 HD
ENDBRANCH  22  32
BRANCH  28  34
ATOM     34  O   UNL     1      19.150  20.009  10.705  1.00  0.00    -0.393 OA
ATOM     35  H   UNL     1      19.273  20.817  10.141  1.00  0.00     0.210 HD
ENDBRANCH  28  34
TORSDOF 3
ENDMDL
MODEL 4
REMARK VINA RESULT:    -7.711      5.979      8.871
REMARK INTER + INTRA:          -8.387
REMARK INTER:                  -8.387
REMARK INTRA:                   0.000
REMARK UNBOUND:                 0.000
REMARK SMILES C[C@H]1CC[C@H]2[N@@H+](C1)C[C@@H]1[C@H]3C[C@H]4[C@@H](C[C@@H](O)[C@@H]5C[C@@H](O)CC[C@]45C)[C@H]3CC[C@@H]1[C@]2(C)O
REMARK SMILES IDX 5 1 6 2 8 3 7 4 4 5 29 6 3 7 28 8 30 9 2 10 27 11 9 12 1 13
REMARK SMILES IDX 26 14 10 15 25 16 11 17 13 18 12 19 14 20 23 21 15 22 17 23
REMARK SMILES IDX 22 24 24 25 18 26 21 27 19 28 31 30 16 32 20 34
REMARK H PARENT 6 29 31 31 16 33 20 35
REMARK Flexibility Score: inf
ROOT
ATOM      1  C   UNL     1      23.314  11.202   2.804  1.00  0.00     0.216 C 
ATOM      2  N   UNL     1      22.912  12.365   1.960  1.00  0.00    -0.330 N 
ATOM      3  C   UNL     1      22.902  13.645   2.706  1.00  0.00     0.266 C 
ATOM      4  C   UNL     1      21.686  12.189   1.136  1.00  0.00     0.265 C 
ATOM      5  C   UNL     1      23.406   9.876   1.985  1.00  0.00     0.069 C 
ATOM      6  C   UNL     1      22.544  11.065   4.169  1.00  0.00     0.117 C 
ATOM      7  C   UNL     1      22.823   9.986   0.572  1.00  0.00     0.015 C 
ATOM      8  C   UNL     1      22.553  12.436   4.929  1.00  0.00     0.036 C 
ATOM      9  C   UNL     1      21.081  10.567   4.011  1.00  0.00     0.049 C 
ATOM     10  C   UNL     1      21.497  10.749   0.595  1.00  0.00     0.041 C 
ATOM     11  C   UNL     1      23.925  12.769   5.564  1.00  0.00     0.007 C 
ATOM     12  C   UNL     1      22.079  13.592   4.016  1.00  0.00     0.054 C 
ATOM     13  C   UNL     1      20.858  10.760  -0.800  1.00  0.00     0.013 C 
ATOM     14  C   UNL     1      23.833  14.038   6.407  1.00  0.00     0.004 C 
ATOM     15  C   UNL     1      22.112  14.972   4.734  1.00  0.00     0.002 C 
ATOM     16  C   UNL     1      23.372  15.260   5.576  1.00  0.00    -0.004 C 
ATOM     17  C   UNL     1      20.908  15.237   5.659  1.00  0.00     0.009 C 
ATOM     18  C   UNL     1      22.894  16.437   6.440  1.00  0.00    -0.001 C 
ATOM     19  C   UNL     1      21.455  16.095   6.820  1.00  0.00    -0.001 C 
ATOM     20  C   UNL     1      23.706  16.822   7.698  1.00  0.00     0.036 C 
ATOM     21  C   UNL     1      20.663  17.376   7.303  1.00  0.00    -0.024 C 
ATOM     22  C   UNL     1      22.854  17.652   8.708  1.00  0.00     0.118 C 
ATOM     23  C   UNL     1      21.673  18.388   8.001  1.00  0.00     0.026 C 
ATOM     24  C   UNL     1      19.564  16.890   8.302  1.00  0.00     0.010 C 
ATOM     25  C   UNL     1      19.990  18.107   6.110  1.00  0.00     0.012 C 
ATOM     26  C   UNL     1      20.973  19.432   8.913  1.00  0.00     0.038 C 
ATOM     27  C   UNL     1      18.899  18.023   9.084  1.00  0.00     0.032 C 
ATOM     28  C   UNL     1      19.953  18.806   9.872  1.00  0.00     0.114 C 
ATOM     29  H   UNL     1      23.689  12.481   1.264  1.00  0.00     0.348 HD
ENDROOT
BRANCH   6  30
ATOM     30  O   UNL     1      23.233  10.097   4.933  1.00  0.00    -0.384 OA
ATOM     31  H   UNL     1      23.875   9.628   4.337  1.00  0.00     0.211 HD
ENDBRANCH   6  30
BRANCH  22  32
ATOM     32  O   UNL     1      23.687  18.576   9.359  1.00  0.00    -0.393 OA
ATOM     33  H   UNL     1      23.851  18.222  10.272  1.00  0.00     0.210 HD
ENDBRANCH  22  32
BRANCH  28  34
ATOM     34  O   UNL     1      19.346  19.794  10.666  1.00  0.00    -0.393 OA
ATOM     35  H   UNL     1      18.541  20.120  10.183  1.00  0.00     0.210 HD
ENDBRANCH  28  34
TORSDOF 3
ENDMDL
MODEL 5
REMARK VINA RESULT:    -7.662      2.241      8.753
REMARK INTER + INTRA:          -8.334
REMARK INTER:                  -8.334
REMARK INTRA:                   0.000
REMARK UNBOUND:                 0.000
REMARK SMILES C[C@H]1CC[C@H]2[N@@H+](C1)C[C@@H]1[C@H]3C[C@H]4[C@@H](C[C@@H](O)[C@@H]5C[C@@H](O)CC[C@]45C)[C@H]3CC[C@@H]1[C@]2(C)O
REMARK SMILES IDX 5 1 6 2 8 3 7 4 4 5 29 6 3 7 28 8 30 9 2 10 27 11 9 12 1 13
REMARK SMILES IDX 26 14 10 15 25 16 11 17 13 18 12 19 14 20 23 21 15 22 17 23
REMARK SMILES IDX 22 24 24 25 18 26 21 27 19 28 31 30 16 32 20 34
REMARK H PARENT 6 29 31 31 16 33 20 35
REMARK Flexibility Score: inf
ROOT
ATOM      1  C   UNL     1      21.609  17.214   8.195  1.00  0.00     0.216 C 
ATOM      2  N   UNL     1      20.962  16.857   9.492  1.00  0.00    -0.330 N 
ATOM      3  C   UNL     1      19.522  16.538   9.351  1.00  0.00     0.266 C 
ATOM      4  C   UNL     1      21.222  17.776  10.632  1.00  0.00     0.265 C 
ATOM      5  C   UNL     1      23.143  17.463   8.343  1.00  0.00     0.069 C 
ATOM      6  C   UNL     1      20.857  18.308   7.349  1.00  0.00     0.117 C 
ATOM      7  C   UNL     1      23.613  17.545   9.799  1.00  0.00     0.015 C 
ATOM      8  C   UNL     1      19.339  17.937   7.223  1.00  0.00     0.036 C 
ATOM      9  C   UNL     1      20.996  19.744   7.924  1.00  0.00     0.049 C 
ATOM     10  C   UNL     1      22.645  18.390  10.630  1.00  0.00     0.041 C 
ATOM     11  C   UNL     1      19.077  16.777   6.233  1.00  0.00     0.007 C 
ATOM     12  C   UNL     1      18.715  17.627   8.605  1.00  0.00     0.054 C 
ATOM     13  C   UNL     1      23.175  18.567  12.059  1.00  0.00     0.013 C 
ATOM     14  C   UNL     1      17.579  16.558   6.044  1.00  0.00     0.004 C 
ATOM     15  C   UNL     1      17.217  17.222   8.505  1.00  0.00     0.002 C 
ATOM     16  C   UNL     1      16.863  16.232   7.377  1.00  0.00    -0.004 C 
ATOM     17  C   UNL     1      16.244  18.408   8.357  1.00  0.00     0.009 C 
ATOM     18  C   UNL     1      15.337  16.394   7.302  1.00  0.00    -0.001 C 
ATOM     19  C   UNL     1      15.084  17.889   7.480  1.00  0.00    -0.001 C 
ATOM     20  C   UNL     1      14.587  15.865   6.058  1.00  0.00     0.036 C 
ATOM     21  C   UNL     1      13.585  18.179   7.893  1.00  0.00    -0.024 C 
ATOM     22  C   UNL     1      13.187  16.536   5.896  1.00  0.00     0.118 C 
ATOM     23  C   UNL     1      12.639  17.069   7.256  1.00  0.00     0.026 C 
ATOM     24  C   UNL     1      13.227  19.604   7.362  1.00  0.00     0.010 C 
ATOM     25  C   UNL     1      13.407  18.143   9.435  1.00  0.00     0.012 C 
ATOM     26  C   UNL     1      11.146  17.493   7.189  1.00  0.00     0.038 C 
ATOM     27  C   UNL     1      11.734  19.925   7.419  1.00  0.00     0.032 C 
ATOM     28  C   UNL     1      10.945  18.896   6.605  1.00  0.00     0.114 C 
ATOM     29  H   UNL     1      21.400  15.947   9.775  1.00  0.00     0.348 HD
ENDROOT
BRANCH   6  30
ATOM     30  O   UNL     1      21.449  18.313   6.067  1.00  0.00    -0.384 OA
ATOM     31  H   UNL     1      21.857  19.207   5.915  1.00  0.00     0.211 HD
ENDBRANCH   6  30
BRANCH  22  32
ATOM     32  O   UNL     1      12.294  15.603   5.341  1.00  0.00    -0.393 OA
ATOM     33  H   UNL     1      11.383  15.984   5.440  1.00  0.00     0.210 HD
ENDBRANCH  22  32
BRANCH  28  34
ATOM     34  O   UNL     1       9.579  19.228   6.574  1.00  0.00    -0.393 OA
ATOM     35  H   UNL     1       9.063  18.413   6.809  1.00  0.00     0.210 HD
ENDBRANCH  28  34
TORSDOF 3
ENDMDL
MODEL 6
REMARK VINA RESULT:    -7.561      5.892      9.615
REMARK INTER + INTRA:          -8.224
REMARK INTER:                  -8.224
REMARK INTRA:                   0.000
REMARK UNBOUND:                 0.000
REMARK SMILES C[C@H]1CC[C@H]2[N@@H+](C1)C[C@@H]1[C@H]3C[C@H]4[C@@H](C[C@@H](O)[C@@H]5C[C@@H](O)CC[C@]45C)[C@H]3CC[C@@H]1[C@]2(C)O
REMARK SMILES IDX 5 1 6 2 8 3 7 4 4 5 29 6 3 7 28 8 30 9 2 10 27 11 9 12 1 13
REMARK SMILES IDX 26 14 10 15 25 16 11 17 13 18 12 19 14 20 23 21 15 22 17 23
REMARK SMILES IDX 22 24 24 25 18 26 21 27 19 28 31 30 16 32 20 34
REMARK H PARENT 6 29 31 31 16 33 20 35
REMARK Flexibility Score: inf
ROOT
ATOM      1  C   UNL     1      23.008  16.961   8.065  1.00  0.00     0.216 C 
ATOM      2  N   UNL     1      23.044  16.031   9.232  1.00  0.00    -0.330 N 
ATOM      3  C   UNL     1      22.678  14.641   8.876  1.00  0.00     0.266 C 
ATOM      4  C   UNL     1      22.350  16.494  10.464  1.00  0.00     0.265 C 
ATOM      5  C   UNL     1      23.481  18.401   8.436  1.00  0.00     0.069 C 
ATOM      6  C   UNL     1      21.687  16.915   7.211  1.00  0.00     0.117 C 
ATOM      7  C   UNL     1      23.631  18.628   9.944  1.00  0.00     0.015 C 
ATOM      8  C   UNL     1      21.331  15.431   6.855  1.00  0.00     0.036 C 
ATOM      9  C   UNL     1      20.473  17.589   7.908  1.00  0.00     0.049 C 
ATOM     10  C   UNL     1      22.446  18.023  10.700  1.00  0.00     0.041 C 
ATOM     11  C   UNL     1      22.240  14.836   5.753  1.00  0.00     0.007 C 
ATOM     12  C   UNL     1      21.336  14.530   8.113  1.00  0.00     0.054 C 
ATOM     13  C   UNL     1      22.538  18.349  12.196  1.00  0.00     0.013 C 
ATOM     14  C   UNL     1      21.757  13.446   5.349  1.00  0.00     0.004 C 
ATOM     15  C   UNL     1      21.020  13.043   7.783  1.00  0.00     0.002 C 
ATOM     16  C   UNL     1      21.734  12.463   6.545  1.00  0.00    -0.004 C 
ATOM     17  C   UNL     1      19.520  12.737   7.596  1.00  0.00     0.009 C 
ATOM     18  C   UNL     1      20.899  11.201   6.278  1.00  0.00    -0.001 C 
ATOM     19  C   UNL     1      19.453  11.617   6.535  1.00  0.00    -0.001 C 
ATOM     20  C   UNL     1      21.023  10.496   4.908  1.00  0.00     0.036 C 
ATOM     21  C   UNL     1      18.520  10.361   6.763  1.00  0.00    -0.024 C 
ATOM     22  C   UNL     1      19.791   9.585   4.611  1.00  0.00     0.118 C 
ATOM     23  C   UNL     1      19.078   9.130   5.923  1.00  0.00     0.026 C 
ATOM     24  C   UNL     1      17.083  10.762   6.299  1.00  0.00     0.010 C 
ATOM     25  C   UNL     1      18.483   9.950   8.260  1.00  0.00     0.012 C 
ATOM     26  C   UNL     1      18.025   8.013   5.688  1.00  0.00     0.038 C 
ATOM     27  C   UNL     1      16.122   9.579   6.179  1.00  0.00     0.032 C 
ATOM     28  C   UNL     1      16.678   8.550   5.191  1.00  0.00     0.114 C 
ATOM     29  H   UNL     1      24.057  15.968   9.502  1.00  0.00     0.348 HD
ENDROOT
BRANCH   6  30
ATOM     30  O   UNL     1      21.940  17.638   6.025  1.00  0.00    -0.384 OA
ATOM     31  H   UNL     1      22.538  17.091   5.448  1.00  0.00     0.211 HD
ENDBRANCH   6  30
BRANCH  22  32
ATOM     32  O   UNL     1      20.216   8.468   3.872  1.00  0.00    -0.393 OA
ATOM     33  H   UNL     1      20.611   7.829   4.520  1.00  0.00     0.210 HD
ENDBRANCH  22  32
BRANCH  28  34
ATOM     34  O   UNL     1      15.764   7.499   5.002  1.00  0.00    -0.393 OA
ATOM     35  H   UNL     1      14.865   7.826   5.270  1.00  0.00     0.210 HD
ENDBRANCH  28  34
TORSDOF 3
ENDMDL
MODEL 7
REMARK VINA RESULT:    -7.545      1.409      1.652
REMARK INTER + INTRA:          -8.207
REMARK INTER:                  -8.207
REMARK INTRA:                   0.000
REMARK UNBOUND:                 0.000
REMARK SMILES C[C@H]1CC[C@H]2[N@@H+](C1)C[C@@H]1[C@H]3C[C@H]4[C@@H](C[C@@H](O)[C@@H]5C[C@@H](O)CC[C@]45C)[C@H]3CC[C@@H]1[C@]2(C)O
REMARK SMILES IDX 5 1 6 2 8 3 7 4 4 5 29 6 3 7 28 8 30 9 2 10 27 11 9 12 1 13
REMARK SMILES IDX 26 14 10 15 25 16 11 17 13 18 12 19 14 20 23 21 15 22 17 23
REMARK SMILES IDX 22 24 24 25 18 26 21 27 19 28 31 30 16 32 20 34
REMARK H PARENT 6 29 31 31 16 33 20 35
REMARK Flexibility Score: inf
ROOT
ATOM      1  C   UNL     1      13.489  16.393   5.802  1.00  0.00     0.216 C 
ATOM      2  N   UNL     1      13.952  17.746   5.376  1.00  0.00    -0.330 N 
ATOM      3  C   UNL     1      15.421  17.913   5.474  1.00  0.00     0.266 C 
ATOM      4  C   UNL     1      13.218  18.905   5.951  1.00  0.00     0.265 C 
ATOM      5  C   UNL     1      11.952  16.201   5.610  1.00  0.00     0.069 C 
ATOM      6  C   UNL     1      14.030  15.907   7.198  1.00  0.00     0.117 C 
ATOM      7  C   UNL     1      11.209  17.499   5.278  1.00  0.00     0.015 C 
ATOM      8  C   UNL     1      15.584  16.100   7.266  1.00  0.00     0.036 C 
ATOM      9  C   UNL     1      13.364  16.622   8.406  1.00  0.00     0.049 C 
ATOM     10  C   UNL     1      11.705  18.645   6.163  1.00  0.00     0.041 C 
ATOM     11  C   UNL     1      16.363  15.054   6.432  1.00  0.00     0.007 C 
ATOM     12  C   UNL     1      15.996  17.536   6.861  1.00  0.00     0.054 C 
ATOM     13  C   UNL     1      10.883  19.916   5.910  1.00  0.00     0.013 C 
ATOM     14  C   UNL     1      17.866  15.201   6.652  1.00  0.00     0.004 C 
ATOM     15  C   UNL     1      17.537  17.744   6.886  1.00  0.00     0.002 C 
ATOM     16  C   UNL     1      18.378  16.610   6.265  1.00  0.00    -0.004 C 
ATOM     17  C   UNL     1      18.123  17.996   8.289  1.00  0.00     0.009 C 
ATOM     18  C   UNL     1      19.772  16.926   6.829  1.00  0.00    -0.001 C 
ATOM     19  C   UNL     1      19.530  17.360   8.272  1.00  0.00    -0.001 C 
ATOM     20  C   UNL     1      20.868  15.837   6.770  1.00  0.00     0.036 C 
ATOM     21  C   UNL     1      20.768  18.155   8.853  1.00  0.00    -0.024 C 
ATOM     22  C   UNL     1      22.010  16.108   7.798  1.00  0.00     0.118 C 
ATOM     23  C   UNL     1      22.104  17.619   8.175  1.00  0.00     0.026 C 
ATOM     24  C   UNL     1      20.782  17.924  10.399  1.00  0.00     0.010 C 
ATOM     25  C   UNL     1      20.650  19.676   8.560  1.00  0.00     0.012 C 
ATOM     26  C   UNL     1      23.388  17.969   8.976  1.00  0.00     0.038 C 
ATOM     27  C   UNL     1      22.073  18.380  11.078  1.00  0.00     0.032 C 
ATOM     28  C   UNL     1      23.272  17.646  10.470  1.00  0.00     0.114 C 
ATOM     29  H   UNL     1      13.758  17.790   4.345  1.00  0.00     0.348 HD
ENDROOT
BRANCH   6  30
ATOM     30  O   UNL     1      13.719  14.534   7.303  1.00  0.00    -0.384 OA
ATOM     31  H   UNL     1      14.229  14.044   6.604  1.00  0.00     0.211 HD
ENDBRANCH   6  30
BRANCH  22  32
ATOM     32  O   UNL     1      23.228  15.662   7.258  1.00  0.00    -0.393 OA
ATOM     33  H   UNL     1      23.840  16.443   7.248  1.00  0.00     0.210 HD
ENDBRANCH  22  32
BRANCH  28  34
ATOM     34  O   UNL     1      24.457  17.989  11.145  1.00  0.00    -0.393 OA
ATOM     35  H   UNL     1      24.264  17.985  12.119  1.00  0.00     0.210 HD
ENDBRANCH  28  34
TORSDOF 3
ENDMDL
MODEL 8
REMARK VINA RESULT:    -7.453      5.207      6.690
REMARK INTER + INTRA:          -8.107
REMARK INTER:                  -8.107
REMARK INTRA:                   0.000
REMARK UNBOUND:                 0.000
REMARK SMILES C[C@H]1CC[C@H]2[N@@H+](C1)C[C@@H]1[C@H]3C[C@H]4[C@@H](C[C@@H](O)[C@@H]5C[C@@H](O)CC[C@]45C)[C@H]3CC[C@@H]1[C@]2(C)O
REMARK SMILES IDX 5 1 6 2 8 3 7 4 4 5 29 6 3 7 28 8 30 9 2 10 27 11 9 12 1 13
REMARK SMILES IDX 26 14 10 15 25 16 11 17 13 18 12 19 14 20 23 21 15 22 17 23
REMARK SMILES IDX 22 24 24 25 18 26 21 27 19 28 31 30 16 32 20 34
REMARK H PARENT 6 29 31 31 16 33 20 35
REMARK Flexibility Score: inf
ROOT
ATOM      1  C   UNL     1      20.523  20.532   2.447  1.00  0.00     0.216 C 
ATOM      2  N   UNL     1      19.293  19.740   2.745  1.00  0.00    -0.330 N 
ATOM      3  C   UNL     1      19.206  19.318   4.162  1.00  0.00     0.266 C 
ATOM      4  C   UNL     1      18.984  18.626   1.810  1.00  0.00     0.265 C 
ATOM      5  C   UNL     1      20.558  21.046   0.974  1.00  0.00     0.069 C 
ATOM      6  C   UNL     1      21.871  19.886   2.938  1.00  0.00     0.117 C 
ATOM      7  C   UNL     1      19.477  20.426   0.082  1.00  0.00     0.015 C 
ATOM      8  C   UNL     1      21.742  19.451   4.438  1.00  0.00     0.036 C 
ATOM      9  C   UNL     1      22.329  18.674   2.082  1.00  0.00     0.049 C 
ATOM     10  C   UNL     1      19.368  18.920   0.336  1.00  0.00     0.041 C 
ATOM     11  C   UNL     1      21.781  20.645   5.423  1.00  0.00     0.007 C 
ATOM     12  C   UNL     1      20.475  18.593   4.672  1.00  0.00     0.054 C 
ATOM     13  C   UNL     1      18.366  18.281  -0.635  1.00  0.00     0.013 C 
ATOM     14  C   UNL     1      21.796  20.151   6.867  1.00  0.00     0.004 C 
ATOM     15  C   UNL     1      20.303  18.176   6.160  1.00  0.00     0.002 C 
ATOM     16  C   UNL     1      20.558  19.285   7.202  1.00  0.00    -0.004 C 
ATOM     17  C   UNL     1      21.169  16.975   6.590  1.00  0.00     0.009 C 
ATOM     18  C   UNL     1      20.724  18.459   8.487  1.00  0.00    -0.001 C 
ATOM     19  C   UNL     1      21.527  17.230   8.070  1.00  0.00    -0.001 C 
ATOM     20  C   UNL     1      21.361  19.124   9.728  1.00  0.00     0.036 C 
ATOM     21  C   UNL     1      21.396  16.064   9.131  1.00  0.00    -0.024 C 
ATOM     22  C   UNL     1      21.914  18.067  10.734  1.00  0.00     0.118 C 
ATOM     23  C   UNL     1      21.195  16.690  10.580  1.00  0.00     0.026 C 
ATOM     24  C   UNL     1      22.707  15.218   9.054  1.00  0.00     0.010 C 
ATOM     25  C   UNL     1      20.175  15.154   8.822  1.00  0.00     0.012 C 
ATOM     26  C   UNL     1      21.520  15.701  11.733  1.00  0.00     0.038 C 
ATOM     27  C   UNL     1      22.870  14.229  10.208  1.00  0.00     0.032 C 
ATOM     28  C   UNL     1      22.858  14.976  11.545  1.00  0.00     0.114 C 
ATOM     29  H   UNL     1      18.497  20.415   2.630  1.00  0.00     0.348 HD
ENDROOT
BRANCH   6  30
ATOM     30  O   UNL     1      22.868  20.880   2.820  1.00  0.00    -0.384 OA
ATOM     31  H   UNL     1      23.672  20.577   3.320  1.00  0.00     0.211 HD
ENDBRANCH   6  30
BRANCH  22  32
ATOM     32  O   UNL     1      21.761  18.555  12.042  1.00  0.00    -0.393 OA
ATOM     33  H   UNL     1      20.785  18.606  12.217  1.00  0.00     0.210 HD
ENDBRANCH  22  32
BRANCH  28  34
ATOM     34  O   UNL     1      23.096  14.091  12.610  1.00  0.00    -0.393 OA
ATOM     35  H   UNL     1      23.903  14.409  13.094  1.00  0.00     0.210 HD
ENDBRANCH  28  34
TORSDOF 3
ENDMDL
MODEL 9
REMARK VINA RESULT:    -7.415      6.508      9.323
REMARK INTER + INTRA:          -8.065
REMARK INTER:                  -8.065
REMARK INTRA:                   0.000
REMARK UNBOUND:                 0.000
REMARK SMILES C[C@H]1CC[C@H]2[N@@H+](C1)C[C@@H]1[C@H]3C[C@H]4[C@@H](C[C@@H](O)[C@@H]5C[C@@H](O)CC[C@]45C)[C@H]3CC[C@@H]1[C@]2(C)O
REMARK SMILES IDX 5 1 6 2 8 3 7 4 4 5 29 6 3 7 28 8 30 9 2 10 27 11 9 12 1 13
REMARK SMILES IDX 26 14 10 15 25 16 11 17 13 18 12 19 14 20 23 21 15 22 17 23
REMARK SMILES IDX 22 24 24 25 18 26 21 27 19 28 31 30 16 32 20 34
REMARK H PARENT 6 29 31 31 16 33 20 35
REMARK Flexibility Score: inf
ROOT
ATOM      1  C   UNL     1      22.825   9.554   4.658  1.00  0.00     0.216 C 
ATOM      2  N   UNL     1      23.537  10.681   3.989  1.00  0.00    -0.330 N 
ATOM      3  C   UNL     1      23.676  11.874   4.856  1.00  0.00     0.266 C 
ATOM      4  C   UNL     1      23.071  11.036   2.621  1.00  0.00     0.265 C 
ATOM      5  C   UNL     1      22.764   8.274   3.765  1.00  0.00     0.069 C 
ATOM      6  C   UNL     1      21.457   9.933   5.337  1.00  0.00     0.117 C 
ATOM      7  C   UNL     1      23.205   8.515   2.318  1.00  0.00     0.015 C 
ATOM      8  C   UNL     1      21.642  11.198   6.244  1.00  0.00     0.036 C 
ATOM      9  C   UNL     1      20.307  10.184   4.322  1.00  0.00     0.049 C 
ATOM     10  C   UNL     1      22.607   9.818   1.782  1.00  0.00     0.041 C 
ATOM     11  C   UNL     1      22.385  10.893   7.567  1.00  0.00     0.007 C 
ATOM     12  C   UNL     1      22.340  12.347   5.478  1.00  0.00     0.054 C 
ATOM     13  C   UNL     1      22.956  10.001   0.299  1.00  0.00     0.013 C 
ATOM     14  C   UNL     1      22.408  12.124   8.468  1.00  0.00     0.004 C 
ATOM     15  C   UNL     1      22.569  13.603   6.366  1.00  0.00     0.002 C 
ATOM     16  C   UNL     1      23.098  13.332   7.789  1.00  0.00    -0.004 C 
ATOM     17  C   UNL     1      21.325  14.499   6.533  1.00  0.00     0.009 C 
ATOM     18  C   UNL     1      22.798  14.671   8.482  1.00  0.00    -0.001 C 
ATOM     19  C   UNL     1      21.431  15.097   7.953  1.00  0.00    -0.001 C 
ATOM     20  C   UNL     1      22.823  14.738  10.026  1.00  0.00     0.036 C 
ATOM     21  C   UNL     1      21.174  16.640   8.187  1.00  0.00    -0.024 C 
ATOM     22  C   UNL     1      22.028  15.966  10.567  1.00  0.00     0.118 C 
ATOM     23  C   UNL     1      21.932  17.107   9.506  1.00  0.00     0.026 C 
ATOM     24  C   UNL     1      19.630  16.838   8.318  1.00  0.00     0.010 C 
ATOM     25  C   UNL     1      21.704  17.487   6.997  1.00  0.00     0.012 C 
ATOM     26  C   UNL     1      21.391  18.440  10.092  1.00  0.00     0.038 C 
ATOM     27  C   UNL     1      19.227  18.219   8.834  1.00  0.00     0.032 C 
ATOM     28  C   UNL     1      19.863  18.472  10.204  1.00  0.00     0.114 C 
ATOM     29  H   UNL     1      24.523  10.344   3.857  1.00  0.00     0.348 HD
ENDROOT
BRANCH   6  30
ATOM     30  O   UNL     1      21.075   8.832   6.134  1.00  0.00    -0.384 OA
ATOM     31  H   UNL     1      21.874   8.256   6.273  1.00  0.00     0.211 HD
ENDBRANCH   6  30
BRANCH  22  32
ATOM     32  O   UNL     1      22.650  16.436  11.736  1.00  0.00    -0.393 OA
ATOM     33  H   UNL     1      23.408  15.823  11.923  1.00  0.00     0.210 HD
ENDBRANCH  22  32
BRANCH  28  34
ATOM     34  O   UNL     1      19.430  19.701  10.732  1.00  0.00    -0.393 OA
ATOM     35  H   UNL     1      20.064  19.963  11.450  1.00  0.00     0.210 HD
ENDBRANCH  28  34
TORSDOF 3
ENDMDL
