MODEL 1
REMARK VINA RESULT:    -4.110      0.000      0.000
REMARK INTER + INTRA:          -5.186
REMARK INTER:                  -4.950
REMARK INTRA:                  -0.236
REMARK UNBOUND:                -0.236
REMARK SMILES C=CCc1ccc(O)c(OC)c1
REMARK SMILES IDX 9 1 7 2 6 3 5 4 4 5 12 6 10 7 11 8 8 9 3 11 2 12 1 13
REMARK H PARENT 8 10
REMARK Flexibility Score: inf
ROOT
ATOM      1  C   UNL     1       8.262 -32.933  17.369  1.00  0.00     0.160 A 
ATOM      2  C   UNL     1       7.743 -34.232  17.520  1.00  0.00     0.157 A 
ATOM      3  C   UNL     1       7.602 -35.064  16.404  1.00  0.00     0.050 A 
ATOM      4  C   UNL     1       7.971 -34.613  15.136  1.00  0.00     0.008 A 
ATOM      5  C   UNL     1       8.479 -33.318  14.965  1.00  0.00    -0.040 A 
ATOM      6  C   UNL     1       8.631 -32.484  16.085  1.00  0.00     0.054 A 
ENDROOT
BRANCH   1   7
ATOM      7  O   UNL     1       8.399 -32.122  18.508  1.00  0.00    -0.493 OA
ATOM      8  C   UNL     1       9.579 -31.401  18.848  1.00  0.00     0.278 C 
ENDBRANCH   1   7
BRANCH   2   9
ATOM      9  O   UNL     1       7.365 -34.716  18.772  1.00  0.00    -0.504 OA
ATOM     10  H   UNL     1       7.441 -34.157  19.613  1.00  0.00     0.293 HD
ENDBRANCH   2   9
BRANCH   5  11
ATOM     11  C   UNL     1       8.903 -32.847  13.600  1.00  0.00     0.062 C 
BRANCH  11  12
ATOM     12  C   UNL     1      10.400 -32.737  13.516  1.00  0.00    -0.030 C 
ATOM     13  C   UNL     1      11.139 -33.661  12.895  1.00  0.00     0.004 C 
ENDBRANCH  11  12
ENDBRANCH   5  11
TORSDOF 4
ENDMDL
MODEL 2
REMARK VINA RESULT:    -3.995     15.071     17.029
REMARK INTER + INTRA:          -5.048
REMARK INTER:                  -4.870
REMARK INTRA:                  -0.178
REMARK UNBOUND:                -0.236
REMARK SMILES C=CCc1ccc(O)c(OC)c1
REMARK SMILES IDX 9 1 7 2 6 3 5 4 4 5 12 6 10 7 11 8 8 9 3 11 2 12 1 13
REMARK H PARENT 8 10
REMARK Flexibility Score: inf
ROOT
ATOM      1  C   UNL     1      16.738 -37.331  29.681  1.00  0.00     0.160 A 
ATOM      2  C   UNL     1      16.988 -35.948  29.742  1.00  0.00     0.157 A 
ATOM      3  C   UNL     1      16.374 -35.167  30.727  1.00  0.00     0.050 A 
ATOM      4  C   UNL     1      15.510 -35.751  31.654  1.00  0.00     0.008 A 
ATOM      5  C   UNL     1      15.241 -37.126  31.602  1.00  0.00    -0.040 A 
ATOM      6  C   UNL     1      15.863 -37.913  30.620  1.00  0.00     0.054 A 
ENDROOT
BRANCH   1   7
ATOM      7  O   UNL     1      17.374 -38.091  28.686  1.00  0.00    -0.493 OA
ATOM      8  C   UNL     1      16.975 -38.125  27.318  1.00  0.00     0.278 C 
ENDBRANCH   1   7
BRANCH   2   9
ATOM      9  O   UNL     1      17.847 -35.330  28.832  1.00  0.00    -0.504 OA
ATOM     10  H   UNL     1      18.422 -35.858  28.188  1.00  0.00     0.293 HD
ENDBRANCH   2   9
BRANCH   5  11
ATOM     11  C   UNL     1      14.331 -37.756  32.622  1.00  0.00     0.062 C 
BRANCH  11  12
ATOM     12  C   UNL     1      12.898 -37.391  32.355  1.00  0.00    -0.030 C 
ATOM     13  C   UNL     1      12.265 -37.793  31.249  1.00  0.00     0.004 C 
ENDBRANCH  11  12
ENDBRANCH   5  11
TORSDOF 4
ENDMDL
MODEL 3
REMARK VINA RESULT:    -3.840      1.068      2.801
REMARK INTER + INTRA:          -4.861
REMARK INTER:                  -4.599
REMARK INTRA:                  -0.263
REMARK UNBOUND:                -0.236
REMARK SMILES C=CCc1ccc(O)c(OC)c1
REMARK SMILES IDX 9 1 7 2 6 3 5 4 4 5 12 6 10 7 11 8 8 9 3 11 2 12 1 13
REMARK H PARENT 8 10
REMARK Flexibility Score: inf
ROOT
ATOM      1  C   UNL     1       7.119 -34.625  16.424  1.00  0.00     0.160 A 
ATOM      2  C   UNL     1       7.655 -33.864  17.479  1.00  0.00     0.157 A 
ATOM      3  C   UNL     1       8.511 -32.792  17.206  1.00  0.00     0.050 A 
ATOM      4  C   UNL     1       8.840 -32.469  15.889  1.00  0.00     0.008 A 
ATOM      5  C   UNL     1       8.324 -33.223  14.825  1.00  0.00    -0.040 A 
ATOM      6  C   UNL     1       7.458 -34.294  15.096  1.00  0.00     0.054 A 
ENDROOT
BRANCH   1   7
ATOM      7  O   UNL     1       6.258 -35.691  16.727  1.00  0.00    -0.493 OA
ATOM      8  C   UNL     1       6.271 -36.953  16.067  1.00  0.00     0.278 C 
ENDBRANCH   1   7
BRANCH   2   9
ATOM      9  O   UNL     1       7.347 -34.157  18.807  1.00  0.00    -0.504 OA
ATOM     10  H   UNL     1       7.450 -35.088  19.193  1.00  0.00     0.293 HD
ENDBRANCH   2   9
BRANCH   5  11
ATOM     11  C   UNL     1       8.659 -32.852  13.405  1.00  0.00     0.062 C 
BRANCH  11  12
ATOM     12  C   UNL     1      10.113 -32.493  13.278  1.00  0.00    -0.030 C 
ATOM     13  C   UNL     1      11.042 -33.410  12.991  1.00  0.00     0.004 C 
ENDBRANCH  11  12
ENDBRANCH   5  11
TORSDOF 4
ENDMDL
MODEL 4
REMARK VINA RESULT:    -3.553      1.570      2.195
REMARK INTER + INTRA:          -4.515
REMARK INTER:                  -4.362
REMARK INTRA:                  -0.153
REMARK UNBOUND:                -0.236
REMARK SMILES C=CCc1ccc(O)c(OC)c1
REMARK SMILES IDX 9 1 7 2 6 3 5 4 4 5 12 6 10 7 11 8 8 9 3 11 2 12 1 13
REMARK H PARENT 8 10
REMARK Flexibility Score: inf
ROOT
ATOM      1  C   UNL     1       8.331 -32.815  17.574  1.00  0.00     0.160 A 
ATOM      2  C   UNL     1       7.564 -33.759  18.281  1.00  0.00     0.157 A 
ATOM      3  C   UNL     1       6.922 -34.796  17.596  1.00  0.00     0.050 A 
ATOM      4  C   UNL     1       7.036 -34.901  16.209  1.00  0.00     0.008 A 
ATOM      5  C   UNL     1       7.787 -33.963  15.486  1.00  0.00    -0.040 A 
ATOM      6  C   UNL     1       8.440 -32.927  16.174  1.00  0.00     0.054 A 
ENDROOT
BRANCH   1   7
ATOM      7  O   UNL     1       8.970 -31.789  18.290  1.00  0.00    -0.493 OA
ATOM      8  C   UNL     1      10.111 -31.072  17.829  1.00  0.00     0.278 C 
ENDBRANCH   1   7
BRANCH   2   9
ATOM      9  O   UNL     1       7.429 -33.685  19.668  1.00  0.00    -0.504 OA
ATOM     10  H   UNL     1       6.705 -34.188  20.167  1.00  0.00     0.293 HD
ENDBRANCH   2   9
BRANCH   5  11
ATOM     11  C   UNL     1       7.931 -34.098  13.994  1.00  0.00     0.062 C 
BRANCH  11  12
ATOM     12  C   UNL     1       7.263 -35.354  13.507  1.00  0.00    -0.030 C 
ATOM     13  C   UNL     1       6.086 -35.324  12.876  1.00  0.00     0.004 C 
ENDBRANCH  11  12
ENDBRANCH   5  11
TORSDOF 4
ENDMDL
MODEL 5
REMARK VINA RESULT:    -3.526      2.542      4.358
REMARK INTER + INTRA:          -4.483
REMARK INTER:                  -4.289
REMARK INTRA:                  -0.194
REMARK UNBOUND:                -0.236
REMARK SMILES C=CCc1ccc(O)c(OC)c1
REMARK SMILES IDX 9 1 7 2 6 3 5 4 4 5 12 6 10 7 11 8 8 9 3 11 2 12 1 13
REMARK H PARENT 8 10
REMARK Flexibility Score: inf
ROOT
ATOM      1  C   UNL     1       7.841 -33.036  14.341  1.00  0.00     0.160 A 
ATOM      2  C   UNL     1       6.806 -33.970  14.154  1.00  0.00     0.157 A 
ATOM      3  C   UNL     1       6.138 -34.507  15.259  1.00  0.00     0.050 A 
ATOM      4  C   UNL     1       6.492 -34.124  16.553  1.00  0.00     0.008 A 
ATOM      5  C   UNL     1       7.529 -33.202  16.760  1.00  0.00    -0.040 A 
ATOM      6  C   UNL     1       8.194 -32.654  15.651  1.00  0.00     0.054 A 
ENDROOT
BRANCH   1   7
ATOM      7  O   UNL     1       8.489 -32.508  13.213  1.00  0.00    -0.493 OA
ATOM      8  C   UNL     1       9.895 -32.567  12.987  1.00  0.00     0.278 C 
ENDBRANCH   1   7
BRANCH   2   9
ATOM      9  O   UNL     1       6.424 -34.376  12.875  1.00  0.00    -0.504 OA
ATOM     10  H   UNL     1       6.123 -35.323  12.676  1.00  0.00     0.293 HD
ENDBRANCH   2   9
BRANCH   5  11
ATOM     11  C   UNL     1       7.887 -32.770  18.156  1.00  0.00     0.062 C 
BRANCH  11  12
ATOM     12  C   UNL     1       9.023 -31.785  18.133  1.00  0.00    -0.030 C 
ATOM     13  C   UNL     1       9.632 -31.390  19.254  1.00  0.00     0.004 C 
ENDBRANCH  11  12
ENDBRANCH   5  11
TORSDOF 4
ENDMDL
MODEL 6
REMARK VINA RESULT:    -3.368      2.833      4.708
REMARK INTER + INTRA:          -4.292
REMARK INTER:                  -4.091
REMARK INTRA:                  -0.202
REMARK UNBOUND:                -0.236
REMARK SMILES C=CCc1ccc(O)c(OC)c1
REMARK SMILES IDX 9 1 7 2 6 3 5 4 4 5 12 6 10 7 11 8 8 9 3 11 2 12 1 13
REMARK H PARENT 8 10
REMARK Flexibility Score: inf
ROOT
ATOM      1  C   UNL     1       6.410 -35.468  15.566  1.00  0.00     0.160 A 
ATOM      2  C   UNL     1       6.631 -34.789  14.354  1.00  0.00     0.157 A 
ATOM      3  C   UNL     1       7.169 -33.497  14.362  1.00  0.00     0.050 A 
ATOM      4  C   UNL     1       7.488 -32.874  15.569  1.00  0.00     0.008 A 
ATOM      5  C   UNL     1       7.265 -33.531  16.787  1.00  0.00    -0.040 A 
ATOM      6  C   UNL     1       6.734 -34.831  16.781  1.00  0.00     0.054 A 
ENDROOT
BRANCH   1   7
ATOM      7  O   UNL     1       5.875 -36.766  15.527  1.00  0.00    -0.493 OA
ATOM      8  C   UNL     1       6.050 -37.743  16.550  1.00  0.00     0.278 C 
ENDBRANCH   1   7
BRANCH   2   9
ATOM      9  O   UNL     1       6.325 -35.381  13.129  1.00  0.00    -0.504 OA
ATOM     10  H   UNL     1       5.741 -36.206  13.059  1.00  0.00     0.293 HD
ENDBRANCH   2   9
BRANCH   5  11
ATOM     11  C   UNL     1       7.638 -32.865  18.084  1.00  0.00     0.062 C 
BRANCH  11  12
ATOM     12  C   UNL     1       8.945 -32.133  17.950  1.00  0.00    -0.030 C 
ATOM     13  C   UNL     1       9.433 -31.379  18.939  1.00  0.00     0.004 C 
ENDBRANCH  11  12
ENDBRANCH   5  11
TORSDOF 4
ENDMDL
MODEL 7
REMARK VINA RESULT:    -3.332      2.689      4.865
REMARK INTER + INTRA:          -4.249
REMARK INTER:                  -4.029
REMARK INTRA:                  -0.220
REMARK UNBOUND:                -0.236
REMARK SMILES C=CCc1ccc(O)c(OC)c1
REMARK SMILES IDX 9 1 7 2 6 3 5 4 4 5 12 6 10 7 11 8 8 9 3 11 2 12 1 13
REMARK H PARENT 8 10
REMARK Flexibility Score: inf
ROOT
ATOM      1  C   UNL     1       9.018 -34.103  14.113  1.00  0.00     0.160 A 
ATOM      2  C   UNL     1       9.367 -32.938  14.821  1.00  0.00     0.157 A 
ATOM      3  C   UNL     1       8.588 -32.517  15.903  1.00  0.00     0.050 A 
ATOM      4  C   UNL     1       7.461 -33.245  16.288  1.00  0.00     0.008 A 
ATOM      5  C   UNL     1       7.092 -34.402  15.587  1.00  0.00    -0.040 A 
ATOM      6  C   UNL     1       7.879 -34.832  14.506  1.00  0.00     0.054 A 
ENDROOT
BRANCH   1   7
ATOM      7  O   UNL     1       9.823 -34.506  13.034  1.00  0.00    -0.493 OA
ATOM      8  C   UNL     1      10.882 -35.454  13.126  1.00  0.00     0.278 C 
ENDBRANCH   1   7
BRANCH   2   9
ATOM      9  O   UNL     1      10.486 -32.186  14.465  1.00  0.00    -0.504 OA
ATOM     10  H   UNL     1      10.409 -31.278  14.024  1.00  0.00     0.293 HD
ENDBRANCH   2   9
BRANCH   5  11
ATOM     11  C   UNL     1       5.894 -35.200  16.025  1.00  0.00     0.062 C 
BRANCH  11  12
ATOM     12  C   UNL     1       5.916 -36.573  15.415  1.00  0.00    -0.030 C 
ATOM     13  C   UNL     1       5.875 -37.677  16.166  1.00  0.00     0.004 C 
ENDBRANCH  11  12
ENDBRANCH   5  11
TORSDOF 4
ENDMDL
MODEL 8
REMARK VINA RESULT:    -1.814      1.963      3.817
REMARK INTER + INTRA:          -2.421
REMARK INTER:                  -2.187
REMARK INTRA:                  -0.235
REMARK UNBOUND:                -0.236
REMARK SMILES C=CCc1ccc(O)c(OC)c1
REMARK SMILES IDX 9 1 7 2 6 3 5 4 4 5 12 6 10 7 11 8 8 9 3 11 2 12 1 13
REMARK H PARENT 8 10
REMARK Flexibility Score: inf
ROOT
ATOM      1  C   UNL     1       9.117 -32.453  15.809  1.00  0.00     0.160 A 
ATOM      2  C   UNL     1       9.794 -32.534  14.578  1.00  0.00     0.157 A 
ATOM      3  C   UNL     1       9.221 -33.227  13.507  1.00  0.00     0.050 A 
ATOM      4  C   UNL     1       7.977 -33.842  13.650  1.00  0.00     0.008 A 
ATOM      5  C   UNL     1       7.292 -33.781  14.871  1.00  0.00    -0.040 A 
ATOM      6  C   UNL     1       7.861 -33.078  15.945  1.00  0.00     0.054 A 
ENDROOT
BRANCH   1   7
ATOM      7  O   UNL     1       9.713 -31.745  16.865  1.00  0.00    -0.493 OA
ATOM      8  C   UNL     1       9.254 -31.767  18.213  1.00  0.00     0.278 C 
ENDBRANCH   1   7
BRANCH   2   9
ATOM      9  O   UNL     1      11.039 -31.931  14.400  1.00  0.00    -0.504 OA
ATOM     10  H   UNL     1      11.890 -32.323  14.785  1.00  0.00     0.293 HD
ENDBRANCH   2   9
BRANCH   5  11
ATOM     11  C   UNL     1       5.937 -34.421  15.010  1.00  0.00     0.062 C 
BRANCH  11  12
ATOM     12  C   UNL     1       5.875 -35.273  16.248  1.00  0.00    -0.030 C 
ATOM     13  C   UNL     1       6.331 -36.528  16.260  1.00  0.00     0.004 C 
ENDBRANCH  11  12
ENDBRANCH   5  11
TORSDOF 4
ENDMDL
