MODEL 1
REMARK VINA RESULT:    -4.953      0.000      0.000
REMARK INTER + INTRA:          -7.133
REMARK INTER:                  -6.111
REMARK INTRA:                  -1.021
REMARK UNBOUND:                -1.021
REMARK SMILES CC(C)=CCC[C@H](C)c1ccc(C)cc1
REMARK SMILES IDX 6 1 7 2 8 3 9 4 13 5 12 6 11 7 14 8 10 9 15 10 5 11 4 12
REMARK SMILES IDX 2 13 1 14 3 15
REMARK H PARENT
REMARK Flexibility Score: inf
ROOT
ATOM      1  C   UNL     1     -14.615  23.753  21.667  1.00  0.00     0.012 C 
ENDROOT
BRANCH   1   2
ATOM      2  C   UNL     1     -14.319  25.260  21.838  1.00  0.00     0.016 C 
ATOM      3  C   UNL     1     -13.833  25.602  23.256  1.00  0.00     0.013 C 
BRANCH   2   4
ATOM      4  C   UNL     1     -15.546  26.083  21.488  1.00  0.00    -0.045 A 
ATOM      5  C   UNL     1     -19.030  28.457  20.546  1.00  0.00     0.044 C 
ATOM      6  C   UNL     1     -17.832  27.609  20.858  1.00  0.00    -0.051 A 
ATOM      7  C   UNL     1     -17.784  26.863  22.044  1.00  0.00     0.004 A 
ATOM      8  C   UNL     1     -16.724  27.611  20.000  1.00  0.00     0.004 A 
ATOM      9  C   UNL     1     -16.653  26.102  22.355  1.00  0.00     0.004 A 
ATOM     10  C   UNL     1     -15.592  26.851  20.308  1.00  0.00     0.004 A 
ENDBRANCH   2   4
ENDBRANCH   1   2
BRANCH   1  11
ATOM     11  C   UNL     1     -14.724  23.336  20.193  1.00  0.00     0.028 C 
BRANCH  11  12
ATOM     12  C   UNL     1     -13.380  23.423  19.513  1.00  0.00    -0.028 C 
ATOM     13  C   UNL     1     -13.159  24.053  18.338  1.00  0.00    -0.080 C 
ATOM     14  C   UNL     1     -14.255  24.793  17.607  1.00  0.00     0.039 C 
ATOM     15  C   UNL     1     -11.768  24.022  17.757  1.00  0.00     0.039 C 
ENDBRANCH  11  12
ENDBRANCH   1  11
TORSDOF 4
ENDMDL
MODEL 2
REMARK VINA RESULT:    -4.943      0.134      1.257
REMARK INTER + INTRA:          -7.120
REMARK INTER:                  -6.110
REMARK INTRA:                  -1.009
REMARK UNBOUND:                -1.021
REMARK SMILES CC(C)=CCC[C@H](C)c1ccc(C)cc1
REMARK SMILES IDX 6 1 7 2 8 3 9 4 13 5 12 6 11 7 14 8 10 9 15 10 5 11 4 12
REMARK SMILES IDX 2 13 1 14 3 15
REMARK H PARENT
REMARK Flexibility Score: inf
ROOT
ATOM      1  C   UNL     1     -14.595  23.778  21.705  1.00  0.00     0.012 C 
ENDROOT
BRANCH   1   2
ATOM      2  C   UNL     1     -14.261  25.280  21.841  1.00  0.00     0.016 C 
ATOM      3  C   UNL     1     -13.760  25.643  23.248  1.00  0.00     0.013 C 
BRANCH   2   4
ATOM      4  C   UNL     1     -15.467  26.126  21.476  1.00  0.00    -0.045 A 
ATOM      5  C   UNL     1     -18.908  28.499  20.383  1.00  0.00     0.044 C 
ATOM      6  C   UNL     1     -17.701  27.699  20.777  1.00  0.00    -0.051 A 
ATOM      7  C   UNL     1     -16.604  27.603  19.909  1.00  0.00     0.004 A 
ATOM      8  C   UNL     1     -17.690  26.986  21.983  1.00  0.00     0.004 A 
ATOM      9  C   UNL     1     -15.494  26.827  20.257  1.00  0.00     0.004 A 
ATOM     10  C   UNL     1     -16.581  26.210  22.334  1.00  0.00     0.004 A 
ENDBRANCH   2   4
ENDBRANCH   1   2
BRANCH   1  11
ATOM     11  C   UNL     1     -14.680  23.321  20.242  1.00  0.00     0.028 C 
BRANCH  11  12
ATOM     12  C   UNL     1     -13.321  23.371  19.587  1.00  0.00    -0.028 C 
ATOM     13  C   UNL     1     -13.066  23.974  18.405  1.00  0.00    -0.080 C 
ATOM     14  C   UNL     1     -14.133  24.718  17.638  1.00  0.00     0.039 C 
ATOM     15  C   UNL     1     -11.664  23.906  17.853  1.00  0.00     0.039 C 
ENDBRANCH  11  12
ENDBRANCH   1  11
TORSDOF 4
ENDMDL
MODEL 3
REMARK VINA RESULT:    -4.787     13.999     15.951
REMARK INTER + INTRA:          -6.927
REMARK INTER:                  -5.877
REMARK INTRA:                  -1.050
REMARK UNBOUND:                -1.021
REMARK SMILES CC(C)=CCC[C@H](C)c1ccc(C)cc1
REMARK SMILES IDX 6 1 7 2 8 3 9 4 13 5 12 6 11 7 14 8 10 9 15 10 5 11 4 12
REMARK SMILES IDX 2 13 1 14 3 15
REMARK H PARENT
REMARK Flexibility Score: inf
ROOT
ATOM      1  C   UNL     1     -21.093  23.229   5.656  1.00  0.00     0.012 C 
ENDROOT
BRANCH   1   2
ATOM      2  C   UNL     1     -20.004  24.230   6.103  1.00  0.00     0.016 C 
ATOM      3  C   UNL     1     -19.621  24.053   7.581  1.00  0.00     0.013 C 
BRANCH   2   4
ATOM      4  C   UNL     1     -20.455  25.655   5.841  1.00  0.00    -0.045 A 
ATOM      5  C   UNL     1     -21.744  29.721   5.158  1.00  0.00     0.044 C 
ATOM      6  C   UNL     1     -21.310  28.301   5.369  1.00  0.00    -0.051 A 
ATOM      7  C   UNL     1     -22.104  27.424   6.122  1.00  0.00     0.004 A 
ATOM      8  C   UNL     1     -20.075  27.859   4.875  1.00  0.00     0.004 A 
ATOM      9  C   UNL     1     -21.683  26.111   6.352  1.00  0.00     0.004 A 
ATOM     10  C   UNL     1     -19.652  26.546   5.104  1.00  0.00     0.004 A 
ENDBRANCH   2   4
ENDBRANCH   1   2
BRANCH   1  11
ATOM     11  C   UNL     1     -21.526  22.282   6.785  1.00  0.00     0.028 C 
BRANCH  11  12
ATOM     12  C   UNL     1     -23.031  22.223   6.884  1.00  0.00    -0.028 C 
ATOM     13  C   UNL     1     -23.763  22.900   7.796  1.00  0.00    -0.080 C 
ATOM     14  C   UNL     1     -23.130  23.845   8.790  1.00  0.00     0.039 C 
ATOM     15  C   UNL     1     -25.258  22.710   7.801  1.00  0.00     0.039 C 
ENDBRANCH  11  12
ENDBRANCH   1  11
TORSDOF 4
ENDMDL
MODEL 4
REMARK VINA RESULT:    -4.709      1.266      3.750
REMARK INTER + INTRA:          -6.831
REMARK INTER:                  -5.503
REMARK INTRA:                  -1.328
REMARK UNBOUND:                -1.021
REMARK SMILES CC(C)=CCC[C@H](C)c1ccc(C)cc1
REMARK SMILES IDX 6 1 7 2 8 3 9 4 13 5 12 6 11 7 14 8 10 9 15 10 5 11 4 12
REMARK SMILES IDX 2 13 1 14 3 15
REMARK H PARENT
REMARK Flexibility Score: inf
ROOT
ATOM      1  C   UNL     1     -14.009  24.260  20.266  1.00  0.00     0.012 C 
ENDROOT
BRANCH   1   2
ATOM      2  C   UNL     1     -15.085  24.405  19.167  1.00  0.00     0.016 C 
ATOM      3  C   UNL     1     -14.478  24.757  17.799  1.00  0.00     0.013 C 
BRANCH   2   4
ATOM      4  C   UNL     1     -16.116  25.443  19.570  1.00  0.00    -0.045 A 
ATOM      5  C   UNL     1     -19.044  28.426  20.661  1.00  0.00     0.044 C 
ATOM      6  C   UNL     1     -18.020  27.387  20.311  1.00  0.00    -0.051 A 
ATOM      7  C   UNL     1     -16.715  27.769  19.969  1.00  0.00     0.004 A 
ATOM      8  C   UNL     1     -18.378  26.033  20.257  1.00  0.00     0.004 A 
ATOM      9  C   UNL     1     -15.769  26.805  19.606  1.00  0.00     0.004 A 
ATOM     10  C   UNL     1     -17.434  25.068  19.895  1.00  0.00     0.004 A 
ENDBRANCH   2   4
ENDBRANCH   1   2
BRANCH   1  11
ATOM     11  C   UNL     1     -14.614  24.051  21.662  1.00  0.00     0.028 C 
BRANCH  11  12
ATOM     12  C   UNL     1     -13.914  24.916  22.681  1.00  0.00    -0.028 C 
ATOM     13  C   UNL     1     -14.513  25.901  23.386  1.00  0.00    -0.080 C 
ATOM     14  C   UNL     1     -15.988  26.198  23.255  1.00  0.00     0.039 C 
ATOM     15  C   UNL     1     -13.675  26.712  24.342  1.00  0.00     0.039 C 
ENDBRANCH  11  12
ENDBRANCH   1  11
TORSDOF 4
ENDMDL
MODEL 5
REMARK VINA RESULT:    -4.669     13.695     15.278
REMARK INTER + INTRA:          -6.781
REMARK INTER:                  -5.614
REMARK INTRA:                  -1.167
REMARK UNBOUND:                -1.021
REMARK SMILES CC(C)=CCC[C@H](C)c1ccc(C)cc1
REMARK SMILES IDX 6 1 7 2 8 3 9 4 13 5 12 6 11 7 14 8 10 9 15 10 5 11 4 12
REMARK SMILES IDX 2 13 1 14 3 15
REMARK H PARENT
REMARK Flexibility Score: inf
ROOT
ATOM      1  C   UNL     1     -20.475  25.664   5.888  1.00  0.00     0.012 C 
ENDROOT
BRANCH   1   2
ATOM      2  C   UNL     1     -22.001  25.883   5.979  1.00  0.00     0.016 C 
ATOM      3  C   UNL     1     -22.366  27.353   6.243  1.00  0.00     0.013 C 
BRANCH   2   4
ATOM      4  C   UNL     1     -22.601  24.990   7.050  1.00  0.00    -0.045 A 
ATOM      5  C   UNL     1     -24.314  22.499  10.136  1.00  0.00     0.044 C 
ATOM      6  C   UNL     1     -23.703  23.341   9.055  1.00  0.00    -0.051 A 
ATOM      7  C   UNL     1     -22.560  24.109   9.320  1.00  0.00     0.004 A 
ATOM      8  C   UNL     1     -24.308  23.419   7.794  1.00  0.00     0.004 A 
ATOM      9  C   UNL     1     -22.010  24.924   8.325  1.00  0.00     0.004 A 
ATOM     10  C   UNL     1     -23.760  24.232   6.797  1.00  0.00     0.004 A 
ENDBRANCH   2   4
ENDBRANCH   1   2
BRANCH   1  11
ATOM     11  C   UNL     1     -20.093  24.566   4.886  1.00  0.00     0.028 C 
BRANCH  11  12
ATOM     12  C   UNL     1     -18.973  23.713   5.430  1.00  0.00    -0.028 C 
ATOM     13  C   UNL     1     -19.154  22.604   6.180  1.00  0.00    -0.080 C 
ATOM     14  C   UNL     1     -20.530  22.072   6.505  1.00  0.00     0.039 C 
ATOM     15  C   UNL     1     -17.937  21.875   6.690  1.00  0.00     0.039 C 
ENDBRANCH  11  12
ENDBRANCH   1  11
TORSDOF 4
ENDMDL
MODEL 6
REMARK VINA RESULT:    -4.642     13.274     15.412
REMARK INTER + INTRA:          -6.749
REMARK INTER:                  -5.249
REMARK INTRA:                  -1.500
REMARK UNBOUND:                -1.021
REMARK SMILES CC(C)=CCC[C@H](C)c1ccc(C)cc1
REMARK SMILES IDX 6 1 7 2 8 3 9 4 13 5 12 6 11 7 14 8 10 9 15 10 5 11 4 12
REMARK SMILES IDX 2 13 1 14 3 15
REMARK H PARENT
REMARK Flexibility Score: inf
ROOT
ATOM      1  C   UNL     1     -23.531  22.888   8.349  1.00  0.00     0.012 C 
ENDROOT
BRANCH   1   2
ATOM      2  C   UNL     1     -23.882  23.191   6.875  1.00  0.00     0.016 C 
ATOM      3  C   UNL     1     -23.532  22.024   5.939  1.00  0.00     0.013 C 
BRANCH   2   4
ATOM      4  C   UNL     1     -23.190  24.462   6.417  1.00  0.00    -0.045 A 
ATOM      5  C   UNL     1     -21.193  28.083   5.169  1.00  0.00     0.044 C 
ATOM      6  C   UNL     1     -21.910  26.833   5.584  1.00  0.00    -0.051 A 
ATOM      7  C   UNL     1     -22.724  26.832   6.725  1.00  0.00     0.004 A 
ATOM      8  C   UNL     1     -21.716  25.640   4.875  1.00  0.00     0.004 A 
ATOM      9  C   UNL     1     -23.364  25.658   7.136  1.00  0.00     0.004 A 
ATOM     10  C   UNL     1     -22.354  24.465   5.283  1.00  0.00     0.004 A 
ENDBRANCH   2   4
ENDBRANCH   1   2
BRANCH   1  11
ATOM     11  C   UNL     1     -22.060  22.486   8.535  1.00  0.00     0.028 C 
BRANCH  11  12
ATOM     12  C   UNL     1     -21.395  23.362   9.568  1.00  0.00    -0.028 C 
ATOM     13  C   UNL     1     -20.340  24.169   9.319  1.00  0.00    -0.080 C 
ATOM     14  C   UNL     1     -19.750  24.312   7.935  1.00  0.00     0.039 C 
ATOM     15  C   UNL     1     -19.752  24.957  10.462  1.00  0.00     0.039 C 
ENDBRANCH  11  12
ENDBRANCH   1  11
TORSDOF 4
ENDMDL
MODEL 7
REMARK VINA RESULT:    -4.635      1.581      2.846
REMARK INTER + INTRA:          -6.740
REMARK INTER:                  -5.191
REMARK INTRA:                  -1.549
REMARK UNBOUND:                -1.021
REMARK SMILES CC(C)=CCC[C@H](C)c1ccc(C)cc1
REMARK SMILES IDX 6 1 7 2 8 3 9 4 13 5 12 6 11 7 14 8 10 9 15 10 5 11 4 12
REMARK SMILES IDX 2 13 1 14 3 15
REMARK H PARENT
REMARK Flexibility Score: inf
ROOT
ATOM      1  C   UNL     1     -14.038  24.275  20.810  1.00  0.00     0.012 C 
ENDROOT
BRANCH   1   2
ATOM      2  C   UNL     1     -14.244  25.392  21.857  1.00  0.00     0.016 C 
ATOM      3  C   UNL     1     -14.312  24.843  23.291  1.00  0.00     0.013 C 
BRANCH   2   4
ATOM      4  C   UNL     1     -15.495  26.191  21.538  1.00  0.00    -0.045 A 
ATOM      5  C   UNL     1     -19.067  28.426  20.583  1.00  0.00     0.044 C 
ATOM      6  C   UNL     1     -17.814  27.675  20.925  1.00  0.00    -0.051 A 
ATOM      7  C   UNL     1     -16.815  27.490  19.958  1.00  0.00     0.004 A 
ATOM      8  C   UNL     1     -17.662  27.094  22.191  1.00  0.00     0.004 A 
ATOM      9  C   UNL     1     -15.663  26.758  20.263  1.00  0.00     0.004 A 
ATOM     10  C   UNL     1     -16.511  26.363  22.499  1.00  0.00     0.004 A 
ENDBRANCH   2   4
ENDBRANCH   1   2
BRANCH   1  11
ATOM     11  C   UNL     1     -15.070  23.145  20.938  1.00  0.00     0.028 C 
BRANCH  11  12
ATOM     12  C   UNL     1     -15.957  23.093  19.718  1.00  0.00    -0.028 C 
ATOM     13  C   UNL     1     -17.302  23.228  19.746  1.00  0.00    -0.080 C 
ATOM     14  C   UNL     1     -18.052  23.507  21.027  1.00  0.00     0.039 C 
ATOM     15  C   UNL     1     -18.062  23.111  18.450  1.00  0.00     0.039 C 
ENDBRANCH  11  12
ENDBRANCH   1  11
TORSDOF 4
ENDMDL
MODEL 8
REMARK VINA RESULT:    -4.466      3.265      6.070
REMARK INTER + INTRA:          -6.532
REMARK INTER:                  -5.046
REMARK INTRA:                  -1.486
REMARK UNBOUND:                -1.021
REMARK SMILES CC(C)=CCC[C@H](C)c1ccc(C)cc1
REMARK SMILES IDX 6 1 7 2 8 3 9 4 13 5 12 6 11 7 14 8 10 9 15 10 5 11 4 12
REMARK SMILES IDX 2 13 1 14 3 15
REMARK H PARENT
REMARK Flexibility Score: inf
ROOT
ATOM      1  C   UNL     1     -21.557  26.724  23.317  1.00  0.00     0.012 C 
ENDROOT
BRANCH   1   2
ATOM      2  C   UNL     1     -20.156  27.006  23.902  1.00  0.00     0.016 C 
ATOM      3  C   UNL     1     -20.141  28.244  24.813  1.00  0.00     0.013 C 
BRANCH   2   4
ATOM      4  C   UNL     1     -19.138  27.159  22.786  1.00  0.00    -0.045 A 
ATOM      5  C   UNL     1     -16.241  27.533  19.603  1.00  0.00     0.044 C 
ATOM      6  C   UNL     1     -17.235  27.428  20.722  1.00  0.00    -0.051 A 
ATOM      7  C   UNL     1     -16.958  26.628  21.840  1.00  0.00     0.004 A 
ATOM      8  C   UNL     1     -18.476  28.073  20.626  1.00  0.00     0.004 A 
ATOM      9  C   UNL     1     -17.899  26.498  22.866  1.00  0.00     0.004 A 
ATOM     10  C   UNL     1     -19.418  27.945  21.651  1.00  0.00     0.004 A 
ENDBRANCH   2   4
ENDBRANCH   1   2
BRANCH   1  11
ATOM     11  C   UNL     1     -21.668  25.325  22.693  1.00  0.00     0.028 C 
BRANCH  11  12
ATOM     12  C   UNL     1     -22.045  25.419  21.235  1.00  0.00    -0.028 C 
ATOM     13  C   UNL     1     -21.252  25.023  20.215  1.00  0.00    -0.080 C 
ATOM     14  C   UNL     1     -19.905  24.382  20.449  1.00  0.00     0.039 C 
ATOM     15  C   UNL     1     -21.747  25.218  18.804  1.00  0.00     0.039 C 
ENDBRANCH  11  12
ENDBRANCH   1  11
TORSDOF 4
ENDMDL
MODEL 9
REMARK VINA RESULT:    -4.461      2.552      5.263
REMARK INTER + INTRA:          -6.525
REMARK INTER:                  -4.975
REMARK INTRA:                  -1.550
REMARK UNBOUND:                -1.021
REMARK SMILES CC(C)=CCC[C@H](C)c1ccc(C)cc1
REMARK SMILES IDX 6 1 7 2 8 3 9 4 13 5 12 6 11 7 14 8 10 9 15 10 5 11 4 12
REMARK SMILES IDX 2 13 1 14 3 15
REMARK H PARENT
REMARK Flexibility Score: inf
ROOT
ATOM      1  C   UNL     1     -18.327  25.625  23.572  1.00  0.00     0.012 C 
ENDROOT
BRANCH   1   2
ATOM      2  C   UNL     1     -16.838  25.835  23.216  1.00  0.00     0.016 C 
ATOM      3  C   UNL     1     -16.242  27.073  23.903  1.00  0.00     0.013 C 
BRANCH   2   4
ATOM      4  C   UNL     1     -16.662  25.929  21.711  1.00  0.00    -0.045 A 
ATOM      5  C   UNL     1     -16.098  26.203  17.437  1.00  0.00     0.044 C 
ATOM      6  C   UNL     1     -16.320  26.122  18.918  1.00  0.00    -0.051 A 
ATOM      7  C   UNL     1     -15.824  27.125  19.763  1.00  0.00     0.004 A 
ATOM      8  C   UNL     1     -16.965  25.010  19.476  1.00  0.00     0.004 A 
ATOM      9  C   UNL     1     -15.997  27.033  21.148  1.00  0.00     0.004 A 
ATOM     10  C   UNL     1     -17.140  24.915  20.859  1.00  0.00     0.004 A 
ENDBRANCH   2   4
ENDBRANCH   1   2
BRANCH   1  11
ATOM     11  C   UNL     1     -19.198  26.836  23.208  1.00  0.00     0.028 C 
BRANCH  11  12
ATOM     12  C   UNL     1     -20.190  26.475  22.129  1.00  0.00    -0.028 C 
ATOM     13  C   UNL     1     -20.268  27.088  20.928  1.00  0.00    -0.080 C 
ATOM     14  C   UNL     1     -19.308  28.182  20.523  1.00  0.00     0.039 C 
ATOM     15  C   UNL     1     -21.340  26.646  19.964  1.00  0.00     0.039 C 
ENDBRANCH  11  12
ENDBRANCH   1  11
TORSDOF 4
ENDMDL
