MODEL 1
REMARK VINA RESULT:    -4.581      0.000      0.000
REMARK INTER + INTRA:          -5.013
REMARK INTER:                  -4.983
REMARK INTRA:                  -0.030
REMARK UNBOUND:                -0.030
REMARK SMILES COc1ccccc1O
REMARK SMILES IDX 3 1 4 2 5 3 6 4 7 5 8 6 2 7 1 8 9 9
REMARK H PARENT 9 10
REMARK Flexibility Score: inf
ROOT
ATOM      1  C   UNL     1      40.976  14.954  51.554  1.00  0.00     0.160 A 
ATOM      2  C   UNL     1      40.435  16.165  52.031  1.00  0.00     0.050 A 
ATOM      3  C   UNL     1      39.300  16.159  52.848  1.00  0.00     0.004 A 
ATOM      4  C   UNL     1      38.694  14.950  53.195  1.00  0.00     0.004 A 
ATOM      5  C   UNL     1      39.221  13.744  52.727  1.00  0.00     0.050 A 
ATOM      6  C   UNL     1      40.357  13.740  51.909  1.00  0.00     0.157 A 
ENDROOT
BRANCH   1   7
ATOM      7  O   UNL     1      42.114  14.922  50.732  1.00  0.00    -0.493 OA
ATOM      8  C   UNL     1      42.359  15.824  49.658  1.00  0.00     0.278 C 
ENDBRANCH   1   7
BRANCH   6   9
ATOM      9  O   UNL     1      40.857  12.518  51.459  1.00  0.00    -0.504 OA
ATOM     10  H   UNL     1      40.313  11.892  50.878  1.00  0.00     0.293 HD
ENDBRANCH   6   9
TORSDOF 2
ENDMDL
MODEL 2
REMARK VINA RESULT:    -4.544      1.352      3.167
REMARK INTER + INTRA:          -4.972
REMARK INTER:                  -4.946
REMARK INTRA:                  -0.026
REMARK UNBOUND:                -0.030
REMARK SMILES COc1ccccc1O
REMARK SMILES IDX 3 1 4 2 5 3 6 4 7 5 8 6 2 7 1 8 9 9
REMARK H PARENT 9 10
REMARK Flexibility Score: inf
ROOT
ATOM      1  C   UNL     1      40.136  14.867  52.199  1.00  0.00     0.160 A 
ATOM      2  C   UNL     1      40.292  16.232  51.883  1.00  0.00     0.050 A 
ATOM      3  C   UNL     1      41.275  16.640  50.978  1.00  0.00     0.004 A 
ATOM      4  C   UNL     1      42.112  15.696  50.380  1.00  0.00     0.004 A 
ATOM      5  C   UNL     1      41.967  14.341  50.686  1.00  0.00     0.050 A 
ATOM      6  C   UNL     1      40.985  13.922  51.591  1.00  0.00     0.157 A 
ENDROOT
BRANCH   1   7
ATOM      7  O   UNL     1      39.159  14.421  53.104  1.00  0.00    -0.493 OA
ATOM      8  C   UNL     1      37.983  15.147  53.445  1.00  0.00     0.278 C 
ENDBRANCH   1   7
BRANCH   6   9
ATOM      9  O   UNL     1      40.867  12.562  51.874  1.00  0.00    -0.504 OA
ATOM     10  H   UNL     1      41.506  11.873  51.495  1.00  0.00     0.293 HD
ENDBRANCH   6   9
TORSDOF 2
ENDMDL
MODEL 3
REMARK VINA RESULT:    -4.528      2.077      3.168
REMARK INTER + INTRA:          -4.955
REMARK INTER:                  -4.926
REMARK INTRA:                  -0.029
REMARK UNBOUND:                -0.030
REMARK SMILES COc1ccccc1O
REMARK SMILES IDX 3 1 4 2 5 3 6 4 7 5 8 6 2 7 1 8 9 9
REMARK H PARENT 9 10
REMARK Flexibility Score: inf
ROOT
ATOM      1  C   UNL     1      41.228  16.565  51.025  1.00  0.00     0.160 A 
ATOM      2  C   UNL     1      40.472  15.980  52.061  1.00  0.00     0.050 A 
ATOM      3  C   UNL     1      40.497  14.597  52.259  1.00  0.00     0.004 A 
ATOM      4  C   UNL     1      41.271  13.784  51.428  1.00  0.00     0.004 A 
ATOM      5  C   UNL     1      42.024  14.353  50.399  1.00  0.00     0.050 A 
ATOM      6  C   UNL     1      42.006  15.738  50.192  1.00  0.00     0.157 A 
ENDROOT
BRANCH   1   7
ATOM      7  O   UNL     1      41.228  17.951  50.796  1.00  0.00    -0.493 OA
ATOM      8  C   UNL     1      41.230  18.938  51.822  1.00  0.00     0.278 C 
ENDBRANCH   1   7
BRANCH   6   9
ATOM      9  O   UNL     1      42.769  16.273  49.155  1.00  0.00    -0.504 OA
ATOM     10  H   UNL     1      43.780  16.209  49.138  1.00  0.00     0.293 HD
ENDBRANCH   6   9
TORSDOF 2
ENDMDL
MODEL 4
REMARK VINA RESULT:    -4.449      2.168      3.330
REMARK INTER + INTRA:          -4.869
REMARK INTER:                  -4.830
REMARK INTRA:                  -0.039
REMARK UNBOUND:                -0.030
REMARK SMILES COc1ccccc1O
REMARK SMILES IDX 3 1 4 2 5 3 6 4 7 5 8 6 2 7 1 8 9 9
REMARK H PARENT 9 10
REMARK Flexibility Score: inf
ROOT
ATOM      1  C   UNL     1      40.885  16.799  51.467  1.00  0.00     0.160 A 
ATOM      2  C   UNL     1      41.774  16.677  50.380  1.00  0.00     0.050 A 
ATOM      3  C   UNL     1      42.313  15.432  50.043  1.00  0.00     0.004 A 
ATOM      4  C   UNL     1      41.973  14.299  50.784  1.00  0.00     0.004 A 
ATOM      5  C   UNL     1      41.094  14.408  51.863  1.00  0.00     0.050 A 
ATOM      6  C   UNL     1      40.548  15.650  52.209  1.00  0.00     0.157 A 
ENDROOT
BRANCH   1   7
ATOM      7  O   UNL     1      40.325  18.033  51.834  1.00  0.00    -0.493 OA
ATOM      8  C   UNL     1      41.077  19.171  52.241  1.00  0.00     0.278 C 
ENDBRANCH   1   7
BRANCH   6   9
ATOM      9  O   UNL     1      39.674  15.723  53.292  1.00  0.00    -0.504 OA
ATOM     10  H   UNL     1      39.251  14.900  53.703  1.00  0.00     0.293 HD
ENDBRANCH   6   9
TORSDOF 2
ENDMDL
MODEL 5
REMARK VINA RESULT:    -4.331     12.831     13.960
REMARK INTER + INTRA:          -4.741
REMARK INTER:                  -4.696
REMARK INTRA:                  -0.045
REMARK UNBOUND:                -0.030
REMARK SMILES COc1ccccc1O
REMARK SMILES IDX 3 1 4 2 5 3 6 4 7 5 8 6 2 7 1 8 9 9
REMARK H PARENT 9 10
REMARK Flexibility Score: inf
ROOT
ATOM      1  C   UNL     1      40.699  22.555  62.567  1.00  0.00     0.160 A 
ATOM      2  C   UNL     1      41.194  21.288  62.195  1.00  0.00     0.050 A 
ATOM      3  C   UNL     1      42.373  20.796  62.762  1.00  0.00     0.004 A 
ATOM      4  C   UNL     1      43.070  21.558  63.701  1.00  0.00     0.004 A 
ATOM      5  C   UNL     1      42.589  22.814  64.077  1.00  0.00     0.050 A 
ATOM      6  C   UNL     1      41.409  23.317  63.515  1.00  0.00     0.157 A 
ENDROOT
BRANCH   1   7
ATOM      7  O   UNL     1      39.519  23.082  62.019  1.00  0.00    -0.493 OA
ATOM      8  C   UNL     1      39.404  23.601  60.698  1.00  0.00     0.278 C 
ENDBRANCH   1   7
BRANCH   6   9
ATOM      9  O   UNL     1      40.958  24.575  63.912  1.00  0.00    -0.504 OA
ATOM     10  H   UNL     1      40.915  25.360  63.274  1.00  0.00     0.293 HD
ENDBRANCH   6   9
TORSDOF 2
ENDMDL
MODEL 6
REMARK VINA RESULT:    -4.182      2.461      4.042
REMARK INTER + INTRA:          -4.579
REMARK INTER:                  -4.599
REMARK INTRA:                   0.020
REMARK UNBOUND:                -0.030
REMARK SMILES COc1ccccc1O
REMARK SMILES IDX 3 1 4 2 5 3 6 4 7 5 8 6 2 7 1 8 9 9
REMARK H PARENT 9 10
REMARK Flexibility Score: inf
ROOT
ATOM      1  C   UNL     1      40.476  16.501  51.865  1.00  0.00     0.160 A 
ATOM      2  C   UNL     1      40.712  15.158  52.222  1.00  0.00     0.050 A 
ATOM      3  C   UNL     1      41.599  14.374  51.478  1.00  0.00     0.004 A 
ATOM      4  C   UNL     1      42.256  14.918  50.373  1.00  0.00     0.004 A 
ATOM      5  C   UNL     1      42.030  16.247  50.010  1.00  0.00     0.050 A 
ATOM      6  C   UNL     1      41.144  17.041  50.749  1.00  0.00     0.157 A 
ENDROOT
BRANCH   1   7
ATOM      7  O   UNL     1      39.592  17.317  52.588  1.00  0.00    -0.493 OA
ATOM      8  C   UNL     1      39.993  18.278  53.559  1.00  0.00     0.278 C 
ENDBRANCH   1   7
BRANCH   6   9
ATOM      9  O   UNL     1      40.940  18.364  50.358  1.00  0.00    -0.504 OA
ATOM     10  H   UNL     1      41.620  19.092  50.542  1.00  0.00     0.293 HD
ENDBRANCH   6   9
TORSDOF 2
ENDMDL
MODEL 7
REMARK VINA RESULT:    -4.177      1.998      3.491
REMARK INTER + INTRA:          -4.573
REMARK INTER:                  -4.648
REMARK INTRA:                   0.075
REMARK UNBOUND:                -0.030
REMARK SMILES COc1ccccc1O
REMARK SMILES IDX 3 1 4 2 5 3 6 4 7 5 8 6 2 7 1 8 9 9
REMARK H PARENT 9 10
REMARK Flexibility Score: inf
ROOT
ATOM      1  C   UNL     1      40.514  16.427  51.854  1.00  0.00     0.160 A 
ATOM      2  C   UNL     1      40.017  16.908  53.083  1.00  0.00     0.050 A 
ATOM      3  C   UNL     1      40.115  18.265  53.402  1.00  0.00     0.004 A 
ATOM      4  C   UNL     1      40.709  19.154  52.504  1.00  0.00     0.004 A 
ATOM      5  C   UNL     1      41.205  18.689  51.285  1.00  0.00     0.050 A 
ATOM      6  C   UNL     1      41.111  17.332  50.955  1.00  0.00     0.157 A 
ENDROOT
BRANCH   1   7
ATOM      7  O   UNL     1      40.433  15.071  51.500  1.00  0.00    -0.493 OA
ATOM      8  C   UNL     1      41.538  14.174  51.482  1.00  0.00     0.278 C 
ENDBRANCH   1   7
BRANCH   6   9
ATOM      9  O   UNL     1      41.617  16.901  49.729  1.00  0.00    -0.504 OA
ATOM     10  H   UNL     1      41.018  16.567  48.984  1.00  0.00     0.293 HD
ENDBRANCH   6   9
TORSDOF 2
ENDMDL
MODEL 8
REMARK VINA RESULT:    -4.163     12.818     13.994
REMARK INTER + INTRA:          -4.558
REMARK INTER:                  -4.529
REMARK INTRA:                  -0.029
REMARK UNBOUND:                -0.030
REMARK SMILES COc1ccccc1O
REMARK SMILES IDX 3 1 4 2 5 3 6 4 7 5 8 6 2 7 1 8 9 9
REMARK H PARENT 9 10
REMARK Flexibility Score: inf
ROOT
ATOM      1  C   UNL     1      40.881  22.664  63.000  1.00  0.00     0.160 A 
ATOM      2  C   UNL     1      40.389  21.805  61.997  1.00  0.00     0.050 A 
ATOM      3  C   UNL     1      39.425  22.256  61.090  1.00  0.00     0.004 A 
ATOM      4  C   UNL     1      38.943  23.563  61.175  1.00  0.00     0.004 A 
ATOM      5  C   UNL     1      39.423  24.423  62.165  1.00  0.00     0.050 A 
ATOM      6  C   UNL     1      40.388  23.981  63.078  1.00  0.00     0.157 A 
ENDROOT
BRANCH   1   7
ATOM      7  O   UNL     1      41.848  22.245  63.928  1.00  0.00    -0.493 OA
ATOM      8  C   UNL     1      42.940  21.384  63.622  1.00  0.00     0.278 C 
ENDBRANCH   1   7
BRANCH   6   9
ATOM      9  O   UNL     1      40.845  24.865  64.054  1.00  0.00    -0.504 OA
ATOM     10  H   UNL     1      40.424  24.921  64.973  1.00  0.00     0.293 HD
ENDBRANCH   6   9
TORSDOF 2
ENDMDL
MODEL 9
REMARK VINA RESULT:    -4.133      2.383      3.378
REMARK INTER + INTRA:          -4.525
REMARK INTER:                  -4.487
REMARK INTRA:                  -0.038
REMARK UNBOUND:                -0.030
REMARK SMILES COc1ccccc1O
REMARK SMILES IDX 3 1 4 2 5 3 6 4 7 5 8 6 2 7 1 8 9 9
REMARK H PARENT 9 10
REMARK Flexibility Score: inf
ROOT
ATOM      1  C   UNL     1      40.502  16.566  51.874  1.00  0.00     0.160 A 
ATOM      2  C   UNL     1      41.258  17.553  51.209  1.00  0.00     0.050 A 
ATOM      3  C   UNL     1      41.246  18.876  51.660  1.00  0.00     0.004 A 
ATOM      4  C   UNL     1      40.482  19.229  52.773  1.00  0.00     0.004 A 
ATOM      5  C   UNL     1      39.728  18.261  53.439  1.00  0.00     0.050 A 
ATOM      6  C   UNL     1      39.734  16.933  52.996  1.00  0.00     0.157 A 
ENDROOT
BRANCH   1   7
ATOM      7  O   UNL     1      40.490  15.228  51.450  1.00  0.00    -0.493 OA
ATOM      8  C   UNL     1      41.643  14.396  51.372  1.00  0.00     0.278 C 
ENDBRANCH   1   7
BRANCH   6   9
ATOM      9  O   UNL     1      38.970  15.991  53.684  1.00  0.00    -0.504 OA
ATOM     10  H   UNL     1      38.704  16.114  54.654  1.00  0.00     0.293 HD
ENDBRANCH   6   9
TORSDOF 2
ENDMDL
