MODEL 1
REMARK VINA RESULT:    -4.389      0.000      0.000
REMARK INTER + INTRA:          -7.202
REMARK INTER:                  -6.697
REMARK INTRA:                  -0.505
REMARK UNBOUND:                -0.505
REMARK SMILES O=C([O-])CCCCCCCCC(=O)[O-]
REMARK SMILES IDX 7 1 6 2 5 3 4 4 2 5 1 6 3 7 8 8 9 9 10 10 11 11 12 12 13 13
REMARK SMILES IDX 14 14
REMARK H PARENT
REMARK Flexibility Score: inf
ROOT
ATOM      1  C   UNL     1       3.305  42.794  66.528  1.00  0.00     0.000 C 
ENDROOT
BRANCH   1   2
ATOM      2  C   UNL     1       2.893  43.462  67.845  1.00  0.00     0.000 C 
BRANCH   2   3
ATOM      3  C   UNL     1       3.249  42.576  69.049  1.00  0.00     0.006 C 
BRANCH   3   4
ATOM      4  C   UNL     1       2.703  43.141  70.366  1.00  0.00     0.053 C 
BRANCH   4   5
ATOM      5  C   UNL     1       3.804  43.585  71.279  1.00  0.00     0.041 C 
ATOM      6  O   UNL     1       3.578  44.437  72.178  1.00  0.00    -0.550 OA
ATOM      7  O   UNL     1       5.089  43.082  71.116  1.00  0.00    -0.550 OA
ENDBRANCH   4   5
ENDBRANCH   3   4
ENDBRANCH   2   3
ENDBRANCH   1   2
BRANCH   1   8
ATOM      8  C   UNL     1       2.933  43.672  65.325  1.00  0.00     0.000 C 
BRANCH   8   9
ATOM      9  C   UNL     1       2.548  45.103  65.732  1.00  0.00     0.000 C 
BRANCH   9  10
ATOM     10  C   UNL     1       3.618  46.137  65.351  1.00  0.00     0.006 C 
BRANCH  10  11
ATOM     11  C   UNL     1       4.430  46.562  66.578  1.00  0.00     0.053 C 
BRANCH  11  12
ATOM     12  C   UNL     1       5.219  47.798  66.282  1.00  0.00     0.041 C 
ATOM     13  O   UNL     1       4.637  48.907  66.158  1.00  0.00    -0.550 OA
ATOM     14  O   UNL     1       6.604  47.734  66.193  1.00  0.00    -0.550 OA
ENDBRANCH  11  12
ENDBRANCH  10  11
ENDBRANCH   9  10
ENDBRANCH   8   9
ENDBRANCH   1   8
TORSDOF 9
ENDMDL
MODEL 2
REMARK VINA RESULT:    -4.383      1.241      5.726
REMARK INTER + INTRA:          -7.195
REMARK INTER:                  -6.565
REMARK INTRA:                  -0.630
REMARK UNBOUND:                -0.505
REMARK SMILES O=C([O-])CCCCCCCCC(=O)[O-]
REMARK SMILES IDX 7 1 6 2 5 3 4 4 2 5 1 6 3 7 8 8 9 9 10 10 11 11 12 12 13 13
REMARK SMILES IDX 14 14
REMARK H PARENT
REMARK Flexibility Score: inf
ROOT
ATOM      1  C   UNL     1       3.216  42.979  65.766  1.00  0.00     0.000 C 
ENDROOT
BRANCH   1   2
ATOM      2  C   UNL     1       3.613  43.540  64.395  1.00  0.00     0.000 C 
BRANCH   2   3
ATOM      3  C   UNL     1       2.999  44.930  64.169  1.00  0.00     0.006 C 
BRANCH   3   4
ATOM      4  C   UNL     1       4.064  45.994  63.875  1.00  0.00     0.053 C 
BRANCH   4   5
ATOM      5  C   UNL     1       4.204  46.967  65.006  1.00  0.00     0.041 C 
ATOM      6  O   UNL     1       4.366  46.550  66.184  1.00  0.00    -0.550 OA
ATOM      7  O   UNL     1       4.123  48.332  64.764  1.00  0.00    -0.550 OA
ENDBRANCH   4   5
ENDBRANCH   3   4
ENDBRANCH   2   3
ENDBRANCH   1   2
BRANCH   1   8
ATOM      8  C   UNL     1       2.074  43.797  66.385  1.00  0.00     0.000 C 
BRANCH   8   9
ATOM      9  C   UNL     1       2.367  44.225  67.832  1.00  0.00     0.000 C 
BRANCH   9  10
ATOM     10  C   UNL     1       3.085  43.134  68.639  1.00  0.00     0.006 C 
BRANCH  10  11
ATOM     11  C   UNL     1       2.562  43.083  70.077  1.00  0.00     0.053 C 
BRANCH  11  12
ATOM     12  C   UNL     1       3.631  43.494  71.040  1.00  0.00     0.041 C 
ATOM     13  O   UNL     1       3.377  44.320  71.955  1.00  0.00    -0.550 OA
ATOM     14  O   UNL     1       4.896  42.927  70.957  1.00  0.00    -0.550 OA
ENDBRANCH  11  12
ENDBRANCH  10  11
ENDBRANCH   9  10
ENDBRANCH   8   9
ENDBRANCH   1   8
TORSDOF 9
ENDMDL
MODEL 3
REMARK VINA RESULT:    -4.363      0.987      5.588
REMARK INTER + INTRA:          -7.164
REMARK INTER:                  -6.650
REMARK INTRA:                  -0.514
REMARK UNBOUND:                -0.505
REMARK SMILES O=C([O-])CCCCCCCCC(=O)[O-]
REMARK SMILES IDX 7 1 6 2 5 3 4 4 2 5 1 6 3 7 8 8 9 9 10 10 11 11 12 12 13 13
REMARK SMILES IDX 14 14
REMARK H PARENT
REMARK Flexibility Score: inf
ROOT
ATOM      1  C   UNL     1       3.325  45.266  66.324  1.00  0.00     0.000 C 
ENDROOT
BRANCH   1   2
ATOM      2  C   UNL     1       3.871  45.941  65.060  1.00  0.00     0.000 C 
BRANCH   2   3
ATOM      3  C   UNL     1       4.828  47.088  65.416  1.00  0.00     0.006 C 
BRANCH   3   4
ATOM      4  C   UNL     1       5.036  47.222  66.930  1.00  0.00     0.053 C 
BRANCH   4   5
ATOM      5  C   UNL     1       6.154  48.164  67.256  1.00  0.00     0.041 C 
ATOM      6  O   UNL     1       5.912  49.264  67.819  1.00  0.00    -0.550 OA
ATOM      7  O   UNL     1       7.460  47.843  66.908  1.00  0.00    -0.550 OA
ENDBRANCH   4   5
ENDBRANCH   3   4
ENDBRANCH   2   3
ENDBRANCH   1   2
BRANCH   1   8
ATOM      8  C   UNL     1       3.208  43.747  66.130  1.00  0.00     0.000 C 
BRANCH   8   9
ATOM      9  C   UNL     1       3.200  42.978  67.461  1.00  0.00     0.000 C 
BRANCH   9  10
ATOM     10  C   UNL     1       2.955  43.891  68.671  1.00  0.00     0.006 C 
BRANCH  10  11
ATOM     11  C   UNL     1       2.710  43.065  69.938  1.00  0.00     0.053 C 
BRANCH  11  12
ATOM     12  C   UNL     1       3.706  43.422  70.997  1.00  0.00     0.041 C 
ATOM     13  O   UNL     1       4.874  42.957  70.950  1.00  0.00    -0.550 OA
ATOM     14  O   UNL     1       3.357  44.308  72.008  1.00  0.00    -0.550 OA
ENDBRANCH  11  12
ENDBRANCH  10  11
ENDBRANCH   9  10
ENDBRANCH   8   9
ENDBRANCH   1   8
TORSDOF 9
ENDMDL
MODEL 4
REMARK VINA RESULT:    -4.337     11.724     13.715
REMARK INTER + INTRA:          -7.124
REMARK INTER:                  -6.853
REMARK INTRA:                  -0.272
REMARK UNBOUND:                -0.505
REMARK SMILES O=C([O-])CCCCCCCCC(=O)[O-]
REMARK SMILES IDX 7 1 6 2 5 3 4 4 2 5 1 6 3 7 8 8 9 9 10 10 11 11 12 12 13 13
REMARK SMILES IDX 14 14
REMARK H PARENT
REMARK Flexibility Score: inf
ROOT
ATOM      1  C   UNL     1      15.354  43.238  74.095  1.00  0.00     0.000 C 
ENDROOT
BRANCH   1   2
ATOM      2  C   UNL     1      16.692  42.970  74.794  1.00  0.00     0.000 C 
BRANCH   2   3
ATOM      3  C   UNL     1      17.557  41.998  73.976  1.00  0.00     0.006 C 
BRANCH   3   4
ATOM      4  C   UNL     1      17.882  40.716  74.753  1.00  0.00     0.053 C 
BRANCH   4   5
ATOM      5  C   UNL     1      17.166  39.528  74.189  1.00  0.00     0.041 C 
ATOM      6  O   UNL     1      17.813  38.506  73.836  1.00  0.00    -0.550 OA
ATOM      7  O   UNL     1      15.787  39.560  74.022  1.00  0.00    -0.550 OA
ENDBRANCH   4   5
ENDBRANCH   3   4
ENDBRANCH   2   3
ENDBRANCH   1   2
BRANCH   1   8
ATOM      8  C   UNL     1      14.700  44.519  74.632  1.00  0.00     0.000 C 
BRANCH   8   9
ATOM      9  C   UNL     1      13.321  44.262  75.261  1.00  0.00     0.000 C 
BRANCH   9  10
ATOM     10  C   UNL     1      12.259  45.267  74.792  1.00  0.00     0.006 C 
BRANCH  10  11
ATOM     11  C   UNL     1      11.301  45.623  75.933  1.00  0.00     0.053 C 
BRANCH  11  12
ATOM     12  C   UNL     1      11.134  47.107  76.033  1.00  0.00     0.041 C 
ATOM     13  O   UNL     1      11.602  47.859  75.141  1.00  0.00    -0.550 OA
ATOM     14  O   UNL     1      10.416  47.655  77.089  1.00  0.00    -0.550 OA
ENDBRANCH  11  12
ENDBRANCH  10  11
ENDBRANCH   9  10
ENDBRANCH   8   9
ENDBRANCH   1   8
TORSDOF 9
ENDMDL
MODEL 5
REMARK VINA RESULT:    -4.328     10.201     11.927
REMARK INTER + INTRA:          -7.110
REMARK INTER:                  -6.071
REMARK INTRA:                  -1.039
REMARK UNBOUND:                -0.505
REMARK SMILES O=C([O-])CCCCCCCCC(=O)[O-]
REMARK SMILES IDX 7 1 6 2 5 3 4 4 2 5 1 6 3 7 8 8 9 9 10 10 11 11 12 12 13 13
REMARK SMILES IDX 14 14
REMARK H PARENT
REMARK Flexibility Score: inf
ROOT
ATOM      1  C   UNL     1       7.818  34.468  68.436  1.00  0.00     0.000 C 
ENDROOT
BRANCH   1   2
ATOM      2  C   UNL     1       6.993  34.447  67.144  1.00  0.00     0.000 C 
BRANCH   2   3
ATOM      3  C   UNL     1       6.003  33.272  67.141  1.00  0.00     0.006 C 
BRANCH   3   4
ATOM      4  C   UNL     1       4.543  33.743  67.175  1.00  0.00     0.053 C 
BRANCH   4   5
ATOM      5  C   UNL     1       3.657  32.753  67.865  1.00  0.00     0.041 C 
ATOM      6  O   UNL     1       2.405  32.884  67.821  1.00  0.00    -0.550 OA
ATOM      7  O   UNL     1       4.213  31.703  68.585  1.00  0.00    -0.550 OA
ENDBRANCH   4   5
ENDBRANCH   3   4
ENDBRANCH   2   3
ENDBRANCH   1   2
BRANCH   1   8
ATOM      8  C   UNL     1       7.364  33.359  69.397  1.00  0.00     0.000 C 
BRANCH   8   9
ATOM      9  C   UNL     1       6.963  33.900  70.779  1.00  0.00     0.000 C 
BRANCH   9  10
ATOM     10  C   UNL     1       5.445  34.082  70.926  1.00  0.00     0.006 C 
BRANCH  10  11
ATOM     11  C   UNL     1       5.028  35.511  70.565  1.00  0.00     0.053 C 
BRANCH  11  12
ATOM     12  C   UNL     1       3.557  35.694  70.765  1.00  0.00     0.041 C 
ATOM     13  O   UNL     1       2.771  35.630  69.784  1.00  0.00    -0.550 OA
ATOM     14  O   UNL     1       3.047  35.887  72.042  1.00  0.00    -0.550 OA
ENDBRANCH  11  12
ENDBRANCH  10  11
ENDBRANCH   9  10
ENDBRANCH   8   9
ENDBRANCH   1   8
TORSDOF 9
ENDMDL
MODEL 6
REMARK VINA RESULT:    -4.265     12.828     14.646
REMARK INTER + INTRA:          -7.014
REMARK INTER:                  -6.653
REMARK INTRA:                  -0.361
REMARK UNBOUND:                -0.505
REMARK SMILES O=C([O-])CCCCCCCCC(=O)[O-]
REMARK SMILES IDX 7 1 6 2 5 3 4 4 2 5 1 6 3 7 8 8 9 9 10 10 11 11 12 12 13 13
REMARK SMILES IDX 14 14
REMARK H PARENT
REMARK Flexibility Score: inf
ROOT
ATOM      1  C   UNL     1      16.505  41.614  74.125  1.00  0.00     0.000 C 
ENDROOT
BRANCH   1   2
ATOM      2  C   UNL     1      16.228  40.107  74.096  1.00  0.00     0.000 C 
BRANCH   2   3
ATOM      3  C   UNL     1      17.487  39.307  74.465  1.00  0.00     0.006 C 
BRANCH   3   4
ATOM      4  C   UNL     1      18.243  39.927  75.647  1.00  0.00     0.053 C 
BRANCH   4   5
ATOM      5  C   UNL     1      18.253  39.018  76.837  1.00  0.00     0.041 C 
ATOM      6  O   UNL     1      18.599  37.814  76.713  1.00  0.00    -0.550 OA
ATOM      7  O   UNL     1      17.850  39.493  78.079  1.00  0.00    -0.550 OA
ENDBRANCH   4   5
ENDBRANCH   3   4
ENDBRANCH   2   3
ENDBRANCH   1   2
BRANCH   1   8
ATOM      8  C   UNL     1      15.262  42.411  73.703  1.00  0.00     0.000 C 
BRANCH   8   9
ATOM      9  C   UNL     1      15.457  43.929  73.837  1.00  0.00     0.000 C 
BRANCH   9  10
ATOM     10  C   UNL     1      14.861  44.491  75.136  1.00  0.00     0.006 C 
BRANCH  10  11
ATOM     11  C   UNL     1      13.380  44.122  75.263  1.00  0.00     0.053 C 
BRANCH  11  12
ATOM     12  C   UNL     1      12.525  45.347  75.182  1.00  0.00     0.041 C 
ATOM     13  O   UNL     1      11.466  45.427  75.857  1.00  0.00    -0.550 OA
ATOM     14  O   UNL     1      12.924  46.422  74.397  1.00  0.00    -0.550 OA
ENDBRANCH  11  12
ENDBRANCH  10  11
ENDBRANCH   9  10
ENDBRANCH   8   9
ENDBRANCH   1   8
TORSDOF 9
ENDMDL
MODEL 7
REMARK VINA RESULT:    -4.261      9.795     11.237
REMARK INTER + INTRA:          -7.008
REMARK INTER:                  -6.583
REMARK INTRA:                  -0.425
REMARK UNBOUND:                -0.505
REMARK SMILES O=C([O-])CCCCCCCCC(=O)[O-]
REMARK SMILES IDX 7 1 6 2 5 3 4 4 2 5 1 6 3 7 8 8 9 9 10 10 11 11 12 12 13 13
REMARK SMILES IDX 14 14
REMARK H PARENT
REMARK Flexibility Score: inf
ROOT
ATOM      1  C   UNL     1       3.795  35.310  71.480  1.00  0.00     0.000 C 
ENDROOT
BRANCH   1   2
ATOM      2  C   UNL     1       2.525  35.877  70.834  1.00  0.00     0.000 C 
BRANCH   2   3
ATOM      3  C   UNL     1       2.387  35.401  69.379  1.00  0.00     0.006 C 
BRANCH   3   4
ATOM      4  C   UNL     1       1.400  36.260  68.578  1.00  0.00     0.053 C 
BRANCH   4   5
ATOM      5  C   UNL     1       0.955  35.571  67.325  1.00  0.00     0.041 C 
ATOM      6  O   UNL     1       0.880  34.315  67.285  1.00  0.00    -0.550 OA
ATOM      7  O   UNL     1       0.653  36.315  66.191  1.00  0.00    -0.550 OA
ENDBRANCH   4   5
ENDBRANCH   3   4
ENDBRANCH   2   3
ENDBRANCH   1   2
BRANCH   1   8
ATOM      8  C   UNL     1       4.933  35.202  70.454  1.00  0.00     0.000 C 
BRANCH   8   9
ATOM      9  C   UNL     1       6.073  34.287  70.929  1.00  0.00     0.000 C 
BRANCH   9  10
ATOM     10  C   UNL     1       6.862  33.670  69.765  1.00  0.00     0.006 C 
BRANCH  10  11
ATOM     11  C   UNL     1       7.329  34.751  68.786  1.00  0.00     0.053 C 
BRANCH  11  12
ATOM     12  C   UNL     1       7.294  34.238  67.381  1.00  0.00     0.041 C 
ATOM     13  O   UNL     1       6.626  34.842  66.502  1.00  0.00    -0.550 OA
ATOM     14  O   UNL     1       8.040  33.120  67.031  1.00  0.00    -0.550 OA
ENDBRANCH  11  12
ENDBRANCH  10  11
ENDBRANCH   9  10
ENDBRANCH   8   9
ENDBRANCH   1   8
TORSDOF 9
ENDMDL
MODEL 8
REMARK VINA RESULT:    -4.243      9.908     11.760
REMARK INTER + INTRA:          -6.980
REMARK INTER:                  -6.239
REMARK INTRA:                  -0.740
REMARK UNBOUND:                -0.505
REMARK SMILES O=C([O-])CCCCCCCCC(=O)[O-]
REMARK SMILES IDX 7 1 6 2 5 3 4 4 2 5 1 6 3 7 8 8 9 9 10 10 11 11 12 12 13 13
REMARK SMILES IDX 14 14
REMARK H PARENT
REMARK Flexibility Score: inf
ROOT
ATOM      1  C   UNL     1       6.605  34.247  70.613  1.00  0.00     0.000 C 
ENDROOT
BRANCH   1   2
ATOM      2  C   UNL     1       5.094  34.221  70.868  1.00  0.00     0.000 C 
BRANCH   2   3
ATOM      3  C   UNL     1       4.491  35.629  70.750  1.00  0.00     0.006 C 
BRANCH   3   4
ATOM      4  C   UNL     1       3.047  35.688  71.265  1.00  0.00     0.053 C 
BRANCH   4   5
ATOM      5  C   UNL     1       2.057  35.718  70.141  1.00  0.00     0.041 C 
ATOM      6  O   UNL     1       2.018  36.704  69.358  1.00  0.00    -0.550 OA
ATOM      7  O   UNL     1       1.156  34.674  69.978  1.00  0.00    -0.550 OA
ENDBRANCH   4   5
ENDBRANCH   3   4
ENDBRANCH   2   3
ENDBRANCH   1   2
BRANCH   1   8
ATOM      8  C   UNL     1       6.948  35.163  69.429  1.00  0.00     0.000 C 
BRANCH   8   9
ATOM      9  C   UNL     1       7.711  34.430  68.313  1.00  0.00     0.000 C 
BRANCH   9  10
ATOM     10  C   UNL     1       6.953  34.430  66.978  1.00  0.00     0.006 C 
BRANCH  10  11
ATOM     11  C   UNL     1       5.740  33.497  67.036  1.00  0.00     0.053 C 
BRANCH  11  12
ATOM     12  C   UNL     1       6.164  32.108  67.399  1.00  0.00     0.041 C 
ATOM     13  O   UNL     1       6.987  31.488  66.677  1.00  0.00    -0.550 OA
ATOM     14  O   UNL     1       5.687  31.518  68.562  1.00  0.00    -0.550 OA
ENDBRANCH  11  12
ENDBRANCH  10  11
ENDBRANCH   9  10
ENDBRANCH   8   9
ENDBRANCH   1   8
TORSDOF 9
ENDMDL
MODEL 9
REMARK VINA RESULT:    -4.233     10.009     11.960
REMARK INTER + INTRA:          -6.966
REMARK INTER:                  -6.263
REMARK INTRA:                  -0.703
REMARK UNBOUND:                -0.505
REMARK SMILES O=C([O-])CCCCCCCCC(=O)[O-]
REMARK SMILES IDX 7 1 6 2 5 3 4 4 2 5 1 6 3 7 8 8 9 9 10 10 11 11 12 12 13 13
REMARK SMILES IDX 14 14
REMARK H PARENT
REMARK Flexibility Score: inf
ROOT
ATOM      1  C   UNL     1       6.949  33.809  70.874  1.00  0.00     0.000 C 
ENDROOT
BRANCH   1   2
ATOM      2  C   UNL     1       5.436  33.975  71.063  1.00  0.00     0.000 C 
BRANCH   2   3
ATOM      3  C   UNL     1       4.971  35.363  70.596  1.00  0.00     0.006 C 
BRANCH   3   4
ATOM      4  C   UNL     1       3.619  35.758  71.203  1.00  0.00     0.053 C 
BRANCH   4   5
ATOM      5  C   UNL     1       2.494  35.550  70.237  1.00  0.00     0.041 C 
ATOM      6  O   UNL     1       1.958  34.416  70.122  1.00  0.00    -0.550 OA
ATOM      7  O   UNL     1       2.059  36.600  69.438  1.00  0.00    -0.550 OA
ENDBRANCH   4   5
ENDBRANCH   3   4
ENDBRANCH   2   3
ENDBRANCH   1   2
BRANCH   1   8
ATOM      8  C   UNL     1       7.361  32.336  71.011  1.00  0.00     0.000 C 
BRANCH   8   9
ATOM      9  C   UNL     1       7.340  31.587  69.669  1.00  0.00     0.000 C 
BRANCH   9  10
ATOM     10  C   UNL     1       8.036  32.366  68.544  1.00  0.00     0.006 C 
BRANCH  10  11
ATOM     11  C   UNL     1       7.170  32.395  67.282  1.00  0.00     0.053 C 
BRANCH  11  12
ATOM     12  C   UNL     1       6.379  33.664  67.218  1.00  0.00     0.041 C 
ATOM     13  O   UNL     1       6.928  34.736  66.854  1.00  0.00    -0.550 OA
ATOM     14  O   UNL     1       5.021  33.652  67.513  1.00  0.00    -0.550 OA
ENDBRANCH  11  12
ENDBRANCH  10  11
ENDBRANCH   9  10
ENDBRANCH   8   9
ENDBRANCH   1   8
TORSDOF 9
ENDMDL
