MODEL 1
REMARK VINA RESULT:    -4.248      0.000      0.000
REMARK INTER + INTRA:          -9.718
REMARK INTER:                  -7.725
REMARK INTRA:                  -1.992
REMARK UNBOUND:                -1.992
REMARK SMILES CCCCCCCCCCCCCC[C@@H](C)C(=O)[O-]
REMARK SMILES IDX 9 1 10 2 11 3 12 4 13 5 14 6 15 7 16 8 17 9 18 10 19 11 8 12
REMARK SMILES IDX 7 13 6 14 5 15 4 16 3 17 2 18 1 19
REMARK H PARENT
REMARK Flexibility Score: inf
ROOT
ATOM      1  C   UNL     1     -14.563  -3.420 -33.632  1.00  0.00     0.000 C 
ENDROOT
BRANCH   1   2
ATOM      2  C   UNL     1     -15.705  -3.977 -32.761  1.00  0.00     0.000 C 
BRANCH   2   3
ATOM      3  C   UNL     1     -15.255  -4.729 -31.493  1.00  0.00     0.000 C 
BRANCH   3   4
ATOM      4  C   UNL     1     -15.680  -6.209 -31.424  1.00  0.00     0.000 C 
BRANCH   4   5
ATOM      5  C   UNL     1     -14.703  -7.138 -30.678  1.00  0.00     0.001 C 
BRANCH   5   6
ATOM      6  C   UNL     1     -13.535  -6.432 -29.957  1.00  0.00     0.009 C 
BRANCH   6   7
ATOM      7  C   UNL     1     -12.754  -7.346 -28.980  1.00  0.00     0.032 C 
ATOM      8  C   UNL     1     -13.118  -8.817 -29.210  1.00  0.00     0.014 C 
BRANCH   7   9
ATOM      9  C   UNL     1     -11.266  -7.181 -29.129  1.00  0.00     0.044 C 
ATOM     10  O   UNL     1     -10.481  -7.961 -28.527  1.00  0.00    -0.550 OA
ATOM     11  O   UNL     1     -10.745  -6.198 -29.963  1.00  0.00    -0.550 OA
ENDBRANCH   7   9
ENDBRANCH   6   7
ENDBRANCH   5   6
ENDBRANCH   4   5
ENDBRANCH   3   4
ENDBRANCH   2   3
ENDBRANCH   1   2
BRANCH   1  12
ATOM     12  C   UNL     1     -14.887  -2.039 -34.228  1.00  0.00     0.000 C 
BRANCH  12  13
ATOM     13  C   UNL     1     -15.667  -1.143 -33.251  1.00  0.00    -0.000 C 
BRANCH  13  14
ATOM     14  C   UNL     1     -14.862   0.094 -32.814  1.00  0.00    -0.000 C 
BRANCH  14  15
ATOM     15  C   UNL     1     -14.815   0.257 -31.285  1.00  0.00    -0.000 C 
BRANCH  15  16
ATOM     16  C   UNL     1     -15.401  -0.958 -30.544  1.00  0.00    -0.000 C 
BRANCH  16  17
ATOM     17  C   UNL     1     -14.365  -1.676 -29.661  1.00  0.00    -0.000 C 
BRANCH  17  18
ATOM     18  C   UNL     1     -12.897  -1.439 -30.058  1.00  0.00    -0.003 C 
ATOM     19  C   UNL     1     -12.317  -2.565 -30.913  1.00  0.00     0.004 C 
ENDBRANCH  17  18
ENDBRANCH  16  17
ENDBRANCH  15  16
ENDBRANCH  14  15
ENDBRANCH  13  14
ENDBRANCH  12  13
ENDBRANCH   1  12
TORSDOF 14
ENDMDL
MODEL 2
REMARK VINA RESULT:    -4.245     21.993     24.198
REMARK INTER + INTRA:          -9.711
REMARK INTER:                  -6.856
REMARK INTRA:                  -2.855
REMARK UNBOUND:                -1.992
REMARK SMILES CCCCCCCCCCCCCC[C@@H](C)C(=O)[O-]
REMARK SMILES IDX 9 1 10 2 11 3 12 4 13 5 14 6 15 7 16 8 17 9 18 10 19 11 8 12
REMARK SMILES IDX 7 13 6 14 5 15 4 16 3 17 2 18 1 19
REMARK H PARENT
REMARK Flexibility Score: inf
ROOT
ATOM      1  C   UNL     1       1.608   9.996 -15.567  1.00  0.00     0.000 C 
ENDROOT
BRANCH   1   2
ATOM      2  C   UNL     1       1.015  10.683 -16.811  1.00  0.00     0.000 C 
BRANCH   2   3
ATOM      3  C   UNL     1       1.873  10.579 -18.088  1.00  0.00     0.000 C 
BRANCH   3   4
ATOM      4  C   UNL     1       3.365  10.275 -17.853  1.00  0.00     0.000 C 
BRANCH   4   5
ATOM      5  C   UNL     1       4.061   9.489 -18.981  1.00  0.00     0.001 C 
BRANCH   5   6
ATOM      6  C   UNL     1       3.122   8.890 -20.050  1.00  0.00     0.009 C 
BRANCH   6   7
ATOM      7  C   UNL     1       3.748   7.726 -20.856  1.00  0.00     0.032 C 
ATOM      8  C   UNL     1       3.002   6.415 -20.581  1.00  0.00     0.014 C 
BRANCH   7   9
ATOM      9  C   UNL     1       3.729   7.997 -22.336  1.00  0.00     0.044 C 
ATOM     10  O   UNL     1       3.411   7.083 -23.142  1.00  0.00    -0.550 OA
ATOM     11  O   UNL     1       4.019   9.267 -22.824  1.00  0.00    -0.550 OA
ENDBRANCH   7   9
ENDBRANCH   6   7
ENDBRANCH   5   6
ENDBRANCH   4   5
ENDBRANCH   3   4
ENDBRANCH   2   3
ENDBRANCH   1   2
BRANCH   1  12
ATOM     12  C   UNL     1       0.925   8.655 -15.245  1.00  0.00     0.000 C 
BRANCH  12  13
ATOM     13  C   UNL     1       1.826   7.447 -15.546  1.00  0.00    -0.000 C 
BRANCH  13  14
ATOM     14  C   UNL     1       1.802   7.047 -17.033  1.00  0.00    -0.000 C 
BRANCH  14  15
ATOM     15  C   UNL     1       0.394   6.658 -17.515  1.00  0.00    -0.000 C 
BRANCH  15  16
ATOM     16  C   UNL     1      -0.055   7.470 -18.743  1.00  0.00    -0.000 C 
BRANCH  16  17
ATOM     17  C   UNL     1      -1.264   8.376 -18.450  1.00  0.00    -0.000 C 
BRANCH  17  18
ATOM     18  C   UNL     1      -2.032   8.040 -17.160  1.00  0.00    -0.003 C 
ATOM     19  C   UNL     1      -2.594   9.276 -16.457  1.00  0.00     0.004 C 
ENDBRANCH  17  18
ENDBRANCH  16  17
ENDBRANCH  15  16
ENDBRANCH  14  15
ENDBRANCH  13  14
ENDBRANCH  12  13
ENDBRANCH   1  12
TORSDOF 14
ENDMDL
MODEL 3
REMARK VINA RESULT:    -4.150      1.161      1.938
REMARK INTER + INTRA:          -9.539
REMARK INTER:                  -7.434
REMARK INTRA:                  -2.104
REMARK UNBOUND:                -1.992
REMARK SMILES CCCCCCCCCCCCCC[C@@H](C)C(=O)[O-]
REMARK SMILES IDX 9 1 10 2 11 3 12 4 13 5 14 6 15 7 16 8 17 9 18 10 19 11 8 12
REMARK SMILES IDX 7 13 6 14 5 15 4 16 3 17 2 18 1 19
REMARK H PARENT
REMARK Flexibility Score: inf
ROOT
ATOM      1  C   UNL     1     -14.308  -4.641 -32.423  1.00  0.00     0.000 C 
ENDROOT
BRANCH   1   2
ATOM      2  C   UNL     1     -15.689  -5.099 -31.920  1.00  0.00     0.000 C 
BRANCH   2   3
ATOM      3  C   UNL     1     -15.669  -5.950 -30.634  1.00  0.00     0.000 C 
BRANCH   3   4
ATOM      4  C   UNL     1     -14.948  -7.307 -30.758  1.00  0.00     0.000 C 
BRANCH   4   5
ATOM      5  C   UNL     1     -13.690  -7.464 -29.882  1.00  0.00     0.001 C 
BRANCH   5   6
ATOM      6  C   UNL     1     -13.025  -6.146 -29.432  1.00  0.00     0.009 C 
BRANCH   6   7
ATOM      7  C   UNL     1     -11.625  -5.906 -30.048  1.00  0.00     0.032 C 
ATOM      8  C   UNL     1     -11.348  -4.404 -30.191  1.00  0.00     0.014 C 
BRANCH   7   9
ATOM      9  C   UNL     1     -10.535  -6.527 -29.218  1.00  0.00     0.044 C 
ATOM     10  O   UNL     1     -10.571  -6.441 -27.962  1.00  0.00    -0.550 OA
ATOM     11  O   UNL     1      -9.504  -7.236 -29.824  1.00  0.00    -0.550 OA
ENDBRANCH   7   9
ENDBRANCH   6   7
ENDBRANCH   5   6
ENDBRANCH   4   5
ENDBRANCH   3   4
ENDBRANCH   2   3
ENDBRANCH   1   2
BRANCH   1  12
ATOM     12  C   UNL     1     -14.399  -3.683 -33.623  1.00  0.00     0.000 C 
BRANCH  12  13
ATOM     13  C   UNL     1     -15.574  -2.698 -33.504  1.00  0.00    -0.000 C 
BRANCH  13  14
ATOM     14  C   UNL     1     -15.235  -1.303 -34.061  1.00  0.00    -0.000 C 
BRANCH  14  15
ATOM     15  C   UNL     1     -15.141  -0.235 -32.958  1.00  0.00    -0.000 C 
BRANCH  15  16
ATOM     16  C   UNL     1     -15.180  -0.841 -31.544  1.00  0.00    -0.000 C 
BRANCH  16  17
ATOM     17  C   UNL     1     -13.778  -1.134 -30.981  1.00  0.00    -0.000 C 
BRANCH  17  18
ATOM     18  C   UNL     1     -13.742  -1.509 -29.489  1.00  0.00    -0.003 C 
ATOM     19  C   UNL     1     -14.540  -2.773 -29.169  1.00  0.00     0.004 C 
ENDBRANCH  17  18
ENDBRANCH  16  17
ENDBRANCH  15  16
ENDBRANCH  14  15
ENDBRANCH  13  14
ENDBRANCH  12  13
ENDBRANCH   1  12
TORSDOF 14
ENDMDL
MODEL 4
REMARK VINA RESULT:    -4.111      1.707      3.933
REMARK INTER + INTRA:          -9.469
REMARK INTER:                  -7.388
REMARK INTRA:                  -2.080
REMARK UNBOUND:                -1.992
REMARK SMILES CCCCCCCCCCCCCC[C@@H](C)C(=O)[O-]
REMARK SMILES IDX 9 1 10 2 11 3 12 4 13 5 14 6 15 7 16 8 17 9 18 10 19 11 8 12
REMARK SMILES IDX 7 13 6 14 5 15 4 16 3 17 2 18 1 19
REMARK H PARENT
REMARK Flexibility Score: inf
ROOT
ATOM      1  C   UNL     1     -16.125  -5.698 -30.878  1.00  0.00     0.000 C 
ENDROOT
BRANCH   1   2
ATOM      2  C   UNL     1     -14.878  -6.505 -31.282  1.00  0.00     0.000 C 
BRANCH   2   3
ATOM      3  C   UNL     1     -14.231  -7.324 -30.147  1.00  0.00     0.000 C 
BRANCH   3   4
ATOM      4  C   UNL     1     -12.906  -6.756 -29.602  1.00  0.00     0.000 C 
BRANCH   4   5
ATOM      5  C   UNL     1     -12.743  -5.229 -29.735  1.00  0.00     0.001 C 
BRANCH   5   6
ATOM      6  C   UNL     1     -11.847  -4.755 -30.900  1.00  0.00     0.009 C 
BRANCH   6   7
ATOM      7  C   UNL     1     -11.742  -3.216 -31.026  1.00  0.00     0.032 C 
ATOM      8  C   UNL     1     -12.589  -2.526 -29.949  1.00  0.00     0.014 C 
BRANCH   7   9
ATOM      9  C   UNL     1     -10.320  -2.741 -30.908  1.00  0.00     0.044 C 
ATOM     10  O   UNL     1      -9.368  -3.546 -31.088  1.00  0.00    -0.550 OA
ATOM     11  O   UNL     1     -10.042  -1.405 -30.644  1.00  0.00    -0.550 OA
ENDBRANCH   7   9
ENDBRANCH   6   7
ENDBRANCH   5   6
ENDBRANCH   4   5
ENDBRANCH   3   4
ENDBRANCH   2   3
ENDBRANCH   1   2
BRANCH   1  12
ATOM     12  C   UNL     1     -16.101  -4.256 -31.415  1.00  0.00     0.000 C 
BRANCH  12  13
ATOM     13  C   UNL     1     -15.708  -4.186 -32.900  1.00  0.00    -0.000 C 
BRANCH  13  14
ATOM     14  C   UNL     1     -14.514  -3.248 -33.151  1.00  0.00    -0.000 C 
BRANCH  14  15
ATOM     15  C   UNL     1     -14.845  -2.127 -34.152  1.00  0.00    -0.000 C 
BRANCH  15  16
ATOM     16  C   UNL     1     -15.674  -0.996 -33.519  1.00  0.00    -0.000 C 
BRANCH  16  17
ATOM     17  C   UNL     1     -14.801   0.134 -32.943  1.00  0.00    -0.000 C 
BRANCH  17  18
ATOM     18  C   UNL     1     -14.719   0.172 -31.407  1.00  0.00    -0.003 C 
ATOM     19  C   UNL     1     -15.828  -0.629 -30.726  1.00  0.00     0.004 C 
ENDBRANCH  17  18
ENDBRANCH  16  17
ENDBRANCH  15  16
ENDBRANCH  14  15
ENDBRANCH  13  14
ENDBRANCH  12  13
ENDBRANCH   1  12
TORSDOF 14
ENDMDL
MODEL 5
REMARK VINA RESULT:    -4.040      1.910      4.947
REMARK INTER + INTRA:          -9.339
REMARK INTER:                  -7.285
REMARK INTRA:                  -2.054
REMARK UNBOUND:                -1.992
REMARK SMILES CCCCCCCCCCCCCC[C@@H](C)C(=O)[O-]
REMARK SMILES IDX 9 1 10 2 11 3 12 4 13 5 14 6 15 7 16 8 17 9 18 10 19 11 8 12
REMARK SMILES IDX 7 13 6 14 5 15 4 16 3 17 2 18 1 19
REMARK H PARENT
REMARK Flexibility Score: inf
ROOT
ATOM      1  C   UNL     1     -12.668  -6.431 -29.878  1.00  0.00     0.000 C 
ENDROOT
BRANCH   1   2
ATOM      2  C   UNL     1     -12.794  -5.281 -28.863  1.00  0.00     0.000 C 
BRANCH   2   3
ATOM      3  C   UNL     1     -13.038  -3.888 -29.477  1.00  0.00     0.000 C 
BRANCH   3   4
ATOM      4  C   UNL     1     -12.311  -3.624 -30.810  1.00  0.00     0.000 C 
BRANCH   4   5
ATOM      5  C   UNL     1     -10.974  -2.867 -30.689  1.00  0.00     0.001 C 
BRANCH   5   6
ATOM      6  C   UNL     1      -9.723  -3.651 -31.140  1.00  0.00     0.009 C 
BRANCH   6   7
ATOM      7  C   UNL     1      -8.939  -4.306 -29.977  1.00  0.00     0.032 C 
ATOM      8  C   UNL     1      -9.388  -3.728 -28.629  1.00  0.00     0.014 C 
BRANCH   7   9
ATOM      9  C   UNL     1      -9.120  -5.800 -29.952  1.00  0.00     0.044 C 
ATOM     10  O   UNL     1      -9.160  -6.449 -31.030  1.00  0.00    -0.550 OA
ATOM     11  O   UNL     1      -9.200  -6.481 -28.742  1.00  0.00    -0.550 OA
ENDBRANCH   7   9
ENDBRANCH   6   7
ENDBRANCH   5   6
ENDBRANCH   4   5
ENDBRANCH   3   4
ENDBRANCH   2   3
ENDBRANCH   1   2
BRANCH   1  12
ATOM     12  C   UNL     1     -13.784  -7.480 -29.732  1.00  0.00     0.000 C 
BRANCH  12  13
ATOM     13  C   UNL     1     -14.834  -7.383 -30.851  1.00  0.00    -0.000 C 
BRANCH  13  14
ATOM     14  C   UNL     1     -15.791  -6.193 -30.662  1.00  0.00    -0.000 C 
BRANCH  14  15
ATOM     15  C   UNL     1     -16.125  -5.488 -31.988  1.00  0.00    -0.000 C 
BRANCH  15  16
ATOM     16  C   UNL     1     -15.869  -3.972 -31.932  1.00  0.00    -0.000 C 
BRANCH  16  17
ATOM     17  C   UNL     1     -15.116  -3.447 -33.168  1.00  0.00    -0.000 C 
BRANCH  17  18
ATOM     18  C   UNL     1     -15.025  -1.915 -33.271  1.00  0.00    -0.003 C 
ATOM     19  C   UNL     1     -15.114  -1.404 -34.710  1.00  0.00     0.004 C 
ENDBRANCH  17  18
ENDBRANCH  16  17
ENDBRANCH  15  16
ENDBRANCH  14  15
ENDBRANCH  13  14
ENDBRANCH  12  13
ENDBRANCH   1  12
TORSDOF 14
ENDMDL
MODEL 6
REMARK VINA RESULT:    -3.996     20.604     22.985
REMARK INTER + INTRA:          -9.259
REMARK INTER:                  -6.841
REMARK INTRA:                  -2.418
REMARK UNBOUND:                -1.992
REMARK SMILES CCCCCCCCCCCCCC[C@@H](C)C(=O)[O-]
REMARK SMILES IDX 9 1 10 2 11 3 12 4 13 5 14 6 15 7 16 8 17 9 18 10 19 11 8 12
REMARK SMILES IDX 7 13 6 14 5 15 4 16 3 17 2 18 1 19
REMARK H PARENT
REMARK Flexibility Score: inf
ROOT
ATOM      1  C   UNL     1       3.395   8.932 -19.171  1.00  0.00     0.000 C 
ENDROOT
BRANCH   1   2
ATOM      2  C   UNL     1       2.162   8.587 -20.026  1.00  0.00     0.000 C 
BRANCH   2   3
ATOM      3  C   UNL     1       2.391   7.507 -21.102  1.00  0.00     0.000 C 
BRANCH   3   4
ATOM      4  C   UNL     1       3.562   6.543 -20.824  1.00  0.00     0.000 C 
BRANCH   4   5
ATOM      5  C   UNL     1       3.204   5.303 -19.981  1.00  0.00     0.001 C 
BRANCH   5   6
ATOM      6  C   UNL     1       1.827   4.673 -20.278  1.00  0.00     0.009 C 
BRANCH   6   7
ATOM      7  C   UNL     1       1.379   3.619 -19.236  1.00  0.00     0.032 C 
ATOM      8  C   UNL     1      -0.133   3.704 -18.998  1.00  0.00     0.014 C 
BRANCH   7   9
ATOM      9  C   UNL     1       1.729   2.221 -19.668  1.00  0.00     0.044 C 
ATOM     10  O   UNL     1       2.707   1.624 -19.145  1.00  0.00    -0.550 OA
ATOM     11  O   UNL     1       0.953   1.561 -20.614  1.00  0.00    -0.550 OA
ENDBRANCH   7   9
ENDBRANCH   6   7
ENDBRANCH   5   6
ENDBRANCH   4   5
ENDBRANCH   3   4
ENDBRANCH   2   3
ENDBRANCH   1   2
BRANCH   1  12
ATOM     12  C   UNL     1       3.153  10.124 -18.229  1.00  0.00     0.000 C 
BRANCH  12  13
ATOM     13  C   UNL     1       1.665  10.494 -18.117  1.00  0.00    -0.000 C 
BRANCH  13  14
ATOM     14  C   UNL     1       1.254  10.864 -16.680  1.00  0.00    -0.000 C 
BRANCH  14  15
ATOM     15  C   UNL     1       1.903   9.947 -15.628  1.00  0.00    -0.000 C 
BRANCH  15  16
ATOM     16  C   UNL     1       1.147   8.619 -15.455  1.00  0.00    -0.000 C 
BRANCH  16  17
ATOM     17  C   UNL     1       1.900   7.419 -16.057  1.00  0.00    -0.000 C 
BRANCH  17  18
ATOM     18  C   UNL     1       1.170   6.706 -17.208  1.00  0.00    -0.003 C 
ATOM     19  C   UNL     1      -0.209   7.297 -17.503  1.00  0.00     0.004 C 
ENDBRANCH  17  18
ENDBRANCH  16  17
ENDBRANCH  15  16
ENDBRANCH  14  15
ENDBRANCH  13  14
ENDBRANCH  12  13
ENDBRANCH   1  12
TORSDOF 14
ENDMDL
MODEL 7
REMARK VINA RESULT:    -3.995     21.194     24.014
REMARK INTER + INTRA:          -9.256
REMARK INTER:                  -7.453
REMARK INTRA:                  -1.803
REMARK UNBOUND:                -1.992
REMARK SMILES CCCCCCCCCCCCCC[C@@H](C)C(=O)[O-]
REMARK SMILES IDX 9 1 10 2 11 3 12 4 13 5 14 6 15 7 16 8 17 9 18 10 19 11 8 12
REMARK SMILES IDX 7 13 6 14 5 15 4 16 3 17 2 18 1 19
REMARK H PARENT
REMARK Flexibility Score: inf
ROOT
ATOM      1  C   UNL     1       1.804   9.643 -15.363  1.00  0.00     0.000 C 
ENDROOT
BRANCH   1   2
ATOM      2  C   UNL     1       1.213  10.565 -16.445  1.00  0.00     0.000 C 
BRANCH   2   3
ATOM      3  C   UNL     1       1.902  10.486 -17.822  1.00  0.00     0.000 C 
BRANCH   3   4
ATOM      4  C   UNL     1       3.390  10.086 -17.788  1.00  0.00     0.000 C 
BRANCH   4   5
ATOM      5  C   UNL     1       3.874   9.257 -18.994  1.00  0.00     0.001 C 
BRANCH   5   6
ATOM      6  C   UNL     1       2.824   9.016 -20.099  1.00  0.00     0.009 C 
BRANCH   6   7
ATOM      7  C   UNL     1       3.382   8.293 -21.350  1.00  0.00     0.032 C 
ATOM      8  C   UNL     1       2.786   6.886 -21.471  1.00  0.00     0.014 C 
BRANCH   7   9
ATOM      9  C   UNL     1       3.091   9.057 -22.613  1.00  0.00     0.044 C 
ATOM     10  O   UNL     1       1.901   9.217 -22.995  1.00  0.00    -0.550 OA
ATOM     11  O   UNL     1       4.125   9.631 -23.344  1.00  0.00    -0.550 OA
ENDBRANCH   7   9
ENDBRANCH   6   7
ENDBRANCH   5   6
ENDBRANCH   4   5
ENDBRANCH   3   4
ENDBRANCH   2   3
ENDBRANCH   1   2
BRANCH   1  12
ATOM     12  C   UNL     1       1.093   8.280 -15.288  1.00  0.00     0.000 C 
BRANCH  12  13
ATOM     13  C   UNL     1       1.742   7.225 -16.198  1.00  0.00    -0.000 C 
BRANCH  13  14
ATOM     14  C   UNL     1       0.924   6.963 -17.476  1.00  0.00    -0.000 C 
BRANCH  14  15
ATOM     15  C   UNL     1       1.490   5.799 -18.309  1.00  0.00    -0.000 C 
BRANCH  15  16
ATOM     16  C   UNL     1       0.431   4.727 -18.620  1.00  0.00    -0.000 C 
BRANCH  16  17
ATOM     17  C   UNL     1       0.976   3.587 -19.498  1.00  0.00    -0.000 C 
BRANCH  17  18
ATOM     18  C   UNL     1       2.502   3.593 -19.699  1.00  0.00    -0.003 C 
ATOM     19  C   UNL     1       3.001   2.416 -20.537  1.00  0.00     0.004 C 
ENDBRANCH  17  18
ENDBRANCH  16  17
ENDBRANCH  15  16
ENDBRANCH  14  15
ENDBRANCH  13  14
ENDBRANCH  12  13
ENDBRANCH   1  12
TORSDOF 14
ENDMDL
MODEL 8
REMARK VINA RESULT:    -3.965      1.187      3.162
REMARK INTER + INTRA:          -9.202
REMARK INTER:                  -7.769
REMARK INTRA:                  -1.433
REMARK UNBOUND:                -1.992
REMARK SMILES CCCCCCCCCCCCCC[C@@H](C)C(=O)[O-]
REMARK SMILES IDX 9 1 10 2 11 3 12 4 13 5 14 6 15 7 16 8 17 9 18 10 19 11 8 12
REMARK SMILES IDX 7 13 6 14 5 15 4 16 3 17 2 18 1 19
REMARK H PARENT
REMARK Flexibility Score: inf
ROOT
ATOM      1  C   UNL     1     -15.703  -6.083 -31.373  1.00  0.00     0.000 C 
ENDROOT
BRANCH   1   2
ATOM      2  C   UNL     1     -15.382  -7.396 -30.635  1.00  0.00     0.000 C 
BRANCH   2   3
ATOM      3  C   UNL     1     -13.913  -7.558 -30.196  1.00  0.00     0.000 C 
BRANCH   3   4
ATOM      4  C   UNL     1     -13.587  -8.883 -29.479  1.00  0.00     0.000 C 
BRANCH   4   5
ATOM      5  C   UNL     1     -12.566  -8.772 -28.330  1.00  0.00     0.001 C 
BRANCH   5   6
ATOM      6  C   UNL     1     -11.844  -7.413 -28.212  1.00  0.00     0.009 C 
BRANCH   6   7
ATOM      7  C   UNL     1     -10.317  -7.488 -28.462  1.00  0.00     0.032 C 
ATOM      8  C   UNL     1      -9.901  -8.917 -28.834  1.00  0.00     0.014 C 
BRANCH   7   9
ATOM      9  C   UNL     1      -9.884  -6.552 -29.558  1.00  0.00     0.044 C 
ATOM     10  O   UNL     1      -8.659  -6.377 -29.791  1.00  0.00    -0.550 OA
ATOM     11  O   UNL     1     -10.829  -5.908 -30.349  1.00  0.00    -0.550 OA
ENDBRANCH   7   9
ENDBRANCH   6   7
ENDBRANCH   5   6
ENDBRANCH   4   5
ENDBRANCH   3   4
ENDBRANCH   2   3
ENDBRANCH   1   2
BRANCH   1  12
ATOM     12  C   UNL     1     -14.675  -4.974 -31.090  1.00  0.00     0.000 C 
BRANCH  12  13
ATOM     13  C   UNL     1     -14.056  -4.401 -32.376  1.00  0.00    -0.000 C 
BRANCH  13  14
ATOM     14  C   UNL     1     -15.112  -3.809 -33.327  1.00  0.00    -0.000 C 
BRANCH  14  15
ATOM     15  C   UNL     1     -14.647  -2.495 -33.979  1.00  0.00    -0.000 C 
BRANCH  15  16
ATOM     16  C   UNL     1     -15.464  -1.280 -33.507  1.00  0.00    -0.000 C 
BRANCH  16  17
ATOM     17  C   UNL     1     -15.499  -1.143 -31.974  1.00  0.00    -0.000 C 
BRANCH  17  18
ATOM     18  C   UNL     1     -14.168  -0.721 -31.328  1.00  0.00    -0.003 C 
ATOM     19  C   UNL     1     -13.868  -1.470 -30.030  1.00  0.00     0.004 C 
ENDBRANCH  17  18
ENDBRANCH  16  17
ENDBRANCH  15  16
ENDBRANCH  14  15
ENDBRANCH  13  14
ENDBRANCH  12  13
ENDBRANCH   1  12
TORSDOF 14
ENDMDL
