MODEL 1
REMARK VINA RESULT:    -4.812      0.000      0.000
REMARK INTER + INTRA:          -6.781
REMARK INTER:                  -6.500
REMARK INTRA:                  -0.281
REMARK UNBOUND:                -0.281
REMARK SMILES CCCCCCC=CC(=O)[O-]
REMARK SMILES IDX 5 1 6 2 7 3 8 4 9 5 10 6 11 7 4 8 3 9 2 10 1 11
REMARK H PARENT
REMARK Flexibility Score: inf
ROOT
ATOM      1  C   UNL     1       4.187  42.167  14.454  1.00  0.00     0.004 C 
ENDROOT
BRANCH   1   2
ATOM      2  C   UNL     1       4.535  40.687  14.226  1.00  0.00     0.027 C 
BRANCH   2   3
ATOM      3  C   UNL     1       4.467  40.333  12.768  1.00  0.00    -0.025 C 
ATOM      4  C   UNL     1       3.323  39.942  12.196  1.00  0.00     0.020 C 
BRANCH   4   5
ATOM      5  C   UNL     1       3.235  39.578  10.774  1.00  0.00     0.064 C 
ATOM      6  O   UNL     1       2.331  40.052  10.034  1.00  0.00    -0.545 OA
ATOM      7  O   UNL     1       4.162  38.694  10.236  1.00  0.00    -0.545 OA
ENDBRANCH   4   5
ENDBRANCH   2   3
ENDBRANCH   1   2
BRANCH   1   8
ATOM      8  C   UNL     1       5.384  43.102  14.215  1.00  0.00     0.000 C 
BRANCH   8   9
ATOM      9  C   UNL     1       5.316  44.443  14.970  1.00  0.00    -0.000 C 
BRANCH   9  10
ATOM     10  C   UNL     1       6.347  44.567  16.111  1.00  0.00    -0.003 C 
ATOM     11  C   UNL     1       7.431  43.491  16.040  1.00  0.00     0.004 C 
ENDBRANCH   9  10
ENDBRANCH   8   9
ENDBRANCH   1   8
TORSDOF 6
ENDMDL
MODEL 2
REMARK VINA RESULT:    -4.750      3.992      6.303
REMARK INTER + INTRA:          -6.697
REMARK INTER:                  -6.322
REMARK INTRA:                  -0.375
REMARK UNBOUND:                -0.281
REMARK SMILES CCCCCCC=CC(=O)[O-]
REMARK SMILES IDX 5 1 6 2 7 3 8 4 9 5 10 6 11 7 4 8 3 9 2 10 1 11
REMARK H PARENT
REMARK Flexibility Score: inf
ROOT
ATOM      1  C   UNL     1       4.522  41.397  15.331  1.00  0.00     0.004 C 
ENDROOT
BRANCH   1   2
ATOM      2  C   UNL     1       4.523  42.674  14.476  1.00  0.00     0.027 C 
BRANCH   2   3
ATOM      3  C   UNL     1       5.679  43.564  14.832  1.00  0.00    -0.025 C 
ATOM      4  C   UNL     1       6.735  43.099  15.509  1.00  0.00     0.020 C 
BRANCH   4   5
ATOM      5  C   UNL     1       7.873  43.955  15.881  1.00  0.00     0.064 C 
ATOM      6  O   UNL     1       9.006  43.798  15.352  1.00  0.00    -0.545 OA
ATOM      7  O   UNL     1       7.696  44.951  16.832  1.00  0.00    -0.545 OA
ENDBRANCH   4   5
ENDBRANCH   2   3
ENDBRANCH   1   2
BRANCH   1   8
ATOM      8  C   UNL     1       4.648  40.117  14.488  1.00  0.00     0.000 C 
BRANCH   8   9
ATOM      9  C   UNL     1       4.660  40.346  12.964  1.00  0.00    -0.000 C 
BRANCH   9  10
ATOM     10  C   UNL     1       3.345  39.941  12.265  1.00  0.00    -0.003 C 
ATOM     11  C   UNL     1       3.559  39.534  10.807  1.00  0.00     0.004 C 
ENDBRANCH   9  10
ENDBRANCH   8   9
ENDBRANCH   1   8
TORSDOF 6
ENDMDL
MODEL 3
REMARK VINA RESULT:    -4.683      1.300      1.693
REMARK INTER + INTRA:          -6.607
REMARK INTER:                  -6.267
REMARK INTRA:                  -0.340
REMARK UNBOUND:                -0.281
REMARK SMILES CCCCCCC=CC(=O)[O-]
REMARK SMILES IDX 5 1 6 2 7 3 8 4 9 5 10 6 11 7 4 8 3 9 2 10 1 11
REMARK H PARENT
REMARK Flexibility Score: inf
ROOT
ATOM      1  C   UNL     1       5.232  42.030  14.189  1.00  0.00     0.004 C 
ENDROOT
BRANCH   1   2
ATOM      2  C   UNL     1       4.623  40.619  14.204  1.00  0.00     0.027 C 
BRANCH   2   3
ATOM      3  C   UNL     1       4.540  40.050  12.816  1.00  0.00    -0.025 C 
ATOM      4  C   UNL     1       3.418  40.136  12.092  1.00  0.00     0.020 C 
BRANCH   4   5
ATOM      5  C   UNL     1       3.310  39.575  10.737  1.00  0.00     0.064 C 
ATOM      6  O   UNL     1       4.200  38.811  10.274  1.00  0.00    -0.545 OA
ATOM      7  O   UNL     1       2.209  39.892   9.951  1.00  0.00    -0.545 OA
ENDBRANCH   4   5
ENDBRANCH   2   3
ENDBRANCH   1   2
BRANCH   1   8
ATOM      8  C   UNL     1       4.354  43.064  14.913  1.00  0.00     0.000 C 
BRANCH   8   9
ATOM      9  C   UNL     1       4.118  42.777  16.408  1.00  0.00    -0.000 C 
BRANCH   9  10
ATOM     10  C   UNL     1       5.342  43.077  17.299  1.00  0.00    -0.003 C 
ATOM     11  C   UNL     1       6.106  41.811  17.690  1.00  0.00     0.004 C 
ENDBRANCH   9  10
ENDBRANCH   8   9
ENDBRANCH   1   8
TORSDOF 6
ENDMDL
MODEL 4
REMARK VINA RESULT:    -4.553      4.182      6.421
REMARK INTER + INTRA:          -6.431
REMARK INTER:                  -6.037
REMARK INTRA:                  -0.394
REMARK UNBOUND:                -0.281
REMARK SMILES CCCCCCC=CC(=O)[O-]
REMARK SMILES IDX 5 1 6 2 7 3 8 4 9 5 10 6 11 7 4 8 3 9 2 10 1 11
REMARK H PARENT
REMARK Flexibility Score: inf
ROOT
ATOM      1  C   UNL     1       4.161  42.710  14.807  1.00  0.00     0.004 C 
ENDROOT
BRANCH   1   2
ATOM      2  C   UNL     1       5.068  43.948  14.888  1.00  0.00     0.027 C 
BRANCH   2   3
ATOM      3  C   UNL     1       6.488  43.561  15.188  1.00  0.00    -0.025 C 
ATOM      4  C   UNL     1       7.189  44.171  16.150  1.00  0.00     0.020 C 
BRANCH   4   5
ATOM      5  C   UNL     1       8.585  43.818  16.453  1.00  0.00     0.064 C 
ATOM      6  O   UNL     1       8.893  43.251  17.536  1.00  0.00    -0.545 OA
ATOM      7  O   UNL     1       9.581  44.116  15.532  1.00  0.00    -0.545 OA
ENDBRANCH   4   5
ENDBRANCH   2   3
ENDBRANCH   1   2
BRANCH   1   8
ATOM      8  C   UNL     1       4.848  41.435  15.322  1.00  0.00     0.000 C 
BRANCH   8   9
ATOM      9  C   UNL     1       4.495  40.152  14.546  1.00  0.00    -0.000 C 
BRANCH   9  10
ATOM     10  C   UNL     1       4.642  40.291  13.016  1.00  0.00    -0.003 C 
ATOM     11  C   UNL     1       3.350  39.957  12.271  1.00  0.00     0.004 C 
ENDBRANCH   9  10
ENDBRANCH   8   9
ENDBRANCH   1   8
TORSDOF 6
ENDMDL
MODEL 5
REMARK VINA RESULT:    -4.412     12.483     14.393
REMARK INTER + INTRA:          -6.241
REMARK INTER:                  -5.624
REMARK INTRA:                  -0.616
REMARK UNBOUND:                -0.281
REMARK SMILES CCCCCCC=CC(=O)[O-]
REMARK SMILES IDX 5 1 6 2 7 3 8 4 9 5 10 6 11 7 4 8 3 9 2 10 1 11
REMARK H PARENT
REMARK Flexibility Score: inf
ROOT
ATOM      1  C   UNL     1      -8.783  34.147  15.918  1.00  0.00     0.004 C 
ENDROOT
BRANCH   1   2
ATOM      2  C   UNL     1      -9.018  35.652  16.120  1.00  0.00     0.027 C 
BRANCH   2   3
ATOM      3  C   UNL     1      -8.144  36.195  17.213  1.00  0.00    -0.025 C 
ATOM      4  C   UNL     1      -7.152  37.054  16.952  1.00  0.00     0.020 C 
BRANCH   4   5
ATOM      5  C   UNL     1      -6.274  37.589  18.005  1.00  0.00     0.064 C 
ATOM      6  O   UNL     1      -6.665  37.669  19.201  1.00  0.00    -0.545 OA
ATOM      7  O   UNL     1      -4.994  38.015  17.676  1.00  0.00    -0.545 OA
ENDBRANCH   4   5
ENDBRANCH   2   3
ENDBRANCH   1   2
BRANCH   1   8
ATOM      8  C   UNL     1      -7.471  33.845  15.175  1.00  0.00     0.000 C 
BRANCH   8   9
ATOM      9  C   UNL     1      -7.492  34.171  13.670  1.00  0.00    -0.000 C 
BRANCH   9  10
ATOM     10  C   UNL     1      -6.322  35.067  13.212  1.00  0.00    -0.003 C 
ATOM     11  C   UNL     1      -6.690  36.551  13.202  1.00  0.00     0.004 C 
ENDBRANCH   9  10
ENDBRANCH   8   9
ENDBRANCH   1   8
TORSDOF 6
ENDMDL
MODEL 6
REMARK VINA RESULT:    -4.318      2.762      3.781
REMARK INTER + INTRA:          -6.114
REMARK INTER:                  -5.679
REMARK INTRA:                  -0.435
REMARK UNBOUND:                -0.281
REMARK SMILES CCCCCCC=CC(=O)[O-]
REMARK SMILES IDX 5 1 6 2 7 3 8 4 9 5 10 6 11 7 4 8 3 9 2 10 1 11
REMARK H PARENT
REMARK Flexibility Score: inf
ROOT
ATOM      1  C   UNL     1       5.061  44.521  16.229  1.00  0.00     0.004 C 
ENDROOT
BRANCH   1   2
ATOM      2  C   UNL     1       5.088  44.125  14.745  1.00  0.00     0.027 C 
BRANCH   2   3
ATOM      3  C   UNL     1       4.507  42.755  14.539  1.00  0.00    -0.025 C 
ATOM      4  C   UNL     1       5.108  41.852  13.757  1.00  0.00     0.020 C 
BRANCH   4   5
ATOM      5  C   UNL     1       4.551  40.509  13.530  1.00  0.00     0.064 C 
ATOM      6  O   UNL     1       4.134  39.806  14.490  1.00  0.00    -0.545 OA
ATOM      7  O   UNL     1       4.485  40.006  12.237  1.00  0.00    -0.545 OA
ENDBRANCH   4   5
ENDBRANCH   2   3
ENDBRANCH   1   2
BRANCH   1   8
ATOM      8  C   UNL     1       5.349  43.337  17.166  1.00  0.00     0.000 C 
BRANCH   8   9
ATOM      9  C   UNL     1       4.288  43.105  18.259  1.00  0.00    -0.000 C 
BRANCH   9  10
ATOM     10  C   UNL     1       2.879  43.599  17.871  1.00  0.00    -0.003 C 
ATOM     11  C   UNL     1       1.782  42.981  18.739  1.00  0.00     0.004 C 
ENDBRANCH   9  10
ENDBRANCH   8   9
ENDBRANCH   1   8
TORSDOF 6
ENDMDL
MODEL 7
REMARK VINA RESULT:    -4.303      1.917      3.324
REMARK INTER + INTRA:          -6.094
REMARK INTER:                  -5.643
REMARK INTRA:                  -0.450
REMARK UNBOUND:                -0.281
REMARK SMILES CCCCCCC=CC(=O)[O-]
REMARK SMILES IDX 5 1 6 2 7 3 8 4 9 5 10 6 11 7 4 8 3 9 2 10 1 11
REMARK H PARENT
REMARK Flexibility Score: inf
ROOT
ATOM      1  C   UNL     1       5.967  44.629  15.852  1.00  0.00     0.004 C 
ENDROOT
BRANCH   1   2
ATOM      2  C   UNL     1       4.953  44.123  14.814  1.00  0.00     0.027 C 
BRANCH   2   3
ATOM      3  C   UNL     1       5.309  42.745  14.337  1.00  0.00    -0.025 C 
ATOM      4  C   UNL     1       4.372  41.811  14.136  1.00  0.00     0.020 C 
BRANCH   4   5
ATOM      5  C   UNL     1       4.699  40.450  13.681  1.00  0.00     0.064 C 
ATOM      6  O   UNL     1       5.119  39.578  14.488  1.00  0.00    -0.545 OA
ATOM      7  O   UNL     1       4.544  40.121  12.341  1.00  0.00    -0.545 OA
ENDBRANCH   4   5
ENDBRANCH   2   3
ENDBRANCH   1   2
BRANCH   1   8
ATOM      8  C   UNL     1       6.473  43.515  16.782  1.00  0.00     0.000 C 
BRANCH   8   9
ATOM      9  C   UNL     1       8.002  43.468  16.962  1.00  0.00    -0.000 C 
BRANCH   9  10
ATOM     10  C   UNL     1       8.789  43.817  15.681  1.00  0.00    -0.003 C 
ATOM     11  C   UNL     1       9.987  44.726  15.960  1.00  0.00     0.004 C 
ENDBRANCH   9  10
ENDBRANCH   8   9
ENDBRANCH   1   8
TORSDOF 6
ENDMDL
MODEL 8
REMARK VINA RESULT:    -4.243      4.517      6.178
REMARK INTER + INTRA:          -6.012
REMARK INTER:                  -5.343
REMARK INTRA:                  -0.669
REMARK UNBOUND:                -0.281
REMARK SMILES CCCCCCC=CC(=O)[O-]
REMARK SMILES IDX 5 1 6 2 7 3 8 4 9 5 10 6 11 7 4 8 3 9 2 10 1 11
REMARK H PARENT
REMARK Flexibility Score: inf
ROOT
ATOM      1  C   UNL     1       5.019  43.929  15.650  1.00  0.00     0.004 C 
ENDROOT
BRANCH   1   2
ATOM      2  C   UNL     1       4.251  43.128  16.713  1.00  0.00     0.027 C 
BRANCH   2   3
ATOM      3  C   UNL     1       5.181  42.588  17.761  1.00  0.00    -0.025 C 
ATOM      4  C   UNL     1       6.254  41.860  17.434  1.00  0.00     0.020 C 
BRANCH   4   5
ATOM      5  C   UNL     1       7.172  41.310  18.445  1.00  0.00     0.064 C 
ATOM      6  O   UNL     1       8.339  41.766  18.582  1.00  0.00    -0.545 OA
ATOM      7  O   UNL     1       6.746  40.269  19.260  1.00  0.00    -0.545 OA
ENDBRANCH   4   5
ENDBRANCH   2   3
ENDBRANCH   1   2
BRANCH   1   8
ATOM      8  C   UNL     1       4.760  43.423  14.222  1.00  0.00     0.000 C 
BRANCH   8   9
ATOM      9  C   UNL     1       5.568  42.172  13.824  1.00  0.00    -0.000 C 
BRANCH   9  10
ATOM     10  C   UNL     1       4.692  40.946  13.492  1.00  0.00    -0.003 C 
ATOM     11  C   UNL     1       4.578  39.973  14.666  1.00  0.00     0.004 C 
ENDBRANCH   9  10
ENDBRANCH   8   9
ENDBRANCH   1   8
TORSDOF 6
ENDMDL
MODEL 9
REMARK VINA RESULT:    -4.216      4.164      6.424
REMARK INTER + INTRA:          -5.976
REMARK INTER:                  -5.678
REMARK INTRA:                  -0.297
REMARK UNBOUND:                -0.281
REMARK SMILES CCCCCCC=CC(=O)[O-]
REMARK SMILES IDX 5 1 6 2 7 3 8 4 9 5 10 6 11 7 4 8 3 9 2 10 1 11
REMARK H PARENT
REMARK Flexibility Score: inf
ROOT
ATOM      1  C   UNL     1       4.972  41.021  14.761  1.00  0.00     0.004 C 
ENDROOT
BRANCH   1   2
ATOM      2  C   UNL     1       5.237  42.288  13.932  1.00  0.00     0.027 C 
BRANCH   2   3
ATOM      3  C   UNL     1       5.183  43.518  14.792  1.00  0.00    -0.025 C 
ATOM      4  C   UNL     1       5.002  43.438  16.115  1.00  0.00     0.020 C 
BRANCH   4   5
ATOM      5  C   UNL     1       4.932  44.630  16.975  1.00  0.00     0.064 C 
ATOM      6  O   UNL     1       3.897  44.887  17.648  1.00  0.00    -0.545 OA
ATOM      7  O   UNL     1       6.021  45.488  17.045  1.00  0.00    -0.545 OA
ENDBRANCH   4   5
ENDBRANCH   2   3
ENDBRANCH   1   2
BRANCH   1   8
ATOM      8  C   UNL     1       4.428  39.859  13.913  1.00  0.00     0.000 C 
BRANCH   8   9
ATOM      9  C   UNL     1       3.617  40.287  12.675  1.00  0.00    -0.000 C 
BRANCH   9  10
ATOM     10  C   UNL     1       4.080  39.614  11.366  1.00  0.00    -0.003 C 
ATOM     11  C   UNL     1       2.983  39.591  10.301  1.00  0.00     0.004 C 
ENDBRANCH   9  10
ENDBRANCH   8   9
ENDBRANCH   1   8
TORSDOF 6
ENDMDL
