MODEL 1
REMARK VINA RESULT:    -3.389      0.000      0.000
REMARK INTER + INTRA:          -3.734
REMARK INTER:                  -3.885
REMARK INTRA:                   0.151
REMARK UNBOUND:                 0.151
REMARK SMILES CC(C)[C@@H]([NH3+])C(=O)[O-]
REMARK SMILES IDX 4 1 5 2 6 6 7 7 8 8 2 9 1 10 3 11
REMARK H PARENT 5 3 5 4 5 5
REMARK Flexibility Score: inf
ROOT
ATOM      1  C   UNL     1       1.641   2.479 -39.671  1.00  0.00     0.230 C 
ENDROOT
BRANCH   1   2
ATOM      2  N   UNL     1       1.752   1.546 -40.801  1.00  0.00    -0.350 N 
ATOM      3  H   UNL     1       1.335   1.972 -41.660  1.00  0.00     0.345 HD
ATOM      4  H   UNL     1       2.748   1.292 -40.993  1.00  0.00     0.345 HD
ATOM      5  H   UNL     1       1.222   0.671 -40.583  1.00  0.00     0.345 HD
ENDBRANCH   1   2
BRANCH   1   6
ATOM      6  C   UNL     1       0.943   1.821 -38.505  1.00  0.00     0.099 C 
ATOM      7  O   UNL     1       1.222   0.634 -38.192  1.00  0.00    -0.544 OA
ATOM      8  O   UNL     1      -0.031   2.503 -37.785  1.00  0.00    -0.544 OA
ENDBRANCH   1   6
BRANCH   1   9
ATOM      9  C   UNL     1       3.026   3.079 -39.281  1.00  0.00     0.047 C 
ATOM     10  C   UNL     1       3.910   2.117 -38.469  1.00  0.00     0.014 C 
ATOM     11  C   UNL     1       2.866   4.408 -38.527  1.00  0.00     0.014 C 
ENDBRANCH   1   9
TORSDOF 3
ENDMDL
MODEL 2
REMARK VINA RESULT:    -3.339      1.528      2.104
REMARK INTER + INTRA:          -3.676
REMARK INTER:                  -3.711
REMARK INTRA:                   0.035
REMARK UNBOUND:                 0.151
REMARK SMILES CC(C)[C@@H]([NH3+])C(=O)[O-]
REMARK SMILES IDX 4 1 5 2 6 6 7 7 8 8 2 9 1 10 3 11
REMARK H PARENT 5 3 5 4 5 5
REMARK Flexibility Score: inf
ROOT
ATOM      1  C   UNL     1       1.345   0.931 -39.104  1.00  0.00     0.230 C 
ENDROOT
BRANCH   1   2
ATOM      2  N   UNL     1       1.974  -0.372 -38.848  1.00  0.00    -0.350 N 
ATOM      3  H   UNL     1       2.894  -0.430 -39.341  1.00  0.00     0.345 HD
ATOM      4  H   UNL     1       2.121  -0.533 -37.826  1.00  0.00     0.345 HD
ATOM      5  H   UNL     1       1.360  -1.134 -39.219  1.00  0.00     0.345 HD
ENDBRANCH   1   2
BRANCH   1   6
ATOM      6  C   UNL     1       1.169   1.699 -37.815  1.00  0.00     0.099 C 
ATOM      7  O   UNL     1       1.950   1.494 -36.848  1.00  0.00    -0.544 OA
ATOM      8  O   UNL     1       0.132   2.613 -37.671  1.00  0.00    -0.544 OA
ENDBRANCH   1   6
BRANCH   1   9
ATOM      9  C   UNL     1       2.121   1.743 -40.185  1.00  0.00     0.047 C 
ATOM     10  C   UNL     1       2.941   2.911 -39.611  1.00  0.00     0.014 C 
ATOM     11  C   UNL     1       1.177   2.253 -41.284  1.00  0.00     0.014 C 
ENDBRANCH   1   9
TORSDOF 3
ENDMDL
MODEL 3
REMARK VINA RESULT:    -3.326      2.377      3.166
REMARK INTER + INTRA:          -3.662
REMARK INTER:                  -3.767
REMARK INTRA:                   0.105
REMARK UNBOUND:                 0.151
REMARK SMILES CC(C)[C@@H]([NH3+])C(=O)[O-]
REMARK SMILES IDX 4 1 5 2 6 6 7 7 8 8 2 9 1 10 3 11
REMARK H PARENT 5 3 5 4 5 5
REMARK Flexibility Score: inf
ROOT
ATOM      1  C   UNL     1       0.966   1.859 -38.628  1.00  0.00     0.230 C 
ENDROOT
BRANCH   1   2
ATOM      2  N   UNL     1       0.508   2.945 -37.751  1.00  0.00    -0.350 N 
ATOM      3  H   UNL     1       0.345   3.814 -38.311  1.00  0.00     0.345 HD
ATOM      4  H   UNL     1      -0.373   2.689 -37.251  1.00  0.00     0.345 HD
ATOM      5  H   UNL     1       1.247   3.153 -37.039  1.00  0.00     0.345 HD
ENDBRANCH   1   2
BRANCH   1   6
ATOM      6  C   UNL     1       1.772   2.409 -39.781  1.00  0.00     0.099 C 
ATOM      7  O   UNL     1       2.564   3.371 -39.593  1.00  0.00    -0.544 OA
ATOM      8  O   UNL     1       1.631   1.884 -41.060  1.00  0.00    -0.544 OA
ENDBRANCH   1   6
BRANCH   1   9
ATOM      9  C   UNL     1       1.731   0.758 -37.832  1.00  0.00     0.047 C 
ATOM     10  C   UNL     1       3.149   1.175 -37.408  1.00  0.00     0.014 C 
ATOM     11  C   UNL     1       1.783  -0.563 -38.615  1.00  0.00     0.014 C 
ENDBRANCH   1   9
TORSDOF 3
ENDMDL
MODEL 4
REMARK VINA RESULT:    -3.302      2.412      3.035
REMARK INTER + INTRA:          -3.634
REMARK INTER:                  -3.652
REMARK INTRA:                   0.019
REMARK UNBOUND:                 0.151
REMARK SMILES CC(C)[C@@H]([NH3+])C(=O)[O-]
REMARK SMILES IDX 4 1 5 2 6 6 7 7 8 8 2 9 1 10 3 11
REMARK H PARENT 5 3 5 4 5 5
REMARK Flexibility Score: inf
ROOT
ATOM      1  C   UNL     1       1.815   3.324 -38.878  1.00  0.00     0.230 C 
ENDROOT
BRANCH   1   2
ATOM      2  N   UNL     1       2.760   4.321 -38.357  1.00  0.00    -0.350 N 
ATOM      3  H   UNL     1       2.345   5.279 -38.426  1.00  0.00     0.345 HD
ATOM      4  H   UNL     1       3.012   4.127 -37.361  1.00  0.00     0.345 HD
ATOM      5  H   UNL     1       3.635   4.306 -38.930  1.00  0.00     0.345 HD
ENDBRANCH   1   2
BRANCH   1   6
ATOM      6  C   UNL     1       2.488   2.437 -39.900  1.00  0.00     0.099 C 
ATOM      7  O   UNL     1       3.737   2.277 -39.869  1.00  0.00    -0.544 OA
ATOM      8  O   UNL     1       1.746   1.815 -40.896  1.00  0.00    -0.544 OA
ENDBRANCH   1   6
BRANCH   1   9
ATOM      9  C   UNL     1       1.141   2.513 -37.731  1.00  0.00     0.047 C 
ATOM     10  C   UNL     1       1.694   1.086 -37.575  1.00  0.00     0.014 C 
ATOM     11  C   UNL     1      -0.385   2.470 -37.899  1.00  0.00     0.014 C 
ENDBRANCH   1   9
TORSDOF 3
ENDMDL
MODEL 5
REMARK VINA RESULT:    -3.273      1.859      2.336
REMARK INTER + INTRA:          -3.601
REMARK INTER:                  -3.697
REMARK INTRA:                   0.096
REMARK UNBOUND:                 0.151
REMARK SMILES CC(C)[C@@H]([NH3+])C(=O)[O-]
REMARK SMILES IDX 4 1 5 2 6 6 7 7 8 8 2 9 1 10 3 11
REMARK H PARENT 5 3 5 4 5 5
REMARK Flexibility Score: inf
ROOT
ATOM      1  C   UNL     1       1.328   2.202 -38.213  1.00  0.00     0.230 C 
ENDROOT
BRANCH   1   2
ATOM      2  N   UNL     1      -0.134   2.159 -38.355  1.00  0.00    -0.350 N 
ATOM      3  H   UNL     1      -0.520   1.332 -37.845  1.00  0.00     0.345 HD
ATOM      4  H   UNL     1      -0.580   3.030 -37.987  1.00  0.00     0.345 HD
ATOM      5  H   UNL     1      -0.383   2.061 -39.367  1.00  0.00     0.345 HD
ENDBRANCH   1   2
BRANCH   1   6
ATOM      6  C   UNL     1       1.872   0.827 -37.902  1.00  0.00     0.099 C 
ATOM      7  O   UNL     1       2.654   0.665 -36.927  1.00  0.00    -0.544 OA
ATOM      8  O   UNL     1       1.542  -0.263 -38.698  1.00  0.00    -0.544 OA
ENDBRANCH   1   6
BRANCH   1   9
ATOM      9  C   UNL     1       2.010   2.850 -39.455  1.00  0.00     0.047 C 
ATOM     10  C   UNL     1       1.676   2.146 -40.781  1.00  0.00     0.014 C 
ATOM     11  C   UNL     1       3.534   2.935 -39.275  1.00  0.00     0.014 C 
ENDBRANCH   1   9
TORSDOF 3
ENDMDL
MODEL 6
REMARK VINA RESULT:    -3.251      2.022      2.954
REMARK INTER + INTRA:          -3.575
REMARK INTER:                  -3.678
REMARK INTRA:                   0.103
REMARK UNBOUND:                 0.151
REMARK SMILES CC(C)[C@@H]([NH3+])C(=O)[O-]
REMARK SMILES IDX 4 1 5 2 6 6 7 7 8 8 2 9 1 10 3 11
REMARK H PARENT 5 3 5 4 5 5
REMARK Flexibility Score: inf
ROOT
ATOM      1  C   UNL     1       2.121   2.087 -39.609  1.00  0.00     0.230 C 
ENDROOT
BRANCH   1   2
ATOM      2  N   UNL     1       1.299   2.651 -40.689  1.00  0.00    -0.350 N 
ATOM      3  H   UNL     1       1.011   3.627 -40.447  1.00  0.00     0.345 HD
ATOM      4  H   UNL     1       1.814   2.660 -41.598  1.00  0.00     0.345 HD
ATOM      5  H   UNL     1       0.432   2.076 -40.803  1.00  0.00     0.345 HD
ENDBRANCH   1   2
BRANCH   1   6
ATOM      6  C   UNL     1       3.034   3.142 -39.029  1.00  0.00     0.099 C 
ATOM      7  O   UNL     1       4.252   2.885 -38.838  1.00  0.00    -0.544 OA
ATOM      8  O   UNL     1       2.537   4.391 -38.674  1.00  0.00    -0.544 OA
ENDBRANCH   1   6
BRANCH   1   9
ATOM      9  C   UNL     1       1.248   1.387 -38.525  1.00  0.00     0.047 C 
ATOM     10  C   UNL     1       0.233   2.324 -37.849  1.00  0.00     0.014 C 
ATOM     11  C   UNL     1       2.120   0.702 -37.461  1.00  0.00     0.014 C 
ENDBRANCH   1   9
TORSDOF 3
ENDMDL
MODEL 7
REMARK VINA RESULT:    -3.197      2.295      3.124
REMARK INTER + INTRA:          -3.514
REMARK INTER:                  -3.512
REMARK INTRA:                  -0.001
REMARK UNBOUND:                 0.151
REMARK SMILES CC(C)[C@@H]([NH3+])C(=O)[O-]
REMARK SMILES IDX 4 1 5 2 6 6 7 7 8 8 2 9 1 10 3 11
REMARK H PARENT 5 3 5 4 5 5
REMARK Flexibility Score: inf
ROOT
ATOM      1  C   UNL     1       2.120   1.928 -37.906  1.00  0.00     0.230 C 
ENDROOT
BRANCH   1   2
ATOM      2  N   UNL     1       2.744   0.618 -37.676  1.00  0.00    -0.350 N 
ATOM      3  H   UNL     1       2.226  -0.124 -38.201  1.00  0.00     0.345 HD
ATOM      4  H   UNL     1       3.746   0.612 -37.973  1.00  0.00     0.345 HD
ATOM      5  H   UNL     1       2.699   0.384 -36.656  1.00  0.00     0.345 HD
ENDBRANCH   1   2
BRANCH   1   6
ATOM      6  C   UNL     1       3.098   2.876 -38.558  1.00  0.00     0.099 C 
ATOM      7  O   UNL     1       4.073   2.422 -39.214  1.00  0.00    -0.544 OA
ATOM      8  O   UNL     1       2.953   4.251 -38.417  1.00  0.00    -0.544 OA
ENDBRANCH   1   6
BRANCH   1   9
ATOM      9  C   UNL     1       0.787   1.799 -38.703  1.00  0.00     0.047 C 
ATOM     10  C   UNL     1       0.926   2.132 -40.198  1.00  0.00     0.014 C 
ATOM     11  C   UNL     1      -0.324   2.655 -38.075  1.00  0.00     0.014 C 
ENDBRANCH   1   9
TORSDOF 3
ENDMDL
MODEL 8
REMARK VINA RESULT:    -3.175      2.488      3.457
REMARK INTER + INTRA:          -3.489
REMARK INTER:                  -3.438
REMARK INTRA:                  -0.050
REMARK UNBOUND:                 0.151
REMARK SMILES CC(C)[C@@H]([NH3+])C(=O)[O-]
REMARK SMILES IDX 4 1 5 2 6 6 7 7 8 8 2 9 1 10 3 11
REMARK H PARENT 5 3 5 4 5 5
REMARK Flexibility Score: inf
ROOT
ATOM      1  C   UNL     1       1.733   2.997 -38.921  1.00  0.00     0.230 C 
ENDROOT
BRANCH   1   2
ATOM      2  N   UNL     1       0.916   2.753 -37.725  1.00  0.00    -0.350 N 
ATOM      3  H   UNL     1       1.533   2.600 -36.894  1.00  0.00     0.345 HD
ATOM      4  H   UNL     1       0.271   3.552 -37.531  1.00  0.00     0.345 HD
ATOM      5  H   UNL     1       0.342   1.889 -37.866  1.00  0.00     0.345 HD
ENDBRANCH   1   2
BRANCH   1   6
ATOM      6  C   UNL     1       3.014   3.708 -38.554  1.00  0.00     0.099 C 
ATOM      7  O   UNL     1       3.012   4.954 -38.365  1.00  0.00    -0.544 OA
ATOM      8  O   UNL     1       4.209   3.006 -38.449  1.00  0.00    -0.544 OA
ENDBRANCH   1   6
BRANCH   1   9
ATOM      9  C   UNL     1       1.983   1.687 -39.726  1.00  0.00     0.047 C 
ATOM     10  C   UNL     1       1.234   1.633 -41.068  1.00  0.00     0.014 C 
ATOM     11  C   UNL     1       1.649   0.444 -38.887  1.00  0.00     0.014 C 
ENDBRANCH   1   9
TORSDOF 3
ENDMDL
MODEL 9
REMARK VINA RESULT:    -3.131      2.033      2.848
REMARK INTER + INTRA:          -3.437
REMARK INTER:                  -3.436
REMARK INTRA:                  -0.002
REMARK UNBOUND:                 0.151
REMARK SMILES CC(C)[C@@H]([NH3+])C(=O)[O-]
REMARK SMILES IDX 4 1 5 2 6 6 7 7 8 8 2 9 1 10 3 11
REMARK H PARENT 5 3 5 4 5 5
REMARK Flexibility Score: inf
ROOT
ATOM      1  C   UNL     1       2.738   1.923 -39.190  1.00  0.00     0.230 C 
ENDROOT
BRANCH   1   2
ATOM      2  N   UNL     1       3.655   2.918 -38.617  1.00  0.00    -0.350 N 
ATOM      3  H   UNL     1       3.198   3.405 -37.811  1.00  0.00     0.345 HD
ATOM      4  H   UNL     1       4.544   2.477 -38.291  1.00  0.00     0.345 HD
ATOM      5  H   UNL     1       3.886   3.637 -39.341  1.00  0.00     0.345 HD
ENDBRANCH   1   2
BRANCH   1   6
ATOM      6  C   UNL     1       2.449   0.827 -38.191  1.00  0.00     0.099 C 
ATOM      7  O   UNL     1       2.601   1.042 -36.959  1.00  0.00    -0.544 OA
ATOM      8  O   UNL     1       2.044  -0.432 -38.617  1.00  0.00    -0.544 OA
ENDBRANCH   1   6
BRANCH   1   9
ATOM      9  C   UNL     1       1.440   2.586 -39.744  1.00  0.00     0.047 C 
ATOM     10  C   UNL     1       0.230   2.456 -38.804  1.00  0.00     0.014 C 
ATOM     11  C   UNL     1       1.086   2.043 -41.136  1.00  0.00     0.014 C 
ENDBRANCH   1   9
TORSDOF 3
ENDMDL
