MODEL 1
REMARK VINA RESULT:    -3.813      0.000      0.000
REMARK INTER + INTRA:          -4.298
REMARK INTER:                  -4.259
REMARK INTRA:                  -0.038
REMARK UNBOUND:                -0.038
REMARK SMILES CCCC(=O)[O-]
REMARK SMILES IDX 3 1 4 2 5 3 6 4 2 5 1 6
REMARK H PARENT
REMARK Flexibility Score: inf
ROOT
ATOM      1  C   UNL     1      91.935 121.777 118.067  1.00  0.00     0.052 C 
ENDROOT
BRANCH   1   2
ATOM      2  C   UNL     1      92.868 122.494 118.995  1.00  0.00     0.041 C 
ATOM      3  O   UNL     1      93.947 122.977 118.563  1.00  0.00    -0.550 OA
ATOM      4  O   UNL     1      92.558 122.601 120.345  1.00  0.00    -0.550 OA
ENDBRANCH   1   2
BRANCH   1   5
ATOM      5  C   UNL     1      92.207 122.139 116.601  1.00  0.00     0.003 C 
ATOM      6  C   UNL     1      92.802 120.972 115.814  1.00  0.00     0.004 C 
ENDBRANCH   1   5
TORSDOF 2
ENDMDL
MODEL 2
REMARK VINA RESULT:    -3.727      0.315      1.340
REMARK INTER + INTRA:          -4.201
REMARK INTER:                  -4.164
REMARK INTRA:                  -0.037
REMARK UNBOUND:                -0.038
REMARK SMILES CCCC(=O)[O-]
REMARK SMILES IDX 3 1 4 2 5 3 6 4 2 5 1 6
REMARK H PARENT
REMARK Flexibility Score: inf
ROOT
ATOM      1  C   UNL     1      91.986 121.815 118.116  1.00  0.00     0.052 C 
ENDROOT
BRANCH   1   2
ATOM      2  C   UNL     1      93.040 122.294 119.068  1.00  0.00     0.041 C 
ATOM      3  O   UNL     1      92.740 122.576 120.257  1.00  0.00    -0.550 OA
ATOM      4  O   UNL     1      94.348 122.457 118.631  1.00  0.00    -0.550 OA
ENDBRANCH   1   2
BRANCH   1   5
ATOM      5  C   UNL     1      92.295 122.233 116.673  1.00  0.00     0.003 C 
ATOM      6  C   UNL     1      92.709 121.050 115.799  1.00  0.00     0.004 C 
ENDBRANCH   1   5
TORSDOF 2
ENDMDL
MODEL 3
REMARK VINA RESULT:    -3.691      1.199      2.007
REMARK INTER + INTRA:          -4.162
REMARK INTER:                  -4.156
REMARK INTRA:                  -0.005
REMARK UNBOUND:                -0.038
REMARK SMILES CCCC(=O)[O-]
REMARK SMILES IDX 3 1 4 2 5 3 6 4 2 5 1 6
REMARK H PARENT
REMARK Flexibility Score: inf
ROOT
ATOM      1  C   UNL     1      92.698 122.670 119.042  1.00  0.00     0.052 C 
ENDROOT
BRANCH   1   2
ATOM      2  C   UNL     1      93.436 122.267 120.282  1.00  0.00     0.041 C 
ATOM      3  O   UNL     1      92.805 121.854 121.290  1.00  0.00    -0.550 OA
ATOM      4  O   UNL     1      94.820 122.377 120.334  1.00  0.00    -0.550 OA
ENDBRANCH   1   2
BRANCH   1   5
ATOM      5  C   UNL     1      92.711 121.555 117.988  1.00  0.00     0.003 C 
ATOM      6  C   UNL     1      92.231 122.041 116.621  1.00  0.00     0.004 C 
ENDBRANCH   1   5
TORSDOF 2
ENDMDL
MODEL 4
REMARK VINA RESULT:    -3.663     15.489     16.189
REMARK INTER + INTRA:          -4.129
REMARK INTER:                  -4.109
REMARK INTRA:                  -0.021
REMARK UNBOUND:                -0.038
REMARK SMILES CCCC(=O)[O-]
REMARK SMILES IDX 3 1 4 2 5 3 6 4 2 5 1 6
REMARK H PARENT
REMARK Flexibility Score: inf
ROOT
ATOM      1  C   UNL     1      96.837 136.944 119.594  1.00  0.00     0.052 C 
ENDROOT
BRANCH   1   2
ATOM      2  C   UNL     1      98.112 136.691 120.340  1.00  0.00     0.041 C 
ATOM      3  O   UNL     1      98.846 135.717 120.030  1.00  0.00    -0.550 OA
ATOM      4  O   UNL     1      98.472 137.515 121.399  1.00  0.00    -0.550 OA
ENDBRANCH   1   2
BRANCH   1   5
ATOM      5  C   UNL     1      96.487 138.437 119.561  1.00  0.00     0.003 C 
ATOM      6  C   UNL     1      96.579 139.026 118.154  1.00  0.00     0.004 C 
ENDBRANCH   1   5
TORSDOF 2
ENDMDL
MODEL 5
REMARK VINA RESULT:    -3.553      1.867      3.245
REMARK INTER + INTRA:          -4.007
REMARK INTER:                  -3.938
REMARK INTRA:                  -0.069
REMARK UNBOUND:                -0.038
REMARK SMILES CCCC(=O)[O-]
REMARK SMILES IDX 3 1 4 2 5 3 6 4 2 5 1 6
REMARK H PARENT
REMARK Flexibility Score: inf
ROOT
ATOM      1  C   UNL     1      94.053 121.601 118.868  1.00  0.00     0.052 C 
ENDROOT
BRANCH   1   2
ATOM      2  C   UNL     1      92.888 122.288 118.222  1.00  0.00     0.041 C 
ATOM      3  O   UNL     1      92.949 123.514 117.944  1.00  0.00    -0.550 OA
ATOM      4  O   UNL     1      91.723 121.579 117.957  1.00  0.00    -0.550 OA
ENDBRANCH   1   2
BRANCH   1   5
ATOM      5  C   UNL     1      94.351 122.179 120.258  1.00  0.00     0.003 C 
ATOM      6  C   UNL     1      93.144 122.101 121.192  1.00  0.00     0.004 C 
ENDBRANCH   1   5
TORSDOF 2
ENDMDL
MODEL 6
REMARK VINA RESULT:    -3.531      7.322      8.100
REMARK INTER + INTRA:          -3.982
REMARK INTER:                  -3.971
REMARK INTRA:                  -0.011
REMARK UNBOUND:                -0.038
REMARK SMILES CCCC(=O)[O-]
REMARK SMILES IDX 3 1 4 2 5 3 6 4 2 5 1 6
REMARK H PARENT
REMARK Flexibility Score: inf
ROOT
ATOM      1  C   UNL     1      95.398 123.014 125.566  1.00  0.00     0.052 C 
ENDROOT
BRANCH   1   2
ATOM      2  C   UNL     1      96.717 123.724 125.532  1.00  0.00     0.041 C 
ATOM      3  O   UNL     1      96.823 124.841 124.963  1.00  0.00    -0.550 OA
ATOM      4  O   UNL     1      97.838 123.134 126.104  1.00  0.00    -0.550 OA
ENDBRANCH   1   2
BRANCH   1   5
ATOM      5  C   UNL     1      94.440 123.549 124.494  1.00  0.00     0.003 C 
ATOM      6  C   UNL     1      93.038 122.953 124.617  1.00  0.00     0.004 C 
ENDBRANCH   1   5
TORSDOF 2
ENDMDL
MODEL 7
REMARK VINA RESULT:    -3.526      2.105      3.330
REMARK INTER + INTRA:          -3.977
REMARK INTER:                  -3.949
REMARK INTRA:                  -0.028
REMARK UNBOUND:                -0.038
REMARK SMILES CCCC(=O)[O-]
REMARK SMILES IDX 3 1 4 2 5 3 6 4 2 5 1 6
REMARK H PARENT
REMARK Flexibility Score: inf
ROOT
ATOM      1  C   UNL     1      93.068 122.932 118.483  1.00  0.00     0.052 C 
ENDROOT
BRANCH   1   2
ATOM      2  C   UNL     1      92.381 122.112 117.434  1.00  0.00     0.041 C 
ATOM      3  O   UNL     1      92.203 120.878 117.609  1.00  0.00    -0.550 OA
ATOM      4  O   UNL     1      91.966 122.706 116.249  1.00  0.00    -0.550 OA
ENDBRANCH   1   2
BRANCH   1   5
ATOM      5  C   UNL     1      94.458 122.375 118.818  1.00  0.00     0.003 C 
ATOM      6  C   UNL     1      94.676 122.219 120.322  1.00  0.00     0.004 C 
ENDBRANCH   1   5
TORSDOF 2
ENDMDL
MODEL 8
REMARK VINA RESULT:    -3.524      6.417      7.685
REMARK INTER + INTRA:          -3.975
REMARK INTER:                  -3.965
REMARK INTRA:                  -0.009
REMARK UNBOUND:                -0.038
REMARK SMILES CCCC(=O)[O-]
REMARK SMILES IDX 3 1 4 2 5 3 6 4 2 5 1 6
REMARK H PARENT
REMARK Flexibility Score: inf
ROOT
ATOM      1  C   UNL     1      94.948 122.977 125.293  1.00  0.00     0.052 C 
ENDROOT
BRANCH   1   2
ATOM      2  C   UNL     1      93.748 123.037 124.397  1.00  0.00     0.041 C 
ATOM      3  O   UNL     1      92.589 123.011 124.886  1.00  0.00    -0.550 OA
ATOM      4  O   UNL     1      93.913 123.091 123.019  1.00  0.00    -0.550 OA
ENDBRANCH   1   2
BRANCH   1   5
ATOM      5  C   UNL     1      96.156 123.689 124.669  1.00  0.00     0.003 C 
ATOM      6  C   UNL     1      96.937 124.514 125.691  1.00  0.00     0.004 C 
ENDBRANCH   1   5
TORSDOF 2
ENDMDL
MODEL 9
REMARK VINA RESULT:    -3.520      2.370      3.669
REMARK INTER + INTRA:          -3.970
REMARK INTER:                  -3.932
REMARK INTRA:                  -0.038
REMARK UNBOUND:                -0.038
REMARK SMILES CCCC(=O)[O-]
REMARK SMILES IDX 3 1 4 2 5 3 6 4 2 5 1 6
REMARK H PARENT
REMARK Flexibility Score: inf
ROOT
ATOM      1  C   UNL     1      92.733 122.617 119.712  1.00  0.00     0.052 C 
ENDROOT
BRANCH   1   2
ATOM      2  C   UNL     1      93.849 122.218 118.796  1.00  0.00     0.041 C 
ATOM      3  O   UNL     1      93.658 121.354 117.900  1.00  0.00    -0.550 OA
ATOM      4  O   UNL     1      95.111 122.778 118.953  1.00  0.00    -0.550 OA
ENDBRANCH   1   2
BRANCH   1   5
ATOM      5  C   UNL     1      92.786 121.847 121.038  1.00  0.00     0.003 C 
ATOM      6  C   UNL     1      93.307 122.706 122.189  1.00  0.00     0.004 C 
ENDBRANCH   1   5
TORSDOF 2
ENDMDL
