MODEL 1
REMARK VINA RESULT:    -5.214      0.000      0.000
REMARK INTER + INTRA:          -7.282
REMARK INTER:                  -7.043
REMARK INTRA:                  -0.239
REMARK UNBOUND:                -0.239
REMARK SMILES CCCCCCC=CC(=O)[O-]
REMARK SMILES IDX 5 1 6 2 7 3 8 4 9 5 10 6 11 7 4 8 3 9 2 10 1 11
REMARK H PARENT
REMARK Flexibility Score: inf
ROOT
ATOM      1  C   UNL     1     -29.184  56.053   1.461  1.00  0.00     0.004 C 
ENDROOT
BRANCH   1   2
ATOM      2  C   UNL     1     -30.468  56.451   2.205  1.00  0.00     0.027 C 
BRANCH   2   3
ATOM      3  C   UNL     1     -30.156  57.265   3.428  1.00  0.00    -0.025 C 
ATOM      4  C   UNL     1     -30.918  57.200   4.525  1.00  0.00     0.020 C 
BRANCH   4   5
ATOM      5  C   UNL     1     -30.622  57.977   5.739  1.00  0.00     0.064 C 
ATOM      6  O   UNL     1     -31.544  58.377   6.497  1.00  0.00    -0.545 OA
ATOM      7  O   UNL     1     -29.302  58.274   6.054  1.00  0.00    -0.545 OA
ENDBRANCH   4   5
ENDBRANCH   2   3
ENDBRANCH   1   2
BRANCH   1   8
ATOM      8  C   UNL     1     -28.344  57.268   1.035  1.00  0.00     0.000 C 
BRANCH   8   9
ATOM      9  C   UNL     1     -27.214  56.894   0.061  1.00  0.00    -0.000 C 
BRANCH   9  10
ATOM     10  C   UNL     1     -27.594  57.151  -1.406  1.00  0.00    -0.003 C 
ATOM     11  C   UNL     1     -28.935  57.870  -1.555  1.00  0.00     0.004 C 
ENDBRANCH   9  10
ENDBRANCH   8   9
ENDBRANCH   1   8
TORSDOF 6
ENDMDL
MODEL 2
REMARK VINA RESULT:    -5.201      1.262      1.712
REMARK INTER + INTRA:          -7.265
REMARK INTER:                  -6.912
REMARK INTRA:                  -0.353
REMARK UNBOUND:                -0.239
REMARK SMILES CCCCCCC=CC(=O)[O-]
REMARK SMILES IDX 5 1 6 2 7 3 8 4 9 5 10 6 11 7 4 8 3 9 2 10 1 11
REMARK H PARENT
REMARK Flexibility Score: inf
ROOT
ATOM      1  C   UNL     1     -28.983  57.899   2.493  1.00  0.00     0.004 C 
ENDROOT
BRANCH   1   2
ATOM      2  C   UNL     1     -30.170  56.993   2.857  1.00  0.00     0.027 C 
BRANCH   2   3
ATOM      3  C   UNL     1     -30.618  57.229   4.270  1.00  0.00    -0.025 C 
ATOM      4  C   UNL     1     -30.003  58.116   5.061  1.00  0.00     0.020 C 
BRANCH   4   5
ATOM      5  C   UNL     1     -30.435  58.374   6.443  1.00  0.00     0.064 C 
ATOM      6  O   UNL     1     -31.651  58.545   6.724  1.00  0.00    -0.545 OA
ATOM      7  O   UNL     1     -29.486  58.430   7.456  1.00  0.00    -0.545 OA
ENDBRANCH   4   5
ENDBRANCH   2   3
ENDBRANCH   1   2
BRANCH   1   8
ATOM      8  C   UNL     1     -29.349  58.959   1.441  1.00  0.00     0.000 C 
BRANCH   8   9
ATOM      9  C   UNL     1     -30.205  58.389   0.298  1.00  0.00    -0.000 C 
BRANCH   9  10
ATOM     10  C   UNL     1     -29.429  58.287  -1.024  1.00  0.00    -0.003 C 
ATOM     11  C   UNL     1     -28.240  57.330  -0.942  1.00  0.00     0.004 C 
ENDBRANCH   9  10
ENDBRANCH   8   9
ENDBRANCH   1   8
TORSDOF 6
ENDMDL
MODEL 3
REMARK VINA RESULT:    -5.179      3.475      5.380
REMARK INTER + INTRA:          -7.234
REMARK INTER:                  -6.653
REMARK INTRA:                  -0.581
REMARK UNBOUND:                -0.239
REMARK SMILES CCCCCCC=CC(=O)[O-]
REMARK SMILES IDX 5 1 6 2 7 3 8 4 9 5 10 6 11 7 4 8 3 9 2 10 1 11
REMARK H PARENT
REMARK Flexibility Score: inf
ROOT
ATOM      1  C   UNL     1     -30.115  57.515   2.401  1.00  0.00     0.004 C 
ENDROOT
BRANCH   1   2
ATOM      2  C   UNL     1     -29.955  56.112   1.795  1.00  0.00     0.027 C 
BRANCH   2   3
ATOM      3  C   UNL     1     -28.627  55.966   1.110  1.00  0.00    -0.025 C 
ATOM      4  C   UNL     1     -27.913  57.033   0.731  1.00  0.00     0.020 C 
BRANCH   4   5
ATOM      5  C   UNL     1     -26.604  56.912   0.072  1.00  0.00     0.064 C 
ATOM      6  O   UNL     1     -26.504  56.906  -1.183  1.00  0.00    -0.545 OA
ATOM      7  O   UNL     1     -25.456  56.805   0.849  1.00  0.00    -0.545 OA
ENDBRANCH   4   5
ENDBRANCH   2   3
ENDBRANCH   1   2
BRANCH   1   8
ATOM      8  C   UNL     1     -30.194  57.493   3.936  1.00  0.00     0.000 C 
BRANCH   8   9
ATOM      9  C   UNL     1     -29.013  58.222   4.600  1.00  0.00    -0.000 C 
BRANCH   9  10
ATOM     10  C   UNL     1     -28.080  58.884   3.574  1.00  0.00    -0.003 C 
ATOM     11  C   UNL     1     -26.600  58.645   3.877  1.00  0.00     0.004 C 
ENDBRANCH   9  10
ENDBRANCH   8   9
ENDBRANCH   1   8
TORSDOF 6
ENDMDL
MODEL 4
REMARK VINA RESULT:    -5.125      4.769      6.904
REMARK INTER + INTRA:          -7.162
REMARK INTER:                  -6.796
REMARK INTRA:                  -0.366
REMARK UNBOUND:                -0.239
REMARK SMILES CCCCCCC=CC(=O)[O-]
REMARK SMILES IDX 5 1 6 2 7 3 8 4 9 5 10 6 11 7 4 8 3 9 2 10 1 11
REMARK H PARENT
REMARK Flexibility Score: inf
ROOT
ATOM      1  C   UNL     1     -28.267  56.877   0.800  1.00  0.00     0.004 C 
ENDROOT
BRANCH   1   2
ATOM      2  C   UNL     1     -28.983  57.740  -0.250  1.00  0.00     0.027 C 
BRANCH   2   3
ATOM      3  C   UNL     1     -28.493  57.427  -1.634  1.00  0.00    -0.025 C 
ATOM      4  C   UNL     1     -27.209  57.137  -1.873  1.00  0.00     0.020 C 
BRANCH   4   5
ATOM      5  C   UNL     1     -26.710  56.813  -3.219  1.00  0.00     0.064 C 
ATOM      6  O   UNL     1     -25.478  56.831  -3.479  1.00  0.00    -0.545 OA
ATOM      7  O   UNL     1     -27.615  56.480  -4.220  1.00  0.00    -0.545 OA
ENDBRANCH   4   5
ENDBRANCH   2   3
ENDBRANCH   1   2
BRANCH   1   8
ATOM      8  C   UNL     1     -29.220  55.911   1.524  1.00  0.00     0.000 C 
BRANCH   8   9
ATOM      9  C   UNL     1     -30.575  56.557   1.857  1.00  0.00    -0.000 C 
BRANCH   9  10
ATOM     10  C   UNL     1     -30.787  56.733   3.369  1.00  0.00    -0.003 C 
ATOM     11  C   UNL     1     -29.860  57.783   3.980  1.00  0.00     0.004 C 
ENDBRANCH   9  10
ENDBRANCH   8   9
ENDBRANCH   1   8
TORSDOF 6
ENDMDL
MODEL 5
REMARK VINA RESULT:    -5.048      4.196      6.607
REMARK INTER + INTRA:          -7.057
REMARK INTER:                  -6.827
REMARK INTRA:                  -0.230
REMARK UNBOUND:                -0.239
REMARK SMILES CCCCCCC=CC(=O)[O-]
REMARK SMILES IDX 5 1 6 2 7 3 8 4 9 5 10 6 11 7 4 8 3 9 2 10 1 11
REMARK H PARENT
REMARK Flexibility Score: inf
ROOT
ATOM      1  C   UNL     1     -29.410  55.903   1.691  1.00  0.00     0.004 C 
ENDROOT
BRANCH   1   2
ATOM      2  C   UNL     1     -28.552  57.127   1.336  1.00  0.00     0.027 C 
BRANCH   2   3
ATOM      3  C   UNL     1     -27.743  56.880   0.095  1.00  0.00    -0.025 C 
ATOM      4  C   UNL     1     -28.136  57.336  -1.099  1.00  0.00     0.020 C 
BRANCH   4   5
ATOM      5  C   UNL     1     -27.352  57.119  -2.325  1.00  0.00     0.064 C 
ATOM      6  O   UNL     1     -26.093  57.125  -2.301  1.00  0.00    -0.545 OA
ATOM      7  O   UNL     1     -28.011  56.901  -3.528  1.00  0.00    -0.545 OA
ENDBRANCH   4   5
ENDBRANCH   2   3
ENDBRANCH   1   2
BRANCH   1   8
ATOM      8  C   UNL     1     -30.410  56.189   2.824  1.00  0.00     0.000 C 
BRANCH   8   9
ATOM      9  C   UNL     1     -30.104  57.502   3.565  1.00  0.00    -0.000 C 
BRANCH   9  10
ATOM     10  C   UNL     1     -30.826  57.595   4.919  1.00  0.00    -0.003 C 
ATOM     11  C   UNL     1     -30.036  58.390   5.959  1.00  0.00     0.004 C 
ENDBRANCH   9  10
ENDBRANCH   8   9
ENDBRANCH   1   8
TORSDOF 6
ENDMDL
MODEL 6
REMARK VINA RESULT:    -5.020      7.451      9.298
REMARK INTER + INTRA:          -7.020
REMARK INTER:                  -6.705
REMARK INTRA:                  -0.316
REMARK UNBOUND:                -0.239
REMARK SMILES CCCCCCC=CC(=O)[O-]
REMARK SMILES IDX 5 1 6 2 7 3 8 4 9 5 10 6 11 7 4 8 3 9 2 10 1 11
REMARK H PARENT
REMARK Flexibility Score: inf
ROOT
ATOM      1  C   UNL     1     -24.160  58.406   3.040  1.00  0.00     0.004 C 
ENDROOT
BRANCH   1   2
ATOM      2  C   UNL     1     -23.084  59.501   2.987  1.00  0.00     0.027 C 
BRANCH   2   3
ATOM      3  C   UNL     1     -22.637  59.754   1.576  1.00  0.00    -0.025 C 
ATOM      4  C   UNL     1     -21.693  60.659   1.292  1.00  0.00     0.020 C 
BRANCH   4   5
ATOM      5  C   UNL     1     -21.230  60.911  -0.081  1.00  0.00     0.064 C 
ATOM      6  O   UNL     1     -20.014  60.801  -0.389  1.00  0.00    -0.545 OA
ATOM      7  O   UNL     1     -22.150  61.278  -1.056  1.00  0.00    -0.545 OA
ENDBRANCH   4   5
ENDBRANCH   2   3
ENDBRANCH   1   2
BRANCH   1   8
ATOM      8  C   UNL     1     -23.758  57.222   3.934  1.00  0.00     0.000 C 
BRANCH   8   9
ATOM      9  C   UNL     1     -22.406  57.442   4.634  1.00  0.00    -0.000 C 
BRANCH   9  10
ATOM     10  C   UNL     1     -22.259  56.596   5.908  1.00  0.00    -0.003 C 
ATOM     11  C   UNL     1     -23.603  56.141   6.477  1.00  0.00     0.004 C 
ENDBRANCH   9  10
ENDBRANCH   8   9
ENDBRANCH   1   8
TORSDOF 6
ENDMDL
MODEL 7
REMARK VINA RESULT:    -4.928      4.106      5.841
REMARK INTER + INTRA:          -6.896
REMARK INTER:                  -6.494
REMARK INTRA:                  -0.402
REMARK UNBOUND:                -0.239
REMARK SMILES CCCCCCC=CC(=O)[O-]
REMARK SMILES IDX 5 1 6 2 7 3 8 4 9 5 10 6 11 7 4 8 3 9 2 10 1 11
REMARK H PARENT
REMARK Flexibility Score: inf
ROOT
ATOM      1  C   UNL     1     -29.942  56.527   2.244  1.00  0.00     0.004 C 
ENDROOT
BRANCH   1   2
ATOM      2  C   UNL     1     -30.739  56.893   0.983  1.00  0.00     0.027 C 
BRANCH   2   3
ATOM      3  C   UNL     1     -29.900  57.688   0.024  1.00  0.00    -0.025 C 
ATOM      4  C   UNL     1     -29.721  57.294  -1.242  1.00  0.00     0.020 C 
BRANCH   4   5
ATOM      5  C   UNL     1     -28.915  58.064  -2.202  1.00  0.00     0.064 C 
ATOM      6  O   UNL     1     -29.272  59.212  -2.579  1.00  0.00    -0.545 OA
ATOM      7  O   UNL     1     -27.740  57.517  -2.702  1.00  0.00    -0.545 OA
ENDBRANCH   4   5
ENDBRANCH   2   3
ENDBRANCH   1   2
BRANCH   1   8
ATOM      8  C   UNL     1     -30.489  57.208   3.510  1.00  0.00     0.000 C 
BRANCH   8   9
ATOM      9  C   UNL     1     -29.421  58.035   4.245  1.00  0.00    -0.000 C 
BRANCH   9  10
ATOM     10  C   UNL     1     -28.465  58.752   3.279  1.00  0.00    -0.003 C 
ATOM     11  C   UNL     1     -27.001  58.652   3.710  1.00  0.00     0.004 C 
ENDBRANCH   9  10
ENDBRANCH   8   9
ENDBRANCH   1   8
TORSDOF 6
ENDMDL
MODEL 8
REMARK VINA RESULT:    -4.871      3.421      6.025
REMARK INTER + INTRA:          -6.819
REMARK INTER:                  -6.580
REMARK INTRA:                  -0.238
REMARK UNBOUND:                -0.239
REMARK SMILES CCCCCCC=CC(=O)[O-]
REMARK SMILES IDX 5 1 6 2 7 3 8 4 9 5 10 6 11 7 4 8 3 9 2 10 1 11
REMARK H PARENT
REMARK Flexibility Score: inf
ROOT
ATOM      1  C   UNL     1     -30.217  57.700   2.306  1.00  0.00     0.004 C 
ENDROOT
BRANCH   1   2
ATOM      2  C   UNL     1     -30.224  57.219   0.846  1.00  0.00     0.027 C 
BRANCH   2   3
ATOM      3  C   UNL     1     -28.857  57.326   0.234  1.00  0.00    -0.025 C 
ATOM      4  C   UNL     1     -27.790  56.746   0.796  1.00  0.00     0.020 C 
BRANCH   4   5
ATOM      5  C   UNL     1     -26.446  56.826   0.205  1.00  0.00     0.064 C 
ATOM      6  O   UNL     1     -25.414  56.771   0.925  1.00  0.00    -0.545 OA
ATOM      7  O   UNL     1     -26.312  56.962  -1.171  1.00  0.00    -0.545 OA
ENDBRANCH   4   5
ENDBRANCH   2   3
ENDBRANCH   1   2
BRANCH   1   8
ATOM      8  C   UNL     1     -30.590  56.588   3.299  1.00  0.00     0.000 C 
BRANCH   8   9
ATOM      9  C   UNL     1     -31.213  57.136   4.594  1.00  0.00    -0.000 C 
BRANCH   9  10
ATOM     10  C   UNL     1     -30.252  58.052   5.367  1.00  0.00    -0.003 C 
ATOM     11  C   UNL     1     -30.829  58.528   6.700  1.00  0.00     0.004 C 
ENDBRANCH   9  10
ENDBRANCH   8   9
ENDBRANCH   1   8
TORSDOF 6
ENDMDL
MODEL 9
REMARK VINA RESULT:    -4.838     10.998     13.578
REMARK INTER + INTRA:          -6.774
REMARK INTER:                  -6.529
REMARK INTRA:                  -0.245
REMARK UNBOUND:                -0.239
REMARK SMILES CCCCCCC=CC(=O)[O-]
REMARK SMILES IDX 5 1 6 2 7 3 8 4 9 5 10 6 11 7 4 8 3 9 2 10 1 11
REMARK H PARENT
REMARK Flexibility Score: inf
ROOT
ATOM      1  C   UNL     1     -17.391  58.513  -5.696  1.00  0.00     0.004 C 
ENDROOT
BRANCH   1   2
ATOM      2  C   UNL     1     -18.623  58.781  -6.574  1.00  0.00     0.027 C 
BRANCH   2   3
ATOM      3  C   UNL     1     -19.777  57.912  -6.167  1.00  0.00    -0.025 C 
ATOM      4  C   UNL     1     -20.724  58.352  -5.331  1.00  0.00     0.020 C 
BRANCH   4   5
ATOM      5  C   UNL     1     -21.872  57.523  -4.931  1.00  0.00     0.064 C 
ATOM      6  O   UNL     1     -23.013  58.029  -4.761  1.00  0.00    -0.545 OA
ATOM      7  O   UNL     1     -21.694  56.158  -4.739  1.00  0.00    -0.545 OA
ENDBRANCH   4   5
ENDBRANCH   2   3
ENDBRANCH   1   2
BRANCH   1   8
ATOM      8  C   UNL     1     -17.274  59.499  -4.521  1.00  0.00     0.000 C 
BRANCH   8   9
ATOM      9  C   UNL     1     -15.947  60.276  -4.531  1.00  0.00    -0.000 C 
BRANCH   9  10
ATOM     10  C   UNL     1     -15.675  60.991  -3.198  1.00  0.00    -0.003 C 
ATOM     11  C   UNL     1     -16.619  60.544  -2.081  1.00  0.00     0.004 C 
ENDBRANCH   9  10
ENDBRANCH   8   9
ENDBRANCH   1   8
TORSDOF 6
ENDMDL
