MODEL 1
REMARK VINA RESULT:    -5.295      0.000      0.000
REMARK INTER + INTRA:          -6.566
REMARK INTER:                  -6.533
REMARK INTRA:                  -0.033
REMARK UNBOUND:                -0.033
REMARK SMILES COc1cc(-c2oc3cc(O)cc(O)c3c(=O)c2O)ccc1O
REMARK SMILES IDX 6 1 18 2 16 3 17 4 15 5 13 6 12 7 10 8 9 9 8 10 7 11 5 12
REMARK SMILES IDX 3 13 22 14 4 15 21 16 20 17 2 18 1 19 23 20 19 22 14 24
REMARK SMILES IDX 11 26
REMARK H PARENT 23 21 19 23 14 25 11 27
REMARK Flexibility Score: inf
ROOT
ATOM      1  C   UNL     1       4.155   1.284   8.626  1.00  0.00     0.180 A 
ATOM      2  C   UNL     1       4.877   0.747   9.705  1.00  0.00     0.208 A 
ATOM      3  C   UNL     1       4.666  -0.593  10.068  1.00  0.00     0.238 A 
ATOM      4  O   UNL     1       5.355  -1.083  11.000  1.00  0.00    -0.285 OA
ATOM      5  C   UNL     1       3.722  -1.374   9.359  1.00  0.00     0.111 A 
ATOM      6  C   UNL     1       3.397  -2.729   9.666  1.00  0.00     0.134 A 
ATOM      7  C   UNL     1       2.546  -3.446   8.817  1.00  0.00     0.093 A 
ATOM      8  C   UNL     1       1.955  -2.834   7.707  1.00  0.00     0.123 A 
ATOM      9  C   UNL     1       2.219  -1.495   7.433  1.00  0.00     0.094 A 
ATOM     10  C   UNL     1       3.093  -0.765   8.242  1.00  0.00     0.146 A 
ATOM     11  O   UNL     1       3.325   0.506   7.939  1.00  0.00    -0.452 OA
ENDROOT
BRANCH   1  12
ATOM     12  C   UNL     1       4.306   2.694   8.200  1.00  0.00     0.025 A 
ATOM     13  C   UNL     1       3.524   5.012   8.155  1.00  0.00     0.161 A 
ATOM     14  C   UNL     1       4.605   5.350   7.320  1.00  0.00     0.157 A 
ATOM     15  C   UNL     1       3.377   3.678   8.585  1.00  0.00     0.062 A 
ATOM     16  C   UNL     1       5.514   4.367   6.920  1.00  0.00     0.051 A 
ATOM     17  C   UNL     1       5.363   3.047   7.350  1.00  0.00     0.016 A 
BRANCH  13  18
ATOM     18  O   UNL     1       2.619   6.017   8.531  1.00  0.00    -0.493 OA
ATOM     19  C   UNL     1       1.900   6.839   7.619  1.00  0.00     0.278 C 
ENDBRANCH  13  18
BRANCH  14  20
ATOM     20  O   UNL     1       4.790   6.658   6.875  1.00  0.00    -0.504 OA
ATOM     21  H   UNL     1       5.642   7.175   7.057  1.00  0.00     0.293 HD
ENDBRANCH  14  20
ENDBRANCH   1  12
BRANCH   2  22
ATOM     22  O   UNL     1       5.820   1.530  10.378  1.00  0.00    -0.502 OA
ATOM     23  H   UNL     1       6.495   2.107   9.891  1.00  0.00     0.293 HD
ENDBRANCH   2  22
BRANCH   6  24
ATOM     24  O   UNL     1       3.860  -3.405  10.799  1.00  0.00    -0.507 OA
ATOM     25  H   UNL     1       3.550  -4.321  11.088  1.00  0.00     0.293 HD
ENDBRANCH   6  24
BRANCH   8  26
ATOM     26  O   UNL     1       1.096  -3.550   6.875  1.00  0.00    -0.508 OA
ATOM     27  H   UNL     1       1.447  -4.206   6.188  1.00  0.00     0.293 HD
ENDBRANCH   8  26
TORSDOF 6
ENDMDL
MODEL 2
REMARK VINA RESULT:    -2.915      3.456      9.041
REMARK INTER + INTRA:          -3.629
REMARK INTER:                  -4.177
REMARK INTRA:                   0.547
REMARK UNBOUND:                -0.033
REMARK SMILES COc1cc(-c2oc3cc(O)cc(O)c3c(=O)c2O)ccc1O
REMARK SMILES IDX 6 1 18 2 16 3 17 4 15 5 13 6 12 7 10 8 9 9 8 10 7 11 5 12
REMARK SMILES IDX 3 13 22 14 4 15 21 16 20 17 2 18 1 19 23 20 19 22 14 24
REMARK SMILES IDX 11 26
REMARK H PARENT 23 21 19 23 14 25 11 27
REMARK Flexibility Score: inf
ROOT
ATOM      1  C   UNL     1       2.166   7.298   7.175  1.00  0.00     0.180 A 
ATOM      2  C   UNL     1       2.530   8.646   7.014  1.00  0.00     0.208 A 
ATOM      3  C   UNL     1       1.529   9.630   7.035  1.00  0.00     0.238 A 
ATOM      4  O   UNL     1       1.867  10.839   6.945  1.00  0.00    -0.285 OA
ATOM      5  C   UNL     1       0.174   9.253   7.198  1.00  0.00     0.111 A 
ATOM      6  C   UNL     1      -0.926  10.161   7.194  1.00  0.00     0.134 A 
ATOM      7  C   UNL     1      -2.211   9.693   7.496  1.00  0.00     0.093 A 
ATOM      8  C   UNL     1      -2.443   8.336   7.737  1.00  0.00     0.123 A 
ATOM      9  C   UNL     1      -1.386   7.432   7.685  1.00  0.00     0.094 A 
ATOM     10  C   UNL     1      -0.087   7.876   7.422  1.00  0.00     0.146 A 
ATOM     11  O   UNL     1       0.894   6.982   7.392  1.00  0.00    -0.452 OA
ENDROOT
BRANCH   1  12
ATOM     12  C   UNL     1       3.163   6.204   7.140  1.00  0.00     0.025 A 
ATOM     13  C   UNL     1       3.760   3.844   7.387  1.00  0.00     0.161 A 
ATOM     14  C   UNL     1       5.103   4.166   7.116  1.00  0.00     0.157 A 
ATOM     15  C   UNL     1       2.797   4.872   7.405  1.00  0.00     0.062 A 
ATOM     16  C   UNL     1       5.470   5.493   6.875  1.00  0.00     0.051 A 
ATOM     17  C   UNL     1       4.509   6.506   6.894  1.00  0.00     0.016 A 
BRANCH  13  18
ATOM     18  O   UNL     1       3.423   2.505   7.638  1.00  0.00    -0.493 OA
ATOM     19  C   UNL     1       3.628   1.838   8.879  1.00  0.00     0.278 C 
ENDBRANCH  13  18
BRANCH  14  20
ATOM     20  O   UNL     1       6.088   3.180   7.085  1.00  0.00    -0.504 OA
ATOM     21  H   UNL     1       6.203   2.555   6.296  1.00  0.00     0.293 HD
ENDBRANCH  14  20
ENDBRANCH   1  12
BRANCH   2  22
ATOM     22  O   UNL     1       3.876   8.998   6.876  1.00  0.00    -0.502 OA
ATOM     23  H   UNL     1       4.595   8.322   6.647  1.00  0.00     0.293 HD
ENDBRANCH   2  22
BRANCH   6  24
ATOM     24  O   UNL     1      -0.817  11.518   6.875  1.00  0.00    -0.507 OA
ATOM     25  H   UNL     1      -0.162  12.157   7.300  1.00  0.00     0.293 HD
ENDBRANCH   6  24
BRANCH   8  26
ATOM     26  O   UNL     1      -3.727   7.875   8.021  1.00  0.00    -0.508 OA
ATOM     27  H   UNL     1      -4.199   8.116   8.886  1.00  0.00     0.293 HD
ENDBRANCH   8  26
TORSDOF 6
ENDMDL
MODEL 3
REMARK VINA RESULT:    -2.760      1.514      7.169
REMARK INTER + INTRA:          -3.438
REMARK INTER:                  -3.348
REMARK INTRA:                  -0.091
REMARK UNBOUND:                -0.033
REMARK SMILES COc1cc(-c2oc3cc(O)cc(O)c3c(=O)c2O)ccc1O
REMARK SMILES IDX 6 1 18 2 16 3 17 4 15 5 13 6 12 7 10 8 9 9 8 10 7 11 5 12
REMARK SMILES IDX 3 13 22 14 4 15 21 16 20 17 2 18 1 19 23 20 19 22 14 24
REMARK SMILES IDX 11 26
REMARK H PARENT 23 21 19 23 14 25 11 27
REMARK Flexibility Score: inf
ROOT
ATOM      1  C   UNL     1       4.302   1.295   8.358  1.00  0.00     0.180 A 
ATOM      2  C   UNL     1       5.565   1.677   7.874  1.00  0.00     0.208 A 
ATOM      3  C   UNL     1       5.810   3.032   7.604  1.00  0.00     0.238 A 
ATOM      4  O   UNL     1       6.960   3.375   7.222  1.00  0.00    -0.285 OA
ATOM      5  C   UNL     1       4.784   3.987   7.804  1.00  0.00     0.111 A 
ATOM      6  C   UNL     1       4.908   5.381   7.525  1.00  0.00     0.134 A 
ATOM      7  C   UNL     1       3.874   6.253   7.884  1.00  0.00     0.093 A 
ATOM      8  C   UNL     1       2.692   5.772   8.454  1.00  0.00     0.123 A 
ATOM      9  C   UNL     1       2.537   4.406   8.676  1.00  0.00     0.094 A 
ATOM     10  C   UNL     1       3.567   3.515   8.361  1.00  0.00     0.146 A 
ATOM     11  O   UNL     1       3.382   2.223   8.598  1.00  0.00    -0.452 OA
ENDROOT
BRANCH   1  12
ATOM     12  C   UNL     1       3.961  -0.118   8.642  1.00  0.00     0.025 A 
ATOM     13  C   UNL     1       3.157  -2.313   7.921  1.00  0.00     0.161 A 
ATOM     14  C   UNL     1       3.274  -2.780   9.243  1.00  0.00     0.157 A 
ATOM     15  C   UNL     1       3.496  -0.976   7.630  1.00  0.00     0.062 A 
ATOM     16  C   UNL     1       3.715  -1.919  10.252  1.00  0.00     0.051 A 
ATOM     17  C   UNL     1       4.050  -0.596   9.957  1.00  0.00     0.016 A 
BRANCH  13  18
ATOM     18  O   UNL     1       2.699  -3.196   6.930  1.00  0.00    -0.493 OA
ATOM     19  C   UNL     1       1.449  -3.875   6.967  1.00  0.00     0.278 C 
ENDBRANCH  13  18
BRANCH  14  20
ATOM     20  O   UNL     1       2.953  -4.095   9.574  1.00  0.00    -0.504 OA
ATOM     21  H   UNL     1       3.640  -4.744   9.939  1.00  0.00     0.293 HD
ENDBRANCH  14  20
ENDBRANCH   1  12
BRANCH   2  22
ATOM     22  O   UNL     1       6.570   0.720   7.704  1.00  0.00    -0.502 OA
ATOM     23  H   UNL     1       7.449   0.931   7.247  1.00  0.00     0.293 HD
ENDBRANCH   2  22
BRANCH   6  24
ATOM     24  O   UNL     1       6.007   5.952   6.875  1.00  0.00    -0.507 OA
ATOM     25  H   UNL     1       6.971   5.772   7.111  1.00  0.00     0.293 HD
ENDBRANCH   6  24
BRANCH   8  26
ATOM     26  O   UNL     1       1.661   6.644   8.795  1.00  0.00    -0.508 OA
ATOM     27  H   UNL     1       1.420   7.435   8.209  1.00  0.00     0.293 HD
ENDBRANCH   8  26
TORSDOF 6
ENDMDL
MODEL 4
REMARK VINA RESULT:    -2.709      1.896      2.759
REMARK INTER + INTRA:          -3.376
REMARK INTER:                  -4.428
REMARK INTRA:                   1.053
REMARK UNBOUND:                -0.033
REMARK SMILES COc1cc(-c2oc3cc(O)cc(O)c3c(=O)c2O)ccc1O
REMARK SMILES IDX 6 1 18 2 16 3 17 4 15 5 13 6 12 7 10 8 9 9 8 10 7 11 5 12
REMARK SMILES IDX 3 13 22 14 4 15 21 16 20 17 2 18 1 19 23 20 19 22 14 24
REMARK SMILES IDX 11 26
REMARK H PARENT 23 21 19 23 14 25 11 27
REMARK Flexibility Score: inf
ROOT
ATOM      1  C   UNL     1       4.523   3.021   8.034  1.00  0.00     0.180 A 
ATOM      2  C   UNL     1       5.778   2.589   7.571  1.00  0.00     0.208 A 
ATOM      3  C   UNL     1       6.161   1.255   7.783  1.00  0.00     0.238 A 
ATOM      4  O   UNL     1       7.263   0.861   7.319  1.00  0.00    -0.285 OA
ATOM      5  C   UNL     1       5.293   0.374   8.471  1.00  0.00     0.111 A 
ATOM      6  C   UNL     1       5.595  -0.986   8.778  1.00  0.00     0.134 A 
ATOM      7  C   UNL     1       4.609  -1.803   9.345  1.00  0.00     0.093 A 
ATOM      8  C   UNL     1       3.353  -1.288   9.678  1.00  0.00     0.123 A 
ATOM      9  C   UNL     1       3.068   0.053   9.437  1.00  0.00     0.094 A 
ATOM     10  C   UNL     1       4.020   0.883   8.838  1.00  0.00     0.146 A 
ATOM     11  O   UNL     1       3.704   2.153   8.617  1.00  0.00    -0.452 OA
ENDROOT
BRANCH   1  12
ATOM     12  C   UNL     1       4.060   4.418   7.868  1.00  0.00     0.025 A 
ATOM     13  C   UNL     1       2.428   6.194   8.275  1.00  0.00     0.161 A 
ATOM     14  C   UNL     1       3.193   7.066   7.479  1.00  0.00     0.157 A 
ATOM     15  C   UNL     1       2.865   4.867   8.458  1.00  0.00     0.062 A 
ATOM     16  C   UNL     1       4.369   6.612   6.875  1.00  0.00     0.051 A 
ATOM     17  C   UNL     1       4.797   5.296   7.061  1.00  0.00     0.016 A 
BRANCH  13  18
ATOM     18  O   UNL     1       1.245   6.674   8.859  1.00  0.00    -0.493 OA
ATOM     19  C   UNL     1       0.322   7.546   8.215  1.00  0.00     0.278 C 
ENDBRANCH  13  18
BRANCH  14  20
ATOM     20  O   UNL     1       2.800   8.388   7.274  1.00  0.00    -0.504 OA
ATOM     21  H   UNL     1       3.009   8.888   6.418  1.00  0.00     0.293 HD
ENDBRANCH  14  20
ENDBRANCH   1  12
BRANCH   2  22
ATOM     22  O   UNL     1       6.611   3.470   6.875  1.00  0.00    -0.502 OA
ATOM     23  H   UNL     1       6.762   3.401   5.876  1.00  0.00     0.293 HD
ENDBRANCH   2  22
BRANCH   6  24
ATOM     24  O   UNL     1       6.847  -1.573   8.571  1.00  0.00    -0.507 OA
ATOM     25  H   UNL     1       7.623  -1.513   9.213  1.00  0.00     0.293 HD
ENDBRANCH   6  24
BRANCH   8  26
ATOM     26  O   UNL     1       2.383  -2.103  10.258  1.00  0.00    -0.508 OA
ATOM     27  H   UNL     1       1.639  -1.719  10.829  1.00  0.00     0.293 HD
ENDBRANCH   8  26
TORSDOF 6
ENDMDL
