MODEL 1
REMARK VINA RESULT:    -2.487      0.000      0.000
REMARK INTER + INTRA:          -2.487
REMARK INTER:                  -2.487
REMARK INTRA:                   0.000
REMARK UNBOUND:                 0.000
REMARK SMILES CC(=O)[O-]
REMARK SMILES IDX 1 1 2 2 3 3 4 4
REMARK H PARENT
REMARK Flexibility Score: inf
ROOT
ATOM      1  C   UNL     1     -22.203  57.140  43.992  1.00  0.00     0.063 C 
ATOM      2  C   UNL     1     -21.672  56.082  44.899  1.00  0.00     0.038 C 
ATOM      3  O   UNL     1     -22.389  55.093  45.204  1.00  0.00    -0.550 OA
ATOM      4  O   UNL     1     -20.366  56.156  45.365  1.00  0.00    -0.550 OA
ENDROOT
TORSDOF 0
ENDMDL
MODEL 2
REMARK VINA RESULT:    -2.482     10.450     11.083
REMARK INTER + INTRA:          -2.482
REMARK INTER:                  -2.482
REMARK INTRA:                   0.000
REMARK UNBOUND:                 0.000
REMARK SMILES CC(=O)[O-]
REMARK SMILES IDX 1 1 2 2 3 3 4 4
REMARK H PARENT
REMARK Flexibility Score: inf
ROOT
ATOM      1  C   UNL     1     -13.326  59.988  38.794  1.00  0.00     0.063 C 
ATOM      2  C   UNL     1     -12.628  60.150  40.101  1.00  0.00     0.038 C 
ATOM      3  O   UNL     1     -11.439  60.565  40.136  1.00  0.00    -0.550 OA
ATOM      4  O   UNL     1     -13.303  59.898  41.288  1.00  0.00    -0.550 OA
ENDROOT
TORSDOF 0
ENDMDL
MODEL 3
REMARK VINA RESULT:    -2.453      1.437      1.776
REMARK INTER + INTRA:          -2.453
REMARK INTER:                  -2.453
REMARK INTRA:                   0.000
REMARK UNBOUND:                 0.000
REMARK SMILES CC(=O)[O-]
REMARK SMILES IDX 1 1 2 2 3 3 4 4
REMARK H PARENT
REMARK Flexibility Score: inf
ROOT
ATOM      1  C   UNL     1     -20.502  55.886  45.376  1.00  0.00     0.063 C 
ATOM      2  C   UNL     1     -21.899  56.083  44.892  1.00  0.00     0.038 C 
ATOM      3  O   UNL     1     -22.749  55.163  45.025  1.00  0.00    -0.550 OA
ATOM      4  O   UNL     1     -22.281  57.300  44.344  1.00  0.00    -0.550 OA
ENDROOT
TORSDOF 0
ENDMDL
MODEL 4
REMARK VINA RESULT:    -2.449     15.689     16.232
REMARK INTER + INTRA:          -2.449
REMARK INTER:                  -2.449
REMARK INTRA:                   0.000
REMARK UNBOUND:                 0.000
REMARK SMILES CC(=O)[O-]
REMARK SMILES IDX 1 1 2 2 3 3 4 4
REMARK H PARENT
REMARK Flexibility Score: inf
ROOT
ATOM      1  C   UNL     1     -10.399  51.532  53.935  1.00  0.00     0.063 C 
ATOM      2  C   UNL     1      -9.990  50.167  54.374  1.00  0.00     0.038 C 
ATOM      3  O   UNL     1      -8.779  49.824  54.326  1.00  0.00    -0.550 OA
ATOM      4  O   UNL     1     -10.934  49.289  54.889  1.00  0.00    -0.550 OA
ENDROOT
TORSDOF 0
ENDMDL
MODEL 5
REMARK VINA RESULT:    -2.441     15.042     15.592
REMARK INTER + INTRA:          -2.441
REMARK INTER:                  -2.441
REMARK INTRA:                   0.000
REMARK UNBOUND:                 0.000
REMARK SMILES CC(=O)[O-]
REMARK SMILES IDX 1 1 2 2 3 3 4 4
REMARK H PARENT
REMARK Flexibility Score: inf
ROOT
ATOM      1  C   UNL     1     -11.723  50.176  54.381  1.00  0.00     0.063 C 
ATOM      2  C   UNL     1     -10.403  50.799  54.077  1.00  0.00     0.038 C 
ATOM      3  O   UNL     1     -10.340  52.007  53.724  1.00  0.00    -0.550 OA
ATOM      4  O   UNL     1      -9.234  50.067  54.234  1.00  0.00    -0.550 OA
ENDROOT
TORSDOF 0
ENDMDL
MODEL 6
REMARK VINA RESULT:    -2.418     14.062     14.663
REMARK INTER + INTRA:          -2.418
REMARK INTER:                  -2.418
REMARK INTRA:                   0.000
REMARK UNBOUND:                 0.000
REMARK SMILES CC(=O)[O-]
REMARK SMILES IDX 1 1 2 2 3 3 4 4
REMARK H PARENT
REMARK Flexibility Score: inf
ROOT
ATOM      1  C   UNL     1     -10.390  51.400  53.946  1.00  0.00     0.063 C 
ATOM      2  C   UNL     1     -11.563  50.520  53.678  1.00  0.00     0.038 C 
ATOM      3  O   UNL     1     -12.396  50.831  52.787  1.00  0.00    -0.550 OA
ATOM      4  O   UNL     1     -11.710  49.327  54.373  1.00  0.00    -0.550 OA
ENDROOT
TORSDOF 0
ENDMDL
MODEL 7
REMARK VINA RESULT:    -2.393     18.049     18.460
REMARK INTER + INTRA:          -2.393
REMARK INTER:                  -2.393
REMARK INTRA:                   0.000
REMARK UNBOUND:                 0.000
REMARK SMILES CC(=O)[O-]
REMARK SMILES IDX 1 1 2 2 3 3 4 4
REMARK H PARENT
REMARK Flexibility Score: inf
ROOT
ATOM      1  C   UNL     1      -7.942  62.624  54.452  1.00  0.00     0.063 C 
ATOM      2  C   UNL     1      -6.999  61.482  54.627  1.00  0.00     0.038 C 
ATOM      3  O   UNL     1      -6.534  60.887  53.620  1.00  0.00    -0.550 OA
ATOM      4  O   UNL     1      -6.588  61.108  55.899  1.00  0.00    -0.550 OA
ENDROOT
TORSDOF 0
ENDMDL
MODEL 8
REMARK VINA RESULT:    -2.385     13.198     13.496
REMARK INTER + INTRA:          -2.385
REMARK INTER:                  -2.385
REMARK INTRA:                   0.000
REMARK UNBOUND:                 0.000
REMARK SMILES CC(=O)[O-]
REMARK SMILES IDX 1 1 2 2 3 3 4 4
REMARK H PARENT
REMARK Flexibility Score: inf
ROOT
ATOM      1  C   UNL     1     -13.367  50.257  51.748  1.00  0.00     0.063 C 
ATOM      2  C   UNL     1     -12.681  50.257  53.072  1.00  0.00     0.038 C 
ATOM      3  O   UNL     1     -13.113  49.532  54.007  1.00  0.00    -0.550 OA
ATOM      4  O   UNL     1     -11.531  51.011  53.261  1.00  0.00    -0.550 OA
ENDROOT
TORSDOF 0
ENDMDL
MODEL 9
REMARK VINA RESULT:    -2.314     10.120     10.547
REMARK INTER + INTRA:          -2.314
REMARK INTER:                  -2.314
REMARK INTRA:                   0.000
REMARK UNBOUND:                 0.000
REMARK SMILES CC(=O)[O-]
REMARK SMILES IDX 1 1 2 2 3 3 4 4
REMARK H PARENT
REMARK Flexibility Score: inf
ROOT
ATOM      1  C   UNL     1     -12.626  59.638  39.763  1.00  0.00     0.063 C 
ATOM      2  C   UNL     1     -13.923  60.337  39.529  1.00  0.00     0.038 C 
ATOM      3  O   UNL     1     -14.443  61.026  40.446  1.00  0.00    -0.550 OA
ATOM      4  O   UNL     1     -14.532  60.276  38.283  1.00  0.00    -0.550 OA
ENDROOT
TORSDOF 0
ENDMDL
