MODEL 1
REMARK VINA RESULT:    -3.178      0.000      0.000
REMARK INTER + INTRA:          -4.092
REMARK INTER:                  -3.922
REMARK INTRA:                  -0.171
REMARK UNBOUND:                -0.171
REMARK SMILES CCCCCC(=O)[O-]
REMARK SMILES IDX 4 1 5 2 6 3 7 4 8 5 3 6 2 7 1 8
REMARK H PARENT
REMARK Flexibility Score: inf
ROOT
ATOM      1  C   UNL     1     207.439 207.214 157.142  1.00  0.00     0.006 C 
ENDROOT
BRANCH   1   2
ATOM      2  C   UNL     1     208.027 208.530 157.667  1.00  0.00     0.053 C 
BRANCH   2   3
ATOM      3  C   UNL     1     207.038 209.644 157.509  1.00  0.00     0.041 C 
ATOM      4  O   UNL     1     206.041 209.503 156.754  1.00  0.00    -0.550 OA
ATOM      5  O   UNL     1     207.192 210.817 158.236  1.00  0.00    -0.550 OA
ENDBRANCH   2   3
ENDBRANCH   1   2
BRANCH   1   6
ATOM      6  C   UNL     1     208.370 206.507 156.146  1.00  0.00     0.000 C 
BRANCH   6   7
ATOM      7  C   UNL     1     209.101 207.490 155.220  1.00  0.00    -0.003 C 
ATOM      8  C   UNL     1     210.575 207.120 155.079  1.00  0.00     0.004 C 
ENDBRANCH   6   7
ENDBRANCH   1   6
TORSDOF 4
ENDMDL
MODEL 2
REMARK VINA RESULT:    -3.092      3.799      4.665
REMARK INTER + INTRA:          -3.986
REMARK INTER:                  -3.742
REMARK INTRA:                  -0.244
REMARK UNBOUND:                -0.171
REMARK SMILES CCCCCC(=O)[O-]
REMARK SMILES IDX 4 1 5 2 6 3 7 4 8 5 3 6 2 7 1 8
REMARK H PARENT
REMARK Flexibility Score: inf
ROOT
ATOM      1  C   UNL     1     203.947 204.911 157.376  1.00  0.00     0.006 C 
ENDROOT
BRANCH   1   2
ATOM      2  C   UNL     1     203.980 206.243 156.615  1.00  0.00     0.053 C 
BRANCH   2   3
ATOM      3  C   UNL     1     205.019 207.151 157.196  1.00  0.00     0.041 C 
ATOM      4  O   UNL     1     204.922 207.545 158.388  1.00  0.00    -0.550 OA
ATOM      5  O   UNL     1     206.121 207.521 156.436  1.00  0.00    -0.550 OA
ENDBRANCH   2   3
ENDBRANCH   1   2
BRANCH   1   6
ATOM      6  C   UNL     1     205.276 204.146 157.285  1.00  0.00     0.000 C 
BRANCH   6   7
ATOM      7  C   UNL     1     205.650 203.451 158.603  1.00  0.00    -0.003 C 
ATOM      8  C   UNL     1     206.428 204.391 159.518  1.00  0.00     0.004 C 
ENDBRANCH   6   7
ENDBRANCH   1   6
TORSDOF 4
ENDMDL
MODEL 3
REMARK VINA RESULT:    -3.077      4.822      6.166
REMARK INTER + INTRA:          -3.967
REMARK INTER:                  -3.723
REMARK INTRA:                  -0.244
REMARK UNBOUND:                -0.171
REMARK SMILES CCCCCC(=O)[O-]
REMARK SMILES IDX 4 1 5 2 6 3 7 4 8 5 3 6 2 7 1 8
REMARK H PARENT
REMARK Flexibility Score: inf
ROOT
ATOM      1  C   UNL     1     206.740 205.158 156.798  1.00  0.00     0.006 C 
ENDROOT
BRANCH   1   2
ATOM      2  C   UNL     1     206.901 203.881 155.963  1.00  0.00     0.053 C 
BRANCH   2   3
ATOM      3  C   UNL     1     206.370 202.697 156.710  1.00  0.00     0.041 C 
ATOM      4  O   UNL     1     206.398 201.553 156.186  1.00  0.00    -0.550 OA
ATOM      5  O   UNL     1     205.890 202.851 158.004  1.00  0.00    -0.550 OA
ENDBRANCH   2   3
ENDBRANCH   1   2
BRANCH   1   6
ATOM      6  C   UNL     1     205.593 206.049 156.299  1.00  0.00     0.000 C 
BRANCH   6   7
ATOM      7  C   UNL     1     204.480 206.221 157.343  1.00  0.00    -0.003 C 
ATOM      8  C   UNL     1     203.351 205.220 157.112  1.00  0.00     0.004 C 
ENDBRANCH   6   7
ENDBRANCH   1   6
TORSDOF 4
ENDMDL
MODEL 4
REMARK VINA RESULT:    -3.067      4.291      5.119
REMARK INTER + INTRA:          -3.954
REMARK INTER:                  -3.795
REMARK INTRA:                  -0.159
REMARK UNBOUND:                -0.171
REMARK SMILES CCCCCC(=O)[O-]
REMARK SMILES IDX 4 1 5 2 6 3 7 4 8 5 3 6 2 7 1 8
REMARK H PARENT
REMARK Flexibility Score: inf
ROOT
ATOM      1  C   UNL     1     206.355 203.859 159.391  1.00  0.00     0.006 C 
ENDROOT
BRANCH   1   2
ATOM      2  C   UNL     1     206.738 205.289 159.794  1.00  0.00     0.053 C 
BRANCH   2   3
ATOM      3  C   UNL     1     208.142 205.593 159.372  1.00  0.00     0.041 C 
ATOM      4  O   UNL     1     209.100 205.373 160.158  1.00  0.00    -0.550 OA
ATOM      5  O   UNL     1     208.395 206.070 158.092  1.00  0.00    -0.550 OA
ENDBRANCH   2   3
ENDBRANCH   1   2
BRANCH   1   6
ATOM      6  C   UNL     1     205.306 203.822 158.270  1.00  0.00     0.000 C 
BRANCH   6   7
ATOM      7  C   UNL     1     205.933 203.646 156.879  1.00  0.00    -0.003 C 
ATOM      8  C   UNL     1     206.436 202.219 156.679  1.00  0.00     0.004 C 
ENDBRANCH   6   7
ENDBRANCH   1   6
TORSDOF 4
ENDMDL
MODEL 5
REMARK VINA RESULT:    -3.047      3.741      4.369
REMARK INTER + INTRA:          -3.930
REMARK INTER:                  -3.708
REMARK INTRA:                  -0.222
REMARK UNBOUND:                -0.171
REMARK SMILES CCCCCC(=O)[O-]
REMARK SMILES IDX 4 1 5 2 6 3 7 4 8 5 3 6 2 7 1 8
REMARK H PARENT
REMARK Flexibility Score: inf
ROOT
ATOM      1  C   UNL     1     207.370 206.500 156.108  1.00  0.00     0.006 C 
ENDROOT
BRANCH   1   2
ATOM      2  C   UNL     1     207.513 205.305 157.059  1.00  0.00     0.053 C 
BRANCH   2   3
ATOM      3  C   UNL     1     208.130 204.141 156.347  1.00  0.00     0.041 C 
ATOM      4  O   UNL     1     209.380 203.998 156.333  1.00  0.00    -0.550 OA
ATOM      5  O   UNL     1     207.320 203.188 155.743  1.00  0.00    -0.550 OA
ENDBRANCH   2   3
ENDBRANCH   1   2
BRANCH   1   6
ATOM      6  C   UNL     1     208.571 207.456 156.176  1.00  0.00     0.000 C 
BRANCH   6   7
ATOM      7  C   UNL     1     209.391 207.469 154.878  1.00  0.00    -0.003 C 
ATOM      8  C   UNL     1     210.843 207.079 155.141  1.00  0.00     0.004 C 
ENDBRANCH   6   7
ENDBRANCH   1   6
TORSDOF 4
ENDMDL
MODEL 6
REMARK VINA RESULT:    -3.044      1.286      1.554
REMARK INTER + INTRA:          -3.926
REMARK INTER:                  -3.778
REMARK INTRA:                  -0.148
REMARK UNBOUND:                -0.171
REMARK SMILES CCCCCC(=O)[O-]
REMARK SMILES IDX 4 1 5 2 6 3 7 4 8 5 3 6 2 7 1 8
REMARK H PARENT
REMARK Flexibility Score: inf
ROOT
ATOM      1  C   UNL     1     208.264 207.513 157.535  1.00  0.00     0.006 C 
ENDROOT
BRANCH   1   2
ATOM      2  C   UNL     1     207.521 208.793 157.128  1.00  0.00     0.053 C 
BRANCH   2   3
ATOM      3  C   UNL     1     206.048 208.540 157.052  1.00  0.00     0.041 C 
ATOM      4  O   UNL     1     205.317 209.266 156.327  1.00  0.00    -0.550 OA
ATOM      5  O   UNL     1     205.490 207.471 157.740  1.00  0.00    -0.550 OA
ENDBRANCH   2   3
ENDBRANCH   1   2
BRANCH   1   6
ATOM      6  C   UNL     1     208.667 206.654 156.328  1.00  0.00     0.000 C 
BRANCH   6   7
ATOM      7  C   UNL     1     209.338 207.473 155.216  1.00  0.00    -0.003 C 
ATOM      8  C   UNL     1     210.806 207.088 155.059  1.00  0.00     0.004 C 
ENDBRANCH   6   7
ENDBRANCH   1   6
TORSDOF 4
ENDMDL
MODEL 7
REMARK VINA RESULT:    -3.043      4.141      5.239
REMARK INTER + INTRA:          -3.925
REMARK INTER:                  -3.680
REMARK INTRA:                  -0.246
REMARK UNBOUND:                -0.171
REMARK SMILES CCCCCC(=O)[O-]
REMARK SMILES IDX 4 1 5 2 6 3 7 4 8 5 3 6 2 7 1 8
REMARK H PARENT
REMARK Flexibility Score: inf
ROOT
ATOM      1  C   UNL     1     205.810 204.474 156.631  1.00  0.00     0.006 C 
ENDROOT
BRANCH   1   2
ATOM      2  C   UNL     1     207.023 204.511 157.570  1.00  0.00     0.053 C 
BRANCH   2   3
ATOM      3  C   UNL     1     206.583 204.722 158.985  1.00  0.00     0.041 C 
ATOM      4  O   UNL     1     206.399 203.735 159.745  1.00  0.00    -0.550 OA
ATOM      5  O   UNL     1     206.426 206.010 159.479  1.00  0.00    -0.550 OA
ENDBRANCH   2   3
ENDBRANCH   1   2
BRANCH   1   6
ATOM      6  C   UNL     1     205.466 205.856 156.055  1.00  0.00     0.000 C 
BRANCH   6   7
ATOM      7  C   UNL     1     204.087 206.359 156.507  1.00  0.00    -0.003 C 
ATOM      8  C   UNL     1     203.303 205.255 157.211  1.00  0.00     0.004 C 
ENDBRANCH   6   7
ENDBRANCH   1   6
TORSDOF 4
ENDMDL
MODEL 8
REMARK VINA RESULT:    -3.041      4.368      5.188
REMARK INTER + INTRA:          -3.923
REMARK INTER:                  -3.656
REMARK INTRA:                  -0.267
REMARK UNBOUND:                -0.171
REMARK SMILES CCCCCC(=O)[O-]
REMARK SMILES IDX 4 1 5 2 6 3 7 4 8 5 3 6 2 7 1 8
REMARK H PARENT
REMARK Flexibility Score: inf
ROOT
ATOM      1  C   UNL     1     206.700 205.385 156.979  1.00  0.00     0.006 C 
ENDROOT
BRANCH   1   2
ATOM      2  C   UNL     1     205.642 204.923 157.990  1.00  0.00     0.053 C 
BRANCH   2   3
ATOM      3  C   UNL     1     206.296 204.286 159.177  1.00  0.00     0.041 C 
ATOM      4  O   UNL     1     206.103 203.068 159.429  1.00  0.00    -0.550 OA
ATOM      5  O   UNL     1     207.160 205.027 159.974  1.00  0.00    -0.550 OA
ENDBRANCH   2   3
ENDBRANCH   1   2
BRANCH   1   6
ATOM      6  C   UNL     1     207.464 204.213 156.345  1.00  0.00     0.000 C 
BRANCH   6   7
ATOM      7  C   UNL     1     206.539 203.235 155.607  1.00  0.00    -0.003 C 
ATOM      8  C   UNL     1     206.668 201.823 156.173  1.00  0.00     0.004 C 
ENDBRANCH   6   7
ENDBRANCH   1   6
TORSDOF 4
ENDMDL
MODEL 9
REMARK VINA RESULT:    -3.006      4.404      5.614
REMARK INTER + INTRA:          -3.880
REMARK INTER:                  -3.629
REMARK INTRA:                  -0.250
REMARK UNBOUND:                -0.171
REMARK SMILES CCCCCC(=O)[O-]
REMARK SMILES IDX 4 1 5 2 6 3 7 4 8 5 3 6 2 7 1 8
REMARK H PARENT
REMARK Flexibility Score: inf
ROOT
ATOM      1  C   UNL     1     205.515 203.762 158.061  1.00  0.00     0.006 C 
ENDROOT
BRANCH   1   2
ATOM      2  C   UNL     1     206.264 202.992 156.965  1.00  0.00     0.053 C 
BRANCH   2   3
ATOM      3  C   UNL     1     207.113 203.925 156.159  1.00  0.00     0.041 C 
ATOM      4  O   UNL     1     206.601 204.609 155.235  1.00  0.00    -0.550 OA
ATOM      5  O   UNL     1     208.460 204.076 156.462  1.00  0.00    -0.550 OA
ENDBRANCH   2   3
ENDBRANCH   1   2
BRANCH   1   6
ATOM      6  C   UNL     1     206.191 203.641 159.435  1.00  0.00     0.000 C 
BRANCH   6   7
ATOM      7  C   UNL     1     207.004 204.889 159.806  1.00  0.00    -0.003 C 
ATOM      8  C   UNL     1     206.458 206.130 159.105  1.00  0.00     0.004 C 
ENDBRANCH   6   7
ENDBRANCH   1   6
TORSDOF 4
ENDMDL
