MODEL 1
REMARK VINA RESULT:     1.712      0.000      0.000
REMARK INTER + INTRA:           3.186
REMARK INTER:                   3.713
REMARK INTRA:                  -0.527
REMARK UNBOUND:                -0.527
REMARK SMILES CCCCCCCCCCCCCCCCCCCCCC(=O)[O-]
REMARK SMILES IDX 12 1 11 2 10 3 9 4 8 5 7 6 6 7 5 8 4 9 3 10 2 11 1 12 13 13
REMARK SMILES IDX 14 14 15 15 16 16 17 17 18 18 19 19 20 20 21 21 22 22 23 23
REMARK SMILES IDX 24 24
REMARK H PARENT
REMARK Flexibility Score: inf
ROOT
ATOM      1  C   UNL     1       6.006 -35.351  22.449  1.00  0.00     0.000 C 
ENDROOT
BRANCH   1   2
ATOM      2  C   UNL     1       4.574 -35.693  22.018  1.00  0.00     0.000 C 
BRANCH   2   3
ATOM      3  C   UNL     1       3.780 -34.419  21.690  1.00  0.00     0.000 C 
BRANCH   3   4
ATOM      4  C   UNL     1       4.078 -33.880  20.281  1.00  0.00    -0.000 C 
BRANCH   4   5
ATOM      5  C   UNL     1       4.747 -34.930  19.377  1.00  0.00    -0.000 C 
BRANCH   5   6
ATOM      6  C   UNL     1       4.574 -34.624  17.879  1.00  0.00    -0.000 C 
BRANCH   6   7
ATOM      7  C   UNL     1       4.110 -35.816  17.017  1.00  0.00    -0.000 C 
BRANCH   7   8
ATOM      8  C   UNL     1       3.056 -35.479  15.943  1.00  0.00    -0.000 C 
BRANCH   8   9
ATOM      9  C   UNL     1       2.626 -36.666  15.061  1.00  0.00    -0.000 C 
BRANCH   9  10
ATOM     10  C   UNL     1       3.788 -37.254  14.246  1.00  0.00    -0.000 C 
BRANCH  10  11
ATOM     11  C   UNL     1       3.739 -38.787  14.252  1.00  0.00    -0.003 C 
ATOM     12  C   UNL     1       5.095 -39.383  13.889  1.00  0.00     0.004 C 
ENDBRANCH  10  11
ENDBRANCH   9  10
ENDBRANCH   8   9
ENDBRANCH   7   8
ENDBRANCH   6   7
ENDBRANCH   5   6
ENDBRANCH   4   5
ENDBRANCH   3   4
ENDBRANCH   2   3
ENDBRANCH   1   2
BRANCH   1  13
ATOM     13  C   UNL     1       6.030 -34.097  23.331  1.00  0.00     0.000 C 
BRANCH  13  14
ATOM     14  C   UNL     1       6.080 -34.469  24.818  1.00  0.00     0.000 C 
BRANCH  14  15
ATOM     15  C   UNL     1       6.125 -35.994  25.001  1.00  0.00     0.000 C 
BRANCH  15  16
ATOM     16  C   UNL     1       4.725 -36.630  25.075  1.00  0.00     0.000 C 
BRANCH  16  17
ATOM     17  C   UNL     1       4.667 -37.994  25.789  1.00  0.00     0.000 C 
BRANCH  17  18
ATOM     18  C   UNL     1       4.671 -39.222  24.857  1.00  0.00     0.000 C 
BRANCH  18  19
ATOM     19  C   UNL     1       5.374 -39.013  23.503  1.00  0.00     0.000 C 
BRANCH  19  20
ATOM     20  C   UNL     1       5.356 -40.230  22.557  1.00  0.00     0.006 C 
BRANCH  20  21
ATOM     21  C   UNL     1       5.957 -39.950  21.167  1.00  0.00     0.053 C 
BRANCH  21  22
ATOM     22  C   UNL     1       5.178 -38.925  20.402  1.00  0.00     0.041 C 
ATOM     23  O   UNL     1       5.651 -38.426  19.347  1.00  0.00    -0.550 OA
ATOM     24  O   UNL     1       3.912 -38.546  20.832  1.00  0.00    -0.550 OA
ENDBRANCH  21  22
ENDBRANCH  20  21
ENDBRANCH  19  20
ENDBRANCH  18  19
ENDBRANCH  17  18
ENDBRANCH  16  17
ENDBRANCH  15  16
ENDBRANCH  14  15
ENDBRANCH  13  14
ENDBRANCH   1  13
TORSDOF 20
ENDMDL
MODEL 2
REMARK VINA RESULT:     1.724      0.834      1.155
REMARK INTER + INTRA:           3.213
REMARK INTER:                   3.414
REMARK INTRA:                  -0.201
REMARK UNBOUND:                -0.527
REMARK SMILES CCCCCCCCCCCCCCCCCCCCCC(=O)[O-]
REMARK SMILES IDX 12 1 11 2 10 3 9 4 8 5 7 6 6 7 5 8 4 9 3 10 2 11 1 12 13 13
REMARK SMILES IDX 14 14 15 15 16 16 17 17 18 18 19 19 20 20 21 21 22 22 23 23
REMARK SMILES IDX 24 24
REMARK H PARENT
REMARK Flexibility Score: inf
ROOT
ATOM      1  C   UNL     1       4.611 -35.041  22.598  1.00  0.00     0.000 C 
ENDROOT
BRANCH   1   2
ATOM      2  C   UNL     1       4.357 -34.456  21.203  1.00  0.00     0.000 C 
BRANCH   2   3
ATOM      3  C   UNL     1       5.680 -34.099  20.508  1.00  0.00     0.000 C 
BRANCH   3   4
ATOM      4  C   UNL     1       5.637 -34.338  18.989  1.00  0.00    -0.000 C 
BRANCH   4   5
ATOM      5  C   UNL     1       4.674 -35.473  18.599  1.00  0.00    -0.000 C 
BRANCH   5   6
ATOM      6  C   UNL     1       3.807 -35.124  17.376  1.00  0.00    -0.000 C 
BRANCH   6   7
ATOM      7  C   UNL     1       3.654 -36.256  16.339  1.00  0.00    -0.000 C 
BRANCH   7   8
ATOM      8  C   UNL     1       2.428 -36.136  15.412  1.00  0.00    -0.000 C 
BRANCH   8   9
ATOM      9  C   UNL     1       2.595 -36.788  14.028  1.00  0.00    -0.000 C 
BRANCH   9  10
ATOM     10  C   UNL     1       3.917 -37.558  13.886  1.00  0.00    -0.000 C 
BRANCH  10  11
ATOM     11  C   UNL     1       3.827 -38.929  14.566  1.00  0.00    -0.003 C 
ATOM     12  C   UNL     1       4.785 -39.927  13.923  1.00  0.00     0.004 C 
ENDBRANCH  10  11
ENDBRANCH   9  10
ENDBRANCH   8   9
ENDBRANCH   7   8
ENDBRANCH   6   7
ENDBRANCH   5   6
ENDBRANCH   4   5
ENDBRANCH   3   4
ENDBRANCH   2   3
ENDBRANCH   1   2
BRANCH   1  13
ATOM     13  C   UNL     1       5.629 -34.194  23.372  1.00  0.00     0.000 C 
BRANCH  13  14
ATOM     14  C   UNL     1       5.917 -34.802  24.750  1.00  0.00     0.000 C 
BRANCH  14  15
ATOM     15  C   UNL     1       6.109 -36.323  24.651  1.00  0.00     0.000 C 
BRANCH  15  16
ATOM     16  C   UNL     1       5.700 -37.062  25.937  1.00  0.00     0.000 C 
BRANCH  16  17
ATOM     17  C   UNL     1       4.321 -37.749  25.883  1.00  0.00     0.000 C 
BRANCH  17  18
ATOM     18  C   UNL     1       4.294 -39.107  25.153  1.00  0.00     0.000 C 
BRANCH  18  19
ATOM     19  C   UNL     1       5.297 -39.246  23.992  1.00  0.00     0.000 C 
BRANCH  19  20
ATOM     20  C   UNL     1       4.787 -40.041  22.774  1.00  0.00     0.006 C 
BRANCH  20  21
ATOM     21  C   UNL     1       5.623 -39.833  21.498  1.00  0.00     0.053 C 
BRANCH  21  22
ATOM     22  C   UNL     1       5.161 -38.655  20.696  1.00  0.00     0.041 C 
ATOM     23  O   UNL     1       4.921 -37.556  21.263  1.00  0.00    -0.550 OA
ATOM     24  O   UNL     1       5.030 -38.757  19.317  1.00  0.00    -0.550 OA
ENDBRANCH  21  22
ENDBRANCH  20  21
ENDBRANCH  19  20
ENDBRANCH  18  19
ENDBRANCH  17  18
ENDBRANCH  16  17
ENDBRANCH  15  16
ENDBRANCH  14  15
ENDBRANCH  13  14
ENDBRANCH   1  13
TORSDOF 20
ENDMDL
MODEL 3
REMARK VINA RESULT:     2.341      1.791      3.909
REMARK INTER + INTRA:           4.550
REMARK INTER:                   5.681
REMARK INTRA:                  -1.131
REMARK UNBOUND:                -0.527
REMARK SMILES CCCCCCCCCCCCCCCCCCCCCC(=O)[O-]
REMARK SMILES IDX 12 1 11 2 10 3 9 4 8 5 7 6 6 7 5 8 4 9 3 10 2 11 1 12 13 13
REMARK SMILES IDX 14 14 15 15 16 16 17 17 18 18 19 19 20 20 21 21 22 22 23 23
REMARK SMILES IDX 24 24
REMARK H PARENT
REMARK Flexibility Score: inf
ROOT
ATOM      1  C   UNL     1       5.473 -39.043  21.710  1.00  0.00     0.000 C 
ENDROOT
BRANCH   1   2
ATOM      2  C   UNL     1       4.795 -39.078  20.335  1.00  0.00     0.000 C 
BRANCH   2   3
ATOM      3  C   UNL     1       5.208 -37.866  19.487  1.00  0.00     0.000 C 
BRANCH   3   4
ATOM      4  C   UNL     1       4.968 -36.528  20.205  1.00  0.00    -0.000 C 
BRANCH   4   5
ATOM      5  C   UNL     1       5.681 -35.352  19.516  1.00  0.00    -0.000 C 
BRANCH   5   6
ATOM      6  C   UNL     1       4.798 -34.649  18.471  1.00  0.00    -0.000 C 
BRANCH   6   7
ATOM      7  C   UNL     1       4.726 -35.349  17.098  1.00  0.00    -0.000 C 
BRANCH   7   8
ATOM      8  C   UNL     1       3.416 -36.111  16.818  1.00  0.00    -0.000 C 
BRANCH   8   9
ATOM      9  C   UNL     1       2.603 -35.588  15.621  1.00  0.00    -0.000 C 
BRANCH   9  10
ATOM     10  C   UNL     1       2.486 -36.615  14.484  1.00  0.00    -0.000 C 
BRANCH  10  11
ATOM     11  C   UNL     1       3.861 -37.186  14.119  1.00  0.00    -0.003 C 
ATOM     12  C   UNL     1       3.921 -38.688  14.383  1.00  0.00     0.004 C 
ENDBRANCH  10  11
ENDBRANCH   9  10
ENDBRANCH   8   9
ENDBRANCH   7   8
ENDBRANCH   6   7
ENDBRANCH   5   6
ENDBRANCH   4   5
ENDBRANCH   3   4
ENDBRANCH   2   3
ENDBRANCH   1   2
BRANCH   1  13
ATOM     13  C   UNL     1       4.936 -40.157  22.617  1.00  0.00     0.000 C 
BRANCH  13  14
ATOM     14  C   UNL     1       5.057 -39.770  24.096  1.00  0.00     0.000 C 
BRANCH  14  15
ATOM     15  C   UNL     1       4.530 -38.347  24.336  1.00  0.00     0.000 C 
BRANCH  15  16
ATOM     16  C   UNL     1       4.793 -37.846  25.768  1.00  0.00     0.000 C 
BRANCH  16  17
ATOM     17  C   UNL     1       5.456 -36.458  25.860  1.00  0.00     0.000 C 
BRANCH  17  18
ATOM     18  C   UNL     1       6.123 -35.963  24.562  1.00  0.00     0.000 C 
BRANCH  18  19
ATOM     19  C   UNL     1       5.679 -34.567  24.088  1.00  0.00     0.000 C 
BRANCH  19  20
ATOM     20  C   UNL     1       5.665 -34.364  22.560  1.00  0.00     0.006 C 
BRANCH  20  21
ATOM     21  C   UNL     1       4.931 -33.089  22.106  1.00  0.00     0.053 C 
BRANCH  21  22
ATOM     22  C   UNL     1       3.555 -33.374  21.586  1.00  0.00     0.041 C 
ATOM     23  O   UNL     1       3.092 -34.545  21.624  1.00  0.00    -0.550 OA
ATOM     24  O   UNL     1       2.767 -32.341  21.093  1.00  0.00    -0.550 OA
ENDBRANCH  21  22
ENDBRANCH  20  21
ENDBRANCH  19  20
ENDBRANCH  18  19
ENDBRANCH  17  18
ENDBRANCH  16  17
ENDBRANCH  15  16
ENDBRANCH  14  15
ENDBRANCH  13  14
ENDBRANCH   1  13
TORSDOF 20
ENDMDL
MODEL 4
REMARK VINA RESULT:     2.743      2.084      3.582
REMARK INTER + INTRA:           5.424
REMARK INTER:                   6.812
REMARK INTRA:                  -1.389
REMARK UNBOUND:                -0.527
REMARK SMILES CCCCCCCCCCCCCCCCCCCCCC(=O)[O-]
REMARK SMILES IDX 12 1 11 2 10 3 9 4 8 5 7 6 6 7 5 8 4 9 3 10 2 11 1 12 13 13
REMARK SMILES IDX 14 14 15 15 16 16 17 17 18 18 19 19 20 20 21 21 22 22 23 23
REMARK SMILES IDX 24 24
REMARK H PARENT
REMARK Flexibility Score: inf
ROOT
ATOM      1  C   UNL     1       6.119 -35.175  23.693  1.00  0.00     0.000 C 
ENDROOT
BRANCH   1   2
ATOM      2  C   UNL     1       5.782 -33.680  23.612  1.00  0.00     0.000 C 
BRANCH   2   3
ATOM      3  C   UNL     1       5.470 -33.265  22.166  1.00  0.00     0.000 C 
BRANCH   3   4
ATOM      4  C   UNL     1       4.024 -33.588  21.754  1.00  0.00    -0.000 C 
BRANCH   4   5
ATOM      5  C   UNL     1       3.915 -34.034  20.285  1.00  0.00    -0.000 C 
BRANCH   5   6
ATOM      6  C   UNL     1       5.284 -34.131  19.589  1.00  0.00    -0.000 C 
BRANCH   6   7
ATOM      7  C   UNL     1       5.240 -34.610  18.124  1.00  0.00    -0.000 C 
BRANCH   7   8
ATOM      8  C   UNL     1       3.861 -35.095  17.632  1.00  0.00    -0.000 C 
BRANCH   8   9
ATOM      9  C   UNL     1       3.898 -36.320  16.702  1.00  0.00    -0.000 C 
BRANCH   9  10
ATOM     10  C   UNL     1       3.032 -36.142  15.445  1.00  0.00    -0.000 C 
BRANCH  10  11
ATOM     11  C   UNL     1       3.650 -36.870  14.247  1.00  0.00    -0.003 C 
ATOM     12  C   UNL     1       3.729 -38.374  14.495  1.00  0.00     0.004 C 
ENDBRANCH  10  11
ENDBRANCH   9  10
ENDBRANCH   8   9
ENDBRANCH   7   8
ENDBRANCH   6   7
ENDBRANCH   5   6
ENDBRANCH   4   5
ENDBRANCH   3   4
ENDBRANCH   2   3
ENDBRANCH   1   2
BRANCH   1  13
ATOM     13  C   UNL     1       5.081 -36.013  22.937  1.00  0.00     0.000 C 
BRANCH  13  14
ATOM     14  C   UNL     1       5.736 -36.803  21.797  1.00  0.00     0.000 C 
BRANCH  14  15
ATOM     15  C   UNL     1       4.693 -37.221  20.750  1.00  0.00     0.000 C 
BRANCH  15  16
ATOM     16  C   UNL     1       5.089 -38.500  19.989  1.00  0.00     0.000 C 
BRANCH  16  17
ATOM     17  C   UNL     1       5.474 -39.695  20.883  1.00  0.00     0.000 C 
BRANCH  17  18
ATOM     18  C   UNL     1       4.549 -39.934  22.093  1.00  0.00     0.000 C 
BRANCH  18  19
ATOM     19  C   UNL     1       5.262 -40.372  23.386  1.00  0.00     0.000 C 
BRANCH  19  20
ATOM     20  C   UNL     1       5.425 -39.272  24.453  1.00  0.00     0.006 C 
BRANCH  20  21
ATOM     21  C   UNL     1       4.112 -38.887  25.159  1.00  0.00     0.053 C 
BRANCH  21  22
ATOM     22  C   UNL     1       4.281 -37.726  26.091  1.00  0.00     0.041 C 
ATOM     23  O   UNL     1       3.296 -37.286  26.741  1.00  0.00    -0.550 OA
ATOM     24  O   UNL     1       5.533 -37.153  26.272  1.00  0.00    -0.550 OA
ENDBRANCH  21  22
ENDBRANCH  20  21
ENDBRANCH  19  20
ENDBRANCH  18  19
ENDBRANCH  17  18
ENDBRANCH  16  17
ENDBRANCH  15  16
ENDBRANCH  14  15
ENDBRANCH  13  14
ENDBRANCH   1  13
TORSDOF 20
ENDMDL
MODEL 5
REMARK VINA RESULT:     3.079      2.009      6.703
REMARK INTER + INTRA:           6.153
REMARK INTER:                   7.907
REMARK INTRA:                  -1.754
REMARK UNBOUND:                -0.527
REMARK SMILES CCCCCCCCCCCCCCCCCCCCCC(=O)[O-]
REMARK SMILES IDX 12 1 11 2 10 3 9 4 8 5 7 6 6 7 5 8 4 9 3 10 2 11 1 12 13 13
REMARK SMILES IDX 14 14 15 15 16 16 17 17 18 18 19 19 20 20 21 21 22 22 23 23
REMARK SMILES IDX 24 24
REMARK H PARENT
REMARK Flexibility Score: inf
ROOT
ATOM      1  C   UNL     1       5.895 -34.847  23.121  1.00  0.00     0.000 C 
ENDROOT
BRANCH   1   2
ATOM      2  C   UNL     1       6.111 -34.151  24.471  1.00  0.00     0.000 C 
BRANCH   2   3
ATOM      3  C   UNL     1       6.100 -35.170  25.622  1.00  0.00     0.000 C 
BRANCH   3   4
ATOM      4  C   UNL     1       5.920 -36.617  25.133  1.00  0.00    -0.000 C 
BRANCH   4   5
ATOM      5  C   UNL     1       4.997 -37.438  26.050  1.00  0.00    -0.000 C 
BRANCH   5   6
ATOM      6  C   UNL     1       4.209 -38.519  25.289  1.00  0.00    -0.000 C 
BRANCH   6   7
ATOM      7  C   UNL     1       5.051 -39.710  24.787  1.00  0.00    -0.000 C 
BRANCH   7   8
ATOM      8  C   UNL     1       4.939 -40.003  23.278  1.00  0.00    -0.000 C 
BRANCH   8   9
ATOM      9  C   UNL     1       5.669 -39.000  22.367  1.00  0.00    -0.000 C 
BRANCH   9  10
ATOM     10  C   UNL     1       4.847 -38.611  21.129  1.00  0.00    -0.000 C 
BRANCH  10  11
ATOM     11  C   UNL     1       5.580 -39.002  19.840  1.00  0.00    -0.003 C 
ATOM     12  C   UNL     1       6.125 -40.424  19.926  1.00  0.00     0.004 C 
ENDBRANCH  10  11
ENDBRANCH   9  10
ENDBRANCH   8   9
ENDBRANCH   7   8
ENDBRANCH   6   7
ENDBRANCH   5   6
ENDBRANCH   4   5
ENDBRANCH   3   4
ENDBRANCH   2   3
ENDBRANCH   1   2
BRANCH   1  13
ATOM     13  C   UNL     1       4.405 -35.108  22.870  1.00  0.00     0.000 C 
BRANCH  13  14
ATOM     14  C   UNL     1       4.092 -35.117  21.369  1.00  0.00     0.000 C 
BRANCH  14  15
ATOM     15  C   UNL     1       4.913 -34.049  20.631  1.00  0.00     0.000 C 
BRANCH  15  16
ATOM     16  C   UNL     1       4.775 -34.141  19.100  1.00  0.00     0.000 C 
BRANCH  16  17
ATOM     17  C   UNL     1       4.747 -35.574  18.534  1.00  0.00     0.000 C 
BRANCH  17  18
ATOM     18  C   UNL     1       4.598 -35.670  17.003  1.00  0.00     0.000 C 
BRANCH  18  19
ATOM     19  C   UNL     1       3.162 -35.902  16.497  1.00  0.00     0.000 C 
BRANCH  19  20
ATOM     20  C   UNL     1       3.016 -36.043  14.969  1.00  0.00     0.006 C 
BRANCH  20  21
ATOM     21  C   UNL     1       2.793 -37.490  14.494  1.00  0.00     0.053 C 
BRANCH  21  22
ATOM     22  C   UNL     1       4.071 -38.171  14.108  1.00  0.00     0.041 C 
ATOM     23  O   UNL     1       5.115 -37.495  13.913  1.00  0.00    -0.550 OA
ATOM     24  O   UNL     1       4.119 -39.555  14.002  1.00  0.00    -0.550 OA
ENDBRANCH  21  22
ENDBRANCH  20  21
ENDBRANCH  19  20
ENDBRANCH  18  19
ENDBRANCH  17  18
ENDBRANCH  16  17
ENDBRANCH  15  16
ENDBRANCH  14  15
ENDBRANCH  13  14
ENDBRANCH   1  13
TORSDOF 20
ENDMDL
MODEL 6
REMARK VINA RESULT:     3.433      1.935      6.991
REMARK INTER + INTRA:           6.920
REMARK INTER:                   7.768
REMARK INTRA:                  -0.848
REMARK UNBOUND:                -0.527
REMARK SMILES CCCCCCCCCCCCCCCCCCCCCC(=O)[O-]
REMARK SMILES IDX 12 1 11 2 10 3 9 4 8 5 7 6 6 7 5 8 4 9 3 10 2 11 1 12 13 13
REMARK SMILES IDX 14 14 15 15 16 16 17 17 18 18 19 19 20 20 21 21 22 22 23 23
REMARK SMILES IDX 24 24
REMARK H PARENT
REMARK Flexibility Score: inf
ROOT
ATOM      1  C   UNL     1       4.164 -34.824  23.298  1.00  0.00     0.000 C 
ENDROOT
BRANCH   1   2
ATOM      2  C   UNL     1       5.675 -34.706  23.061  1.00  0.00     0.000 C 
BRANCH   2   3
ATOM      3  C   UNL     1       6.120 -35.604  21.897  1.00  0.00     0.000 C 
BRANCH   3   4
ATOM      4  C   UNL     1       5.173 -36.794  21.668  1.00  0.00    -0.000 C 
BRANCH   4   5
ATOM      5  C   UNL     1       5.303 -37.388  20.255  1.00  0.00    -0.000 C 
BRANCH   5   6
ATOM      6  C   UNL     1       4.830 -38.850  20.176  1.00  0.00    -0.000 C 
BRANCH   6   7
ATOM      7  C   UNL     1       5.921 -39.906  20.448  1.00  0.00    -0.000 C 
BRANCH   7   8
ATOM      8  C   UNL     1       6.027 -40.380  21.911  1.00  0.00    -0.000 C 
BRANCH   8   9
ATOM      9  C   UNL     1       4.767 -40.140  22.763  1.00  0.00    -0.000 C 
BRANCH   9  10
ATOM     10  C   UNL     1       5.093 -39.671  24.189  1.00  0.00    -0.000 C 
BRANCH  10  11
ATOM     11  C   UNL     1       4.597 -38.238  24.420  1.00  0.00    -0.003 C 
ATOM     12  C   UNL     1       4.813 -37.807  25.867  1.00  0.00     0.004 C 
ENDBRANCH  10  11
ENDBRANCH   9  10
ENDBRANCH   8   9
ENDBRANCH   7   8
ENDBRANCH   6   7
ENDBRANCH   5   6
ENDBRANCH   4   5
ENDBRANCH   3   4
ENDBRANCH   2   3
ENDBRANCH   1   2
BRANCH   1  13
ATOM     13  C   UNL     1       3.388 -34.666  21.984  1.00  0.00     0.000 C 
BRANCH  13  14
ATOM     14  C   UNL     1       4.011 -33.576  21.104  1.00  0.00     0.000 C 
BRANCH  14  15
ATOM     15  C   UNL     1       3.919 -33.951  19.617  1.00  0.00     0.000 C 
BRANCH  15  16
ATOM     16  C   UNL     1       5.298 -34.167  18.968  1.00  0.00     0.000 C 
BRANCH  16  17
ATOM     17  C   UNL     1       5.269 -34.876  17.599  1.00  0.00     0.000 C 
BRANCH  17  18
ATOM     18  C   UNL     1       4.020 -35.740  17.336  1.00  0.00     0.000 C 
BRANCH  18  19
ATOM     19  C   UNL     1       3.157 -35.296  16.140  1.00  0.00     0.000 C 
BRANCH  19  20
ATOM     20  C   UNL     1       2.310 -36.408  15.490  1.00  0.00     0.006 C 
BRANCH  20  21
ATOM     21  C   UNL     1       2.814 -36.847  14.103  1.00  0.00     0.053 C 
BRANCH  21  22
ATOM     22  C   UNL     1       3.925 -37.849  14.188  1.00  0.00     0.041 C 
ATOM     23  O   UNL     1       5.100 -37.521  13.875  1.00  0.00    -0.550 OA
ATOM     24  O   UNL     1       3.671 -39.135  14.647  1.00  0.00    -0.550 OA
ENDBRANCH  21  22
ENDBRANCH  20  21
ENDBRANCH  19  20
ENDBRANCH  18  19
ENDBRANCH  17  18
ENDBRANCH  16  17
ENDBRANCH  15  16
ENDBRANCH  14  15
ENDBRANCH  13  14
ENDBRANCH   1  13
TORSDOF 20
ENDMDL
MODEL 7
REMARK VINA RESULT:     3.649      3.115      8.575
REMARK INTER + INTRA:           7.387
REMARK INTER:                   9.037
REMARK INTRA:                  -1.650
REMARK UNBOUND:                -0.527
REMARK SMILES CCCCCCCCCCCCCCCCCCCCCC(=O)[O-]
REMARK SMILES IDX 12 1 11 2 10 3 9 4 8 5 7 6 6 7 5 8 4 9 3 10 2 11 1 12 13 13
REMARK SMILES IDX 14 14 15 15 16 16 17 17 18 18 19 19 20 20 21 21 22 22 23 23
REMARK SMILES IDX 24 24
REMARK H PARENT
REMARK Flexibility Score: inf
ROOT
ATOM      1  C   UNL     1       6.115 -33.870  23.735  1.00  0.00     0.000 C 
ENDROOT
BRANCH   1   2
ATOM      2  C   UNL     1       6.108 -34.806  24.951  1.00  0.00     0.000 C 
BRANCH   2   3
ATOM      3  C   UNL     1       5.495 -36.169  24.592  1.00  0.00     0.000 C 
BRANCH   3   4
ATOM      4  C   UNL     1       5.545 -37.169  25.759  1.00  0.00    -0.000 C 
BRANCH   4   5
ATOM      5  C   UNL     1       4.342 -38.127  25.767  1.00  0.00    -0.000 C 
BRANCH   5   6
ATOM      6  C   UNL     1       3.482 -37.994  27.036  1.00  0.00    -0.000 C 
BRANCH   6   7
ATOM      7  C   UNL     1       2.396 -36.901  26.979  1.00  0.00    -0.000 C 
BRANCH   7   8
ATOM      8  C   UNL     1       1.867 -36.429  28.348  1.00  0.00    -0.000 C 
BRANCH   8   9
ATOM      9  C   UNL     1       2.276 -34.998  28.743  1.00  0.00    -0.000 C 
BRANCH   9  10
ATOM     10  C   UNL     1       1.492 -34.466  29.952  1.00  0.00    -0.000 C 
BRANCH  10  11
ATOM     11  C   UNL     1       1.001 -33.036  29.698  1.00  0.00    -0.003 C 
ATOM     12  C   UNL     1      -0.523 -32.975  29.656  1.00  0.00     0.004 C 
ENDBRANCH  10  11
ENDBRANCH   9  10
ENDBRANCH   8   9
ENDBRANCH   7   8
ENDBRANCH   6   7
ENDBRANCH   5   6
ENDBRANCH   4   5
ENDBRANCH   3   4
ENDBRANCH   2   3
ENDBRANCH   1   2
BRANCH   1  13
ATOM     13  C   UNL     1       5.274 -34.449  22.592  1.00  0.00     0.000 C 
BRANCH  13  14
ATOM     14  C   UNL     1       3.970 -33.662  22.414  1.00  0.00     0.000 C 
BRANCH  14  15
ATOM     15  C   UNL     1       3.602 -33.538  20.927  1.00  0.00     0.000 C 
BRANCH  15  16
ATOM     16  C   UNL     1       4.744 -33.970  19.990  1.00  0.00     0.000 C 
BRANCH  16  17
ATOM     17  C   UNL     1       4.293 -34.691  18.705  1.00  0.00     0.000 C 
BRANCH  17  18
ATOM     18  C   UNL     1       4.415 -36.227  18.739  1.00  0.00     0.000 C 
BRANCH  18  19
ATOM     19  C   UNL     1       5.354 -36.786  19.825  1.00  0.00     0.000 C 
BRANCH  19  20
ATOM     20  C   UNL     1       5.245 -38.303  20.073  1.00  0.00     0.006 C 
BRANCH  20  21
ATOM     21  C   UNL     1       5.351 -38.703  21.556  1.00  0.00     0.053 C 
BRANCH  21  22
ATOM     22  C   UNL     1       5.428 -40.187  21.745  1.00  0.00     0.041 C 
ATOM     23  O   UNL     1       6.125 -40.891  20.967  1.00  0.00    -0.550 OA
ATOM     24  O   UNL     1       4.762 -40.791  22.804  1.00  0.00    -0.550 OA
ENDBRANCH  21  22
ENDBRANCH  20  21
ENDBRANCH  19  20
ENDBRANCH  18  19
ENDBRANCH  17  18
ENDBRANCH  16  17
ENDBRANCH  15  16
ENDBRANCH  14  15
ENDBRANCH  13  14
ENDBRANCH   1  13
TORSDOF 20
ENDMDL
MODEL 8
REMARK VINA RESULT:     3.806      3.933      5.947
REMARK INTER + INTRA:           7.729
REMARK INTER:                   8.969
REMARK INTRA:                  -1.240
REMARK UNBOUND:                -0.527
REMARK SMILES CCCCCCCCCCCCCCCCCCCCCC(=O)[O-]
REMARK SMILES IDX 12 1 11 2 10 3 9 4 8 5 7 6 6 7 5 8 4 9 3 10 2 11 1 12 13 13
REMARK SMILES IDX 14 14 15 15 16 16 17 17 18 18 19 19 20 20 21 21 22 22 23 23
REMARK SMILES IDX 24 24
REMARK H PARENT
REMARK Flexibility Score: inf
ROOT
ATOM      1  C   UNL     1       5.769 -35.112  22.941  1.00  0.00     0.000 C 
ENDROOT
BRANCH   1   2
ATOM      2  C   UNL     1       4.319 -35.462  22.586  1.00  0.00     0.000 C 
BRANCH   2   3
ATOM      3  C   UNL     1       3.557 -34.220  22.099  1.00  0.00     0.000 C 
BRANCH   3   4
ATOM      4  C   UNL     1       4.309 -33.456  20.996  1.00  0.00    -0.000 C 
BRANCH   4   5
ATOM      5  C   UNL     1       5.339 -34.336  20.267  1.00  0.00    -0.000 C 
BRANCH   5   6
ATOM      6  C   UNL     1       5.033 -34.494  18.767  1.00  0.00    -0.000 C 
BRANCH   6   7
ATOM      7  C   UNL     1       4.621 -35.915  18.330  1.00  0.00    -0.000 C 
BRANCH   7   8
ATOM      8  C   UNL     1       4.278 -36.882  19.480  1.00  0.00    -0.000 C 
BRANCH   8   9
ATOM      9  C   UNL     1       5.373 -37.914  19.808  1.00  0.00    -0.000 C 
BRANCH   9  10
ATOM     10  C   UNL     1       5.317 -38.400  21.264  1.00  0.00    -0.000 C 
BRANCH  10  11
ATOM     11  C   UNL     1       5.630 -39.898  21.354  1.00  0.00    -0.003 C 
ATOM     12  C   UNL     1       5.070 -40.502  22.638  1.00  0.00     0.004 C 
ENDBRANCH  10  11
ENDBRANCH   9  10
ENDBRANCH   8   9
ENDBRANCH   7   8
ENDBRANCH   6   7
ENDBRANCH   5   6
ENDBRANCH   4   5
ENDBRANCH   3   4
ENDBRANCH   2   3
ENDBRANCH   1   2
BRANCH   1  13
ATOM     13  C   UNL     1       5.845 -34.398  24.296  1.00  0.00     0.000 C 
BRANCH  13  14
ATOM     14  C   UNL     1       6.056 -35.401  25.436  1.00  0.00     0.000 C 
BRANCH  14  15
ATOM     15  C   UNL     1       6.125 -36.839  24.898  1.00  0.00     0.000 C 
BRANCH  15  16
ATOM     16  C   UNL     1       5.063 -37.762  25.521  1.00  0.00     0.000 C 
BRANCH  16  17
ATOM     17  C   UNL     1       3.890 -37.035  26.207  1.00  0.00     0.000 C 
BRANCH  17  18
ATOM     18  C   UNL     1       2.923 -37.945  26.989  1.00  0.00     0.000 C 
BRANCH  18  19
ATOM     19  C   UNL     1       1.812 -37.209  27.763  1.00  0.00     0.000 C 
BRANCH  19  20
ATOM     20  C   UNL     1       1.929 -35.672  27.779  1.00  0.00     0.006 C 
BRANCH  20  21
ATOM     21  C   UNL     1       2.483 -35.102  29.098  1.00  0.00     0.053 C 
BRANCH  21  22
ATOM     22  C   UNL     1       1.467 -34.295  29.846  1.00  0.00     0.041 C 
ATOM     23  O   UNL     1       1.797 -33.664  30.884  1.00  0.00    -0.550 OA
ATOM     24  O   UNL     1       0.162 -34.209  29.377  1.00  0.00    -0.550 OA
ENDBRANCH  21  22
ENDBRANCH  20  21
ENDBRANCH  19  20
ENDBRANCH  18  19
ENDBRANCH  17  18
ENDBRANCH  16  17
ENDBRANCH  15  16
ENDBRANCH  14  15
ENDBRANCH  13  14
ENDBRANCH   1  13
TORSDOF 20
ENDMDL
MODEL 9
REMARK VINA RESULT:     4.025      0.975      1.769
REMARK INTER + INTRA:           8.203
REMARK INTER:                   7.733
REMARK INTRA:                   0.470
REMARK UNBOUND:                -0.527
REMARK SMILES CCCCCCCCCCCCCCCCCCCCCC(=O)[O-]
REMARK SMILES IDX 12 1 11 2 10 3 9 4 8 5 7 6 6 7 5 8 4 9 3 10 2 11 1 12 13 13
REMARK SMILES IDX 14 14 15 15 16 16 17 17 18 18 19 19 20 20 21 21 22 22 23 23
REMARK SMILES IDX 24 24
REMARK H PARENT
REMARK Flexibility Score: inf
ROOT
ATOM      1  C   UNL     1       3.343 -35.056  22.262  1.00  0.00     0.000 C 
ENDROOT
BRANCH   1   2
ATOM      2  C   UNL     1       3.407 -33.588  21.821  1.00  0.00     0.000 C 
BRANCH   2   3
ATOM      3  C   UNL     1       4.196 -33.441  20.510  1.00  0.00     0.000 C 
BRANCH   3   4
ATOM      4  C   UNL     1       4.719 -34.786  19.978  1.00  0.00    -0.000 C 
BRANCH   4   5
ATOM      5  C   UNL     1       5.781 -34.611  18.879  1.00  0.00    -0.000 C 
BRANCH   5   6
ATOM      6  C   UNL     1       5.242 -34.935  17.474  1.00  0.00    -0.000 C 
BRANCH   6   7
ATOM      7  C   UNL     1       3.816 -35.522  17.439  1.00  0.00    -0.000 C 
BRANCH   7   8
ATOM      8  C   UNL     1       3.050 -35.307  16.119  1.00  0.00    -0.000 C 
BRANCH   8   9
ATOM      9  C   UNL     1       2.421 -36.578  15.520  1.00  0.00    -0.000 C 
BRANCH   9  10
ATOM     10  C   UNL     1       2.828 -36.813  14.057  1.00  0.00    -0.000 C 
BRANCH  10  11
ATOM     11  C   UNL     1       4.227 -37.433  13.972  1.00  0.00    -0.003 C 
ATOM     12  C   UNL     1       4.176 -38.942  14.192  1.00  0.00     0.004 C 
ENDBRANCH  10  11
ENDBRANCH   9  10
ENDBRANCH   8   9
ENDBRANCH   7   8
ENDBRANCH   6   7
ENDBRANCH   5   6
ENDBRANCH   4   5
ENDBRANCH   3   4
ENDBRANCH   2   3
ENDBRANCH   1   2
BRANCH   1  13
ATOM     13  C   UNL     1       4.419 -35.362  23.310  1.00  0.00     0.000 C 
BRANCH  13  14
ATOM     14  C   UNL     1       5.675 -34.514  23.075  1.00  0.00     0.000 C 
BRANCH  14  15
ATOM     15  C   UNL     1       6.125 -33.827  24.374  1.00  0.00     0.000 C 
BRANCH  15  16
ATOM     16  C   UNL     1       5.886 -34.695  25.623  1.00  0.00     0.000 C 
BRANCH  16  17
ATOM     17  C   UNL     1       6.111 -36.206  25.418  1.00  0.00     0.000 C 
BRANCH  17  18
ATOM     18  C   UNL     1       4.858 -37.085  25.604  1.00  0.00     0.000 C 
BRANCH  18  19
ATOM     19  C   UNL     1       4.906 -38.450  24.891  1.00  0.00     0.000 C 
BRANCH  19  20
ATOM     20  C   UNL     1       5.706 -38.478  23.574  1.00  0.00     0.006 C 
BRANCH  20  21
ATOM     21  C   UNL     1       4.838 -38.317  22.313  1.00  0.00     0.053 C 
BRANCH  21  22
ATOM     22  C   UNL     1       5.331 -39.148  21.168  1.00  0.00     0.041 C 
ATOM     23  O   UNL     1       5.917 -40.242  21.384  1.00  0.00    -0.550 OA
ATOM     24  O   UNL     1       5.110 -38.735  19.860  1.00  0.00    -0.550 OA
ENDBRANCH  21  22
ENDBRANCH  20  21
ENDBRANCH  19  20
ENDBRANCH  18  19
ENDBRANCH  17  18
ENDBRANCH  16  17
ENDBRANCH  15  16
ENDBRANCH  14  15
ENDBRANCH  13  14
ENDBRANCH   1  13
TORSDOF 20
ENDMDL
