MODEL 1
REMARK VINA RESULT:    -3.246      0.000      0.000
REMARK INTER + INTRA:          -3.689
REMARK INTER:                  -3.626
REMARK INTRA:                  -0.064
REMARK UNBOUND:                -0.064
REMARK SMILES CCCC(=O)[O-]
REMARK SMILES IDX 3 1 4 2 5 3 6 4 2 5 1 6
REMARK H PARENT
REMARK Flexibility Score: inf
ROOT
ATOM      1  C   UNL     1      11.282  -8.511 -44.626  1.00  0.00     0.052 C 
ENDROOT
BRANCH   1   2
ATOM      2  C   UNL     1      11.472  -9.973 -44.362  1.00  0.00     0.041 C 
ATOM      3  O   UNL     1      12.616 -10.427 -44.095  1.00  0.00    -0.550 OA
ATOM      4  O   UNL     1      10.390 -10.841 -44.446  1.00  0.00    -0.550 OA
ENDBRANCH   1   2
BRANCH   1   5
ATOM      5  C   UNL     1      10.115  -7.934 -43.815  1.00  0.00     0.003 C 
ATOM      6  C   UNL     1      10.348  -8.038 -42.308  1.00  0.00     0.004 C 
ENDBRANCH   1   5
TORSDOF 2
ENDMDL
MODEL 2
REMARK VINA RESULT:    -3.197      0.132      1.323
REMARK INTER + INTRA:          -3.635
REMARK INTER:                  -3.571
REMARK INTRA:                  -0.064
REMARK UNBOUND:                -0.064
REMARK SMILES CCCC(=O)[O-]
REMARK SMILES IDX 3 1 4 2 5 3 6 4 2 5 1 6
REMARK H PARENT
REMARK Flexibility Score: inf
ROOT
ATOM      1  C   UNL     1      11.228  -8.468 -44.600  1.00  0.00     0.052 C 
ENDROOT
BRANCH   1   2
ATOM      2  C   UNL     1      11.346  -9.949 -44.416  1.00  0.00     0.041 C 
ATOM      3  O   UNL     1      10.344 -10.692 -44.587  1.00  0.00    -0.550 OA
ATOM      4  O   UNL     1      12.557 -10.507 -44.023  1.00  0.00    -0.550 OA
ENDBRANCH   1   2
BRANCH   1   5
ATOM      5  C   UNL     1      10.119  -7.873 -43.722  1.00  0.00     0.003 C 
ATOM      6  C   UNL     1      10.386  -8.076 -42.231  1.00  0.00     0.004 C 
ENDBRANCH   1   5
TORSDOF 2
ENDMDL
MODEL 3
REMARK VINA RESULT:    -3.071      1.157      1.591
REMARK INTER + INTRA:          -3.493
REMARK INTER:                  -3.423
REMARK INTRA:                  -0.070
REMARK UNBOUND:                -0.064
REMARK SMILES CCCC(=O)[O-]
REMARK SMILES IDX 3 1 4 2 5 3 6 4 2 5 1 6
REMARK H PARENT
REMARK Flexibility Score: inf
ROOT
ATOM      1  C   UNL     1      11.887  -9.424 -44.241  1.00  0.00     0.052 C 
ENDROOT
BRANCH   1   2
ATOM      2  C   UNL     1      11.035 -10.644 -44.072  1.00  0.00     0.041 C 
ATOM      3  O   UNL     1      10.356 -11.084 -45.038  1.00  0.00    -0.550 OA
ATOM      4  O   UNL     1      10.963 -11.277 -42.837  1.00  0.00    -0.550 OA
ENDBRANCH   1   2
BRANCH   1   5
ATOM      5  C   UNL     1      11.057  -8.206 -44.664  1.00  0.00     0.003 C 
ATOM      6  C   UNL     1      10.004  -7.829 -43.622  1.00  0.00     0.004 C 
ENDBRANCH   1   5
TORSDOF 2
ENDMDL
MODEL 4
REMARK VINA RESULT:    -2.938      2.302      3.116
REMARK INTER + INTRA:          -3.345
REMARK INTER:                  -3.291
REMARK INTRA:                  -0.054
REMARK UNBOUND:                -0.064
REMARK SMILES CCCC(=O)[O-]
REMARK SMILES IDX 3 1 4 2 5 3 6 4 2 5 1 6
REMARK H PARENT
REMARK Flexibility Score: inf
ROOT
ATOM      1  C   UNL     1      11.369  -8.783 -44.122  1.00  0.00     0.052 C 
ENDROOT
BRANCH   1   2
ATOM      2  C   UNL     1      10.448  -8.171 -43.111  1.00  0.00     0.041 C 
ATOM      3  O   UNL     1       9.603  -7.307 -43.464  1.00  0.00    -0.550 OA
ATOM      4  O   UNL     1      10.548  -8.529 -41.772  1.00  0.00    -0.550 OA
ENDBRANCH   1   2
BRANCH   1   5
ATOM      5  C   UNL     1      11.029 -10.257 -44.379  1.00  0.00     0.003 C 
ATOM      6  C   UNL     1       9.673 -10.430 -45.063  1.00  0.00     0.004 C 
ENDBRANCH   1   5
TORSDOF 2
ENDMDL
MODEL 5
REMARK VINA RESULT:    -2.861      2.115      3.051
REMARK INTER + INTRA:          -3.259
REMARK INTER:                  -3.247
REMARK INTRA:                  -0.012
REMARK UNBOUND:                -0.064
REMARK SMILES CCCC(=O)[O-]
REMARK SMILES IDX 3 1 4 2 5 3 6 4 2 5 1 6
REMARK H PARENT
REMARK Flexibility Score: inf
ROOT
ATOM      1  C   UNL     1      11.079  -9.797 -43.393  1.00  0.00     0.052 C 
ENDROOT
BRANCH   1   2
ATOM      2  C   UNL     1      10.805  -8.499 -44.089  1.00  0.00     0.041 C 
ATOM      3  O   UNL     1      11.546  -8.116 -45.032  1.00  0.00    -0.550 OA
ATOM      4  O   UNL     1       9.751  -7.696 -43.672  1.00  0.00    -0.550 OA
ENDBRANCH   1   2
BRANCH   1   5
ATOM      5  C   UNL     1      12.207 -10.581 -44.077  1.00  0.00     0.003 C 
ATOM      6  C   UNL     1      12.680 -11.768 -43.239  1.00  0.00     0.004 C 
ENDBRANCH   1   5
TORSDOF 2
ENDMDL
MODEL 6
REMARK VINA RESULT:    -2.763      2.179      3.117
REMARK INTER + INTRA:          -3.150
REMARK INTER:                  -3.084
REMARK INTRA:                  -0.066
REMARK UNBOUND:                -0.064
REMARK SMILES CCCC(=O)[O-]
REMARK SMILES IDX 3 1 4 2 5 3 6 4 2 5 1 6
REMARK H PARENT
REMARK Flexibility Score: inf
ROOT
ATOM      1  C   UNL     1      10.861  -9.895 -43.513  1.00  0.00     0.052 C 
ENDROOT
BRANCH   1   2
ATOM      2  C   UNL     1      10.722  -8.491 -44.015  1.00  0.00     0.041 C 
ATOM      3  O   UNL     1       9.860  -7.721 -43.515  1.00  0.00    -0.550 OA
ATOM      4  O   UNL     1      11.523  -8.043 -45.059  1.00  0.00    -0.550 OA
ENDBRANCH   1   2
BRANCH   1   5
ATOM      5  C   UNL     1      10.630 -10.922 -44.629  1.00  0.00     0.003 C 
ATOM      6  C   UNL     1       9.270 -10.749 -45.306  1.00  0.00     0.004 C 
ENDBRANCH   1   5
TORSDOF 2
ENDMDL
MODEL 7
REMARK VINA RESULT:    -2.708      2.602      3.216
REMARK INTER + INTRA:          -3.088
REMARK INTER:                  -3.067
REMARK INTRA:                  -0.021
REMARK UNBOUND:                -0.064
REMARK SMILES CCCC(=O)[O-]
REMARK SMILES IDX 3 1 4 2 5 3 6 4 2 5 1 6
REMARK H PARENT
REMARK Flexibility Score: inf
ROOT
ATOM      1  C   UNL     1      10.854  -9.529 -42.836  1.00  0.00     0.052 C 
ENDROOT
BRANCH   1   2
ATOM      2  C   UNL     1      10.300  -8.400 -42.022  1.00  0.00     0.041 C 
ATOM      3  O   UNL     1      10.351  -8.440 -40.765  1.00  0.00    -0.550 OA
ATOM      4  O   UNL     1       9.697  -7.319 -42.652  1.00  0.00    -0.550 OA
ENDBRANCH   1   2
BRANCH   1   5
ATOM      5  C   UNL     1      10.836  -9.209 -44.336  1.00  0.00     0.003 C 
ATOM      6  C   UNL     1      12.124  -8.530 -44.801  1.00  0.00     0.004 C 
ENDBRANCH   1   5
TORSDOF 2
ENDMDL
MODEL 8
REMARK VINA RESULT:    -2.656      2.669      3.222
REMARK INTER + INTRA:          -3.030
REMARK INTER:                  -3.020
REMARK INTRA:                  -0.010
REMARK UNBOUND:                -0.064
REMARK SMILES CCCC(=O)[O-]
REMARK SMILES IDX 3 1 4 2 5 3 6 4 2 5 1 6
REMARK H PARENT
REMARK Flexibility Score: inf
ROOT
ATOM      1  C   UNL     1       9.895 -10.609 -45.009  1.00  0.00     0.052 C 
ENDROOT
BRANCH   1   2
ATOM      2  C   UNL     1      10.527  -9.370 -44.454  1.00  0.00     0.041 C 
ATOM      3  O   UNL     1      11.776  -9.305 -44.307  1.00  0.00    -0.550 OA
ATOM      4  O   UNL     1       9.732  -8.298 -44.066  1.00  0.00    -0.550 OA
ENDBRANCH   1   2
BRANCH   1   5
ATOM      5  C   UNL     1       8.438 -10.367 -45.423  1.00  0.00     0.003 C 
ATOM      6  C   UNL     1       8.002 -11.276 -46.572  1.00  0.00     0.004 C 
ENDBRANCH   1   5
TORSDOF 2
ENDMDL
