MODEL 1
REMARK VINA RESULT:    -6.260      0.000      0.000
REMARK INTER + INTRA:          -9.017
REMARK INTER:                  -8.456
REMARK INTRA:                  -0.562
REMARK UNBOUND:                -0.562
REMARK SMILES CC(=O)CCC=C(C)CCC=C(C)C
REMARK SMILES IDX 7 1 6 2 8 3 9 4 10 5 11 6 13 7 12 8 14 9 5 10 4 11 2 12 3 13
REMARK SMILES IDX 1 14
REMARK H PARENT
REMARK Flexibility Score: inf
ROOT
ATOM      1  C   UNL     1      -7.887  33.021  24.991  1.00  0.00    -0.077 C 
ATOM      2  C   UNL     1      -7.562  31.884  24.335  1.00  0.00    -0.028 C 
ATOM      3  C   UNL     1      -8.694  33.002  26.268  1.00  0.00     0.039 C 
ENDROOT
BRANCH   1   4
ATOM      4  C   UNL     1      -7.439  34.351  24.422  1.00  0.00     0.034 C 
BRANCH   4   5
ATOM      5  C   UNL     1      -8.264  34.720  23.184  1.00  0.00     0.032 C 
BRANCH   5   6
ATOM      6  C   UNL     1      -7.510  34.412  21.912  1.00  0.00    -0.028 C 
ATOM      7  C   UNL     1      -7.081  33.179  19.807  1.00  0.00     0.039 C 
ATOM      8  C   UNL     1      -7.881  33.433  21.059  1.00  0.00    -0.080 C 
ATOM      9  C   UNL     1      -9.089  32.569  21.322  1.00  0.00     0.039 C 
ENDBRANCH   5   6
ENDBRANCH   4   5
ENDBRANCH   1   4
BRANCH   2  10
ATOM     10  C   UNL     1      -7.911  30.494  24.808  1.00  0.00     0.035 C 
BRANCH  10  11
ATOM     11  C   UNL     1      -8.804  29.781  23.787  1.00  0.00     0.079 C 
BRANCH  11  12
ATOM     12  C   UNL     1      -7.974  29.155  22.700  1.00  0.00     0.130 C 
ATOM     13  O   UNL     1      -6.949  29.705  22.327  1.00  0.00    -0.300 OA
ATOM     14  C   UNL     1      -8.410  27.875  22.054  1.00  0.00     0.087 C 
ENDBRANCH  11  12
ENDBRANCH  10  11
ENDBRANCH   2  10
TORSDOF 6
ENDMDL
MODEL 2
REMARK VINA RESULT:    -6.258      2.012      3.868
REMARK INTER + INTRA:          -9.015
REMARK INTER:                  -7.966
REMARK INTRA:                  -1.049
REMARK UNBOUND:                -0.562
REMARK SMILES CC(=O)CCC=C(C)CCC=C(C)C
REMARK SMILES IDX 7 1 6 2 8 3 9 4 10 5 11 6 13 7 12 8 14 9 5 10 4 11 2 12 3 13
REMARK SMILES IDX 1 14
REMARK H PARENT
REMARK Flexibility Score: inf
ROOT
ATOM      1  C   UNL     1      -8.157  30.350  23.358  1.00  0.00    -0.077 C 
ATOM      2  C   UNL     1      -9.216  30.248  24.193  1.00  0.00    -0.028 C 
ATOM      3  C   UNL     1      -6.754  30.571  23.871  1.00  0.00     0.039 C 
ENDROOT
BRANCH   1   4
ATOM      4  C   UNL     1      -8.388  30.252  21.864  1.00  0.00     0.034 C 
BRANCH   4   5
ATOM      5  C   UNL     1      -9.285  31.395  21.374  1.00  0.00     0.032 C 
BRANCH   5   6
ATOM      6  C   UNL     1      -8.824  32.725  21.919  1.00  0.00    -0.028 C 
ATOM      7  C   UNL     1      -7.451  34.787  21.926  1.00  0.00     0.039 C 
ATOM      8  C   UNL     1      -7.863  33.467  21.327  1.00  0.00    -0.080 C 
ATOM      9  C   UNL     1      -7.175  33.010  20.065  1.00  0.00     0.039 C 
ENDBRANCH   5   6
ENDBRANCH   4   5
ENDBRANCH   1   4
BRANCH   2  10
ATOM     10  C   UNL     1      -9.124  30.291  25.698  1.00  0.00     0.035 C 
BRANCH  10  11
ATOM     11  C   UNL     1      -9.721  31.593  26.242  1.00  0.00     0.079 C 
BRANCH  11  12
ATOM     12  C   UNL     1      -8.639  32.598  26.525  1.00  0.00     0.130 C 
ATOM     13  O   UNL     1      -8.063  32.582  27.603  1.00  0.00    -0.300 OA
ATOM     14  C   UNL     1      -8.278  33.634  25.505  1.00  0.00     0.087 C 
ENDBRANCH  11  12
ENDBRANCH  10  11
ENDBRANCH   2  10
TORSDOF 6
ENDMDL
MODEL 3
REMARK VINA RESULT:    -6.067      1.367      3.811
REMARK INTER + INTRA:          -8.757
REMARK INTER:                  -8.031
REMARK INTRA:                  -0.726
REMARK UNBOUND:                -0.562
REMARK SMILES CC(=O)CCC=C(C)CCC=C(C)C
REMARK SMILES IDX 7 1 6 2 8 3 9 4 10 5 11 6 13 7 12 8 14 9 5 10 4 11 2 12 3 13
REMARK SMILES IDX 1 14
REMARK H PARENT
REMARK Flexibility Score: inf
ROOT
ATOM      1  C   UNL     1      -7.576  33.938  22.955  1.00  0.00    -0.077 C 
ATOM      2  C   UNL     1      -7.636  32.586  22.967  1.00  0.00    -0.028 C 
ATOM      3  C   UNL     1      -7.586  34.725  21.666  1.00  0.00     0.039 C 
ENDROOT
BRANCH   1   4
ATOM      4  C   UNL     1      -7.485  34.681  24.271  1.00  0.00     0.034 C 
BRANCH   4   5
ATOM      5  C   UNL     1      -8.690  34.360  25.164  1.00  0.00     0.032 C 
BRANCH   5   6
ATOM      6  C   UNL     1      -8.255  33.729  26.465  1.00  0.00    -0.028 C 
ATOM      7  C   UNL     1      -8.129  31.904  28.136  1.00  0.00     0.039 C 
ATOM      8  C   UNL     1      -8.598  32.472  26.820  1.00  0.00    -0.080 C 
ATOM      9  C   UNL     1      -9.451  31.602  25.931  1.00  0.00     0.039 C 
ENDBRANCH   5   6
ENDBRANCH   4   5
ENDBRANCH   1   4
BRANCH   2  10
ATOM     10  C   UNL     1      -7.766  31.726  21.735  1.00  0.00     0.035 C 
BRANCH  10  11
ATOM     11  C   UNL     1      -8.717  30.552  21.991  1.00  0.00     0.079 C 
BRANCH  11  12
ATOM     12  C   UNL     1      -7.947  29.304  22.322  1.00  0.00     0.130 C 
ATOM     13  O   UNL     1      -6.776  29.385  22.659  1.00  0.00    -0.300 OA
ATOM     14  C   UNL     1      -8.599  27.958  22.217  1.00  0.00     0.087 C 
ENDBRANCH  11  12
ENDBRANCH  10  11
ENDBRANCH   2  10
TORSDOF 6
ENDMDL
MODEL 4
REMARK VINA RESULT:    -5.991      1.041      3.702
REMARK INTER + INTRA:          -8.653
REMARK INTER:                  -7.778
REMARK INTRA:                  -0.876
REMARK UNBOUND:                -0.562
REMARK SMILES CC(=O)CCC=C(C)CCC=C(C)C
REMARK SMILES IDX 7 1 6 2 8 3 9 4 10 5 11 6 13 7 12 8 14 9 5 10 4 11 2 12 3 13
REMARK SMILES IDX 1 14
REMARK H PARENT
REMARK Flexibility Score: inf
ROOT
ATOM      1  C   UNL     1      -8.106  33.051  21.254  1.00  0.00    -0.077 C 
ATOM      2  C   UNL     1      -8.952  32.095  21.700  1.00  0.00    -0.028 C 
ATOM      3  C   UNL     1      -7.021  32.750  20.247  1.00  0.00     0.039 C 
ENDROOT
BRANCH   1   4
ATOM      4  C   UNL     1      -8.244  34.461  21.789  1.00  0.00     0.034 C 
BRANCH   4   5
ATOM      5  C   UNL     1      -7.171  34.752  22.845  1.00  0.00     0.032 C 
BRANCH   5   6
ATOM      6  C   UNL     1      -7.423  33.969  24.111  1.00  0.00    -0.028 C 
ATOM      7  C   UNL     1      -8.451  33.570  26.330  1.00  0.00     0.039 C 
ATOM      8  C   UNL     1      -8.246  34.403  25.090  1.00  0.00    -0.080 C 
ATOM      9  C   UNL     1      -8.977  35.718  24.985  1.00  0.00     0.039 C 
ENDBRANCH   5   6
ENDBRANCH   4   5
ENDBRANCH   1   4
BRANCH   2  10
ATOM     10  C   UNL     1      -8.950  30.663  21.225  1.00  0.00     0.035 C 
BRANCH  10  11
ATOM     11  C   UNL     1      -8.847  29.698  22.410  1.00  0.00     0.079 C 
BRANCH  11  12
ATOM     12  C   UNL     1      -7.569  29.923  23.171  1.00  0.00     0.130 C 
ATOM     13  O   UNL     1      -6.495  29.696  22.634  1.00  0.00    -0.300 OA
ATOM     14  C   UNL     1      -7.604  30.402  24.591  1.00  0.00     0.087 C 
ENDBRANCH  11  12
ENDBRANCH  10  11
ENDBRANCH   2  10
TORSDOF 6
ENDMDL
MODEL 5
REMARK VINA RESULT:    -5.839      1.426      4.244
REMARK INTER + INTRA:          -8.449
REMARK INTER:                  -7.831
REMARK INTRA:                  -0.618
REMARK UNBOUND:                -0.562
REMARK SMILES CC(=O)CCC=C(C)CCC=C(C)C
REMARK SMILES IDX 7 1 6 2 8 3 9 4 10 5 11 6 13 7 12 8 14 9 5 10 4 11 2 12 3 13
REMARK SMILES IDX 1 14
REMARK H PARENT
REMARK Flexibility Score: inf
ROOT
ATOM      1  C   UNL     1      -8.123  34.682  24.953  1.00  0.00    -0.077 C 
ATOM      2  C   UNL     1      -7.389  34.263  23.897  1.00  0.00    -0.028 C 
ATOM      3  C   UNL     1      -9.223  35.707  24.803  1.00  0.00     0.039 C 
ENDROOT
BRANCH   1   4
ATOM      4  C   UNL     1      -7.825  34.116  26.325  1.00  0.00     0.034 C 
BRANCH   4   5
ATOM      5  C   UNL     1      -8.791  32.975  26.667  1.00  0.00     0.032 C 
BRANCH   5   6
ATOM      6  C   UNL     1      -8.977  32.045  25.492  1.00  0.00    -0.028 C 
ATOM      7  C   UNL     1      -8.737  29.902  24.273  1.00  0.00     0.039 C 
ATOM      8  C   UNL     1      -8.516  30.776  25.481  1.00  0.00    -0.080 C 
ATOM      9  C   UNL     1      -7.773  30.193  26.657  1.00  0.00     0.039 C 
ENDBRANCH   5   6
ENDBRANCH   4   5
ENDBRANCH   1   4
BRANCH   2  10
ATOM     10  C   UNL     1      -7.603  34.716  22.473  1.00  0.00     0.035 C 
BRANCH  10  11
ATOM     11  C   UNL     1      -8.452  33.699  21.703  1.00  0.00     0.079 C 
BRANCH  11  12
ATOM     12  C   UNL     1      -7.577  32.689  21.013  1.00  0.00     0.130 C 
ATOM     13  O   UNL     1      -7.440  31.575  21.496  1.00  0.00    -0.300 OA
ATOM     14  C   UNL     1      -6.854  33.046  19.750  1.00  0.00     0.087 C 
ENDBRANCH  11  12
ENDBRANCH  10  11
ENDBRANCH   2  10
TORSDOF 6
ENDMDL
MODEL 6
REMARK VINA RESULT:    -5.792      1.804      5.275
REMARK INTER + INTRA:          -8.386
REMARK INTER:                  -7.593
REMARK INTRA:                  -0.793
REMARK UNBOUND:                -0.562
REMARK SMILES CC(=O)CCC=C(C)CCC=C(C)C
REMARK SMILES IDX 7 1 6 2 8 3 9 4 10 5 11 6 13 7 12 8 14 9 5 10 4 11 2 12 3 13
REMARK SMILES IDX 1 14
REMARK H PARENT
REMARK Flexibility Score: inf
ROOT
ATOM      1  C   UNL     1      -8.640  29.536  23.342  1.00  0.00    -0.077 C 
ATOM      2  C   UNL     1      -8.196  30.784  23.067  1.00  0.00    -0.028 C 
ATOM      3  C   UNL     1      -8.543  28.415  22.334  1.00  0.00     0.039 C 
ENDROOT
BRANCH   1   4
ATOM      4  C   UNL     1      -9.263  29.259  24.694  1.00  0.00     0.034 C 
BRANCH   4   5
ATOM      5  C   UNL     1      -9.884  30.533  25.280  1.00  0.00     0.032 C 
BRANCH   5   6
ATOM      6  C   UNL     1      -9.266  30.879  26.614  1.00  0.00    -0.028 C 
ATOM      7  C   UNL     1      -8.062  32.340  28.212  1.00  0.00     0.039 C 
ATOM      8  C   UNL     1      -8.659  32.061  26.856  1.00  0.00    -0.080 C 
ATOM      9  C   UNL     1      -8.555  33.130  25.797  1.00  0.00     0.039 C 
ENDBRANCH   5   6
ENDBRANCH   4   5
ENDBRANCH   1   4
BRANCH   2  10
ATOM     10  C   UNL     1      -7.524  31.188  21.778  1.00  0.00     0.035 C 
BRANCH  10  11
ATOM     11  C   UNL     1      -8.362  32.232  21.033  1.00  0.00     0.079 C 
BRANCH  11  12
ATOM     12  C   UNL     1      -7.542  33.457  20.732  1.00  0.00     0.130 C 
ATOM     13  O   UNL     1      -6.841  33.486  19.732  1.00  0.00    -0.300 OA
ATOM     14  C   UNL     1      -7.560  34.631  21.662  1.00  0.00     0.087 C 
ENDBRANCH  11  12
ENDBRANCH  10  11
ENDBRANCH   2  10
TORSDOF 6
ENDMDL
MODEL 7
REMARK VINA RESULT:    -5.654      1.620      4.395
REMARK INTER + INTRA:          -8.198
REMARK INTER:                  -7.043
REMARK INTRA:                  -1.156
REMARK UNBOUND:                -0.562
REMARK SMILES CC(=O)CCC=C(C)CCC=C(C)C
REMARK SMILES IDX 7 1 6 2 8 3 9 4 10 5 11 6 13 7 12 8 14 9 5 10 4 11 2 12 3 13
REMARK SMILES IDX 1 14
REMARK H PARENT
REMARK Flexibility Score: inf
ROOT
ATOM      1  C   UNL     1      -7.909  30.585  23.988  1.00  0.00    -0.077 C 
ATOM      2  C   UNL     1      -8.937  30.722  23.119  1.00  0.00    -0.028 C 
ATOM      3  C   UNL     1      -6.477  30.481  23.519  1.00  0.00     0.039 C 
ENDROOT
BRANCH   1   4
ATOM      4  C   UNL     1      -8.205  30.523  25.472  1.00  0.00     0.034 C 
BRANCH   4   5
ATOM      5  C   UNL     1      -9.279  31.547  25.858  1.00  0.00     0.032 C 
BRANCH   5   6
ATOM      6  C   UNL     1      -8.663  32.784  26.468  1.00  0.00    -0.028 C 
ATOM      7  C   UNL     1      -7.925  35.148  26.470  1.00  0.00     0.039 C 
ATOM      8  C   UNL     1      -8.552  33.953  25.800  1.00  0.00    -0.080 C 
ATOM      9  C   UNL     1      -9.040  34.104  24.381  1.00  0.00     0.039 C 
ENDBRANCH   5   6
ENDBRANCH   4   5
ENDBRANCH   1   4
BRANCH   2  10
ATOM     10  C   UNL     1      -8.782  30.834  21.623  1.00  0.00     0.035 C 
BRANCH  10  11
ATOM     11  C   UNL     1      -9.006  32.277  21.160  1.00  0.00     0.079 C 
BRANCH  11  12
ATOM     12  C   UNL     1      -7.693  32.959  20.888  1.00  0.00     0.130 C 
ATOM     13  O   UNL     1      -6.783  32.335  20.363  1.00  0.00    -0.300 OA
ATOM     14  C   UNL     1      -7.485  34.391  21.278  1.00  0.00     0.087 C 
ENDBRANCH  11  12
ENDBRANCH  10  11
ENDBRANCH   2  10
TORSDOF 6
ENDMDL
MODEL 8
REMARK VINA RESULT:    -4.731     16.251     18.376
REMARK INTER + INTRA:          -6.952
REMARK INTER:                  -6.165
REMARK INTRA:                  -0.787
REMARK UNBOUND:                -0.562
REMARK SMILES CC(=O)CCC=C(C)CCC=C(C)C
REMARK SMILES IDX 7 1 6 2 8 3 9 4 10 5 11 6 13 7 12 8 14 9 5 10 4 11 2 12 3 13
REMARK SMILES IDX 1 14
REMARK H PARENT
REMARK Flexibility Score: inf
ROOT
ATOM      1  C   UNL     1       1.578  47.994  19.052  1.00  0.00    -0.077 C 
ATOM      2  C   UNL     1       0.252  47.870  18.813  1.00  0.00    -0.028 C 
ATOM      3  C   UNL     1       2.593  47.994  17.933  1.00  0.00     0.039 C 
ENDROOT
BRANCH   1   4
ATOM      4  C   UNL     1       2.058  48.124  20.482  1.00  0.00     0.034 C 
BRANCH   4   5
ATOM      5  C   UNL     1       3.243  47.188  20.748  1.00  0.00     0.032 C 
BRANCH   5   6
ATOM      6  C   UNL     1       2.793  45.751  20.853  1.00  0.00    -0.028 C 
ATOM      7  C   UNL     1       2.837  43.343  20.272  1.00  0.00     0.039 C 
ATOM      8  C   UNL     1       3.336  44.757  20.117  1.00  0.00    -0.080 C 
ATOM      9  C   UNL     1       4.443  45.019  19.127  1.00  0.00     0.039 C 
ENDBRANCH   5   6
ENDBRANCH   4   5
ENDBRANCH   1   4
BRANCH   2  10
ATOM     10  C   UNL     1      -0.363  47.769  17.439  1.00  0.00     0.035 C 
BRANCH  10  11
ATOM     11  C   UNL     1      -1.713  47.047  17.500  1.00  0.00     0.079 C 
BRANCH  11  12
ATOM     12  C   UNL     1      -2.240  46.784  16.117  1.00  0.00     0.130 C 
ATOM     13  O   UNL     1      -3.199  46.042  15.964  1.00  0.00    -0.300 OA
ATOM     14  C   UNL     1      -1.582  47.405  14.922  1.00  0.00     0.087 C 
ENDBRANCH  11  12
ENDBRANCH  10  11
ENDBRANCH   2  10
TORSDOF 6
ENDMDL
MODEL 9
REMARK VINA RESULT:    -4.727     16.495     17.962
REMARK INTER + INTRA:          -6.947
REMARK INTER:                  -6.348
REMARK INTRA:                  -0.599
REMARK UNBOUND:                -0.562
REMARK SMILES CC(=O)CCC=C(C)CCC=C(C)C
REMARK SMILES IDX 7 1 6 2 8 3 9 4 10 5 11 6 13 7 12 8 14 9 5 10 4 11 2 12 3 13
REMARK SMILES IDX 1 14
REMARK H PARENT
REMARK Flexibility Score: inf
ROOT
ATOM      1  C   UNL     1      -0.357  47.549  17.764  1.00  0.00    -0.077 C 
ATOM      2  C   UNL     1       0.020  47.070  18.972  1.00  0.00    -0.028 C 
ATOM      3  C   UNL     1       0.641  48.125  16.788  1.00  0.00     0.039 C 
ENDROOT
BRANCH   1   4
ATOM      4  C   UNL     1      -1.823  47.517  17.386  1.00  0.00     0.034 C 
BRANCH   4   5
ATOM      5  C   UNL     1      -2.095  46.428  16.342  1.00  0.00     0.032 C 
BRANCH   5   6
ATOM      6  C   UNL     1      -3.018  46.928  15.257  1.00  0.00    -0.028 C 
ATOM      7  C   UNL     1      -3.555  47.800  13.001  1.00  0.00     0.039 C 
ATOM      8  C   UNL     1      -2.577  47.310  14.038  1.00  0.00    -0.080 C 
ATOM      9  C   UNL     1      -1.114  47.264  13.675  1.00  0.00     0.039 C 
ENDBRANCH   5   6
ENDBRANCH   4   5
ENDBRANCH   1   4
BRANCH   2  10
ATOM     10  C   UNL     1       1.446  47.007  19.459  1.00  0.00     0.035 C 
BRANCH  10  11
ATOM     11  C   UNL     1       1.615  45.898  20.503  1.00  0.00     0.079 C 
BRANCH  11  12
ATOM     12  C   UNL     1       2.838  45.073  20.210  1.00  0.00     0.130 C 
ATOM     13  O   UNL     1       3.846  45.613  19.782  1.00  0.00    -0.300 OA
ATOM     14  C   UNL     1       2.820  43.588  20.417  1.00  0.00     0.087 C 
ENDBRANCH  11  12
ENDBRANCH  10  11
ENDBRANCH   2  10
TORSDOF 6
ENDMDL
