MODEL 1
REMARK VINA RESULT:    -5.204      0.000      0.000
REMARK INTER + INTRA:         -14.372
REMARK INTER:                 -11.288
REMARK INTRA:                  -3.084
REMARK UNBOUND:                -3.084
REMARK SMILES CCCCCCCCCCCCCCCCCCCCCC(=O)[O-]
REMARK SMILES IDX 12 1 11 2 10 3 9 4 8 5 7 6 6 7 5 8 4 9 3 10 2 11 1 12 13 13
REMARK SMILES IDX 14 14 15 15 16 16 17 17 18 18 19 19 20 20 21 21 22 22 23 23
REMARK SMILES IDX 24 24
REMARK H PARENT
REMARK Flexibility Score: inf
ROOT
ATOM      1  C   UNL     1       4.180   7.914  12.930  1.00  0.00     0.000 C 
ENDROOT
BRANCH   1   2
ATOM      2  C   UNL     1       2.882   7.995  13.754  1.00  0.00     0.000 C 
BRANCH   2   3
ATOM      3  C   UNL     1       2.994   8.951  14.951  1.00  0.00     0.000 C 
BRANCH   3   4
ATOM      4  C   UNL     1       2.352   8.340  16.206  1.00  0.00    -0.000 C 
BRANCH   4   5
ATOM      5  C   UNL     1       1.880   6.894  15.984  1.00  0.00    -0.000 C 
BRANCH   5   6
ATOM      6  C   UNL     1       2.056   6.011  17.228  1.00  0.00    -0.000 C 
BRANCH   6   7
ATOM      7  C   UNL     1       3.233   5.042  17.043  1.00  0.00    -0.000 C 
BRANCH   7   8
ATOM      8  C   UNL     1       4.509   5.508  17.765  1.00  0.00    -0.000 C 
BRANCH   8   9
ATOM      9  C   UNL     1       5.441   6.396  16.919  1.00  0.00    -0.000 C 
BRANCH   9  10
ATOM     10  C   UNL     1       5.646   5.880  15.477  1.00  0.00    -0.000 C 
BRANCH  10  11
ATOM     11  C   UNL     1       6.870   6.517  14.802  1.00  0.00    -0.003 C 
ATOM     12  C   UNL     1       7.985   5.495  14.606  1.00  0.00     0.004 C 
ENDBRANCH  10  11
ENDBRANCH   9  10
ENDBRANCH   8   9
ENDBRANCH   7   8
ENDBRANCH   6   7
ENDBRANCH   5   6
ENDBRANCH   4   5
ENDBRANCH   3   4
ENDBRANCH   2   3
ENDBRANCH   1   2
BRANCH   1  13
ATOM     13  C   UNL     1       4.220   6.780  11.889  1.00  0.00     0.000 C 
BRANCH  13  14
ATOM     14  C   UNL     1       3.206   6.913  10.737  1.00  0.00     0.000 C 
BRANCH  14  15
ATOM     15  C   UNL     1       3.436   8.150   9.842  1.00  0.00     0.000 C 
BRANCH  15  16
ATOM     16  C   UNL     1       4.845   8.181   9.225  1.00  0.00     0.000 C 
BRANCH  16  17
ATOM     17  C   UNL     1       5.484   9.585   9.308  1.00  0.00     0.000 C 
BRANCH  17  18
ATOM     18  C   UNL     1       6.330   9.802  10.574  1.00  0.00     0.000 C 
BRANCH  18  19
ATOM     19  C   UNL     1       7.808   9.435  10.375  1.00  0.00     0.000 C 
BRANCH  19  20
ATOM     20  C   UNL     1       8.280   8.460  11.464  1.00  0.00     0.006 C 
BRANCH  20  21
ATOM     21  C   UNL     1       7.625   7.079  11.331  1.00  0.00     0.053 C 
BRANCH  21  22
ATOM     22  C   UNL     1       8.295   6.240  10.287  1.00  0.00     0.041 C 
ATOM     23  O   UNL     1       7.606   5.594   9.455  1.00  0.00    -0.550 OA
ATOM     24  O   UNL     1       9.682   6.192  10.218  1.00  0.00    -0.550 OA
ENDBRANCH  21  22
ENDBRANCH  20  21
ENDBRANCH  19  20
ENDBRANCH  18  19
ENDBRANCH  17  18
ENDBRANCH  16  17
ENDBRANCH  15  16
ENDBRANCH  14  15
ENDBRANCH  13  14
ENDBRANCH   1  13
TORSDOF 20
ENDMDL
MODEL 2
REMARK VINA RESULT:    -5.130      1.662      6.545
REMARK INTER + INTRA:         -14.213
REMARK INTER:                 -11.536
REMARK INTRA:                  -2.678
REMARK UNBOUND:                -3.084
REMARK SMILES CCCCCCCCCCCCCCCCCCCCCC(=O)[O-]
REMARK SMILES IDX 12 1 11 2 10 3 9 4 8 5 7 6 6 7 5 8 4 9 3 10 2 11 1 12 13 13
REMARK SMILES IDX 14 14 15 15 16 16 17 17 18 18 19 19 20 20 21 21 22 22 23 23
REMARK SMILES IDX 24 24
REMARK H PARENT
REMARK Flexibility Score: inf
ROOT
ATOM      1  C   UNL     1       3.231   7.780  12.983  1.00  0.00     0.000 C 
ENDROOT
BRANCH   1   2
ATOM      2  C   UNL     1       4.371   7.211  12.118  1.00  0.00     0.000 C 
BRANCH   2   3
ATOM      3  C   UNL     1       3.901   6.783  10.719  1.00  0.00     0.000 C 
BRANCH   3   4
ATOM      4  C   UNL     1       4.661   7.549   9.626  1.00  0.00    -0.000 C 
BRANCH   4   5
ATOM      5  C   UNL     1       4.267   9.033   9.560  1.00  0.00    -0.000 C 
BRANCH   5   6
ATOM      6  C   UNL     1       5.384   9.969  10.042  1.00  0.00    -0.000 C 
BRANCH   6   7
ATOM      7  C   UNL     1       6.703   9.658   9.319  1.00  0.00    -0.000 C 
BRANCH   7   8
ATOM      8  C   UNL     1       7.919   9.673  10.261  1.00  0.00    -0.000 C 
BRANCH   8   9
ATOM      9  C   UNL     1       7.950   8.528  11.291  1.00  0.00    -0.000 C 
BRANCH   9  10
ATOM     10  C   UNL     1       7.828   7.124  10.660  1.00  0.00    -0.000 C 
BRANCH  10  11
ATOM     11  C   UNL     1       9.016   6.220  11.021  1.00  0.00    -0.003 C 
ATOM     12  C   UNL     1       9.630   5.593   9.773  1.00  0.00     0.004 C 
ENDBRANCH  10  11
ENDBRANCH   9  10
ENDBRANCH   8   9
ENDBRANCH   7   8
ENDBRANCH   6   7
ENDBRANCH   5   6
ENDBRANCH   4   5
ENDBRANCH   3   4
ENDBRANCH   2   3
ENDBRANCH   1   2
BRANCH   1  13
ATOM     13  C   UNL     1       3.687   8.644  14.173  1.00  0.00     0.000 C 
BRANCH  13  14
ATOM     14  C   UNL     1       2.796   8.555  15.426  1.00  0.00     0.000 C 
BRANCH  14  15
ATOM     15  C   UNL     1       3.456   9.118  16.703  1.00  0.00     0.000 C 
BRANCH  15  16
ATOM     16  C   UNL     1       2.988   8.396  17.979  1.00  0.00     0.000 C 
BRANCH  16  17
ATOM     17  C   UNL     1       2.481   6.967  17.684  1.00  0.00     0.000 C 
BRANCH  17  18
ATOM     18  C   UNL     1       3.511   5.870  18.001  1.00  0.00     0.000 C 
BRANCH  18  19
ATOM     19  C   UNL     1       4.097   5.219  16.740  1.00  0.00     0.000 C 
BRANCH  19  20
ATOM     20  C   UNL     1       5.364   5.958  16.281  1.00  0.00     0.006 C 
BRANCH  20  21
ATOM     21  C   UNL     1       5.853   5.475  14.909  1.00  0.00     0.053 C 
BRANCH  21  22
ATOM     22  C   UNL     1       7.161   6.099  14.530  1.00  0.00     0.041 C 
ATOM     23  O   UNL     1       8.214   5.410  14.530  1.00  0.00    -0.550 OA
ATOM     24  O   UNL     1       7.211   7.436  14.154  1.00  0.00    -0.550 OA
ENDBRANCH  21  22
ENDBRANCH  20  21
ENDBRANCH  19  20
ENDBRANCH  18  19
ENDBRANCH  17  18
ENDBRANCH  16  17
ENDBRANCH  15  16
ENDBRANCH  14  15
ENDBRANCH  13  14
ENDBRANCH   1  13
TORSDOF 20
ENDMDL
MODEL 3
REMARK VINA RESULT:    -5.095      3.161      6.691
REMARK INTER + INTRA:         -14.136
REMARK INTER:                 -11.215
REMARK INTRA:                  -2.921
REMARK UNBOUND:                -3.084
REMARK SMILES CCCCCCCCCCCCCCCCCCCCCC(=O)[O-]
REMARK SMILES IDX 12 1 11 2 10 3 9 4 8 5 7 6 6 7 5 8 4 9 3 10 2 11 1 12 13 13
REMARK SMILES IDX 14 14 15 15 16 16 17 17 18 18 19 19 20 20 21 21 22 22 23 23
REMARK SMILES IDX 24 24
REMARK H PARENT
REMARK Flexibility Score: inf
ROOT
ATOM      1  C   UNL     1       4.289   6.738  10.927  1.00  0.00     0.000 C 
ENDROOT
BRANCH   1   2
ATOM      2  C   UNL     1       5.031   7.309   9.704  1.00  0.00     0.000 C 
BRANCH   2   3
ATOM      3  C   UNL     1       4.436   8.638   9.213  1.00  0.00     0.000 C 
BRANCH   3   4
ATOM      4  C   UNL     1       5.448   9.783   9.366  1.00  0.00    -0.000 C 
BRANCH   4   5
ATOM      5  C   UNL     1       6.300   9.653  10.639  1.00  0.00    -0.000 C 
BRANCH   5   6
ATOM      6  C   UNL     1       7.808   9.635  10.349  1.00  0.00    -0.000 C 
BRANCH   6   7
ATOM      7  C   UNL     1       8.585   9.067  11.546  1.00  0.00    -0.000 C 
BRANCH   7   8
ATOM      8  C   UNL     1       7.719   8.169  12.448  1.00  0.00    -0.000 C 
BRANCH   8   9
ATOM      9  C   UNL     1       7.727   6.676  12.069  1.00  0.00    -0.000 C 
BRANCH   9  10
ATOM     10  C   UNL     1       9.028   6.221  11.372  1.00  0.00    -0.000 C 
BRANCH  10  11
ATOM     11  C   UNL     1       8.799   5.852   9.899  1.00  0.00    -0.003 C 
ATOM     12  C   UNL     1      10.094   5.388   9.239  1.00  0.00     0.004 C 
ENDBRANCH  10  11
ENDBRANCH   9  10
ENDBRANCH   8   9
ENDBRANCH   7   8
ENDBRANCH   6   7
ENDBRANCH   5   6
ENDBRANCH   4   5
ENDBRANCH   3   4
ENDBRANCH   2   3
ENDBRANCH   1   2
BRANCH   1  13
ATOM     13  C   UNL     1       2.785   7.060  10.983  1.00  0.00     0.000 C 
BRANCH  13  14
ATOM     14  C   UNL     1       2.348   7.941  12.169  1.00  0.00     0.000 C 
BRANCH  14  15
ATOM     15  C   UNL     1       3.508   8.710  12.836  1.00  0.00     0.000 C 
BRANCH  15  16
ATOM     16  C   UNL     1       3.307   8.889  14.351  1.00  0.00     0.000 C 
BRANCH  16  17
ATOM     17  C   UNL     1       4.449   8.243  15.167  1.00  0.00     0.000 C 
BRANCH  17  18
ATOM     18  C   UNL     1       5.047   6.991  14.505  1.00  0.00     0.000 C 
BRANCH  18  19
ATOM     19  C   UNL     1       5.618   5.993  15.522  1.00  0.00     0.000 C 
BRANCH  19  20
ATOM     20  C   UNL     1       4.936   6.153  16.889  1.00  0.00     0.006 C 
BRANCH  20  21
ATOM     21  C   UNL     1       3.671   5.292  17.011  1.00  0.00     0.053 C 
BRANCH  21  22
ATOM     22  C   UNL     1       2.630   5.946  17.865  1.00  0.00     0.041 C 
ATOM     23  O   UNL     1       1.944   5.258  18.666  1.00  0.00    -0.550 OA
ATOM     24  O   UNL     1       2.434   7.320  17.794  1.00  0.00    -0.550 OA
ENDBRANCH  21  22
ENDBRANCH  20  21
ENDBRANCH  19  20
ENDBRANCH  18  19
ENDBRANCH  17  18
ENDBRANCH  16  17
ENDBRANCH  15  16
ENDBRANCH  14  15
ENDBRANCH  13  14
ENDBRANCH   1  13
TORSDOF 20
ENDMDL
MODEL 4
REMARK VINA RESULT:    -4.995      0.946      1.660
REMARK INTER + INTRA:         -13.919
REMARK INTER:                 -10.904
REMARK INTRA:                  -3.015
REMARK UNBOUND:                -3.084
REMARK SMILES CCCCCCCCCCCCCCCCCCCCCC(=O)[O-]
REMARK SMILES IDX 12 1 11 2 10 3 9 4 8 5 7 6 6 7 5 8 4 9 3 10 2 11 1 12 13 13
REMARK SMILES IDX 14 14 15 15 16 16 17 17 18 18 19 19 20 20 21 21 22 22 23 23
REMARK SMILES IDX 24 24
REMARK H PARENT
REMARK Flexibility Score: inf
ROOT
ATOM      1  C   UNL     1       3.254   8.720  14.089  1.00  0.00     0.000 C 
ENDROOT
BRANCH   1   2
ATOM      2  C   UNL     1       3.064   8.957  15.598  1.00  0.00     0.000 C 
BRANCH   2   3
ATOM      3  C   UNL     1       2.076   7.969  16.237  1.00  0.00     0.000 C 
BRANCH   3   4
ATOM      4  C   UNL     1       1.985   8.187  17.755  1.00  0.00    -0.000 C 
BRANCH   4   5
ATOM      5  C   UNL     1       2.575   7.016  18.557  1.00  0.00    -0.000 C 
BRANCH   5   6
ATOM      6  C   UNL     1       2.240   5.646  17.948  1.00  0.00    -0.000 C 
BRANCH   6   7
ATOM      7  C   UNL     1       3.448   5.081  17.185  1.00  0.00    -0.000 C 
BRANCH   7   8
ATOM      8  C   UNL     1       4.784   5.689  17.647  1.00  0.00    -0.000 C 
BRANCH   8   9
ATOM      9  C   UNL     1       5.570   6.427  16.547  1.00  0.00    -0.000 C 
BRANCH   9  10
ATOM     10  C   UNL     1       5.249   5.933  15.119  1.00  0.00    -0.000 C 
BRANCH  10  11
ATOM     11  C   UNL     1       6.255   6.458  14.084  1.00  0.00    -0.003 C 
ATOM     12  C   UNL     1       7.680   6.046  14.442  1.00  0.00     0.004 C 
ENDBRANCH  10  11
ENDBRANCH   9  10
ENDBRANCH   8   9
ENDBRANCH   7   8
ENDBRANCH   6   7
ENDBRANCH   5   6
ENDBRANCH   4   5
ENDBRANCH   3   4
ENDBRANCH   2   3
ENDBRANCH   1   2
BRANCH   1  13
ATOM     13  C   UNL     1       2.096   7.979  13.396  1.00  0.00     0.000 C 
BRANCH  13  14
ATOM     14  C   UNL     1       2.033   8.148  11.866  1.00  0.00     0.000 C 
BRANCH  14  15
ATOM     15  C   UNL     1       2.570   6.933  11.080  1.00  0.00     0.000 C 
BRANCH  15  16
ATOM     16  C   UNL     1       4.100   6.965  10.912  1.00  0.00     0.000 C 
BRANCH  16  17
ATOM     17  C   UNL     1       4.594   8.320  10.360  1.00  0.00     0.000 C 
BRANCH  17  18
ATOM     18  C   UNL     1       5.540   9.067  11.316  1.00  0.00     0.000 C 
BRANCH  18  19
ATOM     19  C   UNL     1       6.555   9.953  10.581  1.00  0.00     0.000 C 
BRANCH  19  20
ATOM     20  C   UNL     1       7.886   9.213  10.383  1.00  0.00     0.006 C 
BRANCH  20  21
ATOM     21  C   UNL     1       8.102   8.116  11.434  1.00  0.00     0.053 C 
BRANCH  21  22
ATOM     22  C   UNL     1       8.335   6.777  10.806  1.00  0.00     0.041 C 
ATOM     23  O   UNL     1       9.340   6.091  11.128  1.00  0.00    -0.550 OA
ATOM     24  O   UNL     1       7.426   6.274   9.881  1.00  0.00    -0.550 OA
ENDBRANCH  21  22
ENDBRANCH  20  21
ENDBRANCH  19  20
ENDBRANCH  18  19
ENDBRANCH  17  18
ENDBRANCH  16  17
ENDBRANCH  15  16
ENDBRANCH  14  15
ENDBRANCH  13  14
ENDBRANCH   1  13
TORSDOF 20
ENDMDL
MODEL 5
REMARK VINA RESULT:    -4.965      2.589      6.548
REMARK INTER + INTRA:         -13.855
REMARK INTER:                 -10.990
REMARK INTRA:                  -2.864
REMARK UNBOUND:                -3.084
REMARK SMILES CCCCCCCCCCCCCCCCCCCCCC(=O)[O-]
REMARK SMILES IDX 12 1 11 2 10 3 9 4 8 5 7 6 6 7 5 8 4 9 3 10 2 11 1 12 13 13
REMARK SMILES IDX 14 14 15 15 16 16 17 17 18 18 19 19 20 20 21 21 22 22 23 23
REMARK SMILES IDX 24 24
REMARK H PARENT
REMARK Flexibility Score: inf
ROOT
ATOM      1  C   UNL     1       3.925   6.717  11.150  1.00  0.00     0.000 C 
ENDROOT
BRANCH   1   2
ATOM      2  C   UNL     1       4.868   7.209  10.036  1.00  0.00     0.000 C 
BRANCH   2   3
ATOM      3  C   UNL     1       4.288   8.391   9.244  1.00  0.00     0.000 C 
BRANCH   3   4
ATOM      4  C   UNL     1       5.267   9.575   9.228  1.00  0.00    -0.000 C 
BRANCH   4   5
ATOM      5  C   UNL     1       6.022   9.735  10.557  1.00  0.00    -0.000 C 
BRANCH   5   6
ATOM      6  C   UNL     1       7.533   9.933  10.364  1.00  0.00    -0.000 C 
BRANCH   6   7
ATOM      7  C   UNL     1       8.325   9.034  11.326  1.00  0.00    -0.000 C 
BRANCH   7   8
ATOM      8  C   UNL     1       8.301   7.552  10.915  1.00  0.00    -0.000 C 
BRANCH   8   9
ATOM      9  C   UNL     1       8.044   6.567  12.071  1.00  0.00    -0.000 C 
BRANCH   9  10
ATOM     10  C   UNL     1       7.249   7.182  13.244  1.00  0.00    -0.000 C 
BRANCH  10  11
ATOM     11  C   UNL     1       7.329   6.322  14.514  1.00  0.00    -0.003 C 
ATOM     12  C   UNL     1       8.435   5.277  14.402  1.00  0.00     0.004 C 
ENDBRANCH  10  11
ENDBRANCH   9  10
ENDBRANCH   8   9
ENDBRANCH   7   8
ENDBRANCH   6   7
ENDBRANCH   5   6
ENDBRANCH   4   5
ENDBRANCH   3   4
ENDBRANCH   2   3
ENDBRANCH   1   2
BRANCH   1  13
ATOM     13  C   UNL     1       2.718   7.629  11.431  1.00  0.00     0.000 C 
BRANCH  13  14
ATOM     14  C   UNL     1       2.716   8.305  12.816  1.00  0.00     0.000 C 
BRANCH  14  15
ATOM     15  C   UNL     1       4.117   8.423  13.454  1.00  0.00     0.000 C 
BRANCH  15  16
ATOM     16  C   UNL     1       4.091   8.224  14.980  1.00  0.00     0.000 C 
BRANCH  16  17
ATOM     17  C   UNL     1       3.681   9.512  15.726  1.00  0.00     0.000 C 
BRANCH  17  18
ATOM     18  C   UNL     1       3.355   9.286  17.212  1.00  0.00     0.000 C 
BRANCH  18  19
ATOM     19  C   UNL     1       2.251   8.241  17.429  1.00  0.00     0.000 C 
BRANCH  19  20
ATOM     20  C   UNL     1       2.735   7.121  18.362  1.00  0.00     0.006 C 
BRANCH  20  21
ATOM     21  C   UNL     1       2.724   5.748  17.676  1.00  0.00     0.053 C 
BRANCH  21  22
ATOM     22  C   UNL     1       4.088   5.347  17.206  1.00  0.00     0.041 C 
ATOM     23  O   UNL     1       4.241   4.296  16.529  1.00  0.00    -0.550 OA
ATOM     24  O   UNL     1       5.187   6.146  17.495  1.00  0.00    -0.550 OA
ENDBRANCH  21  22
ENDBRANCH  20  21
ENDBRANCH  19  20
ENDBRANCH  18  19
ENDBRANCH  17  18
ENDBRANCH  16  17
ENDBRANCH  15  16
ENDBRANCH  14  15
ENDBRANCH  13  14
ENDBRANCH   1  13
TORSDOF 20
ENDMDL
MODEL 6
REMARK VINA RESULT:    -4.953      2.691      7.277
REMARK INTER + INTRA:         -13.828
REMARK INTER:                 -10.794
REMARK INTRA:                  -3.035
REMARK UNBOUND:                -3.084
REMARK SMILES CCCCCCCCCCCCCCCCCCCCCC(=O)[O-]
REMARK SMILES IDX 12 1 11 2 10 3 9 4 8 5 7 6 6 7 5 8 4 9 3 10 2 11 1 12 13 13
REMARK SMILES IDX 14 14 15 15 16 16 17 17 18 18 19 19 20 20 21 21 22 22 23 23
REMARK SMILES IDX 24 24
REMARK H PARENT
REMARK Flexibility Score: inf
ROOT
ATOM      1  C   UNL     1       7.058   5.993  13.854  1.00  0.00     0.000 C 
ENDROOT
BRANCH   1   2
ATOM      2  C   UNL     1       7.775   7.091  13.048  1.00  0.00     0.000 C 
BRANCH   2   3
ATOM      3  C   UNL     1       8.371   6.571  11.730  1.00  0.00     0.000 C 
BRANCH   3   4
ATOM      4  C   UNL     1       8.304   7.645  10.634  1.00  0.00    -0.000 C 
BRANCH   4   5
ATOM      5  C   UNL     1       8.239   9.070  11.206  1.00  0.00    -0.000 C 
BRANCH   5   6
ATOM      6  C   UNL     1       7.293   9.987  10.417  1.00  0.00    -0.000 C 
BRANCH   6   7
ATOM      7  C   UNL     1       5.830   9.713  10.795  1.00  0.00    -0.000 C 
BRANCH   7   8
ATOM      8  C   UNL     1       4.923   9.515   9.569  1.00  0.00    -0.000 C 
BRANCH   8   9
ATOM      9  C   UNL     1       4.505   8.056   9.303  1.00  0.00    -0.000 C 
BRANCH   9  10
ATOM     10  C   UNL     1       4.835   7.097  10.469  1.00  0.00    -0.000 C 
BRANCH  10  11
ATOM     11  C   UNL     1       3.569   6.529  11.128  1.00  0.00    -0.003 C 
ATOM     12  C   UNL     1       2.309   7.087  10.474  1.00  0.00     0.004 C 
ENDBRANCH  10  11
ENDBRANCH   9  10
ENDBRANCH   8   9
ENDBRANCH   7   8
ENDBRANCH   6   7
ENDBRANCH   5   6
ENDBRANCH   4   5
ENDBRANCH   3   4
ENDBRANCH   2   3
ENDBRANCH   1   2
BRANCH   1  13
ATOM     13  C   UNL     1       5.591   6.300  14.209  1.00  0.00     0.000 C 
BRANCH  13  14
ATOM     14  C   UNL     1       5.193   7.786  14.119  1.00  0.00     0.000 C 
BRANCH  14  15
ATOM     15  C   UNL     1       3.722   8.063  14.496  1.00  0.00     0.000 C 
BRANCH  15  16
ATOM     16  C   UNL     1       3.509   9.484  15.045  1.00  0.00     0.000 C 
BRANCH  16  17
ATOM     17  C   UNL     1       4.075   9.645  16.473  1.00  0.00     0.000 C 
BRANCH  17  18
ATOM     18  C   UNL     1       2.994   9.663  17.566  1.00  0.00     0.000 C 
BRANCH  18  19
ATOM     19  C   UNL     1       2.068   8.439  17.512  1.00  0.00     0.000 C 
BRANCH  19  20
ATOM     20  C   UNL     1       2.563   7.336  18.459  1.00  0.00     0.006 C 
BRANCH  20  21
ATOM     21  C   UNL     1       2.524   5.948  17.806  1.00  0.00     0.053 C 
BRANCH  21  22
ATOM     22  C   UNL     1       3.882   5.499  17.363  1.00  0.00     0.041 C 
ATOM     23  O   UNL     1       4.027   4.385  16.796  1.00  0.00    -0.550 OA
ATOM     24  O   UNL     1       4.985   6.323  17.556  1.00  0.00    -0.550 OA
ENDBRANCH  21  22
ENDBRANCH  20  21
ENDBRANCH  19  20
ENDBRANCH  18  19
ENDBRANCH  17  18
ENDBRANCH  16  17
ENDBRANCH  15  16
ENDBRANCH  14  15
ENDBRANCH  13  14
ENDBRANCH   1  13
TORSDOF 20
ENDMDL
MODEL 7
REMARK VINA RESULT:    -4.942      3.576      7.234
REMARK INTER + INTRA:         -13.805
REMARK INTER:                 -11.374
REMARK INTRA:                  -2.431
REMARK UNBOUND:                -3.084
REMARK SMILES CCCCCCCCCCCCCCCCCCCCCC(=O)[O-]
REMARK SMILES IDX 12 1 11 2 10 3 9 4 8 5 7 6 6 7 5 8 4 9 3 10 2 11 1 12 13 13
REMARK SMILES IDX 14 14 15 15 16 16 17 17 18 18 19 19 20 20 21 21 22 22 23 23
REMARK SMILES IDX 24 24
REMARK H PARENT
REMARK Flexibility Score: inf
ROOT
ATOM      1  C   UNL     1       4.575   7.200  10.991  1.00  0.00     0.000 C 
ENDROOT
BRANCH   1   2
ATOM      2  C   UNL     1       5.016   7.413   9.531  1.00  0.00     0.000 C 
BRANCH   2   3
ATOM      3  C   UNL     1       4.795   8.854   9.046  1.00  0.00     0.000 C 
BRANCH   3   4
ATOM      4  C   UNL     1       5.654   9.843   9.850  1.00  0.00    -0.000 C 
BRANCH   4   5
ATOM      5  C   UNL     1       7.010  10.125   9.184  1.00  0.00    -0.000 C 
BRANCH   5   6
ATOM      6  C   UNL     1       8.193   9.972  10.151  1.00  0.00    -0.000 C 
BRANCH   6   7
ATOM      7  C   UNL     1       7.856   8.975  11.269  1.00  0.00    -0.000 C 
BRANCH   7   8
ATOM      8  C   UNL     1       8.520   7.602  11.066  1.00  0.00    -0.000 C 
BRANCH   8   9
ATOM      9  C   UNL     1       8.104   6.527  12.088  1.00  0.00    -0.000 C 
BRANCH   9  10
ATOM     10  C   UNL     1       7.386   7.099  13.330  1.00  0.00    -0.000 C 
BRANCH  10  11
ATOM     11  C   UNL     1       7.544   6.192  14.560  1.00  0.00    -0.003 C 
ATOM     12  C   UNL     1       8.644   5.158  14.345  1.00  0.00     0.004 C 
ENDBRANCH  10  11
ENDBRANCH   9  10
ENDBRANCH   8   9
ENDBRANCH   7   8
ENDBRANCH   6   7
ENDBRANCH   5   6
ENDBRANCH   4   5
ENDBRANCH   3   4
ENDBRANCH   2   3
ENDBRANCH   1   2
BRANCH   1  13
ATOM     13  C   UNL     1       3.074   6.910  11.181  1.00  0.00     0.000 C 
BRANCH  13  14
ATOM     14  C   UNL     1       2.337   7.875  12.130  1.00  0.00     0.000 C 
BRANCH  14  15
ATOM     15  C   UNL     1       3.270   8.631  13.100  1.00  0.00     0.000 C 
BRANCH  15  16
ATOM     16  C   UNL     1       3.147   8.131  14.550  1.00  0.00     0.000 C 
BRANCH  16  17
ATOM     17  C   UNL     1       4.320   7.208  14.946  1.00  0.00     0.000 C 
BRANCH  17  18
ATOM     18  C   UNL     1       4.362   6.874  16.447  1.00  0.00     0.000 C 
BRANCH  18  19
ATOM     19  C   UNL     1       3.762   5.499  16.770  1.00  0.00     0.000 C 
BRANCH  19  20
ATOM     20  C   UNL     1       2.273   5.622  17.128  1.00  0.00     0.006 C 
BRANCH  20  21
ATOM     21  C   UNL     1       2.034   5.576  18.643  1.00  0.00     0.053 C 
BRANCH  21  22
ATOM     22  C   UNL     1       2.061   6.942  19.256  1.00  0.00     0.041 C 
ATOM     23  O   UNL     1       1.928   7.963  18.532  1.00  0.00    -0.550 OA
ATOM     24  O   UNL     1       2.208   7.087  20.630  1.00  0.00    -0.550 OA
ENDBRANCH  21  22
ENDBRANCH  20  21
ENDBRANCH  19  20
ENDBRANCH  18  19
ENDBRANCH  17  18
ENDBRANCH  16  17
ENDBRANCH  15  16
ENDBRANCH  14  15
ENDBRANCH  13  14
ENDBRANCH   1  13
TORSDOF 20
ENDMDL
MODEL 8
REMARK VINA RESULT:    -4.881      1.885      3.426
REMARK INTER + INTRA:         -13.671
REMARK INTER:                 -10.574
REMARK INTRA:                  -3.097
REMARK UNBOUND:                -3.084
REMARK SMILES CCCCCCCCCCCCCCCCCCCCCC(=O)[O-]
REMARK SMILES IDX 12 1 11 2 10 3 9 4 8 5 7 6 6 7 5 8 4 9 3 10 2 11 1 12 13 13
REMARK SMILES IDX 14 14 15 15 16 16 17 17 18 18 19 19 20 20 21 21 22 22 23 23
REMARK SMILES IDX 24 24
REMARK H PARENT
REMARK Flexibility Score: inf
ROOT
ATOM      1  C   UNL     1       3.098   7.014  10.969  1.00  0.00     0.000 C 
ENDROOT
BRANCH   1   2
ATOM      2  C   UNL     1       2.560   7.695  12.241  1.00  0.00     0.000 C 
BRANCH   2   3
ATOM      3  C   UNL     1       2.930   9.184  12.322  1.00  0.00     0.000 C 
BRANCH   3   4
ATOM      4  C   UNL     1       3.800   9.467  13.556  1.00  0.00    -0.000 C 
BRANCH   4   5
ATOM      5  C   UNL     1       3.530   8.485  14.708  1.00  0.00    -0.000 C 
BRANCH   5   6
ATOM      6  C   UNL     1       4.471   8.694  15.903  1.00  0.00    -0.000 C 
BRANCH   6   7
ATOM      7  C   UNL     1       3.681   9.125  17.148  1.00  0.00    -0.000 C 
BRANCH   7   8
ATOM      8  C   UNL     1       2.411   8.285  17.369  1.00  0.00    -0.000 C 
BRANCH   8   9
ATOM      9  C   UNL     1       2.364   7.527  18.709  1.00  0.00    -0.000 C 
BRANCH   9  10
ATOM     10  C   UNL     1       2.545   6.000  18.563  1.00  0.00    -0.000 C 
BRANCH  10  11
ATOM     11  C   UNL     1       3.973   5.622  18.141  1.00  0.00    -0.003 C 
ATOM     12  C   UNL     1       3.974   4.869  16.815  1.00  0.00     0.004 C 
ENDBRANCH  10  11
ENDBRANCH   9  10
ENDBRANCH   8   9
ENDBRANCH   7   8
ENDBRANCH   6   7
ENDBRANCH   5   6
ENDBRANCH   4   5
ENDBRANCH   3   4
ENDBRANCH   2   3
ENDBRANCH   1   2
BRANCH   1  13
ATOM     13  C   UNL     1       3.366   7.964   9.787  1.00  0.00     0.000 C 
BRANCH  13  14
ATOM     14  C   UNL     1       4.832   8.025   9.316  1.00  0.00     0.000 C 
BRANCH  14  15
ATOM     15  C   UNL     1       5.410   9.455   9.259  1.00  0.00     0.000 C 
BRANCH  15  16
ATOM     16  C   UNL     1       6.101   9.868  10.571  1.00  0.00     0.000 C 
BRANCH  16  17
ATOM     17  C   UNL     1       7.637   9.729  10.485  1.00  0.00     0.000 C 
BRANCH  17  18
ATOM     18  C   UNL     1       8.228   8.773  11.535  1.00  0.00     0.000 C 
BRANCH  18  19
ATOM     19  C   UNL     1       7.968   7.295  11.211  1.00  0.00     0.000 C 
BRANCH  19  20
ATOM     20  C   UNL     1       6.826   6.738  12.074  1.00  0.00     0.006 C 
BRANCH  20  21
ATOM     21  C   UNL     1       6.879   7.262  13.516  1.00  0.00     0.053 C 
BRANCH  21  22
ATOM     22  C   UNL     1       7.416   6.236  14.464  1.00  0.00     0.041 C 
ATOM     23  O   UNL     1       8.218   5.355  14.057  1.00  0.00    -0.550 OA
ATOM     24  O   UNL     1       7.049   6.267  15.804  1.00  0.00    -0.550 OA
ENDBRANCH  21  22
ENDBRANCH  20  21
ENDBRANCH  19  20
ENDBRANCH  18  19
ENDBRANCH  17  18
ENDBRANCH  16  17
ENDBRANCH  15  16
ENDBRANCH  14  15
ENDBRANCH  13  14
ENDBRANCH   1  13
TORSDOF 20
ENDMDL
MODEL 9
REMARK VINA RESULT:    -4.835      1.553      3.509
REMARK INTER + INTRA:         -13.573
REMARK INTER:                 -10.394
REMARK INTRA:                  -3.179
REMARK UNBOUND:                -3.084
REMARK SMILES CCCCCCCCCCCCCCCCCCCCCC(=O)[O-]
REMARK SMILES IDX 12 1 11 2 10 3 9 4 8 5 7 6 6 7 5 8 4 9 3 10 2 11 1 12 13 13
REMARK SMILES IDX 14 14 15 15 16 16 17 17 18 18 19 19 20 20 21 21 22 22 23 23
REMARK SMILES IDX 24 24
REMARK H PARENT
REMARK Flexibility Score: inf
ROOT
ATOM      1  C   UNL     1       3.138   9.009  17.515  1.00  0.00     0.000 C 
ENDROOT
BRANCH   1   2
ATOM      2  C   UNL     1       1.990   8.389  18.333  1.00  0.00     0.000 C 
BRANCH   2   3
ATOM      3  C   UNL     1       2.438   7.179  19.167  1.00  0.00     0.000 C 
BRANCH   3   4
ATOM      4  C   UNL     1       1.880   5.872  18.583  1.00  0.00    -0.000 C 
BRANCH   4   5
ATOM      5  C   UNL     1       2.561   5.476  17.264  1.00  0.00    -0.000 C 
BRANCH   5   6
ATOM      6  C   UNL     1       3.989   4.949  17.464  1.00  0.00    -0.000 C 
BRANCH   6   7
ATOM      7  C   UNL     1       5.020   5.972  16.964  1.00  0.00    -0.000 C 
BRANCH   7   8
ATOM      8  C   UNL     1       4.927   6.222  15.449  1.00  0.00    -0.000 C 
BRANCH   8   9
ATOM      9  C   UNL     1       5.729   7.437  14.946  1.00  0.00    -0.000 C 
BRANCH   9  10
ATOM     10  C   UNL     1       6.973   7.056  14.112  1.00  0.00    -0.000 C 
BRANCH  10  11
ATOM     11  C   UNL     1       7.208   5.539  14.083  1.00  0.00    -0.003 C 
ATOM     12  C   UNL     1       8.630   5.193  14.516  1.00  0.00     0.004 C 
ENDBRANCH  10  11
ENDBRANCH   9  10
ENDBRANCH   8   9
ENDBRANCH   7   8
ENDBRANCH   6   7
ENDBRANCH   5   6
ENDBRANCH   4   5
ENDBRANCH   3   4
ENDBRANCH   2   3
ENDBRANCH   1   2
BRANCH   1  13
ATOM     13  C   UNL     1       2.772   9.395  16.071  1.00  0.00     0.000 C 
BRANCH  13  14
ATOM     14  C   UNL     1       1.878   8.383  15.329  1.00  0.00     0.000 C 
BRANCH  14  15
ATOM     15  C   UNL     1       2.263   8.178  13.848  1.00  0.00     0.000 C 
BRANCH  15  16
ATOM     16  C   UNL     1       2.993   9.395  13.251  1.00  0.00     0.000 C 
BRANCH  16  17
ATOM     17  C   UNL     1       4.001   8.986  12.155  1.00  0.00     0.000 C 
BRANCH  17  18
ATOM     18  C   UNL     1       3.961   7.488  11.809  1.00  0.00     0.000 C 
BRANCH  18  19
ATOM     19  C   UNL     1       3.869   7.225  10.300  1.00  0.00     0.000 C 
BRANCH  19  20
ATOM     20  C   UNL     1       5.101   7.782   9.571  1.00  0.00     0.006 C 
BRANCH  20  21
ATOM     21  C   UNL     1       6.415   7.340  10.230  1.00  0.00     0.053 C 
BRANCH  21  22
ATOM     22  C   UNL     1       7.361   8.485  10.415  1.00  0.00     0.041 C 
ATOM     23  O   UNL     1       8.176   8.485  11.374  1.00  0.00    -0.550 OA
ATOM     24  O   UNL     1       7.360   9.542   9.512  1.00  0.00    -0.550 OA
ENDBRANCH  21  22
ENDBRANCH  20  21
ENDBRANCH  19  20
ENDBRANCH  18  19
ENDBRANCH  17  18
ENDBRANCH  16  17
ENDBRANCH  15  16
ENDBRANCH  14  15
ENDBRANCH  13  14
ENDBRANCH   1  13
TORSDOF 20
ENDMDL
