MODEL 1
REMARK VINA RESULT:    -3.578      0.000      0.000
REMARK INTER + INTRA:          -7.157
REMARK INTER:                  -5.670
REMARK INTRA:                  -1.487
REMARK UNBOUND:                -1.487
REMARK SMILES CCCCCCCCCCCC(=O)[O-]
REMARK SMILES IDX 7 1 8 2 9 3 10 4 11 5 12 6 13 7 14 8 6 9 5 10 4 11 3 12 2 13
REMARK SMILES IDX 1 14
REMARK H PARENT
REMARK Flexibility Score: inf
ROOT
ATOM      1  C   UNL     1      22.969  -1.497  17.555  1.00  0.00     0.000 C 
ENDROOT
BRANCH   1   2
ATOM      2  C   UNL     1      24.019  -2.403  16.891  1.00  0.00     0.000 C 
BRANCH   2   3
ATOM      3  C   UNL     1      25.243  -2.646  17.789  1.00  0.00     0.000 C 
BRANCH   3   4
ATOM      4  C   UNL     1      25.506  -4.138  18.043  1.00  0.00     0.006 C 
BRANCH   4   5
ATOM      5  C   UNL     1      25.374  -4.946  16.748  1.00  0.00     0.053 C 
BRANCH   5   6
ATOM      6  C   UNL     1      25.331  -6.411  17.046  1.00  0.00     0.041 C 
ATOM      7  O   UNL     1      25.878  -6.862  18.086  1.00  0.00    -0.550 OA
ATOM      8  O   UNL     1      24.645  -7.273  16.199  1.00  0.00    -0.550 OA
ENDBRANCH   5   6
ENDBRANCH   4   5
ENDBRANCH   3   4
ENDBRANCH   2   3
ENDBRANCH   1   2
BRANCH   1   9
ATOM      9  C   UNL     1      22.622  -1.944  18.985  1.00  0.00     0.000 C 
BRANCH   9  10
ATOM     10  C   UNL     1      21.234  -2.596  19.084  1.00  0.00    -0.000 C 
BRANCH  10  11
ATOM     11  C   UNL     1      21.302  -3.915  19.862  1.00  0.00    -0.000 C 
BRANCH  11  12
ATOM     12  C   UNL     1      22.368  -4.850  19.270  1.00  0.00    -0.000 C 
BRANCH  12  13
ATOM     13  C   UNL     1      21.777  -5.873  18.288  1.00  0.00    -0.003 C 
ATOM     14  C   UNL     1      21.691  -5.341  16.858  1.00  0.00     0.004 C 
ENDBRANCH  12  13
ENDBRANCH  11  12
ENDBRANCH  10  11
ENDBRANCH   9  10
ENDBRANCH   1   9
TORSDOF 10
ENDMDL
MODEL 2
REMARK VINA RESULT:    -3.534      1.591      3.074
REMARK INTER + INTRA:          -7.086
REMARK INTER:                  -5.572
REMARK INTRA:                  -1.514
REMARK UNBOUND:                -1.487
REMARK SMILES CCCCCCCCCCCC(=O)[O-]
REMARK SMILES IDX 7 1 8 2 9 3 10 4 11 5 12 6 13 7 14 8 6 9 5 10 4 11 3 12 2 13
REMARK SMILES IDX 1 14
REMARK H PARENT
REMARK Flexibility Score: inf
ROOT
ATOM      1  C   UNL     1      25.312  -3.632  17.258  1.00  0.00     0.000 C 
ENDROOT
BRANCH   1   2
ATOM      2  C   UNL     1      25.588  -4.787  18.236  1.00  0.00     0.000 C 
BRANCH   2   3
ATOM      3  C   UNL     1      24.358  -5.682  18.456  1.00  0.00     0.000 C 
BRANCH   3   4
ATOM      4  C   UNL     1      23.560  -5.923  17.165  1.00  0.00     0.006 C 
BRANCH   4   5
ATOM      5  C   UNL     1      22.634  -7.134  17.312  1.00  0.00     0.053 C 
BRANCH   5   6
ATOM      6  C   UNL     1      23.288  -8.363  16.762  1.00  0.00     0.041 C 
ATOM      7  O   UNL     1      24.343  -8.269  16.082  1.00  0.00    -0.550 OA
ATOM      8  O   UNL     1      22.758  -9.617  17.042  1.00  0.00    -0.550 OA
ENDBRANCH   5   6
ENDBRANCH   4   5
ENDBRANCH   3   4
ENDBRANCH   2   3
ENDBRANCH   1   2
BRANCH   1   9
ATOM      9  C   UNL     1      25.331  -2.258  17.947  1.00  0.00     0.000 C 
BRANCH   9  10
ATOM     10  C   UNL     1      23.921  -1.718  18.234  1.00  0.00    -0.000 C 
BRANCH  10  11
ATOM     11  C   UNL     1      22.923  -2.197  17.174  1.00  0.00    -0.000 C 
BRANCH  11  12
ATOM     12  C   UNL     1      21.664  -2.786  17.829  1.00  0.00    -0.000 C 
BRANCH  12  13
ATOM     13  C   UNL     1      21.868  -3.105  19.318  1.00  0.00    -0.003 C 
ATOM     14  C   UNL     1      21.136  -4.373  19.758  1.00  0.00     0.004 C 
ENDBRANCH  12  13
ENDBRANCH  11  12
ENDBRANCH  10  11
ENDBRANCH   9  10
ENDBRANCH   1   9
TORSDOF 10
ENDMDL
MODEL 3
REMARK VINA RESULT:    -3.504      2.028      3.689
REMARK INTER + INTRA:          -7.039
REMARK INTER:                  -5.407
REMARK INTRA:                  -1.633
REMARK UNBOUND:                -1.487
REMARK SMILES CCCCCCCCCCCC(=O)[O-]
REMARK SMILES IDX 7 1 8 2 9 3 10 4 11 5 12 6 13 7 14 8 6 9 5 10 4 11 3 12 2 13
REMARK SMILES IDX 1 14
REMARK H PARENT
REMARK Flexibility Score: inf
ROOT
ATOM      1  C   UNL     1      25.792  -5.202  18.219  1.00  0.00     0.000 C 
ENDROOT
BRANCH   1   2
ATOM      2  C   UNL     1      25.298  -6.521  17.601  1.00  0.00     0.000 C 
BRANCH   2   3
ATOM      3  C   UNL     1      25.020  -6.399  16.094  1.00  0.00     0.000 C 
BRANCH   3   4
ATOM      4  C   UNL     1      23.686  -7.042  15.683  1.00  0.00     0.006 C 
BRANCH   4   5
ATOM      5  C   UNL     1      23.130  -7.918  16.811  1.00  0.00     0.053 C 
BRANCH   5   6
ATOM      6  C   UNL     1      23.152  -9.360  16.413  1.00  0.00     0.041 C 
ATOM      7  O   UNL     1      23.015 -10.259  17.283  1.00  0.00    -0.550 OA
ATOM      8  O   UNL     1      23.274  -9.710  15.074  1.00  0.00    -0.550 OA
ENDBRANCH   5   6
ENDBRANCH   4   5
ENDBRANCH   3   4
ENDBRANCH   2   3
ENDBRANCH   1   2
BRANCH   1   9
ATOM      9  C   UNL     1      25.757  -4.032  17.222  1.00  0.00     0.000 C 
BRANCH   9  10
ATOM     10  C   UNL     1      25.191  -2.743  17.837  1.00  0.00    -0.000 C 
BRANCH  10  11
ATOM     11  C   UNL     1      23.764  -2.962  18.354  1.00  0.00    -0.000 C 
BRANCH  11  12
ATOM     12  C   UNL     1      22.815  -3.342  17.207  1.00  0.00    -0.000 C 
BRANCH  12  13
ATOM     13  C   UNL     1      21.859  -4.483  17.585  1.00  0.00    -0.003 C 
ATOM     14  C   UNL     1      22.114  -5.029  18.989  1.00  0.00     0.004 C 
ENDBRANCH  12  13
ENDBRANCH  11  12
ENDBRANCH  10  11
ENDBRANCH   9  10
ENDBRANCH   1   9
TORSDOF 10
ENDMDL
MODEL 4
REMARK VINA RESULT:    -3.480     10.741     12.368
REMARK INTER + INTRA:          -7.001
REMARK INTER:                  -5.427
REMARK INTRA:                  -1.573
REMARK UNBOUND:                -1.487
REMARK SMILES CCCCCCCCCCCC(=O)[O-]
REMARK SMILES IDX 7 1 8 2 9 3 10 4 11 5 12 6 13 7 14 8 6 9 5 10 4 11 3 12 2 13
REMARK SMILES IDX 1 14
REMARK H PARENT
REMARK Flexibility Score: inf
ROOT
ATOM      1  C   UNL     1      26.474  -0.193   9.131  1.00  0.00     0.000 C 
ENDROOT
BRANCH   1   2
ATOM      2  C   UNL     1      27.992  -0.174   9.377  1.00  0.00     0.000 C 
BRANCH   2   3
ATOM      3  C   UNL     1      28.754  -1.125   8.439  1.00  0.00     0.000 C 
BRANCH   3   4
ATOM      4  C   UNL     1      27.889  -2.300   7.955  1.00  0.00     0.006 C 
BRANCH   4   5
ATOM      5  C   UNL     1      28.552  -3.016   6.773  1.00  0.00     0.053 C 
BRANCH   5   6
ATOM      6  C   UNL     1      27.657  -2.987   5.574  1.00  0.00     0.041 C 
ATOM      7  O   UNL     1      28.133  -3.178   4.425  1.00  0.00    -0.550 OA
ATOM      8  O   UNL     1      26.290  -2.796   5.732  1.00  0.00    -0.550 OA
ENDBRANCH   5   6
ENDBRANCH   4   5
ENDBRANCH   3   4
ENDBRANCH   2   3
ENDBRANCH   1   2
BRANCH   1   9
ATOM      9  C   UNL     1      25.872   1.220   9.046  1.00  0.00     0.000 C 
BRANCH   9  10
ATOM     10  C   UNL     1      24.964   1.406   7.820  1.00  0.00    -0.000 C 
BRANCH  10  11
ATOM     11  C   UNL     1      25.268   0.354   6.747  1.00  0.00    -0.000 C 
BRANCH  11  12
ATOM     12  C   UNL     1      25.949   0.994   5.527  1.00  0.00    -0.000 C 
BRANCH  12  13
ATOM     13  C   UNL     1      27.475   0.811   5.539  1.00  0.00    -0.003 C 
ATOM     14  C   UNL     1      28.205   1.974   6.209  1.00  0.00     0.004 C 
ENDBRANCH  12  13
ENDBRANCH  11  12
ENDBRANCH  10  11
ENDBRANCH   9  10
ENDBRANCH   1   9
TORSDOF 10
ENDMDL
MODEL 5
REMARK VINA RESULT:    -3.454     10.137     11.623
REMARK INTER + INTRA:          -6.960
REMARK INTER:                  -5.809
REMARK INTRA:                  -1.151
REMARK UNBOUND:                -1.487
REMARK SMILES CCCCCCCCCCCC(=O)[O-]
REMARK SMILES IDX 7 1 8 2 9 3 10 4 11 5 12 6 13 7 14 8 6 9 5 10 4 11 3 12 2 13
REMARK SMILES IDX 1 14
REMARK H PARENT
REMARK Flexibility Score: inf
ROOT
ATOM      1  C   UNL     1      26.547   2.620   6.970  1.00  0.00     0.000 C 
ENDROOT
BRANCH   1   2
ATOM      2  C   UNL     1      27.906   1.976   6.646  1.00  0.00     0.000 C 
BRANCH   2   3
ATOM      3  C   UNL     1      27.840   1.040   5.429  1.00  0.00     0.000 C 
BRANCH   3   4
ATOM      4  C   UNL     1      27.252  -0.338   5.771  1.00  0.00     0.006 C 
BRANCH   4   5
ATOM      5  C   UNL     1      27.971  -0.956   6.975  1.00  0.00     0.053 C 
BRANCH   5   6
ATOM      6  C   UNL     1      27.977  -2.449   6.873  1.00  0.00     0.041 C 
ATOM      7  O   UNL     1      28.300  -3.151   7.866  1.00  0.00    -0.550 OA
ATOM      8  O   UNL     1      27.579  -3.066   5.693  1.00  0.00    -0.550 OA
ENDBRANCH   5   6
ENDBRANCH   4   5
ENDBRANCH   3   4
ENDBRANCH   2   3
ENDBRANCH   1   2
BRANCH   1   9
ATOM      9  C   UNL     1      26.137   2.426   8.439  1.00  0.00     0.000 C 
BRANCH   9  10
ATOM     10  C   UNL     1      25.430   1.083   8.687  1.00  0.00    -0.000 C 
BRANCH  10  11
ATOM     11  C   UNL     1      25.575   0.649  10.150  1.00  0.00    -0.000 C 
BRANCH  11  12
ATOM     12  C   UNL     1      26.510  -0.564  10.274  1.00  0.00    -0.000 C 
BRANCH  12  13
ATOM     13  C   UNL     1      27.960  -0.162  10.583  1.00  0.00    -0.003 C 
ATOM     14  C   UNL     1      28.840  -1.356  10.951  1.00  0.00     0.004 C 
ENDBRANCH  12  13
ENDBRANCH  11  12
ENDBRANCH  10  11
ENDBRANCH   9  10
ENDBRANCH   1   9
TORSDOF 10
ENDMDL
MODEL 6
REMARK VINA RESULT:    -3.430     10.426     12.272
REMARK INTER + INTRA:          -6.922
REMARK INTER:                  -5.197
REMARK INTRA:                  -1.725
REMARK UNBOUND:                -1.487
REMARK SMILES CCCCCCCCCCCC(=O)[O-]
REMARK SMILES IDX 7 1 8 2 9 3 10 4 11 5 12 6 13 7 14 8 6 9 5 10 4 11 3 12 2 13
REMARK SMILES IDX 1 14
REMARK H PARENT
REMARK Flexibility Score: inf
ROOT
ATOM      1  C   UNL     1      26.848   2.352   6.333  1.00  0.00     0.000 C 
ENDROOT
BRANCH   1   2
ATOM      2  C   UNL     1      26.397   2.997   7.654  1.00  0.00     0.000 C 
BRANCH   2   3
ATOM      3  C   UNL     1      26.063   1.957   8.735  1.00  0.00     0.000 C 
BRANCH   3   4
ATOM      4  C   UNL     1      24.606   1.472   8.662  1.00  0.00     0.006 C 
BRANCH   4   5
ATOM      5  C   UNL     1      24.544  -0.044   8.448  1.00  0.00     0.053 C 
BRANCH   5   6
ATOM      6  C   UNL     1      24.134  -0.358   7.044  1.00  0.00     0.041 C 
ATOM      7  O   UNL     1      23.777   0.566   6.266  1.00  0.00    -0.550 OA
ATOM      8  O   UNL     1      24.193  -1.666   6.579  1.00  0.00    -0.550 OA
ENDBRANCH   5   6
ENDBRANCH   4   5
ENDBRANCH   3   4
ENDBRANCH   2   3
ENDBRANCH   1   2
BRANCH   1   9
ATOM      9  C   UNL     1      27.960   1.309   6.533  1.00  0.00     0.000 C 
BRANCH   9  10
ATOM     10  C   UNL     1      27.628  -0.046   5.890  1.00  0.00    -0.000 C 
BRANCH  10  11
ATOM     11  C   UNL     1      27.733  -1.181   6.915  1.00  0.00    -0.000 C 
BRANCH  11  12
ATOM     12  C   UNL     1      28.544  -0.740   8.144  1.00  0.00    -0.000 C 
BRANCH  12  13
ATOM     13  C   UNL     1      28.003  -1.336   9.452  1.00  0.00    -0.003 C 
ATOM     14  C   UNL     1      28.162  -0.391  10.643  1.00  0.00     0.004 C 
ENDBRANCH  12  13
ENDBRANCH  11  12
ENDBRANCH  10  11
ENDBRANCH   9  10
ENDBRANCH   1   9
TORSDOF 10
ENDMDL
MODEL 7
REMARK VINA RESULT:    -3.401     10.563     12.276
REMARK INTER + INTRA:          -6.876
REMARK INTER:                  -5.631
REMARK INTRA:                  -1.245
REMARK UNBOUND:                -1.487
REMARK SMILES CCCCCCCCCCCC(=O)[O-]
REMARK SMILES IDX 7 1 8 2 9 3 10 4 11 5 12 6 13 7 14 8 6 9 5 10 4 11 3 12 2 13
REMARK SMILES IDX 1 14
REMARK H PARENT
REMARK Flexibility Score: inf
ROOT
ATOM      1  C   UNL     1      28.916  -2.107   8.560  1.00  0.00     0.000 C 
ENDROOT
BRANCH   1   2
ATOM      2  C   UNL     1      28.367  -2.113   7.124  1.00  0.00     0.000 C 
BRANCH   2   3
ATOM      3  C   UNL     1      26.843  -1.918   7.073  1.00  0.00     0.000 C 
BRANCH   3   4
ATOM      4  C   UNL     1      26.432  -0.636   6.332  1.00  0.00     0.006 C 
BRANCH   4   5
ATOM      5  C   UNL     1      27.637   0.001   5.633  1.00  0.00     0.053 C 
BRANCH   5   6
ATOM      6  C   UNL     1      27.524   1.493   5.650  1.00  0.00     0.041 C 
ATOM      7  O   UNL     1      26.791   2.083   4.815  1.00  0.00    -0.550 OA
ATOM      8  O   UNL     1      28.192   2.229   6.622  1.00  0.00    -0.550 OA
ENDBRANCH   5   6
ENDBRANCH   4   5
ENDBRANCH   3   4
ENDBRANCH   2   3
ENDBRANCH   1   2
BRANCH   1   9
ATOM      9  C   UNL     1      29.125  -0.685   9.107  1.00  0.00     0.000 C 
BRANCH   9  10
ATOM     10  C   UNL     1      28.641  -0.529  10.557  1.00  0.00    -0.000 C 
BRANCH  10  11
ATOM     11  C   UNL     1      27.128  -0.288  10.608  1.00  0.00    -0.000 C 
BRANCH  11  12
ATOM     12  C   UNL     1      26.707   0.785   9.591  1.00  0.00    -0.000 C 
BRANCH  12  13
ATOM     13  C   UNL     1      25.182   0.940   9.493  1.00  0.00    -0.003 C 
ATOM     14  C   UNL     1      24.731   2.400   9.517  1.00  0.00     0.004 C 
ENDBRANCH  12  13
ENDBRANCH  11  12
ENDBRANCH  10  11
ENDBRANCH   9  10
ENDBRANCH   1   9
TORSDOF 10
ENDMDL
MODEL 8
REMARK VINA RESULT:    -3.393      9.855     11.844
REMARK INTER + INTRA:          -6.863
REMARK INTER:                  -5.627
REMARK INTRA:                  -1.235
REMARK UNBOUND:                -1.487
REMARK SMILES CCCCCCCCCCCC(=O)[O-]
REMARK SMILES IDX 7 1 8 2 9 3 10 4 11 5 12 6 13 7 14 8 6 9 5 10 4 11 3 12 2 13
REMARK SMILES IDX 1 14
REMARK H PARENT
REMARK Flexibility Score: inf
ROOT
ATOM      1  C   UNL     1      28.650  -0.592   8.156  1.00  0.00     0.000 C 
ENDROOT
BRANCH   1   2
ATOM      2  C   UNL     1      28.918  -1.287   9.501  1.00  0.00     0.000 C 
BRANCH   2   3
ATOM      3  C   UNL     1      28.316  -0.524  10.692  1.00  0.00     0.000 C 
BRANCH   3   4
ATOM      4  C   UNL     1      26.865  -0.082  10.440  1.00  0.00     0.006 C 
BRANCH   4   5
ATOM      5  C   UNL     1      25.896  -1.253  10.633  1.00  0.00     0.053 C 
BRANCH   5   6
ATOM      6  C   UNL     1      25.045  -1.434   9.415  1.00  0.00     0.041 C 
ATOM      7  O   UNL     1      25.089  -2.511   8.765  1.00  0.00    -0.550 OA
ATOM      8  O   UNL     1      24.165  -0.430   9.027  1.00  0.00    -0.550 OA
ENDBRANCH   5   6
ENDBRANCH   4   5
ENDBRANCH   3   4
ENDBRANCH   2   3
ENDBRANCH   1   2
BRANCH   1   9
ATOM      9  C   UNL     1      27.983  -1.524   7.132  1.00  0.00     0.000 C 
BRANCH   9  10
ATOM     10  C   UNL     1      27.017  -0.782   6.194  1.00  0.00    -0.000 C 
BRANCH  10  11
ATOM     11  C   UNL     1      27.724   0.379   5.485  1.00  0.00    -0.000 C 
BRANCH  11  12
ATOM     12  C   UNL     1      26.927   1.684   5.638  1.00  0.00    -0.000 C 
BRANCH  12  13
ATOM     13  C   UNL     1      27.351   2.494   6.873  1.00  0.00    -0.003 C 
ATOM     14  C   UNL     1      26.246   2.594   7.923  1.00  0.00     0.004 C 
ENDBRANCH  12  13
ENDBRANCH  11  12
ENDBRANCH  10  11
ENDBRANCH   9  10
ENDBRANCH   1   9
TORSDOF 10
ENDMDL
MODEL 9
REMARK VINA RESULT:    -3.348     10.146     12.176
REMARK INTER + INTRA:          -6.791
REMARK INTER:                  -5.286
REMARK INTRA:                  -1.505
REMARK UNBOUND:                -1.487
REMARK SMILES CCCCCCCCCCCC(=O)[O-]
REMARK SMILES IDX 7 1 8 2 9 3 10 4 11 5 12 6 13 7 14 8 6 9 5 10 4 11 3 12 2 13
REMARK SMILES IDX 1 14
REMARK H PARENT
REMARK Flexibility Score: inf
ROOT
ATOM      1  C   UNL     1      28.002  -1.443  10.189  1.00  0.00     0.000 C 
ENDROOT
BRANCH   1   2
ATOM      2  C   UNL     1      27.478  -0.009  10.378  1.00  0.00     0.000 C 
BRANCH   2   3
ATOM      3  C   UNL     1      25.978   0.031  10.712  1.00  0.00     0.000 C 
BRANCH   3   4
ATOM      4  C   UNL     1      25.158   0.807   9.668  1.00  0.00     0.006 C 
BRANCH   4   5
ATOM      5  C   UNL     1      24.665  -0.125   8.557  1.00  0.00     0.053 C 
BRANCH   5   6
ATOM      6  C   UNL     1      23.842   0.633   7.564  1.00  0.00     0.041 C 
ATOM      7  O   UNL     1      23.013   1.496   7.955  1.00  0.00    -0.550 OA
ATOM      8  O   UNL     1      24.024   0.420   6.203  1.00  0.00    -0.550 OA
ENDBRANCH   5   6
ENDBRANCH   4   5
ENDBRANCH   3   4
ENDBRANCH   2   3
ENDBRANCH   1   2
BRANCH   1   9
ATOM      9  C   UNL     1      28.162  -1.822   8.708  1.00  0.00     0.000 C 
BRANCH   9  10
ATOM     10  C   UNL     1      28.378  -0.600   7.801  1.00  0.00    -0.000 C 
BRANCH  10  11
ATOM     11  C   UNL     1      27.635  -0.766   6.470  1.00  0.00    -0.000 C 
BRANCH  11  12
ATOM     12  C   UNL     1      27.566   0.567   5.709  1.00  0.00    -0.000 C 
BRANCH  12  13
ATOM     13  C   UNL     1      27.997   1.763   6.572  1.00  0.00    -0.003 C 
ATOM     14  C   UNL     1      26.825   2.660   6.968  1.00  0.00     0.004 C 
ENDBRANCH  12  13
ENDBRANCH  11  12
ENDBRANCH  10  11
ENDBRANCH   9  10
ENDBRANCH   1   9
TORSDOF 10
ENDMDL
