MODEL 1
REMARK VINA RESULT:    -3.693      0.000      0.000
REMARK INTER + INTRA:          -5.726
REMARK INTER:                  -4.988
REMARK INTRA:                  -0.737
REMARK UNBOUND:                -0.737
REMARK SMILES C[C@H](O)[C@@H](O)[C@H](O)[C@H](O)C=O
REMARK SMILES IDX 4 1 2 2 1 3 3 4 6 6 8 7 10 8 11 9 9 10 7 12 5 14
REMARK H PARENT 3 5 9 11 7 13 5 15
REMARK Flexibility Score: inf
ROOT
ATOM      1  C   UNL     1     -44.766  27.322   3.691  1.00  0.00     0.174 C 
ENDROOT
BRANCH   1   2
ATOM      2  C   UNL     1     -44.292  27.949   2.353  1.00  0.00     0.142 C 
ATOM      3  C   UNL     1     -45.370  27.857   1.263  1.00  0.00     0.041 C 
BRANCH   2   4
ATOM      4  O   UNL     1     -43.089  27.374   1.905  1.00  0.00    -0.391 OA
ATOM      5  H   UNL     1     -42.740  26.797   2.634  1.00  0.00     0.211 HD
ENDBRANCH   2   4
ENDBRANCH   1   2
BRANCH   1   6
ATOM      6  C   UNL     1     -44.140  28.050   4.909  1.00  0.00     0.181 C 
BRANCH   6   7
ATOM      7  C   UNL     1     -43.775  27.086   6.067  1.00  0.00     0.209 C 
BRANCH   7   8
ATOM      8  C   UNL     1     -43.162  27.831   7.224  1.00  0.00     0.258 C 
ATOM      9  O   UNL     1     -42.004  28.217   7.180  1.00  0.00    -0.300 OA
ENDBRANCH   7   8
BRANCH   7  10
ATOM     10  O   UNL     1     -44.901  26.362   6.498  1.00  0.00    -0.383 OA
ATOM     11  H   UNL     1     -45.064  25.654   5.822  1.00  0.00     0.211 HD
ENDBRANCH   7  10
ENDBRANCH   6   7
BRANCH   6  12
ATOM     12  O   UNL     1     -42.990  28.748   4.500  1.00  0.00    -0.387 OA
ATOM     13  H   UNL     1     -42.793  29.419   5.205  1.00  0.00     0.211 HD
ENDBRANCH   6  12
ENDBRANCH   1   6
BRANCH   1  14
ATOM     14  O   UNL     1     -44.436  25.955   3.734  1.00  0.00    -0.388 OA
ATOM     15  H   UNL     1     -43.620  25.831   3.182  1.00  0.00     0.211 HD
ENDBRANCH   1  14
TORSDOF 8
ENDMDL
MODEL 2
REMARK VINA RESULT:    -3.590      1.028      4.268
REMARK INTER + INTRA:          -5.586
REMARK INTER:                  -5.039
REMARK INTRA:                  -0.548
REMARK UNBOUND:                -0.737
REMARK SMILES C[C@H](O)[C@@H](O)[C@H](O)[C@H](O)C=O
REMARK SMILES IDX 4 1 2 2 1 3 3 4 6 6 8 7 10 8 11 9 9 10 7 12 5 14
REMARK H PARENT 3 5 9 11 7 13 5 15
REMARK Flexibility Score: inf
ROOT
ATOM      1  C   UNL     1     -43.720  26.977   6.006  1.00  0.00     0.174 C 
ENDROOT
BRANCH   1   2
ATOM      2  C   UNL     1     -42.964  27.777   7.099  1.00  0.00     0.142 C 
ATOM      3  C   UNL     1     -43.815  27.971   8.361  1.00  0.00     0.041 C 
BRANCH   2   4
ATOM      4  O   UNL     1     -42.511  29.018   6.615  1.00  0.00    -0.391 OA
ATOM      5  H   UNL     1     -41.781  28.843   5.965  1.00  0.00     0.211 HD
ENDBRANCH   2   4
ENDBRANCH   1   2
BRANCH   1   6
ATOM      6  C   UNL     1     -44.038  27.862   4.773  1.00  0.00     0.181 C 
BRANCH   6   7
ATOM      7  C   UNL     1     -44.486  27.041   3.538  1.00  0.00     0.209 C 
BRANCH   7   8
ATOM      8  C   UNL     1     -43.741  27.467   2.300  1.00  0.00     0.258 C 
ATOM      9  O   UNL     1     -43.583  26.698   1.365  1.00  0.00    -0.300 OA
ENDBRANCH   7   8
BRANCH   7  10
ATOM     10  O   UNL     1     -44.316  25.663   3.756  1.00  0.00    -0.383 OA
ATOM     11  H   UNL     1     -45.142  25.337   4.201  1.00  0.00     0.211 HD
ENDBRANCH   7  10
ENDBRANCH   6   7
BRANCH   6  12
ATOM     12  O   UNL     1     -45.038  28.792   5.107  1.00  0.00    -0.387 OA
ATOM     13  H   UNL     1     -45.227  28.678   6.076  1.00  0.00     0.211 HD
ENDBRANCH   6  12
ENDBRANCH   1   6
BRANCH   1  14
ATOM     14  O   UNL     1     -44.913  26.444   6.528  1.00  0.00    -0.388 OA
ATOM     15  H   UNL     1     -44.821  26.428   7.517  1.00  0.00     0.211 HD
ENDBRANCH   1  14
TORSDOF 8
ENDMDL
MODEL 3
REMARK VINA RESULT:    -3.578      1.539      4.723
REMARK INTER + INTRA:          -5.570
REMARK INTER:                  -5.063
REMARK INTRA:                  -0.508
REMARK UNBOUND:                -0.737
REMARK SMILES C[C@H](O)[C@@H](O)[C@H](O)[C@H](O)C=O
REMARK SMILES IDX 4 1 2 2 1 3 3 4 6 6 8 7 10 8 11 9 9 10 7 12 5 14
REMARK H PARENT 3 5 9 11 7 13 5 15
REMARK Flexibility Score: inf
ROOT
ATOM      1  C   UNL     1     -43.786  28.326   6.814  1.00  0.00     0.174 C 
ENDROOT
BRANCH   1   2
ATOM      2  C   UNL     1     -43.936  28.409   8.356  1.00  0.00     0.142 C 
ATOM      3  C   UNL     1     -42.733  29.100   9.014  1.00  0.00     0.041 C 
BRANCH   2   4
ATOM      4  O   UNL     1     -44.147  27.141   8.927  1.00  0.00    -0.391 OA
ATOM      5  H   UNL     1     -43.517  27.042   9.688  1.00  0.00     0.211 HD
ENDBRANCH   2   4
ENDBRANCH   1   2
BRANCH   1   6
ATOM      6  C   UNL     1     -44.601  27.144   6.229  1.00  0.00     0.181 C 
BRANCH   6   7
ATOM      7  C   UNL     1     -45.289  27.492   4.884  1.00  0.00     0.209 C 
BRANCH   7   8
ATOM      8  C   UNL     1     -44.366  27.246   3.719  1.00  0.00     0.258 C 
ATOM      9  O   UNL     1     -44.240  26.128   3.242  1.00  0.00    -0.300 OA
ENDBRANCH   7   8
BRANCH   7  10
ATOM     10  O   UNL     1     -46.481  26.765   4.721  1.00  0.00    -0.383 OA
ATOM     11  H   UNL     1     -46.960  27.166   3.950  1.00  0.00     0.211 HD
ENDBRANCH   7  10
ENDBRANCH   6   7
BRANCH   6  12
ATOM     12  O   UNL     1     -43.757  26.034   6.050  1.00  0.00    -0.387 OA
ATOM     13  H   UNL     1     -43.982  25.638   5.168  1.00  0.00     0.211 HD
ENDBRANCH   6  12
ENDBRANCH   1   6
BRANCH   1  14
ATOM     14  O   UNL     1     -42.430  28.189   6.461  1.00  0.00    -0.388 OA
ATOM     15  H   UNL     1     -42.341  27.336   5.961  1.00  0.00     0.211 HD
ENDBRANCH   1  14
TORSDOF 8
ENDMDL
MODEL 4
REMARK VINA RESULT:    -3.571      1.684      4.354
REMARK INTER + INTRA:          -5.560
REMARK INTER:                  -5.156
REMARK INTRA:                  -0.405
REMARK UNBOUND:                -0.737
REMARK SMILES C[C@H](O)[C@@H](O)[C@H](O)[C@H](O)C=O
REMARK SMILES IDX 4 1 2 2 1 3 3 4 6 6 8 7 10 8 11 9 9 10 7 12 5 14
REMARK H PARENT 3 5 9 11 7 13 5 15
REMARK Flexibility Score: inf
ROOT
ATOM      1  C   UNL     1     -44.695  27.281   5.323  1.00  0.00     0.174 C 
ENDROOT
BRANCH   1   2
ATOM      2  C   UNL     1     -46.172  27.429   5.774  1.00  0.00     0.142 C 
ATOM      3  C   UNL     1     -46.320  27.324   7.298  1.00  0.00     0.041 C 
BRANCH   2   4
ATOM      4  O   UNL     1     -47.008  26.496   5.133  1.00  0.00    -0.391 OA
ATOM      5  H   UNL     1     -46.524  25.630   5.098  1.00  0.00     0.211 HD
ENDBRANCH   2   4
ENDBRANCH   1   2
BRANCH   1   6
ATOM      6  C   UNL     1     -44.595  26.974   3.806  1.00  0.00     0.181 C 
BRANCH   6   7
ATOM      7  C   UNL     1     -43.609  27.912   3.063  1.00  0.00     0.209 C 
BRANCH   7   8
ATOM      8  C   UNL     1     -43.268  27.373   1.698  1.00  0.00     0.258 C 
ATOM      9  O   UNL     1     -44.103  26.788   1.026  1.00  0.00    -0.300 OA
ENDBRANCH   7   8
BRANCH   7  10
ATOM     10  O   UNL     1     -44.131  29.213   2.955  1.00  0.00    -0.383 OA
ATOM     11  H   UNL     1     -43.687  29.638   2.174  1.00  0.00     0.211 HD
ENDBRANCH   7  10
ENDBRANCH   6   7
BRANCH   6  12
ATOM     12  O   UNL     1     -44.199  25.638   3.622  1.00  0.00    -0.387 OA
ATOM     13  H   UNL     1     -44.436  25.149   4.454  1.00  0.00     0.211 HD
ENDBRANCH   6  12
ENDBRANCH   1   6
BRANCH   1  14
ATOM     14  O   UNL     1     -44.059  26.263   6.056  1.00  0.00    -0.388 OA
ATOM     15  H   UNL     1     -43.249  25.995   5.547  1.00  0.00     0.211 HD
ENDBRANCH   1  14
TORSDOF 8
ENDMDL
MODEL 5
REMARK VINA RESULT:    -3.535      2.166      4.888
REMARK INTER + INTRA:          -5.513
REMARK INTER:                  -4.986
REMARK INTRA:                  -0.527
REMARK UNBOUND:                -0.737
REMARK SMILES C[C@H](O)[C@@H](O)[C@H](O)[C@H](O)C=O
REMARK SMILES IDX 4 1 2 2 1 3 3 4 6 6 8 7 10 8 11 9 9 10 7 12 5 14
REMARK H PARENT 3 5 9 11 7 13 5 15
REMARK Flexibility Score: inf
ROOT
ATOM      1  C   UNL     1     -44.138  27.018   3.670  1.00  0.00     0.174 C 
ENDROOT
BRANCH   1   2
ATOM      2  C   UNL     1     -45.095  27.442   4.815  1.00  0.00     0.142 C 
ATOM      3  C   UNL     1     -44.474  27.208   6.199  1.00  0.00     0.041 C 
BRANCH   2   4
ATOM      4  O   UNL     1     -46.340  26.795   4.719  1.00  0.00    -0.391 OA
ATOM      5  H   UNL     1     -46.576  26.732   3.756  1.00  0.00     0.211 HD
ENDBRANCH   2   4
ENDBRANCH   1   2
BRANCH   1   6
ATOM      6  C   UNL     1     -44.522  27.697   2.330  1.00  0.00     0.181 C 
BRANCH   6   7
ATOM      7  C   UNL     1     -43.474  27.465   1.212  1.00  0.00     0.209 C 
BRANCH   7   8
ATOM      8  C   UNL     1     -44.139  27.264  -0.124  1.00  0.00     0.258 C 
ATOM      9  O   UNL     1     -44.582  26.173  -0.448  1.00  0.00    -0.300 OA
ENDBRANCH   7   8
BRANCH   7  10
ATOM     10  O   UNL     1     -42.560  28.531   1.144  1.00  0.00    -0.383 OA
ATOM     11  H   UNL     1     -41.742  28.182   0.702  1.00  0.00     0.211 HD
ENDBRANCH   7  10
ENDBRANCH   6   7
BRANCH   6  12
ATOM     12  O   UNL     1     -45.775  27.223   1.905  1.00  0.00    -0.387 OA
ATOM     13  H   UNL     1     -46.391  27.296   2.681  1.00  0.00     0.211 HD
ENDBRANCH   6  12
ENDBRANCH   1   6
BRANCH   1  14
ATOM     14  O   UNL     1     -44.151  25.620   3.514  1.00  0.00    -0.388 OA
ATOM     15  H   UNL     1     -44.022  25.430   2.548  1.00  0.00     0.211 HD
ENDBRANCH   1  14
TORSDOF 8
ENDMDL
MODEL 6
REMARK VINA RESULT:    -3.413      1.715      4.292
REMARK INTER + INTRA:          -5.347
REMARK INTER:                  -4.803
REMARK INTRA:                  -0.544
REMARK UNBOUND:                -0.737
REMARK SMILES C[C@H](O)[C@@H](O)[C@H](O)[C@H](O)C=O
REMARK SMILES IDX 4 1 2 2 1 3 3 4 6 6 8 7 10 8 11 9 9 10 7 12 5 14
REMARK H PARENT 3 5 9 11 7 13 5 15
REMARK Flexibility Score: inf
ROOT
ATOM      1  C   UNL     1     -44.406  27.275   4.351  1.00  0.00     0.174 C 
ENDROOT
BRANCH   1   2
ATOM      2  C   UNL     1     -44.651  27.365   5.880  1.00  0.00     0.142 C 
ATOM      3  C   UNL     1     -43.339  27.311   6.675  1.00  0.00     0.041 C 
BRANCH   2   4
ATOM      4  O   UNL     1     -45.537  26.368   6.325  1.00  0.00    -0.391 OA
ATOM      5  H   UNL     1     -46.196  26.797   6.931  1.00  0.00     0.211 HD
ENDBRANCH   2   4
ENDBRANCH   1   2
BRANCH   1   6
ATOM      6  C   UNL     1     -45.455  28.099   3.560  1.00  0.00     0.181 C 
BRANCH   6   7
ATOM      7  C   UNL     1     -45.079  28.285   2.068  1.00  0.00     0.209 C 
BRANCH   7   8
ATOM      8  C   UNL     1     -43.695  28.863   1.923  1.00  0.00     0.258 C 
ATOM      9  O   UNL     1     -42.788  28.209   1.432  1.00  0.00    -0.300 OA
ENDBRANCH   7   8
BRANCH   7  10
ATOM     10  O   UNL     1     -45.173  27.071   1.366  1.00  0.00    -0.383 OA
ATOM     11  H   UNL     1     -45.599  26.416   1.979  1.00  0.00     0.211 HD
ENDBRANCH   7  10
ENDBRANCH   6   7
BRANCH   6  12
ATOM     12  O   UNL     1     -46.711  27.475   3.653  1.00  0.00    -0.387 OA
ATOM     13  H   UNL     1     -47.083  27.704   4.545  1.00  0.00     0.211 HD
ENDBRANCH   6  12
ENDBRANCH   1   6
BRANCH   1  14
ATOM     14  O   UNL     1     -44.441  25.933   3.928  1.00  0.00    -0.388 OA
ATOM     15  H   UNL     1     -44.199  25.371   4.711  1.00  0.00     0.211 HD
ENDBRANCH   1  14
TORSDOF 8
ENDMDL
MODEL 7
REMARK VINA RESULT:    -3.389      1.784      2.510
REMARK INTER + INTRA:          -5.315
REMARK INTER:                  -4.763
REMARK INTRA:                  -0.552
REMARK UNBOUND:                -0.737
REMARK SMILES C[C@H](O)[C@@H](O)[C@H](O)[C@H](O)C=O
REMARK SMILES IDX 4 1 2 2 1 3 3 4 6 6 8 7 10 8 11 9 9 10 7 12 5 14
REMARK H PARENT 3 5 9 11 7 13 5 15
REMARK Flexibility Score: inf
ROOT
ATOM      1  C   UNL     1     -44.574  27.711   2.184  1.00  0.00     0.174 C 
ENDROOT
BRANCH   1   2
ATOM      2  C   UNL     1     -43.610  27.075   1.148  1.00  0.00     0.142 C 
ATOM      3  C   UNL     1     -42.557  28.077   0.653  1.00  0.00     0.041 C 
BRANCH   2   4
ATOM      4  O   UNL     1     -44.307  26.518   0.061  1.00  0.00    -0.391 OA
ATOM      5  H   UNL     1     -44.247  25.530   0.136  1.00  0.00     0.211 HD
ENDBRANCH   2   4
ENDBRANCH   1   2
BRANCH   1   6
ATOM      6  C   UNL     1     -44.326  27.148   3.607  1.00  0.00     0.181 C 
BRANCH   6   7
ATOM      7  C   UNL     1     -45.446  27.526   4.610  1.00  0.00     0.209 C 
BRANCH   7   8
ATOM      8  C   UNL     1     -45.008  27.285   6.031  1.00  0.00     0.258 C 
ATOM      9  O   UNL     1     -43.915  26.801   6.279  1.00  0.00    -0.300 OA
ENDBRANCH   7   8
BRANCH   7  10
ATOM     10  O   UNL     1     -45.844  28.864   4.446  1.00  0.00    -0.383 OA
ATOM     11  H   UNL     1     -45.286  29.243   3.716  1.00  0.00     0.211 HD
ENDBRANCH   7  10
ENDBRANCH   6   7
BRANCH   6  12
ATOM     12  O   UNL     1     -44.204  25.749   3.545  1.00  0.00    -0.387 OA
ATOM     13  H   UNL     1     -43.233  25.542   3.573  1.00  0.00     0.211 HD
ENDBRANCH   6  12
ENDBRANCH   1   6
BRANCH   1  14
ATOM     14  O   UNL     1     -45.912  27.484   1.810  1.00  0.00    -0.388 OA
ATOM     15  H   UNL     1     -46.359  27.037   2.576  1.00  0.00     0.211 HD
ENDBRANCH   1  14
TORSDOF 8
ENDMDL
MODEL 8
REMARK VINA RESULT:    -3.376      1.873      3.000
REMARK INTER + INTRA:          -5.298
REMARK INTER:                  -4.323
REMARK INTRA:                  -0.975
REMARK UNBOUND:                -0.737
REMARK SMILES C[C@H](O)[C@@H](O)[C@H](O)[C@H](O)C=O
REMARK SMILES IDX 4 1 2 2 1 3 3 4 6 6 8 7 10 8 11 9 9 10 7 12 5 14
REMARK H PARENT 3 5 9 11 7 13 5 15
REMARK Flexibility Score: inf
ROOT
ATOM      1  C   UNL     1     -43.666  28.083   3.028  1.00  0.00     0.174 C 
ENDROOT
BRANCH   1   2
ATOM      2  C   UNL     1     -43.767  27.241   1.729  1.00  0.00     0.142 C 
ATOM      3  C   UNL     1     -42.877  27.802   0.610  1.00  0.00     0.041 C 
BRANCH   2   4
ATOM      4  O   UNL     1     -45.097  27.123   1.286  1.00  0.00    -0.391 OA
ATOM      5  H   UNL     1     -45.230  26.190   0.971  1.00  0.00     0.211 HD
ENDBRANCH   2   4
ENDBRANCH   1   2
BRANCH   1   6
ATOM      6  C   UNL     1     -44.098  27.261   4.270  1.00  0.00     0.181 C 
BRANCH   6   7
ATOM      7  C   UNL     1     -45.188  27.969   5.114  1.00  0.00     0.209 C 
BRANCH   7   8
ATOM      8  C   UNL     1     -46.564  27.468   4.759  1.00  0.00     0.258 C 
ATOM      9  O   UNL     1     -47.001  27.581   3.625  1.00  0.00    -0.300 OA
ENDBRANCH   7   8
BRANCH   7  10
ATOM     10  O   UNL     1     -44.952  27.805   6.490  1.00  0.00    -0.383 OA
ATOM     11  H   UNL     1     -44.110  27.284   6.577  1.00  0.00     0.211 HD
ENDBRANCH   7  10
ENDBRANCH   6   7
BRANCH   6  12
ATOM     12  O   UNL     1     -44.567  26.001   3.860  1.00  0.00    -0.387 OA
ATOM     13  H   UNL     1     -44.602  25.427   4.671  1.00  0.00     0.211 HD
ENDBRANCH   6  12
ENDBRANCH   1   6
BRANCH   1  14
ATOM     14  O   UNL     1     -44.462  29.239   2.923  1.00  0.00    -0.388 OA
ATOM     15  H   UNL     1     -45.236  29.013   2.343  1.00  0.00     0.211 HD
ENDBRANCH   1  14
TORSDOF 8
ENDMDL
MODEL 9
REMARK VINA RESULT:    -3.295      1.521      2.320
REMARK INTER + INTRA:          -5.188
REMARK INTER:                  -4.686
REMARK INTRA:                  -0.501
REMARK UNBOUND:                -0.737
REMARK SMILES C[C@H](O)[C@@H](O)[C@H](O)[C@H](O)C=O
REMARK SMILES IDX 4 1 2 2 1 3 3 4 6 6 8 7 10 8 11 9 9 10 7 12 5 14
REMARK H PARENT 3 5 9 11 7 13 5 15
REMARK Flexibility Score: inf
ROOT
ATOM      1  C   UNL     1     -44.786  27.627   4.444  1.00  0.00     0.174 C 
ENDROOT
BRANCH   1   2
ATOM      2  C   UNL     1     -44.211  27.343   3.031  1.00  0.00     0.142 C 
ATOM      3  C   UNL     1     -43.258  28.453   2.565  1.00  0.00     0.041 C 
BRANCH   2   4
ATOM      4  O   UNL     1     -45.231  27.141   2.084  1.00  0.00    -0.391 OA
ATOM      5  H   UNL     1     -45.305  27.967   1.537  1.00  0.00     0.211 HD
ENDBRANCH   2   4
ENDBRANCH   1   2
BRANCH   1   6
ATOM      6  C   UNL     1     -43.730  27.362   5.548  1.00  0.00     0.181 C 
BRANCH   6   7
ATOM      7  C   UNL     1     -43.740  28.437   6.665  1.00  0.00     0.209 C 
BRANCH   7   8
ATOM      8  C   UNL     1     -44.544  27.980   7.854  1.00  0.00     0.258 C 
ATOM      9  O   UNL     1     -45.703  27.617   7.727  1.00  0.00    -0.300 OA
ENDBRANCH   7   8
BRANCH   7  10
ATOM     10  O   UNL     1     -42.433  28.768   7.061  1.00  0.00    -0.383 OA
ATOM     11  H   UNL     1     -42.018  29.260   6.305  1.00  0.00     0.211 HD
ENDBRANCH   7  10
ENDBRANCH   6   7
BRANCH   6  12
ATOM     12  O   UNL     1     -43.951  26.094   6.115  1.00  0.00    -0.387 OA
ATOM     13  H   UNL     1     -43.640  26.140   7.057  1.00  0.00     0.211 HD
ENDBRANCH   6  12
ENDBRANCH   1   6
BRANCH   1  14
ATOM     14  O   UNL     1     -45.925  26.835   4.676  1.00  0.00    -0.388 OA
ATOM     15  H   UNL     1     -46.071  26.283   3.863  1.00  0.00     0.211 HD
ENDBRANCH   1  14
TORSDOF 8
ENDMDL
