MODEL 1
REMARK VINA RESULT:    -5.031      0.000      0.000
REMARK INTER + INTRA:          -6.739
REMARK INTER:                  -6.354
REMARK INTRA:                  -0.385
REMARK UNBOUND:                -0.385
REMARK SMILES CC(C)=CCCC(C)=CCO
REMARK SMILES IDX 7 1 9 2 8 3 6 4 5 5 4 6 1 7 2 8 3 9 10 10 11 11
REMARK H PARENT 11 12
REMARK Flexibility Score: inf
ROOT
ATOM      1  C   UNL     1      63.202 -16.178  20.549  1.00  0.00    -0.075 C 
ATOM      2  C   UNL     1      64.036 -17.179  20.188  1.00  0.00    -0.000 C 
ATOM      3  C   UNL     1      62.956 -14.994  19.644  1.00  0.00     0.039 C 
ENDROOT
BRANCH   1   4
ATOM      4  C   UNL     1      62.498 -16.246  21.888  1.00  0.00     0.034 C 
BRANCH   4   5
ATOM      5  C   UNL     1      61.092 -15.631  21.828  1.00  0.00     0.032 C 
BRANCH   5   6
ATOM      6  C   UNL     1      61.019 -14.326  22.586  1.00  0.00    -0.028 C 
ATOM      7  C   UNL     1      59.714 -13.162  20.793  1.00  0.00     0.039 C 
ATOM      8  C   UNL     1      60.378 -13.220  22.148  1.00  0.00    -0.080 C 
ATOM      9  C   UNL     1      60.350 -12.007  23.042  1.00  0.00     0.039 C 
ENDBRANCH   5   6
ENDBRANCH   4   5
ENDBRANCH   1   4
BRANCH   2  10
ATOM     10  C   UNL     1      64.776 -17.203  18.878  1.00  0.00     0.183 C 
BRANCH  10  11
ATOM     11  O   UNL     1      65.968 -17.920  19.027  1.00  0.00    -0.392 OA
ATOM     12  H   UNL     1      66.181 -18.289  18.130  1.00  0.00     0.210 HD
ENDBRANCH  10  11
ENDBRANCH   2  10
TORSDOF 5
ENDMDL
MODEL 2
REMARK VINA RESULT:    -4.987      1.149      1.910
REMARK INTER + INTRA:          -6.684
REMARK INTER:                  -6.231
REMARK INTRA:                  -0.453
REMARK UNBOUND:                -0.385
REMARK SMILES CC(C)=CCCC(C)=CCO
REMARK SMILES IDX 7 1 9 2 8 3 6 4 5 5 4 6 1 7 2 8 3 9 10 10 11 11
REMARK H PARENT 11 12
REMARK Flexibility Score: inf
ROOT
ATOM      1  C   UNL     1      63.513 -16.469  19.739  1.00  0.00    -0.075 C 
ATOM      2  C   UNL     1      64.784 -16.506  19.280  1.00  0.00    -0.000 C 
ATOM      3  C   UNL     1      62.880 -17.671  20.399  1.00  0.00     0.039 C 
ENDROOT
BRANCH   1   4
ATOM      4  C   UNL     1      62.707 -15.195  19.589  1.00  0.00     0.034 C 
BRANCH   4   5
ATOM      5  C   UNL     1      61.278 -15.355  20.126  1.00  0.00     0.032 C 
BRANCH   5   6
ATOM      6  C   UNL     1      60.830 -14.135  20.896  1.00  0.00    -0.028 C 
ATOM      7  C   UNL     1      61.607 -15.029  23.102  1.00  0.00     0.039 C 
ATOM      8  C   UNL     1      60.998 -13.961  22.225  1.00  0.00    -0.080 C 
ATOM      9  C   UNL     1      60.542 -12.664  22.842  1.00  0.00     0.039 C 
ENDBRANCH   5   6
ENDBRANCH   4   5
ENDBRANCH   1   4
BRANCH   2  10
ATOM     10  C   UNL     1      65.665 -17.722  19.388  1.00  0.00     0.183 C 
BRANCH  10  11
ATOM     11  O   UNL     1      66.827 -17.397  20.097  1.00  0.00    -0.392 OA
ATOM     12  H   UNL     1      66.593 -17.477  21.059  1.00  0.00     0.210 HD
ENDBRANCH  10  11
ENDBRANCH   2  10
TORSDOF 5
ENDMDL
MODEL 3
REMARK VINA RESULT:    -4.946      2.116      2.424
REMARK INTER + INTRA:          -6.633
REMARK INTER:                  -6.142
REMARK INTRA:                  -0.491
REMARK UNBOUND:                -0.385
REMARK SMILES CC(C)=CCCC(C)=CCO
REMARK SMILES IDX 7 1 9 2 8 3 6 4 5 5 4 6 1 7 2 8 3 9 10 10 11 11
REMARK H PARENT 11 12
REMARK Flexibility Score: inf
ROOT
ATOM      1  C   UNL     1      63.116 -16.922  19.723  1.00  0.00    -0.075 C 
ATOM      2  C   UNL     1      64.172 -17.647  19.294  1.00  0.00    -0.000 C 
ATOM      3  C   UNL     1      63.161 -15.413  19.763  1.00  0.00     0.039 C 
ENDROOT
BRANCH   1   4
ATOM      4  C   UNL     1      61.858 -17.638  20.172  1.00  0.00     0.034 C 
BRANCH   4   5
ATOM      5  C   UNL     1      61.860 -17.907  21.683  1.00  0.00     0.032 C 
BRANCH   5   6
ATOM      6  C   UNL     1      60.671 -17.274  22.367  1.00  0.00    -0.028 C 
ATOM      7  C   UNL     1      62.025 -15.437  23.397  1.00  0.00     0.039 C 
ATOM      8  C   UNL     1      60.724 -16.149  23.113  1.00  0.00    -0.080 C 
ATOM      9  C   UNL     1      59.441 -15.610  23.690  1.00  0.00     0.039 C 
ENDBRANCH   5   6
ENDBRANCH   4   5
ENDBRANCH   1   4
BRANCH   2  10
ATOM     10  C   UNL     1      65.461 -17.028  18.824  1.00  0.00     0.183 C 
BRANCH  10  11
ATOM     11  O   UNL     1      66.362 -18.036  18.465  1.00  0.00    -0.392 OA
ATOM     12  H   UNL     1      66.831 -17.709  17.653  1.00  0.00     0.210 HD
ENDBRANCH  10  11
ENDBRANCH   2  10
TORSDOF 5
ENDMDL
MODEL 4
REMARK VINA RESULT:    -4.826      2.873      3.353
REMARK INTER + INTRA:          -6.481
REMARK INTER:                  -6.167
REMARK INTRA:                  -0.314
REMARK UNBOUND:                -0.385
REMARK SMILES CC(C)=CCCC(C)=CCO
REMARK SMILES IDX 7 1 9 2 8 3 6 4 5 5 4 6 1 7 2 8 3 9 10 10 11 11
REMARK H PARENT 11 12
REMARK Flexibility Score: inf
ROOT
ATOM      1  C   UNL     1      63.546 -16.611  20.097  1.00  0.00    -0.075 C 
ATOM      2  C   UNL     1      64.496 -17.439  19.610  1.00  0.00    -0.000 C 
ATOM      3  C   UNL     1      63.381 -15.205  19.569  1.00  0.00     0.039 C 
ENDROOT
BRANCH   1   4
ATOM      4  C   UNL     1      62.625 -17.102  21.195  1.00  0.00     0.034 C 
BRANCH   4   5
ATOM      5  C   UNL     1      61.582 -18.097  20.666  1.00  0.00     0.032 C 
BRANCH   5   6
ATOM      6  C   UNL     1      60.744 -17.496  19.562  1.00  0.00    -0.028 C 
ATOM      7  C   UNL     1      58.585 -17.828  20.787  1.00  0.00     0.039 C 
ATOM      8  C   UNL     1      59.403 -17.340  19.615  1.00  0.00    -0.080 C 
ATOM      9  C   UNL     1      58.712 -16.675  18.453  1.00  0.00     0.039 C 
ENDBRANCH   5   6
ENDBRANCH   4   5
ENDBRANCH   1   4
BRANCH   2  10
ATOM     10  C   UNL     1      65.453 -17.044  18.518  1.00  0.00     0.183 C 
BRANCH  10  11
ATOM     11  O   UNL     1      66.570 -17.887  18.546  1.00  0.00    -0.392 OA
ATOM     12  H   UNL     1      67.354 -17.300  18.707  1.00  0.00     0.210 HD
ENDBRANCH  10  11
ENDBRANCH   2  10
TORSDOF 5
ENDMDL
MODEL 5
REMARK VINA RESULT:    -4.764     17.105     18.688
REMARK INTER + INTRA:          -6.403
REMARK INTER:                  -6.013
REMARK INTRA:                  -0.389
REMARK UNBOUND:                -0.385
REMARK SMILES CC(C)=CCCC(C)=CCO
REMARK SMILES IDX 7 1 9 2 8 3 6 4 5 5 4 6 1 7 2 8 3 9 10 10 11 11
REMARK H PARENT 11 12
REMARK Flexibility Score: inf
ROOT
ATOM      1  C   UNL     1      70.464  -6.346   7.522  1.00  0.00    -0.075 C 
ATOM      2  C   UNL     1      70.989  -5.887   8.680  1.00  0.00    -0.000 C 
ATOM      3  C   UNL     1      69.933  -7.756   7.404  1.00  0.00     0.039 C 
ENDROOT
BRANCH   1   4
ATOM      4  C   UNL     1      70.404  -5.428   6.318  1.00  0.00     0.034 C 
BRANCH   4   5
ATOM      5  C   UNL     1      69.679  -6.083   5.135  1.00  0.00     0.032 C 
BRANCH   5   6
ATOM      6  C   UNL     1      68.285  -5.528   4.956  1.00  0.00    -0.028 C 
ATOM      7  C   UNL     1      67.327  -7.715   4.198  1.00  0.00     0.039 C 
ATOM      8  C   UNL     1      67.214  -6.254   4.566  1.00  0.00    -0.080 C 
ATOM      9  C   UNL     1      65.875  -5.569   4.483  1.00  0.00     0.039 C 
ENDBRANCH   5   6
ENDBRANCH   4   5
ENDBRANCH   1   4
BRANCH   2  10
ATOM     10  C   UNL     1      71.087  -6.721   9.929  1.00  0.00     0.183 C 
BRANCH  10  11
ATOM     11  O   UNL     1      72.194  -6.310  10.681  1.00  0.00    -0.392 OA
ATOM     12  H   UNL     1      72.059  -5.343  10.862  1.00  0.00     0.210 HD
ENDBRANCH  10  11
ENDBRANCH   2  10
TORSDOF 5
ENDMDL
MODEL 6
REMARK VINA RESULT:    -4.746      3.025      5.432
REMARK INTER + INTRA:          -6.379
REMARK INTER:                  -5.906
REMARK INTRA:                  -0.473
REMARK UNBOUND:                -0.385
REMARK SMILES CC(C)=CCCC(C)=CCO
REMARK SMILES IDX 7 1 9 2 8 3 6 4 5 5 4 6 1 7 2 8 3 9 10 10 11 11
REMARK H PARENT 11 12
REMARK Flexibility Score: inf
ROOT
ATOM      1  C   UNL     1      60.201 -14.356  21.710  1.00  0.00    -0.075 C 
ATOM      2  C   UNL     1      60.915 -13.400  22.343  1.00  0.00    -0.000 C 
ATOM      3  C   UNL     1      59.061 -14.004  20.784  1.00  0.00     0.039 C 
ENDROOT
BRANCH   1   4
ATOM      4  C   UNL     1      60.552 -15.813  21.932  1.00  0.00     0.034 C 
BRANCH   4   5
ATOM      5  C   UNL     1      62.029 -15.996  22.308  1.00  0.00     0.032 C 
BRANCH   5   6
ATOM      6  C   UNL     1      62.740 -16.924  21.351  1.00  0.00    -0.028 C 
ATOM      7  C   UNL     1      63.151 -15.133  19.649  1.00  0.00     0.039 C 
ATOM      8  C   UNL     1      63.275 -16.546  20.170  1.00  0.00    -0.080 C 
ATOM      9  C   UNL     1      63.999 -17.580  19.347  1.00  0.00     0.039 C 
ENDBRANCH   5   6
ENDBRANCH   4   5
ENDBRANCH   1   4
BRANCH   2  10
ATOM     10  C   UNL     1      60.645 -11.928  22.183  1.00  0.00     0.183 C 
BRANCH  10  11
ATOM     11  O   UNL     1      60.324 -11.372  23.426  1.00  0.00    -0.392 OA
ATOM     12  H   UNL     1      59.849 -10.522  23.232  1.00  0.00     0.210 HD
ENDBRANCH  10  11
ENDBRANCH   2  10
TORSDOF 5
ENDMDL
MODEL 7
REMARK VINA RESULT:    -4.686      2.854      5.222
REMARK INTER + INTRA:          -6.303
REMARK INTER:                  -5.713
REMARK INTRA:                  -0.590
REMARK UNBOUND:                -0.385
REMARK SMILES CC(C)=CCCC(C)=CCO
REMARK SMILES IDX 7 1 9 2 8 3 6 4 5 5 4 6 1 7 2 8 3 9 10 10 11 11
REMARK H PARENT 11 12
REMARK Flexibility Score: inf
ROOT
ATOM      1  C   UNL     1      60.061 -14.081  21.990  1.00  0.00    -0.075 C 
ATOM      2  C   UNL     1      59.241 -14.345  20.949  1.00  0.00    -0.000 C 
ATOM      3  C   UNL     1      60.463 -12.667  22.336  1.00  0.00     0.039 C 
ENDROOT
BRANCH   1   4
ATOM      4  C   UNL     1      60.587 -15.227  22.829  1.00  0.00     0.034 C 
BRANCH   4   5
ATOM      5  C   UNL     1      62.110 -15.377  22.705  1.00  0.00     0.032 C 
BRANCH   5   6
ATOM      6  C   UNL     1      62.487 -16.518  21.789  1.00  0.00    -0.028 C 
ATOM      7  C   UNL     1      62.889 -15.028  19.817  1.00  0.00     0.039 C 
ATOM      8  C   UNL     1      62.868 -16.374  20.501  1.00  0.00    -0.080 C 
ATOM      9  C   UNL     1      63.264 -17.606  19.729  1.00  0.00     0.039 C 
ENDBRANCH   5   6
ENDBRANCH   4   5
ENDBRANCH   1   4
BRANCH   2  10
ATOM     10  C   UNL     1      58.664 -13.275  20.062  1.00  0.00     0.183 C 
BRANCH  10  11
ATOM     11  O   UNL     1      58.009 -13.868  18.977  1.00  0.00    -0.392 OA
ATOM     12  H   UNL     1      57.732 -13.123  18.382  1.00  0.00     0.210 HD
ENDBRANCH  10  11
ENDBRANCH   2  10
TORSDOF 5
ENDMDL
MODEL 8
REMARK VINA RESULT:    -4.638     16.416     18.338
REMARK INTER + INTRA:          -6.243
REMARK INTER:                  -5.781
REMARK INTRA:                  -0.462
REMARK UNBOUND:                -0.385
REMARK SMILES CC(C)=CCCC(C)=CCO
REMARK SMILES IDX 7 1 9 2 8 3 6 4 5 5 4 6 1 7 2 8 3 9 10 10 11 11
REMARK H PARENT 11 12
REMARK Flexibility Score: inf
ROOT
ATOM      1  C   UNL     1      70.763  -5.942   8.696  1.00  0.00    -0.075 C 
ATOM      2  C   UNL     1      70.483  -6.576   9.856  1.00  0.00    -0.000 C 
ATOM      3  C   UNL     1      72.176  -5.544   8.338  1.00  0.00     0.039 C 
ENDROOT
BRANCH   1   4
ATOM      4  C   UNL     1      69.637  -5.626   7.733  1.00  0.00     0.034 C 
BRANCH   4   5
ATOM      5  C   UNL     1      69.945  -6.116   6.311  1.00  0.00     0.032 C 
BRANCH   5   6
ATOM      6  C   UNL     1      69.531  -7.555   6.113  1.00  0.00    -0.028 C 
ATOM      7  C   UNL     1      71.582  -8.144   4.801  1.00  0.00     0.039 C 
ATOM      8  C   UNL     1      70.269  -8.484   5.465  1.00  0.00    -0.080 C 
ATOM      9  C   UNL     1      69.743  -9.894   5.393  1.00  0.00     0.039 C 
ENDBRANCH   5   6
ENDBRANCH   4   5
ENDBRANCH   1   4
BRANCH   2  10
ATOM     10  C   UNL     1      71.533  -6.937  10.873  1.00  0.00     0.183 C 
BRANCH  10  11
ATOM     11  O   UNL     1      71.697  -5.878  11.773  1.00  0.00    -0.392 OA
ATOM     12  H   UNL     1      70.971  -5.971  12.442  1.00  0.00     0.210 HD
ENDBRANCH  10  11
ENDBRANCH   2  10
TORSDOF 5
ENDMDL
MODEL 9
REMARK VINA RESULT:    -4.499      2.171      2.562
REMARK INTER + INTRA:          -6.067
REMARK INTER:                  -5.368
REMARK INTRA:                  -0.699
REMARK UNBOUND:                -0.385
REMARK SMILES CC(C)=CCCC(C)=CCO
REMARK SMILES IDX 7 1 9 2 8 3 6 4 5 5 4 6 1 7 2 8 3 9 10 10 11 11
REMARK H PARENT 11 12
REMARK Flexibility Score: inf
ROOT
ATOM      1  C   UNL     1      61.745 -16.663  21.110  1.00  0.00    -0.075 C 
ATOM      2  C   UNL     1      62.851 -15.913  20.909  1.00  0.00    -0.000 C 
ATOM      3  C   UNL     1      60.778 -16.957  19.988  1.00  0.00     0.039 C 
ENDROOT
BRANCH   1   4
ATOM      4  C   UNL     1      61.470 -17.223  22.491  1.00  0.00     0.034 C 
BRANCH   4   5
ATOM      5  C   UNL     1      61.424 -16.120  23.558  1.00  0.00     0.032 C 
BRANCH   5   6
ATOM      6  C   UNL     1      60.034 -15.546  23.710  1.00  0.00    -0.028 C 
ATOM      7  C   UNL     1      60.620 -13.382  22.594  1.00  0.00     0.039 C 
ATOM      8  C   UNL     1      59.651 -14.333  23.256  1.00  0.00    -0.080 C 
ATOM      9  C   UNL     1      58.213 -13.921  23.439  1.00  0.00     0.039 C 
ENDBRANCH   5   6
ENDBRANCH   4   5
ENDBRANCH   1   4
BRANCH   2  10
ATOM     10  C   UNL     1      63.212 -15.319  19.574  1.00  0.00     0.183 C 
BRANCH  10  11
ATOM     11  O   UNL     1      62.772 -13.991  19.518  1.00  0.00    -0.392 OA
ATOM     12  H   UNL     1      63.578 -13.443  19.329  1.00  0.00     0.210 HD
ENDBRANCH  10  11
ENDBRANCH   2  10
TORSDOF 5
ENDMDL
