MODEL 1
REMARK VINA RESULT:    -5.385      0.000      0.000
REMARK INTER + INTRA:          -5.700
REMARK INTER:                  -5.700
REMARK INTRA:                   0.000
REMARK UNBOUND:                 0.000
REMARK SMILES Cc1cc(O)c(C)c(C)c1O
REMARK SMILES IDX 1 1 2 2 3 3 4 4 6 5 8 6 10 7 9 8 7 9 11 10 5 12
REMARK H PARENT 11 11 5 13
REMARK Flexibility Score: inf
ROOT
ATOM      1  C   UNL     1     -19.282  42.653  33.840  1.00  0.00     0.048 C 
ATOM      2  C   UNL     1     -18.000  43.159  33.237  1.00  0.00    -0.005 A 
ATOM      3  C   UNL     1     -16.800  42.979  33.932  1.00  0.00     0.053 A 
ATOM      4  C   UNL     1     -15.590  43.440  33.415  1.00  0.00     0.119 A 
ATOM      5  C   UNL     1     -15.560  44.124  32.179  1.00  0.00    -0.003 A 
ATOM      6  C   UNL     1     -16.763  44.258  31.431  1.00  0.00    -0.002 A 
ATOM      7  C   UNL     1     -17.983  43.797  31.978  1.00  0.00     0.121 A 
ATOM      8  C   UNL     1     -16.760  44.912  30.067  1.00  0.00     0.049 C 
ATOM      9  C   UNL     1     -14.245  44.670  31.667  1.00  0.00     0.049 C 
ENDROOT
BRANCH   7  10
ATOM     10  O   UNL     1     -19.167  43.982  31.256  1.00  0.00    -0.507 OA
ATOM     11  H   UNL     1     -19.202  44.056  30.247  1.00  0.00     0.293 HD
ENDBRANCH   7  10
BRANCH   4  12
ATOM     12  O   UNL     1     -14.433  43.191  34.159  1.00  0.00    -0.508 OA
ATOM     13  H   UNL     1     -14.310  43.489  35.119  1.00  0.00     0.293 HD
ENDBRANCH   4  12
TORSDOF 2
ENDMDL
MODEL 2
REMARK VINA RESULT:    -5.380      1.230      2.975
REMARK INTER + INTRA:          -5.694
REMARK INTER:                  -5.694
REMARK INTRA:                   0.000
REMARK UNBOUND:                 0.000
REMARK SMILES Cc1cc(O)c(C)c(C)c1O
REMARK SMILES IDX 1 1 2 2 3 3 4 4 6 5 8 6 10 7 9 8 7 9 11 10 5 12
REMARK H PARENT 11 11 5 13
REMARK Flexibility Score: inf
ROOT
ATOM      1  C   UNL     1     -19.049  42.713  33.892  1.00  0.00     0.048 C 
ATOM      2  C   UNL     1     -17.885  43.261  33.111  1.00  0.00    -0.005 A 
ATOM      3  C   UNL     1     -18.128  44.121  32.036  1.00  0.00     0.053 A 
ATOM      4  C   UNL     1     -17.081  44.644  31.278  1.00  0.00     0.119 A 
ATOM      5  C   UNL     1     -15.745  44.291  31.575  1.00  0.00    -0.003 A 
ATOM      6  C   UNL     1     -15.479  43.469  32.705  1.00  0.00    -0.002 A 
ATOM      7  C   UNL     1     -16.555  42.935  33.452  1.00  0.00     0.121 A 
ATOM      8  C   UNL     1     -14.059  43.134  33.103  1.00  0.00     0.049 C 
ATOM      9  C   UNL     1     -14.629  44.822  30.701  1.00  0.00     0.049 C 
ENDROOT
BRANCH   7  10
ATOM     10  O   UNL     1     -16.282  42.085  34.529  1.00  0.00    -0.507 OA
ATOM     11  H   UNL     1     -16.107  42.412  35.471  1.00  0.00     0.293 HD
ENDBRANCH   7  10
BRANCH   4  12
ATOM     12  O   UNL     1     -17.409  45.521  30.240  1.00  0.00    -0.508 OA
ATOM     13  H   UNL     1     -16.727  45.923  29.610  1.00  0.00     0.293 HD
ENDBRANCH   4  12
TORSDOF 2
ENDMDL
MODEL 3
REMARK VINA RESULT:    -5.237      1.151      1.232
REMARK INTER + INTRA:          -5.544
REMARK INTER:                  -5.544
REMARK INTRA:                   0.000
REMARK UNBOUND:                 0.000
REMARK SMILES Cc1cc(O)c(C)c(C)c1O
REMARK SMILES IDX 1 1 2 2 3 3 4 4 6 5 8 6 10 7 9 8 7 9 11 10 5 12
REMARK H PARENT 11 11 5 13
REMARK Flexibility Score: inf
ROOT
ATOM      1  C   UNL     1     -18.875  44.120  33.309  1.00  0.00     0.048 C 
ATOM      2  C   UNL     1     -17.413  44.190  32.957  1.00  0.00    -0.005 A 
ATOM      3  C   UNL     1     -16.460  43.893  33.936  1.00  0.00     0.053 A 
ATOM      4  C   UNL     1     -15.095  43.954  33.656  1.00  0.00     0.119 A 
ATOM      5  C   UNL     1     -14.649  44.344  32.373  1.00  0.00    -0.003 A 
ATOM      6  C   UNL     1     -15.608  44.586  31.350  1.00  0.00    -0.002 A 
ATOM      7  C   UNL     1     -16.988  44.534  31.656  1.00  0.00     0.121 A 
ATOM      8  C   UNL     1     -15.171  44.927  29.943  1.00  0.00     0.049 C 
ATOM      9  C   UNL     1     -13.164  44.463  32.111  1.00  0.00     0.049 C 
ENDROOT
BRANCH   7  10
ATOM     10  O   UNL     1     -17.920  44.826  30.654  1.00  0.00    -0.507 OA
ATOM     11  H   UNL     1     -18.899  45.005  30.835  1.00  0.00     0.293 HD
ENDBRANCH   7  10
BRANCH   4  12
ATOM     12  O   UNL     1     -14.210  43.611  34.683  1.00  0.00    -0.508 OA
ATOM     13  H   UNL     1     -14.508  43.328  35.608  1.00  0.00     0.293 HD
ENDBRANCH   4  12
TORSDOF 2
ENDMDL
MODEL 4
REMARK VINA RESULT:    -5.211      0.914      3.136
REMARK INTER + INTRA:          -5.515
REMARK INTER:                  -5.515
REMARK INTRA:                   0.000
REMARK UNBOUND:                 0.000
REMARK SMILES Cc1cc(O)c(C)c(C)c1O
REMARK SMILES IDX 1 1 2 2 3 3 4 4 6 5 8 6 10 7 9 8 7 9 11 10 5 12
REMARK H PARENT 11 11 5 13
REMARK Flexibility Score: inf
ROOT
ATOM      1  C   UNL     1     -17.001  45.100  30.335  1.00  0.00     0.048 C 
ATOM      2  C   UNL     1     -17.034  44.077  31.439  1.00  0.00    -0.005 A 
ATOM      3  C   UNL     1     -15.830  43.589  31.955  1.00  0.00     0.053 A 
ATOM      4  C   UNL     1     -15.814  42.634  32.970  1.00  0.00     0.119 A 
ATOM      5  C   UNL     1     -17.027  42.122  33.483  1.00  0.00    -0.003 A 
ATOM      6  C   UNL     1     -18.258  42.656  33.013  1.00  0.00    -0.002 A 
ATOM      7  C   UNL     1     -18.256  43.613  31.971  1.00  0.00     0.121 A 
ATOM      8  C   UNL     1     -19.576  42.192  33.593  1.00  0.00     0.049 C 
ATOM      9  C   UNL     1     -16.985  41.041  34.541  1.00  0.00     0.049 C 
ENDROOT
BRANCH   7  10
ATOM     10  O   UNL     1     -19.476  44.091  31.481  1.00  0.00    -0.507 OA
ATOM     11  H   UNL     1     -19.615  44.396  30.526  1.00  0.00     0.293 HD
ENDBRANCH   7  10
BRANCH   4  12
ATOM     12  O   UNL     1     -14.566  42.223  33.450  1.00  0.00    -0.508 OA
ATOM     13  H   UNL     1     -14.408  41.332  33.904  1.00  0.00     0.293 HD
ENDBRANCH   4  12
TORSDOF 2
ENDMDL
MODEL 5
REMARK VINA RESULT:    -5.169      1.264      3.161
REMARK INTER + INTRA:          -5.471
REMARK INTER:                  -5.471
REMARK INTRA:                   0.000
REMARK UNBOUND:                 0.000
REMARK SMILES Cc1cc(O)c(C)c(C)c1O
REMARK SMILES IDX 1 1 2 2 3 3 4 4 6 5 8 6 10 7 9 8 7 9 11 10 5 12
REMARK H PARENT 11 11 5 13
REMARK Flexibility Score: inf
ROOT
ATOM      1  C   UNL     1     -16.748  44.801  28.806  1.00  0.00     0.048 C 
ATOM      2  C   UNL     1     -16.281  44.562  30.216  1.00  0.00    -0.005 A 
ATOM      3  C   UNL     1     -14.960  44.865  30.559  1.00  0.00     0.053 A 
ATOM      4  C   UNL     1     -14.482  44.650  31.851  1.00  0.00     0.119 A 
ATOM      5  C   UNL     1     -15.327  44.095  32.838  1.00  0.00    -0.003 A 
ATOM      6  C   UNL     1     -16.690  43.843  32.521  1.00  0.00    -0.002 A 
ATOM      7  C   UNL     1     -17.154  44.052  31.201  1.00  0.00     0.121 A 
ATOM      8  C   UNL     1     -17.648  43.325  33.571  1.00  0.00     0.049 C 
ATOM      9  C   UNL     1     -14.769  43.813  34.216  1.00  0.00     0.049 C 
ENDROOT
BRANCH   7  10
ATOM     10  O   UNL     1     -18.484  43.749  30.889  1.00  0.00    -0.507 OA
ATOM     11  H   UNL     1     -19.100  44.379  30.391  1.00  0.00     0.293 HD
ENDBRANCH   7  10
BRANCH   4  12
ATOM     12  O   UNL     1     -13.157  45.009  32.117  1.00  0.00    -0.508 OA
ATOM     13  H   UNL     1     -12.487  44.391  32.559  1.00  0.00     0.293 HD
ENDBRANCH   4  12
TORSDOF 2
ENDMDL
MODEL 6
REMARK VINA RESULT:    -5.105      1.267      4.405
REMARK INTER + INTRA:          -5.404
REMARK INTER:                  -5.404
REMARK INTRA:                   0.000
REMARK UNBOUND:                 0.000
REMARK SMILES Cc1cc(O)c(C)c(C)c1O
REMARK SMILES IDX 1 1 2 2 3 3 4 4 6 5 8 6 10 7 9 8 7 9 11 10 5 12
REMARK H PARENT 11 11 5 13
REMARK Flexibility Score: inf
ROOT
ATOM      1  C   UNL     1     -12.900  44.400  31.484  1.00  0.00     0.048 C 
ATOM      2  C   UNL     1     -14.376  44.206  31.706  1.00  0.00    -0.005 A 
ATOM      3  C   UNL     1     -15.285  44.880  30.885  1.00  0.00     0.053 A 
ATOM      4  C   UNL     1     -16.661  44.737  31.061  1.00  0.00     0.119 A 
ATOM      5  C   UNL     1     -17.162  43.919  32.099  1.00  0.00    -0.003 A 
ATOM      6  C   UNL     1     -16.251  43.178  32.900  1.00  0.00    -0.002 A 
ATOM      7  C   UNL     1     -14.858  43.347  32.716  1.00  0.00     0.121 A 
ATOM      8  C   UNL     1     -16.749  42.230  33.967  1.00  0.00     0.049 C 
ATOM      9  C   UNL     1     -18.658  43.828  32.311  1.00  0.00     0.049 C 
ENDROOT
BRANCH   7  10
ATOM     10  O   UNL     1     -13.971  42.653  33.547  1.00  0.00    -0.507 OA
ATOM     11  H   UNL     1     -14.098  42.558  34.546  1.00  0.00     0.293 HD
ENDBRANCH   7  10
BRANCH   4  12
ATOM     12  O   UNL     1     -17.500  45.422  30.177  1.00  0.00    -0.508 OA
ATOM     13  H   UNL     1     -18.507  45.455  30.274  1.00  0.00     0.293 HD
ENDBRANCH   4  12
TORSDOF 2
ENDMDL
MODEL 7
REMARK VINA RESULT:    -5.083      2.515      2.803
REMARK INTER + INTRA:          -5.380
REMARK INTER:                  -5.380
REMARK INTRA:                   0.000
REMARK UNBOUND:                 0.000
REMARK SMILES Cc1cc(O)c(C)c(C)c1O
REMARK SMILES IDX 1 1 2 2 3 3 4 4 6 5 8 6 10 7 9 8 7 9 11 10 5 12
REMARK H PARENT 11 11 5 13
REMARK Flexibility Score: inf
ROOT
ATOM      1  C   UNL     1     -19.432  43.946  33.485  1.00  0.00     0.048 C 
ATOM      2  C   UNL     1     -18.520  43.051  32.689  1.00  0.00    -0.005 A 
ATOM      3  C   UNL     1     -18.423  41.698  33.030  1.00  0.00     0.053 A 
ATOM      4  C   UNL     1     -17.584  40.835  32.326  1.00  0.00     0.119 A 
ATOM      5  C   UNL     1     -16.793  41.324  31.262  1.00  0.00    -0.003 A 
ATOM      6  C   UNL     1     -16.930  42.683  30.863  1.00  0.00    -0.002 A 
ATOM      7  C   UNL     1     -17.775  43.547  31.598  1.00  0.00     0.121 A 
ATOM      8  C   UNL     1     -16.162  43.225  29.679  1.00  0.00     0.049 C 
ATOM      9  C   UNL     1     -15.844  40.383  30.553  1.00  0.00     0.049 C 
ENDROOT
BRANCH   7  10
ATOM     10  O   UNL     1     -17.860  44.894  31.229  1.00  0.00    -0.507 OA
ATOM     11  H   UNL     1     -18.218  45.208  30.336  1.00  0.00     0.293 HD
ENDBRANCH   7  10
BRANCH   4  12
ATOM     12  O   UNL     1     -17.569  39.491  32.712  1.00  0.00    -0.508 OA
ATOM     13  H   UNL     1     -16.720  38.959  32.854  1.00  0.00     0.293 HD
ENDBRANCH   4  12
TORSDOF 2
ENDMDL
MODEL 8
REMARK VINA RESULT:    -4.930      2.411      4.174
REMARK INTER + INTRA:          -5.218
REMARK INTER:                  -5.218
REMARK INTRA:                   0.000
REMARK UNBOUND:                 0.000
REMARK SMILES Cc1cc(O)c(C)c(C)c1O
REMARK SMILES IDX 1 1 2 2 3 3 4 4 6 5 8 6 10 7 9 8 7 9 11 10 5 12
REMARK H PARENT 11 11 5 13
REMARK Flexibility Score: inf
ROOT
ATOM      1  C   UNL     1     -16.171  40.369  30.648  1.00  0.00     0.048 C 
ATOM      2  C   UNL     1     -16.978  41.401  31.390  1.00  0.00    -0.005 A 
ATOM      3  C   UNL     1     -17.093  42.689  30.858  1.00  0.00     0.053 A 
ATOM      4  C   UNL     1     -17.822  43.679  31.516  1.00  0.00     0.119 A 
ATOM      5  C   UNL     1     -18.444  43.399  32.754  1.00  0.00    -0.003 A 
ATOM      6  C   UNL     1     -18.389  42.076  33.273  1.00  0.00    -0.002 A 
ATOM      7  C   UNL     1     -17.632  41.088  32.600  1.00  0.00     0.121 A 
ATOM      8  C   UNL     1     -19.109  41.715  34.554  1.00  0.00     0.049 C 
ATOM      9  C   UNL     1     -19.178  44.505  33.480  1.00  0.00     0.049 C 
ENDROOT
BRANCH   7  10
ATOM     10  O   UNL     1     -17.543  39.805  33.150  1.00  0.00    -0.507 OA
ATOM     11  H   UNL     1     -17.422  38.966  32.597  1.00  0.00     0.293 HD
ENDBRANCH   7  10
BRANCH   4  12
ATOM     12  O   UNL     1     -17.912  44.931  30.901  1.00  0.00    -0.508 OA
ATOM     13  H   UNL     1     -18.619  45.168  30.216  1.00  0.00     0.293 HD
ENDBRANCH   4  12
TORSDOF 2
ENDMDL
MODEL 9
REMARK VINA RESULT:    -4.841      1.789      3.577
REMARK INTER + INTRA:          -5.124
REMARK INTER:                  -5.124
REMARK INTRA:                   0.000
REMARK UNBOUND:                 0.000
REMARK SMILES Cc1cc(O)c(C)c(C)c1O
REMARK SMILES IDX 1 1 2 2 3 3 4 4 6 5 8 6 10 7 9 8 7 9 11 10 5 12
REMARK H PARENT 11 11 5 13
REMARK Flexibility Score: inf
ROOT
ATOM      1  C   UNL     1     -12.378  44.375  32.560  1.00  0.00     0.048 C 
ATOM      2  C   UNL     1     -13.861  44.117  32.587  1.00  0.00    -0.005 A 
ATOM      3  C   UNL     1     -14.406  43.377  33.640  1.00  0.00     0.053 A 
ATOM      4  C   UNL     1     -15.772  43.106  33.700  1.00  0.00     0.119 A 
ATOM      5  C   UNL     1     -16.632  43.560  32.675  1.00  0.00    -0.003 A 
ATOM      6  C   UNL     1     -16.101  44.369  31.632  1.00  0.00    -0.002 A 
ATOM      7  C   UNL     1     -14.711  44.621  31.579  1.00  0.00     0.121 A 
ATOM      8  C   UNL     1     -17.002  44.941  30.560  1.00  0.00     0.049 C 
ATOM      9  C   UNL     1     -18.101  43.201  32.729  1.00  0.00     0.049 C 
ENDROOT
BRANCH   7  10
ATOM     10  O   UNL     1     -14.194  45.373  30.519  1.00  0.00    -0.507 OA
ATOM     11  H   UNL     1     -13.226  45.335  30.225  1.00  0.00     0.293 HD
ENDBRANCH   7  10
BRANCH   4  12
ATOM     12  O   UNL     1     -16.240  42.385  34.803  1.00  0.00    -0.508 OA
ATOM     13  H   UNL     1     -16.888  41.611  34.732  1.00  0.00     0.293 HD
ENDBRANCH   4  12
TORSDOF 2
ENDMDL
