MODEL 1
REMARK VINA RESULT:     4.744      0.000      0.000
REMARK INTER + INTRA:           8.895
REMARK INTER:                   7.240
REMARK INTRA:                   1.655
REMARK UNBOUND:                 1.655
REMARK SMILES CC1=CCC[C@H](C)C(=O)C[C@@H](C(C)C)C(=O)C1
REMARK SMILES IDX 8 1 9 2 6 3 7 4 5 5 4 6 3 7 2 8 1 9 10 11 11 12 15 13 16 14
REMARK SMILES IDX 17 15 12 17 13 18 14 19
REMARK H PARENT
REMARK Flexibility Score: 70.00
ROOT
ATOM      1  C   UNL     1      13.877  37.947 -14.726  1.00  0.00     0.136 C 
ATOM      2  O   UNL     1      14.000  38.378 -13.588  1.00  0.00    -0.299 OA
ENDROOT
BRANCH   1   3
ATOM      3  C   UNL     1      14.112  36.477 -15.009  1.00  0.00     0.053 C 
ATOM      4  C   UNL     1      13.618  35.650 -13.818  1.00  0.00     0.016 C 
BRANCH   3   5
ATOM      5  C   UNL     1      13.430  36.000 -16.312  1.00  0.00     0.015 C 
BRANCH   5   6
ATOM      6  C   UNL     1      14.225  36.329 -17.589  1.00  0.00     0.028 C 
BRANCH   6   7
ATOM      7  C   UNL     1      13.390  36.121 -18.831  1.00  0.00    -0.028 C 
ATOM      8  C   UNL     1      12.090  36.467 -18.972  1.00  0.00    -0.070 CG0
ATOM      9  C   UNL     1      11.423  36.185 -20.294  1.00  0.00     0.039 C 
ATOM     10  G   UNL     1      11.283  37.121 -17.865  1.00  0.00     0.000 G0
ENDBRANCH   6   7
ENDBRANCH   5   6
ENDBRANCH   3   5
ENDBRANCH   1   3
BRANCH   1  11
ATOM     11  C   UNL     1      13.557  38.907 -15.847  1.00  0.00     0.087 C 
BRANCH  11  12
ATOM     12  C   UNL     1      12.037  38.979 -16.127  1.00  0.00     0.066 C 
BRANCH  12  13
ATOM     13  C   UNL     1      11.734  38.527 -17.547  1.00  0.00     0.140 C 
ATOM     14  O   UNL     1      11.823  39.324 -18.470  1.00  0.00    -0.299 OA
BRANCH  13  15
ATOM     15  C   UNL     1      11.287  37.119 -17.844  1.00  0.00     0.106 CG0
ATOM     16  G   UNL     1      12.090  36.482 -18.963  1.00  0.00     0.000 G0
ENDBRANCH  13  15
ENDBRANCH  12  13
BRANCH  12  17
ATOM     17  C   UNL     1      11.410  40.379 -15.840  1.00  0.00    -0.006 C 
ATOM     18  C   UNL     1      10.154  40.267 -14.961  1.00  0.00     0.008 C 
ATOM     19  C   UNL     1      12.390  41.392 -15.224  1.00  0.00     0.008 C 
ENDBRANCH  12  17
ENDBRANCH  11  12
ENDBRANCH   1  11
TORSDOF 1
ENDMDL
MODEL 2
REMARK VINA RESULT:     4.860      1.881      4.254
REMARK INTER + INTRA:           9.072
REMARK INTER:                   7.699
REMARK INTRA:                   1.373
REMARK UNBOUND:                 1.655
REMARK SMILES CC1=CCC[C@H](C)C(=O)C[C@@H](C(C)C)C(=O)C1
REMARK SMILES IDX 8 1 9 2 6 3 7 4 5 5 4 6 3 7 2 8 1 9 10 11 11 12 15 13 16 14
REMARK SMILES IDX 17 15 12 17 13 18 14 19
REMARK H PARENT
REMARK Flexibility Score: 70.00
ROOT
ATOM      1  C   UNL     1      11.483  35.323 -16.181  1.00  0.00     0.136 C 
ATOM      2  O   UNL     1      10.971  34.246 -15.904  1.00  0.00    -0.299 OA
ENDROOT
BRANCH   1   3
ATOM      3  C   UNL     1      12.490  35.947 -15.236  1.00  0.00     0.053 C 
ATOM      4  C   UNL     1      13.002  34.876 -14.268  1.00  0.00     0.016 C 
BRANCH   3   5
ATOM      5  C   UNL     1      13.675  36.611 -15.976  1.00  0.00     0.015 C 
BRANCH   5   6
ATOM      6  C   UNL     1      14.103  37.964 -15.380  1.00  0.00     0.028 C 
BRANCH   6   7
ATOM      7  C   UNL     1      12.911  38.847 -15.097  1.00  0.00    -0.028 C 
ATOM      8  C   UNL     1      12.179  39.502 -16.027  1.00  0.00    -0.070 CG0
ATOM      9  C   UNL     1      11.015  40.335 -15.551  1.00  0.00     0.039 C 
ATOM     10  G   UNL     1      12.477  39.437 -17.513  1.00  0.00     0.000 G0
ENDBRANCH   6   7
ENDBRANCH   5   6
ENDBRANCH   3   5
ENDBRANCH   1   3
BRANCH   1  11
ATOM     11  C   UNL     1      11.046  36.046 -17.432  1.00  0.00     0.087 C 
BRANCH  11  12
ATOM     12  C   UNL     1      12.196  36.880 -18.045  1.00  0.00     0.066 C 
BRANCH  12  13
ATOM     13  C   UNL     1      11.768  38.328 -18.226  1.00  0.00     0.140 C 
ATOM     14  O   UNL     1      10.848  38.600 -18.984  1.00  0.00    -0.299 OA
BRANCH  13  15
ATOM     15  C   UNL     1      12.479  39.452 -17.516  1.00  0.00     0.106 CG0
ATOM     16  G   UNL     1      12.178  39.475 -16.029  1.00  0.00     0.000 G0
ENDBRANCH  13  15
ENDBRANCH  12  13
BRANCH  12  17
ATOM     17  C   UNL     1      12.758  36.293 -19.377  1.00  0.00    -0.006 C 
ATOM     18  C   UNL     1      14.182  35.742 -19.197  1.00  0.00     0.008 C 
ATOM     19  C   UNL     1      11.861  35.222 -20.020  1.00  0.00     0.008 C 
ENDBRANCH  12  17
ENDBRANCH  11  12
ENDBRANCH   1  11
TORSDOF 1
ENDMDL
MODEL 3
REMARK VINA RESULT:     5.602      1.755      4.813
REMARK INTER + INTRA:          10.204
REMARK INTER:                   9.652
REMARK INTRA:                   0.552
REMARK UNBOUND:                 1.655
REMARK SMILES CC1=CCC[C@H](C)C(=O)C[C@@H](C(C)C)C(=O)C1
REMARK SMILES IDX 8 1 9 2 6 3 7 4 5 5 4 6 3 7 2 8 1 9 10 11 11 12 15 13 16 14
REMARK SMILES IDX 17 15 12 17 13 18 14 19
REMARK H PARENT
REMARK Flexibility Score: 70.00
ROOT
ATOM      1  C   UNL     1      12.091  39.369 -17.737  1.00  0.00     0.136 C 
ATOM      2  O   UNL     1      11.330  39.836 -18.574  1.00  0.00    -0.299 OA
ENDROOT
BRANCH   1   3
ATOM      3  C   UNL     1      12.317  40.098 -16.429  1.00  0.00     0.053 C 
ATOM      4  C   UNL     1      11.206  41.135 -16.232  1.00  0.00     0.016 C 
BRANCH   3   5
ATOM      5  C   UNL     1      12.380  39.144 -15.213  1.00  0.00     0.015 C 
BRANCH   5   6
ATOM      6  C   UNL     1      13.800  38.654 -14.878  1.00  0.00     0.028 C 
BRANCH   6   7
ATOM      7  C   UNL     1      13.771  37.349 -14.117  1.00  0.00    -0.028 C 
ATOM      8  C   UNL     1      13.678  36.118 -14.670  1.00  0.00    -0.070 CG0
ATOM      9  C   UNL     1      13.670  34.927 -13.745  1.00  0.00     0.039 C 
ATOM     10  G   UNL     1      13.580  35.888 -16.167  1.00  0.00     0.000 G0
ENDBRANCH   6   7
ENDBRANCH   5   6
ENDBRANCH   3   5
ENDBRANCH   1   3
BRANCH   1  11
ATOM     11  C   UNL     1      12.847  38.101 -18.055  1.00  0.00     0.087 C 
BRANCH  11  12
ATOM     12  C   UNL     1      11.937  36.853 -17.978  1.00  0.00     0.066 C 
BRANCH  12  13
ATOM     13  C   UNL     1      12.194  36.083 -16.693  1.00  0.00     0.140 C 
ATOM     14  O   UNL     1      11.253  35.626 -16.059  1.00  0.00    -0.299 OA
BRANCH  13  15
ATOM     15  C   UNL     1      13.590  35.896 -16.156  1.00  0.00     0.106 CG0
ATOM     16  G   UNL     1      13.665  36.108 -14.656  1.00  0.00     0.000 G0
ENDBRANCH  13  15
ENDBRANCH  12  13
BRANCH  12  17
ATOM     17  C   UNL     1      12.045  35.916 -19.222  1.00  0.00    -0.006 C 
ATOM     18  C   UNL     1      11.147  36.397 -20.373  1.00  0.00     0.008 C 
ATOM     19  C   UNL     1      13.483  35.713 -19.731  1.00  0.00     0.008 C 
ENDBRANCH  12  17
ENDBRANCH  11  12
ENDBRANCH   1  11
TORSDOF 1
ENDMDL
MODEL 4
REMARK VINA RESULT:     6.233      1.628      3.566
REMARK INTER + INTRA:          11.168
REMARK INTER:                  10.056
REMARK INTRA:                   1.112
REMARK UNBOUND:                 1.655
REMARK SMILES CC1=CCC[C@H](C)C(=O)C[C@@H](C(C)C)C(=O)C1
REMARK SMILES IDX 8 1 9 2 6 3 7 4 5 5 4 6 3 7 2 8 1 9 10 11 11 12 15 13 16 14
REMARK SMILES IDX 17 15 12 17 13 18 14 19
REMARK H PARENT
REMARK Flexibility Score: 70.00
ROOT
ATOM      1  C   UNL     1      11.546  39.271 -15.916  1.00  0.00     0.136 C 
ATOM      2  O   UNL     1      11.101  39.786 -14.900  1.00  0.00    -0.299 OA
ENDROOT
BRANCH   1   3
ATOM      3  C   UNL     1      11.770  40.114 -17.156  1.00  0.00     0.053 C 
ATOM      4  C   UNL     1      12.950  41.059 -16.916  1.00  0.00     0.016 C 
BRANCH   3   5
ATOM      5  C   UNL     1      12.014  39.262 -18.424  1.00  0.00     0.015 C 
BRANCH   5   6
ATOM      6  C   UNL     1      10.792  38.437 -18.867  1.00  0.00     0.028 C 
BRANCH   6   7
ATOM      7  C   UNL     1      11.187  37.323 -19.807  1.00  0.00    -0.028 C 
ATOM      8  C   UNL     1      11.751  36.149 -19.441  1.00  0.00    -0.070 CG0
ATOM      9  C   UNL     1      12.070  35.151 -20.526  1.00  0.00     0.039 C 
ATOM     10  G   UNL     1      12.073  35.798 -18.001  1.00  0.00     0.000 G0
ENDBRANCH   6   7
ENDBRANCH   5   6
ENDBRANCH   3   5
ENDBRANCH   1   3
BRANCH   1  11
ATOM     11  C   UNL     1      11.802  37.783 -15.938  1.00  0.00     0.087 C 
BRANCH  11  12
ATOM     12  C   UNL     1      13.266  37.456 -16.315  1.00  0.00     0.066 C 
BRANCH  12  13
ATOM     13  C   UNL     1      13.313  36.498 -17.495  1.00  0.00     0.140 C 
ATOM     14  O   UNL     1      14.372  36.292 -18.069  1.00  0.00    -0.299 OA
BRANCH  13  15
ATOM     15  C   UNL     1      12.068  35.815 -18.001  1.00  0.00     0.106 CG0
ATOM     16  G   UNL     1      11.768  36.160 -19.447  1.00  0.00     0.000 G0
ENDBRANCH  13  15
ENDBRANCH  12  13
BRANCH  12  17
ATOM     17  C   UNL     1      14.117  36.916 -15.123  1.00  0.00    -0.006 C 
ATOM     18  C   UNL     1      14.353  38.001 -14.060  1.00  0.00     0.008 C 
ATOM     19  C   UNL     1      13.542  35.653 -14.461  1.00  0.00     0.008 C 
ENDBRANCH  12  17
ENDBRANCH  11  12
ENDBRANCH   1  11
TORSDOF 1
ENDMDL
MODEL 5
REMARK VINA RESULT:     6.403      1.457      3.797
REMARK INTER + INTRA:          11.427
REMARK INTER:                   9.477
REMARK INTRA:                   1.951
REMARK UNBOUND:                 1.655
REMARK SMILES CC1=CCC[C@H](C)C(=O)C[C@@H](C(C)C)C(=O)C1
REMARK SMILES IDX 8 1 9 2 6 3 7 4 5 5 4 6 3 7 2 8 1 9 10 11 11 12 15 13 16 14
REMARK SMILES IDX 17 15 12 17 13 18 14 19
REMARK H PARENT
REMARK Flexibility Score: 70.00
ROOT
ATOM      1  C   UNL     1      11.669  37.524 -18.298  1.00  0.00     0.136 C 
ATOM      2  O   UNL     1      11.297  38.381 -19.088  1.00  0.00    -0.299 OA
ENDROOT
BRANCH   1   3
ATOM      3  C   UNL     1      12.127  36.173 -18.808  1.00  0.00     0.053 C 
ATOM      4  C   UNL     1      11.314  35.802 -20.052  1.00  0.00     0.016 C 
BRANCH   3   5
ATOM      5  C   UNL     1      13.641  36.133 -19.125  1.00  0.00     0.015 C 
BRANCH   5   6
ATOM      6  C   UNL     1      14.539  36.494 -17.928  1.00  0.00     0.028 C 
BRANCH   6   7
ATOM      7  C   UNL     1      14.065  35.826 -16.659  1.00  0.00    -0.028 C 
ATOM      8  C   UNL     1      14.000  36.410 -15.440  1.00  0.00    -0.070 CG0
ATOM      9  C   UNL     1      13.491  35.582 -14.287  1.00  0.00     0.039 C 
ATOM     10  G   UNL     1      14.414  37.848 -15.188  1.00  0.00     0.000 G0
ENDBRANCH   6   7
ENDBRANCH   5   6
ENDBRANCH   3   5
ENDBRANCH   1   3
BRANCH   1  11
ATOM     11  C   UNL     1      11.597  37.806 -16.816  1.00  0.00     0.087 C 
BRANCH  11  12
ATOM     12  C   UNL     1      12.415  39.061 -16.429  1.00  0.00     0.066 C 
BRANCH  12  13
ATOM     13  C   UNL     1      13.247  38.793 -15.185  1.00  0.00     0.140 C 
ATOM     14  O   UNL     1      12.992  39.382 -14.145  1.00  0.00    -0.299 OA
BRANCH  13  15
ATOM     15  C   UNL     1      14.413  37.838 -15.212  1.00  0.00     0.106 CG0
ATOM     16  G   UNL     1      13.979  36.404 -15.452  1.00  0.00     0.000 G0
ENDBRANCH  13  15
ENDBRANCH  12  13
BRANCH  12  17
ATOM     17  C   UNL     1      11.549  40.348 -16.256  1.00  0.00    -0.006 C 
ATOM     18  C   UNL     1      10.225  40.047 -15.535  1.00  0.00     0.008 C 
ATOM     19  C   UNL     1      12.277  41.504 -15.550  1.00  0.00     0.008 C 
ENDBRANCH  12  17
ENDBRANCH  11  12
ENDBRANCH   1  11
TORSDOF 1
ENDMDL
MODEL 6
REMARK VINA RESULT:     6.519      1.858      4.531
REMARK INTER + INTRA:          11.603
REMARK INTER:                   8.083
REMARK INTRA:                   3.520
REMARK UNBOUND:                 1.655
REMARK SMILES CC1=CCC[C@H](C)C(=O)C[C@@H](C(C)C)C(=O)C1
REMARK SMILES IDX 8 1 9 2 6 3 7 4 5 5 4 6 3 7 2 8 1 9 10 11 11 12 15 13 16 14
REMARK SMILES IDX 17 15 12 17 13 18 14 19
REMARK H PARENT
REMARK Flexibility Score: 70.00
ROOT
ATOM      1  C   UNL     1      13.377  36.255 -18.183  1.00  0.00     0.136 C 
ATOM      2  O   UNL     1      13.961  36.047 -19.237  1.00  0.00    -0.299 OA
ENDROOT
BRANCH   1   3
ATOM      3  C   UNL     1      11.865  36.360 -18.163  1.00  0.00     0.053 C 
ATOM      4  C   UNL     1      11.325  35.608 -16.942  1.00  0.00     0.016 C 
BRANCH   3   5
ATOM      5  C   UNL     1      11.365  37.824 -18.156  1.00  0.00     0.015 C 
BRANCH   5   6
ATOM      6  C   UNL     1      12.495  38.869 -18.169  1.00  0.00     0.028 C 
BRANCH   6   7
ATOM      7  C   UNL     1      12.145  40.074 -17.328  1.00  0.00    -0.028 C 
ATOM      8  C   UNL     1      11.888  40.058 -16.000  1.00  0.00    -0.070 CG0
ATOM      9  C   UNL     1      11.562  41.368 -15.328  1.00  0.00     0.039 C 
ATOM     10  G   UNL     1      11.912  38.790 -15.167  1.00  0.00     0.000 G0
ENDBRANCH   6   7
ENDBRANCH   5   6
ENDBRANCH   3   5
ENDBRANCH   1   3
BRANCH   1  11
ATOM     11  C   UNL     1      14.182  36.475 -16.925  1.00  0.00     0.087 C 
BRANCH  11  12
ATOM     12  C   UNL     1      13.277  36.605 -15.677  1.00  0.00     0.066 C 
BRANCH  12  13
ATOM     13  C   UNL     1      13.211  38.052 -15.213  1.00  0.00     0.140 C 
ATOM     14  O   UNL     1      14.232  38.624 -14.860  1.00  0.00    -0.299 OA
BRANCH  13  15
ATOM     15  C   UNL     1      11.901  38.794 -15.144  1.00  0.00     0.106 CG0
ATOM     16  G   UNL     1      11.909  40.059 -15.983  1.00  0.00     0.000 G0
ENDBRANCH  13  15
ENDBRANCH  12  13
BRANCH  12  17
ATOM     17  C   UNL     1      13.684  35.660 -14.503  1.00  0.00    -0.006 C 
ATOM     18  C   UNL     1      14.000  36.451 -13.224  1.00  0.00     0.008 C 
ATOM     19  C   UNL     1      12.653  34.561 -14.196  1.00  0.00     0.008 C 
ENDBRANCH  12  17
ENDBRANCH  11  12
ENDBRANCH   1  11
TORSDOF 1
ENDMDL
MODEL 7
REMARK VINA RESULT:     7.208      1.686      4.257
REMARK INTER + INTRA:          12.656
REMARK INTER:                  11.939
REMARK INTRA:                   0.717
REMARK UNBOUND:                 1.655
REMARK SMILES CC1=CCC[C@H](C)C(=O)C[C@@H](C(C)C)C(=O)C1
REMARK SMILES IDX 8 1 9 2 6 3 7 4 5 5 4 6 3 7 2 8 1 9 10 11 11 12 15 13 16 14
REMARK SMILES IDX 17 15 12 17 13 18 14 19
REMARK H PARENT
REMARK Flexibility Score: 70.00
ROOT
ATOM      1  C   UNL     1      13.759  36.511 -16.763  1.00  0.00     0.136 C 
ATOM      2  O   UNL     1      14.903  36.791 -17.095  1.00  0.00    -0.299 OA
ENDROOT
BRANCH   1   3
ATOM      3  C   UNL     1      13.251  36.903 -15.391  1.00  0.00     0.053 C 
ATOM      4  C   UNL     1      13.813  35.930 -14.349  1.00  0.00     0.016 C 
BRANCH   3   5
ATOM      5  C   UNL     1      13.610  38.360 -15.012  1.00  0.00     0.015 C 
BRANCH   5   6
ATOM      6  C   UNL     1      12.458  39.360 -15.219  1.00  0.00     0.028 C 
BRANCH   6   7
ATOM      7  C   UNL     1      12.502  39.979 -16.596  1.00  0.00    -0.028 C 
ATOM      8  C   UNL     1      11.921  39.468 -17.706  1.00  0.00    -0.070 CG0
ATOM      9  C   UNL     1      12.069  40.235 -18.996  1.00  0.00     0.039 C 
ATOM     10  G   UNL     1      11.138  38.169 -17.708  1.00  0.00     0.000 G0
ENDBRANCH   6   7
ENDBRANCH   5   6
ENDBRANCH   3   5
ENDBRANCH   1   3
BRANCH   1  11
ATOM     11  C   UNL     1      12.892  35.713 -17.708  1.00  0.00     0.087 C 
BRANCH  11  12
ATOM     12  C   UNL     1      12.660  36.458 -19.044  1.00  0.00     0.066 C 
BRANCH  12  13
ATOM     13  C   UNL     1      11.423  37.339 -18.956  1.00  0.00     0.140 C 
ATOM     14  O   UNL     1      10.654  37.403 -19.904  1.00  0.00    -0.299 OA
BRANCH  13  15
ATOM     15  C   UNL     1      11.137  38.170 -17.731  1.00  0.00     0.106 CG0
ATOM     16  G   UNL     1      11.919  39.470 -17.721  1.00  0.00     0.000 G0
ENDBRANCH  13  15
ENDBRANCH  12  13
BRANCH  12  17
ATOM     17  C   UNL     1      12.588  35.516 -20.286  1.00  0.00    -0.006 C 
ATOM     18  C   UNL     1      13.899  34.740 -20.485  1.00  0.00     0.008 C 
ATOM     19  C   UNL     1      11.400  34.538 -20.265  1.00  0.00     0.008 C 
ENDBRANCH  12  17
ENDBRANCH  11  12
ENDBRANCH   1  11
TORSDOF 1
ENDMDL
MODEL 8
REMARK VINA RESULT:     7.326      8.466     11.320
REMARK INTER + INTRA:          12.836
REMARK INTER:                  12.573
REMARK INTRA:                   0.262
REMARK UNBOUND:                 1.655
REMARK SMILES CC1=CCC[C@H](C)C(=O)C[C@@H](C(C)C)C(=O)C1
REMARK SMILES IDX 8 1 9 2 6 3 7 4 5 5 4 6 3 7 2 8 1 9 10 11 11 12 15 13 16 14
REMARK SMILES IDX 17 15 12 17 13 18 14 19
REMARK H PARENT
REMARK Flexibility Score: 70.00
ROOT
ATOM      1  C   UNL     1       8.328  31.950 -22.740  1.00  0.00     0.136 C 
ATOM      2  O   UNL     1       7.456  31.427 -22.058  1.00  0.00    -0.299 OA
ENDROOT
BRANCH   1   3
ATOM      3  C   UNL     1       9.672  32.281 -22.125  1.00  0.00     0.053 C 
ATOM      4  C   UNL     1       9.482  32.602 -20.640  1.00  0.00     0.016 C 
BRANCH   3   5
ATOM      5  C   UNL     1      10.708  31.145 -22.299  1.00  0.00     0.015 C 
BRANCH   5   6
ATOM      6  C   UNL     1      11.561  31.268 -23.575  1.00  0.00     0.028 C 
BRANCH   6   7
ATOM      7  C   UNL     1      11.527  29.997 -24.390  1.00  0.00    -0.028 C 
ATOM      8  C   UNL     1      10.684  29.744 -25.417  1.00  0.00    -0.070 CG0
ATOM      9  C   UNL     1      10.804  28.414 -26.118  1.00  0.00     0.039 C 
ATOM     10  G   UNL     1       9.632  30.730 -25.888  1.00  0.00     0.000 G0
ENDBRANCH   6   7
ENDBRANCH   5   6
ENDBRANCH   3   5
ENDBRANCH   1   3
BRANCH   1  11
ATOM     11  C   UNL     1       8.020  32.320 -24.171  1.00  0.00     0.087 C 
BRANCH  11  12
ATOM     12  C   UNL     1       7.253  31.195 -24.905  1.00  0.00     0.066 C 
BRANCH  12  13
ATOM     13  C   UNL     1       8.216  30.308 -25.679  1.00  0.00     0.140 C 
ATOM     14  O   UNL     1       7.845  29.216 -26.083  1.00  0.00    -0.299 OA
BRANCH  13  15
ATOM     15  C   UNL     1       9.640  30.732 -25.933  1.00  0.00     0.106 CG0
ATOM     16  G   UNL     1      10.644  29.714 -25.424  1.00  0.00     0.000 G0
ENDBRANCH  13  15
ENDBRANCH  12  13
BRANCH  12  17
ATOM     17  C   UNL     1       6.106  31.713 -25.827  1.00  0.00    -0.006 C 
ATOM     18  C   UNL     1       4.875  30.794 -25.770  1.00  0.00     0.008 C 
ATOM     19  C   UNL     1       5.686  33.166 -25.551  1.00  0.00     0.008 C 
ENDBRANCH  12  17
ENDBRANCH  11  12
ENDBRANCH   1  11
TORSDOF 1
ENDMDL
MODEL 9
REMARK VINA RESULT:     7.476      2.677      4.703
REMARK INTER + INTRA:          13.064
REMARK INTER:                  12.296
REMARK INTRA:                   0.768
REMARK UNBOUND:                 1.655
REMARK SMILES CC1=CCC[C@H](C)C(=O)C[C@@H](C(C)C)C(=O)C1
REMARK SMILES IDX 8 1 9 2 6 3 7 4 5 5 4 6 3 7 2 8 1 9 10 11 11 12 15 13 16 14
REMARK SMILES IDX 17 15 12 17 13 18 14 19
REMARK H PARENT
REMARK Flexibility Score: 70.00
ROOT
ATOM      1  C   UNL     1      12.308  35.316 -19.609  1.00  0.00     0.136 C 
ATOM      2  O   UNL     1      13.521  35.380 -19.760  1.00  0.00    -0.299 OA
ENDROOT
BRANCH   1   3
ATOM      3  C   UNL     1      11.517  34.216 -20.287  1.00  0.00     0.053 C 
ATOM      4  C   UNL     1      12.420  33.492 -21.290  1.00  0.00     0.016 C 
BRANCH   3   5
ATOM      5  C   UNL     1      10.913  33.206 -19.283  1.00  0.00     0.015 C 
BRANCH   5   6
ATOM      6  C   UNL     1       9.931  33.836 -18.279  1.00  0.00     0.028 C 
BRANCH   6   7
ATOM      7  C   UNL     1      10.240  33.413 -16.862  1.00  0.00    -0.028 C 
ATOM      8  C   UNL     1      10.587  34.242 -15.851  1.00  0.00    -0.070 CG0
ATOM      9  C   UNL     1      10.852  33.633 -14.497  1.00  0.00     0.039 C 
ATOM     10  G   UNL     1      10.720  35.744 -16.021  1.00  0.00     0.000 G0
ENDBRANCH   6   7
ENDBRANCH   5   6
ENDBRANCH   3   5
ENDBRANCH   1   3
BRANCH   1  11
ATOM     11  C   UNL     1      11.610  36.384 -18.801  1.00  0.00     0.087 C 
BRANCH  11  12
ATOM     12  C   UNL     1      12.491  36.893 -17.636  1.00  0.00     0.066 C 
BRANCH  12  13
ATOM     13  C   UNL     1      12.130  36.181 -16.342  1.00  0.00     0.140 C 
ATOM     14  O   UNL     1      13.001  35.931 -15.522  1.00  0.00    -0.299 OA
BRANCH  13  15
ATOM     15  C   UNL     1      10.716  35.741 -16.057  1.00  0.00     0.106 CG0
ATOM     16  G   UNL     1      10.611  34.243 -15.838  1.00  0.00     0.000 G0
ENDBRANCH  13  15
ENDBRANCH  12  13
BRANCH  12  17
ATOM     17  C   UNL     1      12.456  38.442 -17.450  1.00  0.00    -0.006 C 
ATOM     18  C   UNL     1      11.436  39.102 -18.391  1.00  0.00     0.008 C 
ATOM     19  C   UNL     1      12.201  38.896 -16.003  1.00  0.00     0.008 C 
ENDBRANCH  12  17
ENDBRANCH  11  12
ENDBRANCH   1  11
TORSDOF 1
ENDMDL
