MODEL 1
REMARK VINA RESULT:     0.000      0.000      0.000
REMARK INTER + INTRA:          -1.005
REMARK INTER:                   0.000
REMARK INTRA:                  -1.005
REMARK UNBOUND:                -1.005
REMARK SMILES OC[C@H](O)C(O)[C@@H](O)CO
REMARK SMILES IDX 5 1 7 2 9 3 10 4 8 6 3 8 2 9 1 10 4 12 6 14
REMARK H PARENT 10 5 8 7 1 11 4 13 6 15
REMARK Flexibility Score: inf
ROOT
ATOM      1  C   UNL     1       0.826  24.346 -46.408  1.00  0.00     0.176 C 
ENDROOT
BRANCH   1   2
ATOM      2  C   UNL     1      -0.686  24.025 -46.212  1.00  0.00     0.171 C 
BRANCH   2   3
ATOM      3  C   UNL     1      -1.516  25.174 -45.607  1.00  0.00     0.190 C 
BRANCH   3   4
ATOM      4  O   UNL     1      -1.185  25.398 -44.263  1.00  0.00    -0.394 OA
ATOM      5  H   UNL     1      -1.493  26.316 -44.043  1.00  0.00     0.210 HD
ENDBRANCH   3   4
ENDBRANCH   2   3
BRANCH   2   6
ATOM      6  O   UNL     1      -0.836  22.892 -45.396  1.00  0.00    -0.388 OA
ATOM      7  H   UNL     1      -1.636  22.402 -45.720  1.00  0.00     0.211 HD
ENDBRANCH   2   6
ENDBRANCH   1   2
BRANCH   1   8
ATOM      8  C   UNL     1       1.798  23.352 -45.707  1.00  0.00     0.171 C 
BRANCH   8   9
ATOM      9  C   UNL     1       2.353  23.932 -44.396  1.00  0.00     0.190 C 
BRANCH   9  10
ATOM     10  O   UNL     1       1.323  24.107 -43.462  1.00  0.00    -0.394 OA
ATOM     11  H   UNL     1       0.473  24.026 -43.970  1.00  0.00     0.210 HD
ENDBRANCH   9  10
ENDBRANCH   8   9
BRANCH   8  12
ATOM     12  O   UNL     1       2.873  23.067 -46.565  1.00  0.00    -0.388 OA
ATOM     13  H   UNL     1       2.573  22.345 -47.178  1.00  0.00     0.211 HD
ENDBRANCH   8  12
ENDBRANCH   1   8
BRANCH   1  14
ATOM     14  O   UNL     1       1.092  25.681 -46.045  1.00  0.00    -0.388 OA
ATOM     15  H   UNL     1       1.223  25.715 -45.063  1.00  0.00     0.211 HD
ENDBRANCH   1  14
TORSDOF 9
ENDMDL
MODEL 2
REMARK VINA RESULT:     0.000      3.164      4.299
REMARK INTER + INTRA:          -1.005
REMARK INTER:                   0.000
REMARK INTRA:                  -1.005
REMARK UNBOUND:                -1.005
REMARK SMILES OC[C@H](O)C(O)[C@@H](O)CO
REMARK SMILES IDX 5 1 7 2 9 3 10 4 8 6 3 8 2 9 1 10 4 12 6 14
REMARK H PARENT 10 5 8 7 1 11 4 13 6 15
REMARK Flexibility Score: inf
ROOT
ATOM      1  C   UNL     1       1.803  21.954 -47.674  1.00  0.00     0.176 C 
ENDROOT
BRANCH   1   2
ATOM      2  C   UNL     1       0.910  23.227 -47.591  1.00  0.00     0.171 C 
BRANCH   2   3
ATOM      3  C   UNL     1      -0.145  23.202 -46.466  1.00  0.00     0.190 C 
BRANCH   3   4
ATOM      4  O   UNL     1      -1.156  22.267 -46.729  1.00  0.00    -0.394 OA
ATOM      5  H   UNL     1      -1.435  21.895 -45.851  1.00  0.00     0.210 HD
ENDBRANCH   3   4
ENDBRANCH   2   3
BRANCH   2   6
ATOM      6  O   UNL     1       0.250  23.434 -48.813  1.00  0.00    -0.388 OA
ATOM      7  H   UNL     1      -0.302  22.628 -48.987  1.00  0.00     0.211 HD
ENDBRANCH   2   6
ENDBRANCH   1   2
BRANCH   1   8
ATOM      8  C   UNL     1       1.791  21.242 -49.059  1.00  0.00     0.171 C 
BRANCH   8   9
ATOM      9  C   UNL     1       0.884  20.000 -49.049  1.00  0.00     0.190 C 
BRANCH   9  10
ATOM     10  O   UNL     1      -0.453  20.371 -48.852  1.00  0.00    -0.394 OA
ATOM     11  H   UNL     1      -0.884  20.335 -49.746  1.00  0.00     0.210 HD
ENDBRANCH   9  10
ENDBRANCH   8   9
BRANCH   8  12
ATOM     12  O   UNL     1       3.097  20.843 -49.390  1.00  0.00    -0.388 OA
ATOM     13  H   UNL     1       3.423  20.271 -48.647  1.00  0.00     0.211 HD
ENDBRANCH   8  12
ENDBRANCH   1   8
BRANCH   1  14
ATOM     14  O   UNL     1       1.487  21.067 -46.627  1.00  0.00    -0.388 OA
ATOM     15  H   UNL     1       1.987  21.349 -45.820  1.00  0.00     0.211 HD
ENDBRANCH   1  14
TORSDOF 9
ENDMDL
MODEL 3
REMARK VINA RESULT:     0.000      7.311      8.646
REMARK INTER + INTRA:          -1.005
REMARK INTER:                   0.000
REMARK INTRA:                  -1.005
REMARK UNBOUND:                -1.005
REMARK SMILES OC[C@H](O)C(O)[C@@H](O)CO
REMARK SMILES IDX 5 1 7 2 9 3 10 4 8 6 3 8 2 9 1 10 4 12 6 14
REMARK H PARENT 10 5 8 7 1 11 4 13 6 15
REMARK Flexibility Score: inf
ROOT
ATOM      1  C   UNL     1       7.169  20.696 -47.564  1.00  0.00     0.176 C 
ENDROOT
BRANCH   1   2
ATOM      2  C   UNL     1       7.050  22.197 -47.164  1.00  0.00     0.171 C 
BRANCH   2   3
ATOM      3  C   UNL     1       7.820  23.169 -48.079  1.00  0.00     0.190 C 
BRANCH   3   4
ATOM      4  O   UNL     1       9.207  23.032 -47.928  1.00  0.00    -0.394 OA
ATOM      5  H   UNL     1       9.591  22.993 -48.843  1.00  0.00     0.210 HD
ENDBRANCH   3   4
ENDBRANCH   2   3
BRANCH   2   6
ATOM      6  O   UNL     1       7.498  22.381 -45.845  1.00  0.00    -0.388 OA
ATOM      7  H   UNL     1       8.487  22.301 -45.859  1.00  0.00     0.211 HD
ENDBRANCH   2   6
ENDBRANCH   1   2
BRANCH   1   8
ATOM      8  C   UNL     1       7.704  19.764 -46.437  1.00  0.00     0.171 C 
BRANCH   8   9
ATOM      9  C   UNL     1       9.190  19.423 -46.643  1.00  0.00     0.190 C 
BRANCH   9  10
ATOM     10  O   UNL     1       9.978  20.575 -46.526  1.00  0.00    -0.394 OA
ATOM     11  H   UNL     1       9.830  20.920 -45.607  1.00  0.00     0.210 HD
ENDBRANCH   9  10
ENDBRANCH   8   9
BRANCH   8  12
ATOM     12  O   UNL     1       6.965  18.569 -46.428  1.00  0.00    -0.388 OA
ATOM     13  H   UNL     1       6.004  18.822 -46.442  1.00  0.00     0.211 HD
ENDBRANCH   8  12
ENDBRANCH   1   8
BRANCH   1  14
ATOM     14  O   UNL     1       7.915  20.564 -48.750  1.00  0.00    -0.388 OA
ATOM     15  H   UNL     1       8.417  21.405 -48.896  1.00  0.00     0.211 HD
ENDBRANCH   1  14
TORSDOF 9
ENDMDL
MODEL 4
REMARK VINA RESULT:     0.000      6.160      7.384
REMARK INTER + INTRA:          -1.005
REMARK INTER:                   0.000
REMARK INTRA:                  -1.005
REMARK UNBOUND:                -1.005
REMARK SMILES OC[C@H](O)C(O)[C@@H](O)CO
REMARK SMILES IDX 5 1 7 2 9 3 10 4 8 6 3 8 2 9 1 10 4 12 6 14
REMARK H PARENT 10 5 8 7 1 11 4 13 6 15
REMARK Flexibility Score: inf
ROOT
ATOM      1  C   UNL     1       7.729  21.630 -46.609  1.00  0.00     0.176 C 
ENDROOT
BRANCH   1   2
ATOM      2  C   UNL     1       7.648  22.769 -47.669  1.00  0.00     0.171 C 
BRANCH   2   3
ATOM      3  C   UNL     1       6.718  23.938 -47.289  1.00  0.00     0.190 C 
BRANCH   3   4
ATOM      4  O   UNL     1       5.370  23.552 -47.309  1.00  0.00    -0.394 OA
ATOM      5  H   UNL     1       5.341  22.639 -47.698  1.00  0.00     0.210 HD
ENDBRANCH   3   4
ENDBRANCH   2   3
BRANCH   2   6
ATOM      6  O   UNL     1       7.226  22.250 -48.904  1.00  0.00    -0.388 OA
ATOM      7  H   UNL     1       6.832  23.002 -49.417  1.00  0.00     0.211 HD
ENDBRANCH   2   6
ENDBRANCH   1   2
BRANCH   1   8
ATOM      8  C   UNL     1       7.370  20.214 -47.149  1.00  0.00     0.171 C 
BRANCH   8   9
ATOM      9  C   UNL     1       5.941  19.804 -46.756  1.00  0.00     0.190 C 
BRANCH   9  10
ATOM     10  O   UNL     1       5.003  20.644 -47.370  1.00  0.00    -0.394 OA
ATOM     11  H   UNL     1       5.425  20.960 -48.212  1.00  0.00     0.210 HD
ENDBRANCH   9  10
ENDBRANCH   8   9
BRANCH   8  12
ATOM     12  O   UNL     1       8.271  19.272 -46.624  1.00  0.00    -0.388 OA
ATOM     13  H   UNL     1       7.739  18.471 -46.373  1.00  0.00     0.211 HD
ENDBRANCH   8  12
ENDBRANCH   1   8
BRANCH   1  14
ATOM     14  O   UNL     1       6.967  21.965 -45.474  1.00  0.00    -0.388 OA
ATOM     15  H   UNL     1       6.259  22.601 -45.751  1.00  0.00     0.211 HD
ENDBRANCH   1  14
TORSDOF 9
ENDMDL
MODEL 5
REMARK VINA RESULT:     0.000      7.850      8.747
REMARK INTER + INTRA:          -1.005
REMARK INTER:                   0.000
REMARK INTRA:                  -1.005
REMARK UNBOUND:                -1.005
REMARK SMILES OC[C@H](O)C(O)[C@@H](O)CO
REMARK SMILES IDX 5 1 7 2 9 3 10 4 8 6 3 8 2 9 1 10 4 12 6 14
REMARK H PARENT 10 5 8 7 1 11 4 13 6 15
REMARK Flexibility Score: inf
ROOT
ATOM      1  C   UNL     1      -0.266  20.845 -52.545  1.00  0.00     0.176 C 
ENDROOT
BRANCH   1   2
ATOM      2  C   UNL     1      -1.624  21.037 -53.285  1.00  0.00     0.171 C 
BRANCH   2   3
ATOM      3  C   UNL     1      -2.872  20.827 -52.405  1.00  0.00     0.190 C 
BRANCH   3   4
ATOM      4  O   UNL     1      -3.030  19.481 -52.046  1.00  0.00    -0.394 OA
ATOM      5  H   UNL     1      -2.118  19.115 -51.905  1.00  0.00     0.210 HD
ENDBRANCH   3   4
ENDBRANCH   2   3
BRANCH   2   6
ATOM      6  O   UNL     1      -1.703  20.164 -54.382  1.00  0.00    -0.388 OA
ATOM      7  H   UNL     1      -1.454  19.261 -54.055  1.00  0.00     0.211 HD
ENDBRANCH   2   6
ENDBRANCH   1   2
BRANCH   1   8
ATOM      8  C   UNL     1       0.680  19.789 -53.189  1.00  0.00     0.171 C 
BRANCH   8   9
ATOM      9  C   UNL     1       0.642  18.455 -52.425  1.00  0.00     0.190 C 
BRANCH   9  10
ATOM     10  O   UNL     1      -0.628  17.871 -52.523  1.00  0.00    -0.394 OA
ATOM     11  H   UNL     1      -0.484  16.955 -52.879  1.00  0.00     0.210 HD
ENDBRANCH   9  10
ENDBRANCH   8   9
BRANCH   8  12
ATOM     12  O   UNL     1       1.999  20.276 -53.180  1.00  0.00    -0.388 OA
ATOM     13  H   UNL     1       2.021  21.041 -52.546  1.00  0.00     0.211 HD
ENDBRANCH   8  12
ENDBRANCH   1   8
BRANCH   1  14
ATOM     14  O   UNL     1      -0.487  20.585 -51.179  1.00  0.00    -0.388 OA
ATOM     15  H   UNL     1      -0.331  19.620 -51.017  1.00  0.00     0.211 HD
ENDBRANCH   1  14
TORSDOF 9
ENDMDL
MODEL 6
REMARK VINA RESULT:     0.000     11.748     12.468
REMARK INTER + INTRA:          -1.005
REMARK INTER:                   0.000
REMARK INTRA:                  -1.005
REMARK UNBOUND:                -1.005
REMARK SMILES OC[C@H](O)C(O)[C@@H](O)CO
REMARK SMILES IDX 5 1 7 2 9 3 10 4 8 6 3 8 2 9 1 10 4 12 6 14
REMARK H PARENT 10 5 8 7 1 11 4 13 6 15
REMARK Flexibility Score: inf
ROOT
ATOM      1  C   UNL     1       0.642  13.202 -40.644  1.00  0.00     0.176 C 
ENDROOT
BRANCH   1   2
ATOM      2  C   UNL     1      -0.729  13.622 -41.252  1.00  0.00     0.171 C 
BRANCH   2   3
ATOM      3  C   UNL     1      -1.292  14.952 -40.714  1.00  0.00     0.190 C 
BRANCH   3   4
ATOM      4  O   UNL     1      -1.695  14.838 -39.376  1.00  0.00    -0.394 OA
ATOM      5  H   UNL     1      -0.918  14.477 -38.874  1.00  0.00     0.210 HD
ENDBRANCH   3   4
ENDBRANCH   2   3
BRANCH   2   6
ATOM      6  O   UNL     1      -1.683  12.615 -41.032  1.00  0.00    -0.388 OA
ATOM      7  H   UNL     1      -1.541  11.921 -41.727  1.00  0.00     0.211 HD
ENDBRANCH   2   6
ENDBRANCH   1   2
BRANCH   1   8
ATOM      8  C   UNL     1       0.656  11.793 -39.983  1.00  0.00     0.171 C 
BRANCH   8   9
ATOM      9  C   UNL     1       0.566  11.885 -38.450  1.00  0.00     0.190 C 
BRANCH   9  10
ATOM     10  O   UNL     1      -0.667  12.426 -38.064  1.00  0.00    -0.394 OA
ATOM     11  H   UNL     1      -1.337  11.702 -38.182  1.00  0.00     0.210 HD
ENDBRANCH   9  10
ENDBRANCH   8   9
BRANCH   8  12
ATOM     12  O   UNL     1       1.845  11.127 -40.325  1.00  0.00    -0.388 OA
ATOM     13  H   UNL     1       2.447  11.186 -39.538  1.00  0.00     0.211 HD
ENDBRANCH   8  12
ENDBRANCH   1   8
BRANCH   1  14
ATOM     14  O   UNL     1       1.111  14.197 -39.764  1.00  0.00    -0.388 OA
ATOM     15  H   UNL     1       0.333  14.723 -39.448  1.00  0.00     0.211 HD
ENDBRANCH   1  14
TORSDOF 9
ENDMDL
MODEL 7
REMARK VINA RESULT:     0.000      9.499     10.679
REMARK INTER + INTRA:          -1.005
REMARK INTER:                   0.000
REMARK INTRA:                  -1.005
REMARK UNBOUND:                -1.005
REMARK SMILES OC[C@H](O)C(O)[C@@H](O)CO
REMARK SMILES IDX 5 1 7 2 9 3 10 4 8 6 3 8 2 9 1 10 4 12 6 14
REMARK H PARENT 10 5 8 7 1 11 4 13 6 15
REMARK Flexibility Score: inf
ROOT
ATOM      1  C   UNL     1       0.848  16.906 -39.371  1.00  0.00     0.176 C 
ENDROOT
BRANCH   1   2
ATOM      2  C   UNL     1       0.535  16.227 -38.005  1.00  0.00     0.171 C 
BRANCH   2   3
ATOM      3  C   UNL     1       1.643  15.290 -37.484  1.00  0.00     0.190 C 
BRANCH   3   4
ATOM      4  O   UNL     1       1.746  14.129 -38.263  1.00  0.00    -0.394 OA
ATOM      5  H   UNL     1       0.827  13.908 -38.568  1.00  0.00     0.210 HD
ENDBRANCH   3   4
ENDBRANCH   2   3
BRANCH   2   6
ATOM      6  O   UNL     1      -0.660  15.495 -38.093  1.00  0.00    -0.388 OA
ATOM      7  H   UNL     1      -0.413  14.556 -38.296  1.00  0.00     0.211 HD
ENDBRANCH   2   6
ENDBRANCH   1   2
BRANCH   1   8
ATOM      8  C   UNL     1      -0.218  16.660 -40.479  1.00  0.00     0.171 C 
BRANCH   8   9
ATOM      9  C   UNL     1       0.239  15.580 -41.475  1.00  0.00     0.190 C 
BRANCH   9  10
ATOM     10  O   UNL     1       0.353  14.339 -40.834  1.00  0.00    -0.394 OA
ATOM     11  H   UNL     1       0.359  13.656 -41.555  1.00  0.00     0.210 HD
ENDBRANCH   9  10
ENDBRANCH   8   9
BRANCH   8  12
ATOM     12  O   UNL     1      -0.446  17.854 -41.183  1.00  0.00    -0.388 OA
ATOM     13  H   UNL     1      -0.305  18.600 -40.542  1.00  0.00     0.211 HD
ENDBRANCH   8  12
ENDBRANCH   1   8
BRANCH   1  14
ATOM     14  O   UNL     1       2.142  16.559 -39.805  1.00  0.00    -0.388 OA
ATOM     15  H   UNL     1       2.434  15.758 -39.299  1.00  0.00     0.211 HD
ENDBRANCH   1  14
TORSDOF 9
ENDMDL
MODEL 8
REMARK VINA RESULT:     0.001      6.099      7.985
REMARK INTER + INTRA:          -1.004
REMARK INTER:                   0.000
REMARK INTRA:                  -1.004
REMARK UNBOUND:                -1.005
REMARK SMILES OC[C@H](O)C(O)[C@@H](O)CO
REMARK SMILES IDX 5 1 7 2 9 3 10 4 8 6 3 8 2 9 1 10 4 12 6 14
REMARK H PARENT 10 5 8 7 1 11 4 13 6 15
REMARK Flexibility Score: inf
ROOT
ATOM      1  C   UNL     1       7.223  21.219 -42.282  1.00  0.00     0.176 C 
ENDROOT
BRANCH   1   2
ATOM      2  C   UNL     1       5.946  21.945 -42.801  1.00  0.00     0.171 C 
BRANCH   2   3
ATOM      3  C   UNL     1       4.974  21.050 -43.594  1.00  0.00     0.190 C 
BRANCH   3   4
ATOM      4  O   UNL     1       5.510  20.679 -44.835  1.00  0.00    -0.394 OA
ATOM      5  H   UNL     1       6.147  19.937 -44.660  1.00  0.00     0.210 HD
ENDBRANCH   3   4
ENDBRANCH   2   3
BRANCH   2   6
ATOM      6  O   UNL     1       6.307  23.034 -43.611  1.00  0.00    -0.388 OA
ATOM      7  H   UNL     1       6.232  23.851 -43.052  1.00  0.00     0.211 HD
ENDBRANCH   2   6
ENDBRANCH   1   2
BRANCH   1   8
ATOM      8  C   UNL     1       8.566  21.864 -42.733  1.00  0.00     0.171 C 
BRANCH   8   9
ATOM      9  C   UNL     1       9.203  21.089 -43.900  1.00  0.00     0.190 C 
BRANCH   9  10
ATOM     10  O   UNL     1       8.393  21.168 -45.040  1.00  0.00    -0.394 OA
ATOM     11  H   UNL     1       7.985  20.270 -45.152  1.00  0.00     0.210 HD
ENDBRANCH   9  10
ENDBRANCH   8   9
BRANCH   8  12
ATOM     12  O   UNL     1       9.467  21.873 -41.654  1.00  0.00    -0.388 OA
ATOM     13  H   UNL     1       9.236  22.658 -41.091  1.00  0.00     0.211 HD
ENDBRANCH   8  12
ENDBRANCH   1   8
BRANCH   1  14
ATOM     14  O   UNL     1       7.169  19.848 -42.600  1.00  0.00    -0.388 OA
ATOM     15  H   UNL     1       7.982  19.617 -43.116  1.00  0.00     0.211 HD
ENDBRANCH   1  14
TORSDOF 9
ENDMDL
MODEL 9
REMARK VINA RESULT:     0.001     10.560     11.982
REMARK INTER + INTRA:          -1.003
REMARK INTER:                   0.000
REMARK INTRA:                  -1.003
REMARK UNBOUND:                -1.005
REMARK SMILES OC[C@H](O)C(O)[C@@H](O)CO
REMARK SMILES IDX 5 1 7 2 9 3 10 4 8 6 3 8 2 9 1 10 4 12 6 14
REMARK H PARENT 10 5 8 7 1 11 4 13 6 15
REMARK Flexibility Score: inf
ROOT
ATOM      1  C   UNL     1       1.911  13.338 -45.490  1.00  0.00     0.176 C 
ENDROOT
BRANCH   1   2
ATOM      2  C   UNL     1       1.747  11.793 -45.367  1.00  0.00     0.171 C 
BRANCH   2   3
ATOM      3  C   UNL     1       2.938  11.069 -44.711  1.00  0.00     0.190 C 
BRANCH   3   4
ATOM      4  O   UNL     1       4.070  11.083 -45.538  1.00  0.00    -0.394 OA
ATOM      5  H   UNL     1       4.859  10.976 -44.944  1.00  0.00     0.210 HD
ENDBRANCH   3   4
ENDBRANCH   2   3
BRANCH   2   6
ATOM      6  O   UNL     1       1.529  11.230 -46.635  1.00  0.00    -0.388 OA
ATOM      7  H   UNL     1       1.647  10.249 -46.543  1.00  0.00     0.211 HD
ENDBRANCH   2   6
ENDBRANCH   1   2
BRANCH   1   8
ATOM      8  C   UNL     1       1.766  13.893 -46.938  1.00  0.00     0.171 C 
BRANCH   8   9
ATOM      9  C   UNL     1       3.136  14.196 -47.568  1.00  0.00     0.190 C 
BRANCH   9  10
ATOM     10  O   UNL     1       3.870  13.014 -47.735  1.00  0.00    -0.394 OA
ATOM     11  H   UNL     1       4.827  13.280 -47.725  1.00  0.00     0.210 HD
ENDBRANCH   9  10
ENDBRANCH   8   9
BRANCH   8  12
ATOM     12  O   UNL     1       1.011  15.078 -46.910  1.00  0.00    -0.388 OA
ATOM     13  H   UNL     1       0.502  15.118 -47.762  1.00  0.00     0.211 HD
ENDBRANCH   8  12
ENDBRANCH   1   8
BRANCH   1  14
ATOM     14  O   UNL     1       3.117  13.749 -44.891  1.00  0.00    -0.388 OA
ATOM     15  H   UNL     1       2.928  13.991 -43.949  1.00  0.00     0.211 HD
ENDBRANCH   1  14
TORSDOF 9
ENDMDL
