MODEL 1
REMARK VINA RESULT:    -2.971      0.000      0.000
REMARK INTER + INTRA:          -4.645
REMARK INTER:                  -4.361
REMARK INTRA:                  -0.284
REMARK UNBOUND:                -0.284
REMARK SMILES O=C([O-])CCCCCCCC(=O)[O-]
REMARK SMILES IDX 7 1 6 2 5 3 4 4 2 5 1 6 3 7 8 8 9 9 10 10 11 11 12 12 13 13
REMARK H PARENT
REMARK Flexibility Score: inf
ROOT
ATOM      1  C   UNL     1      -3.270  -9.003  -5.799  1.00  0.00     0.000 C 
ENDROOT
BRANCH   1   2
ATOM      2  C   UNL     1      -2.575  -7.890  -5.001  1.00  0.00     0.000 C 
BRANCH   2   3
ATOM      3  C   UNL     1      -1.060  -8.109  -4.875  1.00  0.00     0.006 C 
BRANCH   3   4
ATOM      4  C   UNL     1      -0.251  -6.853  -5.221  1.00  0.00     0.053 C 
BRANCH   4   5
ATOM      5  C   UNL     1       1.216  -7.142  -5.153  1.00  0.00     0.041 C 
ATOM      6  O   UNL     1       2.048  -6.197  -5.122  1.00  0.00    -0.550 OA
ATOM      7  O   UNL     1       1.663  -8.455  -5.074  1.00  0.00    -0.550 OA
ENDBRANCH   4   5
ENDBRANCH   3   4
ENDBRANCH   2   3
ENDBRANCH   1   2
BRANCH   1   8
ATOM      8  C   UNL     1      -4.128  -9.884  -4.882  1.00  0.00     0.000 C 
BRANCH   8   9
ATOM      9  C   UNL     1      -3.649 -11.343  -4.915  1.00  0.00     0.006 C 
BRANCH   9  10
ATOM     10  C   UNL     1      -4.817 -12.338  -4.895  1.00  0.00     0.053 C 
BRANCH  10  11
ATOM     11  C   UNL     1      -5.879 -11.970  -5.885  1.00  0.00     0.041 C 
ATOM     12  O   UNL     1      -7.037 -11.674  -5.490  1.00  0.00    -0.550 OA
ATOM     13  O   UNL     1      -5.600 -11.986  -7.246  1.00  0.00    -0.550 OA
ENDBRANCH  10  11
ENDBRANCH   9  10
ENDBRANCH   8   9
ENDBRANCH   1   8
TORSDOF 8
ENDMDL
MODEL 2
REMARK VINA RESULT:    -2.844      0.192      7.108
REMARK INTER + INTRA:          -4.458
REMARK INTER:                  -4.139
REMARK INTRA:                  -0.319
REMARK UNBOUND:                -0.284
REMARK SMILES O=C([O-])CCCCCCCC(=O)[O-]
REMARK SMILES IDX 7 1 6 2 5 3 4 4 2 5 1 6 3 7 8 8 9 9 10 10 11 11 12 12 13 13
REMARK H PARENT
REMARK Flexibility Score: inf
ROOT
ATOM      1  C   UNL     1      -3.187  -9.079  -5.939  1.00  0.00     0.000 C 
ENDROOT
BRANCH   1   2
ATOM      2  C   UNL     1      -3.922  -9.910  -4.877  1.00  0.00     0.000 C 
BRANCH   2   3
ATOM      3  C   UNL     1      -3.620 -11.412  -4.989  1.00  0.00     0.006 C 
BRANCH   3   4
ATOM      4  C   UNL     1      -4.882 -12.278  -4.877  1.00  0.00     0.053 C 
BRANCH   4   5
ATOM      5  C   UNL     1      -5.825 -11.972  -5.997  1.00  0.00     0.041 C 
ATOM      6  O   UNL     1      -6.982 -11.540  -5.752  1.00  0.00    -0.550 OA
ATOM      7  O   UNL     1      -5.410 -12.119  -7.315  1.00  0.00    -0.550 OA
ENDBRANCH   4   5
ENDBRANCH   3   4
ENDBRANCH   2   3
ENDBRANCH   1   2
BRANCH   1   8
ATOM      8  C   UNL     1      -2.580  -7.813  -5.322  1.00  0.00     0.000 C 
BRANCH   8   9
ATOM      9  C   UNL     1      -1.131  -8.058  -4.875  1.00  0.00     0.006 C 
BRANCH   9  10
ATOM     10  C   UNL     1      -0.201  -6.898  -5.255  1.00  0.00     0.053 C 
BRANCH  10  11
ATOM     11  C   UNL     1       1.242  -7.292  -5.178  1.00  0.00     0.041 C 
ATOM     12  O   UNL     1       1.561  -8.502  -5.037  1.00  0.00    -0.550 OA
ATOM     13  O   UNL     1       2.234  -6.321  -5.227  1.00  0.00    -0.550 OA
ENDBRANCH  10  11
ENDBRANCH   9  10
ENDBRANCH   8   9
ENDBRANCH   1   8
TORSDOF 8
ENDMDL
MODEL 3
REMARK VINA RESULT:    -2.141     18.458     20.292
REMARK INTER + INTRA:          -3.427
REMARK INTER:                  -3.045
REMARK INTRA:                  -0.381
REMARK UNBOUND:                -0.284
REMARK SMILES O=C([O-])CCCCCCCC(=O)[O-]
REMARK SMILES IDX 7 1 6 2 5 3 4 4 2 5 1 6 3 7 8 8 9 9 10 10 11 11 12 12 13 13
REMARK H PARENT
REMARK Flexibility Score: inf
ROOT
ATOM      1  C   UNL     1       7.804  -7.071 -22.623  1.00  0.00     0.000 C 
ENDROOT
BRANCH   1   2
ATOM      2  C   UNL     1       9.125  -7.851 -22.554  1.00  0.00     0.000 C 
BRANCH   2   3
ATOM      3  C   UNL     1       8.957  -9.245 -21.932  1.00  0.00     0.006 C 
BRANCH   3   4
ATOM      4  C   UNL     1       8.817  -9.199 -20.405  1.00  0.00     0.053 C 
BRANCH   4   5
ATOM      5  C   UNL     1       7.435  -9.600 -19.996  1.00  0.00     0.041 C 
ATOM      6  O   UNL     1       7.153 -10.814 -19.817  1.00  0.00    -0.550 OA
ATOM      7  O   UNL     1       6.468  -8.629 -19.765  1.00  0.00    -0.550 OA
ENDBRANCH   4   5
ENDBRANCH   3   4
ENDBRANCH   2   3
ENDBRANCH   1   2
BRANCH   1   8
ATOM      8  C   UNL     1       8.062  -5.563 -22.742  1.00  0.00     0.000 C 
BRANCH   8   9
ATOM      9  C   UNL     1       6.947  -4.875 -23.544  1.00  0.00     0.006 C 
BRANCH   9  10
ATOM     10  C   UNL     1       6.434  -5.750 -24.695  1.00  0.00     0.053 C 
BRANCH  10  11
ATOM     11  C   UNL     1       4.944  -5.895 -24.664  1.00  0.00     0.041 C 
ATOM     12  O   UNL     1       4.213  -4.886 -24.476  1.00  0.00    -0.550 OA
ATOM     13  O   UNL     1       4.361  -7.148 -24.808  1.00  0.00    -0.550 OA
ENDBRANCH  10  11
ENDBRANCH   9  10
ENDBRANCH   8   9
ENDBRANCH   1   8
TORSDOF 8
ENDMDL
MODEL 4
REMARK VINA RESULT:    -0.598      1.253      6.815
REMARK INTER + INTRA:          -1.163
REMARK INTER:                  -1.384
REMARK INTRA:                   0.221
REMARK UNBOUND:                -0.284
REMARK SMILES O=C([O-])CCCCCCCC(=O)[O-]
REMARK SMILES IDX 7 1 6 2 5 3 4 4 2 5 1 6 3 7 8 8 9 9 10 10 11 11 12 12 13 13
REMARK H PARENT
REMARK Flexibility Score: inf
ROOT
ATOM      1  C   UNL     1      -4.024  -9.707  -6.889  1.00  0.00     0.000 C 
ENDROOT
BRANCH   1   2
ATOM      2  C   UNL     1      -4.709 -10.144  -5.586  1.00  0.00     0.000 C 
BRANCH   2   3
ATOM      3  C   UNL     1      -4.131 -11.451  -5.022  1.00  0.00     0.006 C 
BRANCH   3   4
ATOM      4  C   UNL     1      -5.134 -12.610  -5.071  1.00  0.00     0.053 C 
BRANCH   4   5
ATOM      5  C   UNL     1      -6.228 -12.312  -6.047  1.00  0.00     0.041 C 
ATOM      6  O   UNL     1      -6.153 -12.731  -7.232  1.00  0.00    -0.550 OA
ATOM      7  O   UNL     1      -7.356 -11.612  -5.635  1.00  0.00    -0.550 OA
ENDBRANCH   4   5
ENDBRANCH   3   4
ENDBRANCH   2   3
ENDBRANCH   1   2
BRANCH   1   8
ATOM      8  C   UNL     1      -3.287  -8.375  -6.703  1.00  0.00     0.000 C 
BRANCH   8   9
ATOM      9  C   UNL     1      -2.978  -8.120  -5.220  1.00  0.00     0.006 C 
BRANCH   9  10
ATOM     10  C   UNL     1      -1.510  -8.402  -4.875  1.00  0.00     0.053 C 
BRANCH  10  11
ATOM     11  C   UNL     1      -0.602  -7.321  -5.374  1.00  0.00     0.041 C 
ATOM     12  O   UNL     1       0.619  -7.329  -5.069  1.00  0.00    -0.550 OA
ATOM     13  O   UNL     1      -1.110  -6.286  -6.149  1.00  0.00    -0.550 OA
ENDBRANCH  10  11
ENDBRANCH   9  10
ENDBRANCH   8   9
ENDBRANCH   1   8
TORSDOF 8
ENDMDL
MODEL 5
REMARK VINA RESULT:    -0.577     21.704     23.872
REMARK INTER + INTRA:          -1.131
REMARK INTER:                  -0.992
REMARK INTRA:                  -0.138
REMARK UNBOUND:                -0.284
REMARK SMILES O=C([O-])CCCCCCCC(=O)[O-]
REMARK SMILES IDX 7 1 6 2 5 3 4 4 2 5 1 6 3 7 8 8 9 9 10 10 11 11 12 12 13 13
REMARK H PARENT
REMARK Flexibility Score: inf
ROOT
ATOM      1  C   UNL     1      -1.517 -20.827 -24.924  1.00  0.00     0.000 C 
ENDROOT
BRANCH   1   2
ATOM      2  C   UNL     1      -2.101 -22.246 -24.863  1.00  0.00     0.000 C 
BRANCH   2   3
ATOM      3  C   UNL     1      -3.615 -22.275 -25.123  1.00  0.00     0.006 C 
BRANCH   3   4
ATOM      4  C   UNL     1      -4.188 -23.699 -25.116  1.00  0.00     0.053 C 
BRANCH   4   5
ATOM      5  C   UNL     1      -5.655 -23.668 -24.828  1.00  0.00     0.041 C 
ATOM      6  O   UNL     1      -6.295 -24.742 -24.678  1.00  0.00    -0.550 OA
ATOM      7  O   UNL     1      -6.309 -22.451 -24.677  1.00  0.00    -0.550 OA
ENDBRANCH   4   5
ENDBRANCH   3   4
ENDBRANCH   2   3
ENDBRANCH   1   2
BRANCH   1   8
ATOM      8  C   UNL     1       0.004 -20.866 -25.118  1.00  0.00     0.000 C 
BRANCH   8   9
ATOM      9  C   UNL     1       0.596 -19.449 -25.121  1.00  0.00     0.006 C 
BRANCH   9  10
ATOM     10  C   UNL     1       1.713 -19.284 -24.082  1.00  0.00     0.053 C 
BRANCH  10  11
ATOM     11  C   UNL     1       2.528 -18.052 -24.332  1.00  0.00     0.041 C 
ATOM     12  O   UNL     1       1.980 -17.009 -24.777  1.00  0.00    -0.550 OA
ATOM     13  O   UNL     1       3.899 -18.066 -24.106  1.00  0.00    -0.550 OA
ENDBRANCH  10  11
ENDBRANCH   9  10
ENDBRANCH   8   9
ENDBRANCH   1   8
TORSDOF 8
ENDMDL
MODEL 6
REMARK VINA RESULT:    -0.152      1.429      2.069
REMARK INTER + INTRA:          -0.508
REMARK INTER:                  -0.903
REMARK INTRA:                   0.395
REMARK UNBOUND:                -0.284
REMARK SMILES O=C([O-])CCCCCCCC(=O)[O-]
REMARK SMILES IDX 7 1 6 2 5 3 4 4 2 5 1 6 3 7 8 8 9 9 10 10 11 11 12 12 13 13
REMARK H PARENT
REMARK Flexibility Score: inf
ROOT
ATOM      1  C   UNL     1      -3.836  -9.782  -6.651  1.00  0.00     0.000 C 
ENDROOT
BRANCH   1   2
ATOM      2  C   UNL     1      -3.492  -8.289  -6.533  1.00  0.00     0.000 C 
BRANCH   2   3
ATOM      3  C   UNL     1      -2.954  -7.914  -5.144  1.00  0.00     0.006 C 
BRANCH   3   4
ATOM      4  C   UNL     1      -1.545  -8.464  -4.889  1.00  0.00     0.053 C 
BRANCH   4   5
ATOM      5  C   UNL     1      -0.519  -7.402  -5.134  1.00  0.00     0.041 C 
ATOM      6  O   UNL     1       0.694  -7.620  -4.875  1.00  0.00    -0.550 OA
ATOM      7  O   UNL     1      -0.895  -6.187  -5.693  1.00  0.00    -0.550 OA
ENDBRANCH   4   5
ENDBRANCH   3   4
ENDBRANCH   2   3
ENDBRANCH   1   2
BRANCH   1   8
ATOM      8  C   UNL     1      -4.061 -10.404  -5.268  1.00  0.00     0.000 C 
BRANCH   8   9
ATOM      9  C   UNL     1      -5.545 -10.353  -4.875  1.00  0.00     0.006 C 
BRANCH   9  10
ATOM     10  C   UNL     1      -6.357 -11.480  -5.527  1.00  0.00     0.053 C 
BRANCH  10  11
ATOM     11  C   UNL     1      -5.484 -12.614  -5.967  1.00  0.00     0.041 C 
ATOM     12  O   UNL     1      -5.451 -12.956  -7.178  1.00  0.00    -0.550 OA
ATOM     13  O   UNL     1      -4.730 -13.317  -5.034  1.00  0.00    -0.550 OA
ENDBRANCH  10  11
ENDBRANCH   9  10
ENDBRANCH   8   9
ENDBRANCH   1   8
TORSDOF 8
ENDMDL
