MODEL 1
REMARK VINA RESULT:     6.944      0.000      0.000
REMARK INTER + INTRA:          18.815
REMARK INTER:                  18.310
REMARK INTRA:                   0.505
REMARK UNBOUND:                 0.505
REMARK SMILES CCCCCCCCCCCCCCCCCCCCCCCCCCCCCC(=O)[O-]
REMARK SMILES IDX 16 1 17 2 18 3 19 4 20 5 21 6 22 7 23 8 24 9 25 10 26 11
REMARK SMILES IDX 27 12 28 13 29 14 30 15 31 16 32 17 15 18 14 19 13 20 12 21
REMARK SMILES IDX 11 22 10 23 9 24 8 25 7 26 6 27 5 28 4 29 3 30 2 31 1 32
REMARK H PARENT
REMARK Flexibility Score: inf
ROOT
ATOM      1  C   UNL     1     -55.391 121.277 -10.836  1.00  0.00     0.000 C 
ENDROOT
BRANCH   1   2
ATOM      2  C   UNL     1     -55.589 122.245 -12.014  1.00  0.00     0.000 C 
BRANCH   2   3
ATOM      3  C   UNL     1     -54.521 123.352 -12.067  1.00  0.00     0.000 C 
BRANCH   3   4
ATOM      4  C   UNL     1     -53.356 123.198 -11.067  1.00  0.00     0.000 C 
BRANCH   4   5
ATOM      5  C   UNL     1     -53.569 123.872  -9.700  1.00  0.00     0.000 C 
BRANCH   5   6
ATOM      6  C   UNL     1     -53.243 122.940  -8.521  1.00  0.00     0.000 C 
BRANCH   6   7
ATOM      7  C   UNL     1     -51.746 122.926  -8.158  1.00  0.00     0.000 C 
BRANCH   7   8
ATOM      8  C   UNL     1     -50.980 124.228  -8.471  1.00  0.00     0.000 C 
BRANCH   8   9
ATOM      9  C   UNL     1     -49.470 124.059  -8.712  1.00  0.00     0.000 C 
BRANCH   9  10
ATOM     10  C   UNL     1     -49.108 123.907 -10.198  1.00  0.00     0.000 C 
BRANCH  10  11
ATOM     11  C   UNL     1     -49.020 122.433 -10.639  1.00  0.00     0.000 C 
BRANCH  11  12
ATOM     12  C   UNL     1     -49.577 122.135 -12.045  1.00  0.00     0.000 C 
BRANCH  12  13
ATOM     13  C   UNL     1     -50.592 120.979 -12.125  1.00  0.00     0.006 C 
BRANCH  13  14
ATOM     14  C   UNL     1     -51.589 120.940 -10.953  1.00  0.00     0.053 C 
BRANCH  14  15
ATOM     15  C   UNL     1     -52.477 119.732 -10.998  1.00  0.00     0.041 C 
ATOM     16  O   UNL     1     -52.788 119.216 -12.104  1.00  0.00    -0.550 OA
ATOM     17  O   UNL     1     -52.971 119.182  -9.822  1.00  0.00    -0.550 OA
ENDBRANCH  14  15
ENDBRANCH  13  14
ENDBRANCH  12  13
ENDBRANCH  11  12
ENDBRANCH  10  11
ENDBRANCH   9  10
ENDBRANCH   8   9
ENDBRANCH   7   8
ENDBRANCH   6   7
ENDBRANCH   5   6
ENDBRANCH   4   5
ENDBRANCH   3   4
ENDBRANCH   2   3
ENDBRANCH   1   2
BRANCH   1  18
ATOM     18  C   UNL     1     -55.824 119.842 -11.177  1.00  0.00     0.000 C 
BRANCH  18  19
ATOM     19  C   UNL     1     -57.305 119.579 -10.869  1.00  0.00     0.000 C 
BRANCH  19  20
ATOM     20  C   UNL     1     -57.735 120.303  -9.583  1.00  0.00     0.000 C 
BRANCH  20  21
ATOM     21  C   UNL     1     -56.666 121.280  -9.059  1.00  0.00     0.000 C 
BRANCH  21  22
ATOM     22  C   UNL     1     -56.298 121.114  -7.570  1.00  0.00     0.000 C 
BRANCH  22  23
ATOM     23  C   UNL     1     -57.483 120.833  -6.628  1.00  0.00     0.000 C 
BRANCH  23  24
ATOM     24  C   UNL     1     -57.336 119.508  -5.860  1.00  0.00    -0.000 C 
BRANCH  24  25
ATOM     25  C   UNL     1     -58.682 118.788  -5.674  1.00  0.00    -0.000 C 
BRANCH  25  26
ATOM     26  C   UNL     1     -59.369 119.150  -4.345  1.00  0.00    -0.000 C 
BRANCH  26  27
ATOM     27  C   UNL     1     -58.537 120.130  -3.501  1.00  0.00    -0.000 C 
BRANCH  27  28
ATOM     28  C   UNL     1     -59.414 121.075  -2.664  1.00  0.00    -0.000 C 
BRANCH  28  29
ATOM     29  C   UNL     1     -59.545 122.448  -3.341  1.00  0.00    -0.000 C 
BRANCH  29  30
ATOM     30  C   UNL     1     -60.080 123.528  -2.388  1.00  0.00    -0.000 C 
BRANCH  30  31
ATOM     31  C   UNL     1     -60.244 123.017  -0.949  1.00  0.00    -0.003 C 
ATOM     32  C   UNL     1     -60.980 124.036  -0.084  1.00  0.00     0.004 C 
ENDBRANCH  30  31
ENDBRANCH  29  30
ENDBRANCH  28  29
ENDBRANCH  27  28
ENDBRANCH  26  27
ENDBRANCH  25  26
ENDBRANCH  24  25
ENDBRANCH  23  24
ENDBRANCH  22  23
ENDBRANCH  21  22
ENDBRANCH  20  21
ENDBRANCH  19  20
ENDBRANCH  18  19
ENDBRANCH   1  18
TORSDOF 28
ENDMDL
MODEL 2
REMARK VINA RESULT:     8.255      2.991      9.725
REMARK INTER + INTRA:          22.273
REMARK INTER:                  20.997
REMARK INTRA:                   1.276
REMARK UNBOUND:                 0.505
REMARK SMILES CCCCCCCCCCCCCCCCCCCCCCCCCCCCCC(=O)[O-]
REMARK SMILES IDX 16 1 17 2 18 3 19 4 20 5 21 6 22 7 23 8 24 9 25 10 26 11
REMARK SMILES IDX 27 12 28 13 29 14 30 15 31 16 32 17 15 18 14 19 13 20 12 21
REMARK SMILES IDX 11 22 10 23 9 24 8 25 7 26 6 27 5 28 4 29 3 30 2 31 1 32
REMARK H PARENT
REMARK Flexibility Score: inf
ROOT
ATOM      1  C   UNL     1     -54.833 120.920 -11.438  1.00  0.00     0.000 C 
ENDROOT
BRANCH   1   2
ATOM      2  C   UNL     1     -55.836 119.978 -12.124  1.00  0.00     0.000 C 
BRANCH   2   3
ATOM      3  C   UNL     1     -57.198 119.928 -11.409  1.00  0.00     0.000 C 
BRANCH   3   4
ATOM      4  C   UNL     1     -57.159 120.189  -9.889  1.00  0.00     0.000 C 
BRANCH   4   5
ATOM      5  C   UNL     1     -56.726 121.608  -9.476  1.00  0.00     0.000 C 
BRANCH   5   6
ATOM      6  C   UNL     1     -56.499 121.742  -7.961  1.00  0.00     0.000 C 
BRANCH   6   7
ATOM      7  C   UNL     1     -57.739 122.257  -7.207  1.00  0.00     0.000 C 
BRANCH   7   8
ATOM      8  C   UNL     1     -57.455 122.896  -5.832  1.00  0.00     0.000 C 
BRANCH   8   9
ATOM      9  C   UNL     1     -58.568 123.811  -5.293  1.00  0.00     0.000 C 
BRANCH   9  10
ATOM     10  C   UNL     1     -59.414 123.152  -4.192  1.00  0.00     0.000 C 
BRANCH  10  11
ATOM     11  C   UNL     1     -59.636 124.077  -2.981  1.00  0.00     0.000 C 
BRANCH  11  12
ATOM     12  C   UNL     1     -60.755 123.638  -2.016  1.00  0.00     0.000 C 
BRANCH  12  13
ATOM     13  C   UNL     1     -60.371 122.532  -1.014  1.00  0.00     0.006 C 
BRANCH  13  14
ATOM     14  C   UNL     1     -58.868 122.201  -0.994  1.00  0.00     0.053 C 
BRANCH  14  15
ATOM     15  C   UNL     1     -58.561 120.904  -1.681  1.00  0.00     0.041 C 
ATOM     16  O   UNL     1     -57.389 120.444  -1.671  1.00  0.00    -0.550 OA
ATOM     17  O   UNL     1     -59.565 120.207  -2.342  1.00  0.00    -0.550 OA
ENDBRANCH  14  15
ENDBRANCH  13  14
ENDBRANCH  12  13
ENDBRANCH  11  12
ENDBRANCH  10  11
ENDBRANCH   9  10
ENDBRANCH   8   9
ENDBRANCH   7   8
ENDBRANCH   6   7
ENDBRANCH   5   6
ENDBRANCH   4   5
ENDBRANCH   3   4
ENDBRANCH   2   3
ENDBRANCH   1   2
BRANCH   1  18
ATOM     18  C   UNL     1     -54.761 122.297 -12.116  1.00  0.00     0.000 C 
BRANCH  18  19
ATOM     19  C   UNL     1     -54.063 123.352 -11.246  1.00  0.00     0.000 C 
BRANCH  19  20
ATOM     20  C   UNL     1     -53.301 122.690 -10.087  1.00  0.00     0.000 C 
BRANCH  20  21
ATOM     21  C   UNL     1     -52.982 123.669  -8.942  1.00  0.00     0.000 C 
BRANCH  21  22
ATOM     22  C   UNL     1     -51.620 123.449  -8.250  1.00  0.00     0.000 C 
BRANCH  22  23
ATOM     23  C   UNL     1     -50.618 124.610  -8.389  1.00  0.00     0.000 C 
BRANCH  23  24
ATOM     24  C   UNL     1     -49.292 124.181  -9.042  1.00  0.00    -0.000 C 
BRANCH  24  25
ATOM     25  C   UNL     1     -49.048 124.885 -10.387  1.00  0.00    -0.000 C 
BRANCH  25  26
ATOM     26  C   UNL     1     -48.875 123.895 -11.551  1.00  0.00    -0.000 C 
BRANCH  26  27
ATOM     27  C   UNL     1     -49.772 122.654 -11.407  1.00  0.00    -0.000 C 
BRANCH  27  28
ATOM     28  C   UNL     1     -49.540 121.912 -10.081  1.00  0.00    -0.000 C 
BRANCH  28  29
ATOM     29  C   UNL     1     -50.223 120.536 -10.095  1.00  0.00    -0.000 C 
BRANCH  29  30
ATOM     30  C   UNL     1     -51.756 120.638 -10.030  1.00  0.00    -0.000 C 
BRANCH  30  31
ATOM     31  C   UNL     1     -52.368 119.666  -9.010  1.00  0.00    -0.003 C 
ATOM     32  C   UNL     1     -53.429 118.783  -9.661  1.00  0.00     0.004 C 
ENDBRANCH  30  31
ENDBRANCH  29  30
ENDBRANCH  28  29
ENDBRANCH  27  28
ENDBRANCH  26  27
ENDBRANCH  25  26
ENDBRANCH  24  25
ENDBRANCH  23  24
ENDBRANCH  22  23
ENDBRANCH  21  22
ENDBRANCH  20  21
ENDBRANCH  19  20
ENDBRANCH  18  19
ENDBRANCH   1  18
TORSDOF 28
ENDMDL
MODEL 3
REMARK VINA RESULT:     8.702      2.772      9.388
REMARK INTER + INTRA:          23.452
REMARK INTER:                  23.492
REMARK INTRA:                  -0.040
REMARK UNBOUND:                 0.505
REMARK SMILES CCCCCCCCCCCCCCCCCCCCCCCCCCCCCC(=O)[O-]
REMARK SMILES IDX 16 1 17 2 18 3 19 4 20 5 21 6 22 7 23 8 24 9 25 10 26 11
REMARK SMILES IDX 27 12 28 13 29 14 30 15 31 16 32 17 15 18 14 19 13 20 12 21
REMARK SMILES IDX 11 22 10 23 9 24 8 25 7 26 6 27 5 28 4 29 3 30 2 31 1 32
REMARK H PARENT
REMARK Flexibility Score: inf
ROOT
ATOM      1  C   UNL     1     -54.101 119.775 -11.203  1.00  0.00     0.000 C 
ENDROOT
BRANCH   1   2
ATOM      2  C   UNL     1     -55.442 119.232 -10.683  1.00  0.00     0.000 C 
BRANCH   2   3
ATOM      3  C   UNL     1     -56.556 119.268 -11.744  1.00  0.00     0.000 C 
BRANCH   3   4
ATOM      4  C   UNL     1     -57.475 120.507 -11.698  1.00  0.00     0.000 C 
BRANCH   4   5
ATOM      5  C   UNL     1     -57.201 121.486 -10.542  1.00  0.00     0.000 C 
BRANCH   5   6
ATOM      6  C   UNL     1     -57.499 120.874  -9.163  1.00  0.00     0.000 C 
BRANCH   6   7
ATOM      7  C   UNL     1     -56.681 121.515  -8.027  1.00  0.00     0.000 C 
BRANCH   7   8
ATOM      8  C   UNL     1     -57.259 121.325  -6.609  1.00  0.00     0.000 C 
BRANCH   8   9
ATOM      9  C   UNL     1     -57.026 119.938  -5.986  1.00  0.00     0.000 C 
BRANCH   9  10
ATOM     10  C   UNL     1     -58.255 119.019  -6.076  1.00  0.00     0.000 C 
BRANCH  10  11
ATOM     11  C   UNL     1     -59.223 119.208  -4.894  1.00  0.00     0.000 C 
BRANCH  11  12
ATOM     12  C   UNL     1     -58.605 119.848  -3.635  1.00  0.00     0.000 C 
BRANCH  12  13
ATOM     13  C   UNL     1     -59.609 120.267  -2.543  1.00  0.00     0.006 C 
BRANCH  13  14
ATOM     14  C   UNL     1     -59.462 121.730  -2.088  1.00  0.00     0.053 C 
BRANCH  14  15
ATOM     15  C   UNL     1     -59.372 122.681  -3.244  1.00  0.00     0.041 C 
ATOM     16  O   UNL     1     -58.249 123.077  -3.653  1.00  0.00    -0.550 OA
ATOM     17  O   UNL     1     -60.528 123.141  -3.863  1.00  0.00    -0.550 OA
ENDBRANCH  14  15
ENDBRANCH  13  14
ENDBRANCH  12  13
ENDBRANCH  11  12
ENDBRANCH  10  11
ENDBRANCH   9  10
ENDBRANCH   8   9
ENDBRANCH   7   8
ENDBRANCH   6   7
ENDBRANCH   5   6
ENDBRANCH   4   5
ENDBRANCH   3   4
ENDBRANCH   2   3
ENDBRANCH   1   2
BRANCH   1  18
ATOM     18  C   UNL     1     -54.277 120.996 -12.120  1.00  0.00     0.000 C 
BRANCH  18  19
ATOM     19  C   UNL     1     -53.196 122.065 -11.902  1.00  0.00     0.000 C 
BRANCH  19  20
ATOM     20  C   UNL     1     -53.654 123.106 -10.870  1.00  0.00     0.000 C 
BRANCH  20  21
ATOM     21  C   UNL     1     -53.460 122.636  -9.416  1.00  0.00     0.000 C 
BRANCH  21  22
ATOM     22  C   UNL     1     -53.303 123.766  -8.377  1.00  0.00     0.000 C 
BRANCH  22  23
ATOM     23  C   UNL     1     -51.850 124.149  -8.037  1.00  0.00     0.000 C 
BRANCH  23  24
ATOM     24  C   UNL     1     -50.815 123.336  -8.834  1.00  0.00    -0.000 C 
BRANCH  24  25
ATOM     25  C   UNL     1     -49.494 124.100  -9.025  1.00  0.00    -0.000 C 
BRANCH  25  26
ATOM     26  C   UNL     1     -49.103 124.247 -10.505  1.00  0.00    -0.000 C 
BRANCH  26  27
ATOM     27  C   UNL     1     -49.746 123.170 -11.394  1.00  0.00    -0.000 C 
BRANCH  27  28
ATOM     28  C   UNL     1     -48.885 121.901 -11.497  1.00  0.00    -0.000 C 
BRANCH  28  29
ATOM     29  C   UNL     1     -49.068 121.011 -10.258  1.00  0.00    -0.000 C 
BRANCH  29  30
ATOM     30  C   UNL     1     -50.505 121.046  -9.713  1.00  0.00    -0.000 C 
BRANCH  30  31
ATOM     31  C   UNL     1     -51.084 119.642  -9.487  1.00  0.00    -0.003 C 
ATOM     32  C   UNL     1     -52.447 119.713  -8.804  1.00  0.00     0.004 C 
ENDBRANCH  30  31
ENDBRANCH  29  30
ENDBRANCH  28  29
ENDBRANCH  27  28
ENDBRANCH  26  27
ENDBRANCH  25  26
ENDBRANCH  24  25
ENDBRANCH  23  24
ENDBRANCH  22  23
ENDBRANCH  21  22
ENDBRANCH  20  21
ENDBRANCH  19  20
ENDBRANCH  18  19
ENDBRANCH   1  18
TORSDOF 28
ENDMDL
MODEL 4
REMARK VINA RESULT:     8.750      1.466      2.441
REMARK INTER + INTRA:          23.578
REMARK INTER:                  23.933
REMARK INTRA:                  -0.355
REMARK UNBOUND:                 0.505
REMARK SMILES CCCCCCCCCCCCCCCCCCCCCCCCCCCCCC(=O)[O-]
REMARK SMILES IDX 16 1 17 2 18 3 19 4 20 5 21 6 22 7 23 8 24 9 25 10 26 11
REMARK SMILES IDX 27 12 28 13 29 14 30 15 31 16 32 17 15 18 14 19 13 20 12 21
REMARK SMILES IDX 11 22 10 23 9 24 8 25 7 26 6 27 5 28 4 29 3 30 2 31 1 32
REMARK H PARENT
REMARK Flexibility Score: inf
ROOT
ATOM      1  C   UNL     1     -54.925 122.272 -12.040  1.00  0.00     0.000 C 
ENDROOT
BRANCH   1   2
ATOM      2  C   UNL     1     -54.071 123.521 -11.770  1.00  0.00     0.000 C 
BRANCH   2   3
ATOM      3  C   UNL     1     -53.012 123.300 -10.675  1.00  0.00     0.000 C 
BRANCH   3   4
ATOM      4  C   UNL     1     -53.341 123.919  -9.299  1.00  0.00     0.000 C 
BRANCH   4   5
ATOM      5  C   UNL     1     -52.247 123.756  -8.227  1.00  0.00     0.000 C 
BRANCH   5   6
ATOM      6  C   UNL     1     -51.069 122.892  -8.708  1.00  0.00     0.000 C 
BRANCH   6   7
ATOM      7  C   UNL     1     -49.885 123.724  -9.234  1.00  0.00     0.000 C 
BRANCH   7   8
ATOM      8  C   UNL     1     -49.336 123.293 -10.610  1.00  0.00     0.000 C 
BRANCH   8   9
ATOM      9  C   UNL     1     -49.370 121.779 -10.884  1.00  0.00     0.000 C 
BRANCH   9  10
ATOM     10  C   UNL     1     -50.198 121.407 -12.125  1.00  0.00     0.000 C 
BRANCH  10  11
ATOM     11  C   UNL     1     -51.665 121.089 -11.784  1.00  0.00     0.000 C 
BRANCH  11  12
ATOM     12  C   UNL     1     -51.971 119.600 -11.525  1.00  0.00     0.000 C 
BRANCH  12  13
ATOM     13  C   UNL     1     -52.769 119.300 -10.242  1.00  0.00     0.006 C 
BRANCH  13  14
ATOM     14  C   UNL     1     -54.042 120.152 -10.084  1.00  0.00     0.053 C 
BRANCH  14  15
ATOM     15  C   UNL     1     -54.165 120.745  -8.712  1.00  0.00     0.041 C 
ATOM     16  O   UNL     1     -55.180 121.424  -8.403  1.00  0.00    -0.550 OA
ATOM     17  O   UNL     1     -53.155 120.558  -7.776  1.00  0.00    -0.550 OA
ENDBRANCH  14  15
ENDBRANCH  13  14
ENDBRANCH  12  13
ENDBRANCH  11  12
ENDBRANCH  10  11
ENDBRANCH   9  10
ENDBRANCH   8   9
ENDBRANCH   7   8
ENDBRANCH   6   7
ENDBRANCH   5   6
ENDBRANCH   4   5
ENDBRANCH   3   4
ENDBRANCH   2   3
ENDBRANCH   1   2
BRANCH   1  18
ATOM     18  C   UNL     1     -56.427 122.591 -12.114  1.00  0.00     0.000 C 
BRANCH  18  19
ATOM     19  C   UNL     1     -57.309 121.377 -11.794  1.00  0.00     0.000 C 
BRANCH  19  20
ATOM     20  C   UNL     1     -57.085 120.902 -10.350  1.00  0.00     0.000 C 
BRANCH  20  21
ATOM     21  C   UNL     1     -57.305 119.388 -10.175  1.00  0.00     0.000 C 
BRANCH  21  22
ATOM     22  C   UNL     1     -58.453 118.997  -9.220  1.00  0.00     0.000 C 
BRANCH  22  23
ATOM     23  C   UNL     1     -58.120 119.091  -7.720  1.00  0.00     0.000 C 
BRANCH  23  24
ATOM     24  C   UNL     1     -58.826 118.012  -6.881  1.00  0.00    -0.000 C 
BRANCH  24  25
ATOM     25  C   UNL     1     -58.619 118.217  -5.371  1.00  0.00    -0.000 C 
BRANCH  25  26
ATOM     26  C   UNL     1     -59.873 118.771  -4.671  1.00  0.00    -0.000 C 
BRANCH  26  27
ATOM     27  C   UNL     1     -59.529 119.673  -3.475  1.00  0.00    -0.000 C 
BRANCH  27  28
ATOM     28  C   UNL     1     -58.636 120.860  -3.871  1.00  0.00    -0.000 C 
BRANCH  28  29
ATOM     29  C   UNL     1     -58.951 122.094  -3.012  1.00  0.00    -0.000 C 
BRANCH  29  30
ATOM     30  C   UNL     1     -59.220 121.738  -1.542  1.00  0.00    -0.000 C 
BRANCH  30  31
ATOM     31  C   UNL     1     -60.618 122.173  -1.076  1.00  0.00    -0.003 C 
ATOM     32  C   UNL     1     -60.622 123.635  -0.641  1.00  0.00     0.004 C 
ENDBRANCH  30  31
ENDBRANCH  29  30
ENDBRANCH  28  29
ENDBRANCH  27  28
ENDBRANCH  26  27
ENDBRANCH  25  26
ENDBRANCH  24  25
ENDBRANCH  23  24
ENDBRANCH  22  23
ENDBRANCH  21  22
ENDBRANCH  20  21
ENDBRANCH  19  20
ENDBRANCH  18  19
ENDBRANCH   1  18
TORSDOF 28
ENDMDL
MODEL 5
REMARK VINA RESULT:     8.894      3.921     10.625
REMARK INTER + INTRA:          23.957
REMARK INTER:                  25.625
REMARK INTRA:                  -1.668
REMARK UNBOUND:                 0.505
REMARK SMILES CCCCCCCCCCCCCCCCCCCCCCCCCCCCCC(=O)[O-]
REMARK SMILES IDX 16 1 17 2 18 3 19 4 20 5 21 6 22 7 23 8 24 9 25 10 26 11
REMARK SMILES IDX 27 12 28 13 29 14 30 15 31 16 32 17 15 18 14 19 13 20 12 21
REMARK SMILES IDX 11 22 10 23 9 24 8 25 7 26 6 27 5 28 4 29 3 30 2 31 1 32
REMARK H PARENT
REMARK Flexibility Score: inf
ROOT
ATOM      1  C   UNL     1     -56.865 122.268  -9.387  1.00  0.00     0.000 C 
ENDROOT
BRANCH   1   2
ATOM      2  C   UNL     1     -56.395 121.117  -8.482  1.00  0.00     0.000 C 
BRANCH   2   3
ATOM      3  C   UNL     1     -57.325 119.892  -8.537  1.00  0.00     0.000 C 
BRANCH   3   4
ATOM      4  C   UNL     1     -57.833 119.383  -7.171  1.00  0.00     0.000 C 
BRANCH   4   5
ATOM      5  C   UNL     1     -58.662 118.086  -7.220  1.00  0.00     0.000 C 
BRANCH   5   6
ATOM      6  C   UNL     1     -59.565 117.913  -5.988  1.00  0.00     0.000 C 
BRANCH   6   7
ATOM      7  C   UNL     1     -58.938 118.469  -4.696  1.00  0.00     0.000 C 
BRANCH   7   8
ATOM      8  C   UNL     1     -59.710 119.630  -4.035  1.00  0.00     0.000 C 
BRANCH   8   9
ATOM      9  C   UNL     1     -58.835 120.767  -3.480  1.00  0.00     0.000 C 
BRANCH   9  10
ATOM     10  C   UNL     1     -58.643 120.694  -1.957  1.00  0.00     0.000 C 
BRANCH  10  11
ATOM     11  C   UNL     1     -58.778 122.069  -1.275  1.00  0.00     0.000 C 
BRANCH  11  12
ATOM     12  C   UNL     1     -60.198 122.668  -1.284  1.00  0.00     0.000 C 
BRANCH  12  13
ATOM     13  C   UNL     1     -60.447 123.799  -0.267  1.00  0.00     0.006 C 
BRANCH  13  14
ATOM     14  C   UNL     1     -61.921 123.955   0.146  1.00  0.00     0.053 C 
BRANCH  14  15
ATOM     15  C   UNL     1     -62.485 122.697   0.735  1.00  0.00     0.041 C 
ATOM     16  O   UNL     1     -62.432 121.616   0.090  1.00  0.00    -0.550 OA
ATOM     17  O   UNL     1     -63.080 122.717   1.990  1.00  0.00    -0.550 OA
ENDBRANCH  14  15
ENDBRANCH  13  14
ENDBRANCH  12  13
ENDBRANCH  11  12
ENDBRANCH  10  11
ENDBRANCH   9  10
ENDBRANCH   8   9
ENDBRANCH   7   8
ENDBRANCH   6   7
ENDBRANCH   5   6
ENDBRANCH   4   5
ENDBRANCH   3   4
ENDBRANCH   2   3
ENDBRANCH   1   2
BRANCH   1  18
ATOM     18  C   UNL     1     -55.937 122.483 -10.593  1.00  0.00     0.000 C 
BRANCH  18  19
ATOM     19  C   UNL     1     -56.501 121.885 -11.890  1.00  0.00     0.000 C 
BRANCH  19  20
ATOM     20  C   UNL     1     -56.825 120.394 -11.711  1.00  0.00     0.000 C 
BRANCH  20  21
ATOM     21  C   UNL     1     -55.601 119.484 -11.922  1.00  0.00     0.000 C 
BRANCH  21  22
ATOM     22  C   UNL     1     -54.239 120.125 -11.580  1.00  0.00     0.000 C 
BRANCH  22  23
ATOM     23  C   UNL     1     -53.618 119.675 -10.245  1.00  0.00     0.000 C 
BRANCH  23  24
ATOM     24  C   UNL     1     -52.807 120.787  -9.556  1.00  0.00    -0.000 C 
BRANCH  24  25
ATOM     25  C   UNL     1     -52.737 122.068 -10.403  1.00  0.00    -0.000 C 
BRANCH  25  26
ATOM     26  C   UNL     1     -52.777 123.346  -9.547  1.00  0.00    -0.000 C 
BRANCH  26  27
ATOM     27  C   UNL     1     -52.097 123.162  -8.181  1.00  0.00    -0.000 C 
BRANCH  27  28
ATOM     28  C   UNL     1     -50.835 124.027  -8.032  1.00  0.00    -0.000 C 
BRANCH  28  29
ATOM     29  C   UNL     1     -50.086 124.142  -9.368  1.00  0.00    -0.000 C 
BRANCH  29  30
ATOM     30  C   UNL     1     -48.889 123.182  -9.458  1.00  0.00    -0.000 C 
BRANCH  30  31
ATOM     31  C   UNL     1     -49.097 122.076 -10.503  1.00  0.00    -0.003 C 
ATOM     32  C   UNL     1     -48.881 120.694  -9.891  1.00  0.00     0.004 C 
ENDBRANCH  30  31
ENDBRANCH  29  30
ENDBRANCH  28  29
ENDBRANCH  27  28
ENDBRANCH  26  27
ENDBRANCH  25  26
ENDBRANCH  24  25
ENDBRANCH  23  24
ENDBRANCH  22  23
ENDBRANCH  21  22
ENDBRANCH  20  21
ENDBRANCH  19  20
ENDBRANCH  18  19
ENDBRANCH   1  18
TORSDOF 28
ENDMDL
MODEL 6
REMARK VINA RESULT:     9.251      3.358     10.107
REMARK INTER + INTRA:          24.898
REMARK INTER:                  26.446
REMARK INTRA:                  -1.548
REMARK UNBOUND:                 0.505
REMARK SMILES CCCCCCCCCCCCCCCCCCCCCCCCCCCCCC(=O)[O-]
REMARK SMILES IDX 16 1 17 2 18 3 19 4 20 5 21 6 22 7 23 8 24 9 25 10 26 11
REMARK SMILES IDX 27 12 28 13 29 14 30 15 31 16 32 17 15 18 14 19 13 20 12 21
REMARK SMILES IDX 11 22 10 23 9 24 8 25 7 26 6 27 5 28 4 29 3 30 2 31 1 32
REMARK H PARENT
REMARK Flexibility Score: inf
ROOT
ATOM      1  C   UNL     1     -57.327 121.760 -10.641  1.00  0.00     0.000 C 
ENDROOT
BRANCH   1   2
ATOM      2  C   UNL     1     -57.822 120.440 -11.256  1.00  0.00     0.000 C 
BRANCH   2   3
ATOM      3  C   UNL     1     -57.066 119.210 -10.723  1.00  0.00     0.000 C 
BRANCH   3   4
ATOM      4  C   UNL     1     -56.738 119.235  -9.215  1.00  0.00     0.000 C 
BRANCH   4   5
ATOM      5  C   UNL     1     -57.951 119.411  -8.282  1.00  0.00     0.000 C 
BRANCH   5   6
ATOM      6  C   UNL     1     -58.181 118.193  -7.372  1.00  0.00     0.000 C 
BRANCH   6   7
ATOM      7  C   UNL     1     -58.388 118.573  -5.894  1.00  0.00     0.000 C 
BRANCH   7   8
ATOM      8  C   UNL     1     -59.290 117.615  -5.088  1.00  0.00     0.000 C 
BRANCH   8   9
ATOM      9  C   UNL     1     -60.264 118.297  -4.111  1.00  0.00     0.000 C 
BRANCH   9  10
ATOM     10  C   UNL     1     -60.092 119.824  -4.053  1.00  0.00     0.000 C 
BRANCH  10  11
ATOM     11  C   UNL     1     -59.398 120.293  -2.761  1.00  0.00     0.000 C 
BRANCH  11  12
ATOM     12  C   UNL     1     -58.458 121.504  -2.924  1.00  0.00     0.000 C 
BRANCH  12  13
ATOM     13  C   UNL     1     -59.147 122.836  -3.277  1.00  0.00     0.006 C 
BRANCH  13  14
ATOM     14  C   UNL     1     -60.449 123.093  -2.495  1.00  0.00     0.053 C 
BRANCH  14  15
ATOM     15  C   UNL     1     -60.227 123.118  -1.012  1.00  0.00     0.041 C 
ATOM     16  O   UNL     1     -59.253 122.501  -0.506  1.00  0.00    -0.550 OA
ATOM     17  O   UNL     1     -61.102 123.813  -0.186  1.00  0.00    -0.550 OA
ENDBRANCH  14  15
ENDBRANCH  13  14
ENDBRANCH  12  13
ENDBRANCH  11  12
ENDBRANCH  10  11
ENDBRANCH   9  10
ENDBRANCH   8   9
ENDBRANCH   7   8
ENDBRANCH   6   7
ENDBRANCH   5   6
ENDBRANCH   4   5
ENDBRANCH   3   4
ENDBRANCH   2   3
ENDBRANCH   1   2
BRANCH   1  18
ATOM     18  C   UNL     1     -56.453 122.569 -11.613  1.00  0.00     0.000 C 
BRANCH  18  19
ATOM     19  C   UNL     1     -55.158 121.839 -11.996  1.00  0.00     0.000 C 
BRANCH  19  20
ATOM     20  C   UNL     1     -53.989 122.828 -12.124  1.00  0.00     0.000 C 
BRANCH  20  21
ATOM     21  C   UNL     1     -53.748 123.642 -10.840  1.00  0.00     0.000 C 
BRANCH  21  22
ATOM     22  C   UNL     1     -53.862 122.844  -9.525  1.00  0.00     0.000 C 
BRANCH  22  23
ATOM     23  C   UNL     1     -53.343 123.569  -8.269  1.00  0.00     0.000 C 
BRANCH  23  24
ATOM     24  C   UNL     1     -51.880 123.226  -7.940  1.00  0.00    -0.000 C 
BRANCH  24  25
ATOM     25  C   UNL     1     -50.887 124.173  -8.634  1.00  0.00    -0.000 C 
BRANCH  25  26
ATOM     26  C   UNL     1     -49.543 123.495  -8.949  1.00  0.00    -0.000 C 
BRANCH  26  27
ATOM     27  C   UNL     1     -48.982 123.908 -10.320  1.00  0.00    -0.000 C 
BRANCH  27  28
ATOM     28  C   UNL     1     -49.425 122.961 -11.446  1.00  0.00    -0.000 C 
BRANCH  28  29
ATOM     29  C   UNL     1     -49.738 121.561 -10.896  1.00  0.00    -0.000 C 
BRANCH  29  30
ATOM     30  C   UNL     1     -51.163 121.097 -11.237  1.00  0.00    -0.000 C 
BRANCH  30  31
ATOM     31  C   UNL     1     -51.876 120.452 -10.040  1.00  0.00    -0.003 C 
ATOM     32  C   UNL     1     -53.050 119.590 -10.498  1.00  0.00     0.004 C 
ENDBRANCH  30  31
ENDBRANCH  29  30
ENDBRANCH  28  29
ENDBRANCH  27  28
ENDBRANCH  26  27
ENDBRANCH  25  26
ENDBRANCH  24  25
ENDBRANCH  23  24
ENDBRANCH  22  23
ENDBRANCH  21  22
ENDBRANCH  20  21
ENDBRANCH  19  20
ENDBRANCH  18  19
ENDBRANCH   1  18
TORSDOF 28
ENDMDL
MODEL 7
REMARK VINA RESULT:     9.473      2.177      9.452
REMARK INTER + INTRA:          25.484
REMARK INTER:                  23.488
REMARK INTRA:                   1.996
REMARK UNBOUND:                 0.505
REMARK SMILES CCCCCCCCCCCCCCCCCCCCCCCCCCCCCC(=O)[O-]
REMARK SMILES IDX 16 1 17 2 18 3 19 4 20 5 21 6 22 7 23 8 24 9 25 10 26 11
REMARK SMILES IDX 27 12 28 13 29 14 30 15 31 16 32 17 15 18 14 19 13 20 12 21
REMARK SMILES IDX 11 22 10 23 9 24 8 25 7 26 6 27 5 28 4 29 3 30 2 31 1 32
REMARK H PARENT
REMARK Flexibility Score: inf
ROOT
ATOM      1  C   UNL     1     -56.321 119.361 -10.304  1.00  0.00     0.000 C 
ENDROOT
BRANCH   1   2
ATOM      2  C   UNL     1     -57.638 120.133 -10.124  1.00  0.00     0.000 C 
BRANCH   2   3
ATOM      3  C   UNL     1     -57.453 121.473  -9.391  1.00  0.00     0.000 C 
BRANCH   3   4
ATOM      4  C   UNL     1     -56.586 121.417  -8.115  1.00  0.00     0.000 C 
BRANCH   4   5
ATOM      5  C   UNL     1     -56.774 122.594  -7.140  1.00  0.00     0.000 C 
BRANCH   5   6
ATOM      6  C   UNL     1     -58.018 122.433  -6.250  1.00  0.00     0.000 C 
BRANCH   6   7
ATOM      7  C   UNL     1     -58.414 123.733  -5.525  1.00  0.00     0.000 C 
BRANCH   7   8
ATOM      8  C   UNL     1     -58.549 123.617  -3.992  1.00  0.00     0.000 C 
BRANCH   8   9
ATOM      9  C   UNL     1     -59.696 122.716  -3.501  1.00  0.00     0.000 C 
BRANCH   9  10
ATOM     10  C   UNL     1     -59.747 122.581  -1.971  1.00  0.00     0.000 C 
BRANCH  10  11
ATOM     11  C   UNL     1     -58.820 121.470  -1.443  1.00  0.00     0.000 C 
BRANCH  11  12
ATOM     12  C   UNL     1     -59.015 120.088  -2.097  1.00  0.00     0.000 C 
BRANCH  12  13
ATOM     13  C   UNL     1     -59.785 120.087  -3.432  1.00  0.00     0.006 C 
BRANCH  13  14
ATOM     14  C   UNL     1     -59.924 118.695  -4.073  1.00  0.00     0.053 C 
BRANCH  14  15
ATOM     15  C   UNL     1     -59.008 118.514  -5.247  1.00  0.00     0.041 C 
ATOM     16  O   UNL     1     -58.013 119.272  -5.397  1.00  0.00    -0.550 OA
ATOM     17  O   UNL     1     -59.259 117.519  -6.183  1.00  0.00    -0.550 OA
ENDBRANCH  14  15
ENDBRANCH  13  14
ENDBRANCH  12  13
ENDBRANCH  11  12
ENDBRANCH  10  11
ENDBRANCH   9  10
ENDBRANCH   8   9
ENDBRANCH   7   8
ENDBRANCH   6   7
ENDBRANCH   5   6
ENDBRANCH   4   5
ENDBRANCH   3   4
ENDBRANCH   2   3
ENDBRANCH   1   2
BRANCH   1  18
ATOM     18  C   UNL     1     -55.327 120.100 -11.215  1.00  0.00     0.000 C 
BRANCH  18  19
ATOM     19  C   UNL     1     -56.007 121.134 -12.122  1.00  0.00     0.000 C 
BRANCH  19  20
ATOM     20  C   UNL     1     -55.677 122.564 -11.667  1.00  0.00     0.000 C 
BRANCH  20  21
ATOM     21  C   UNL     1     -54.205 122.946 -11.908  1.00  0.00     0.000 C 
BRANCH  21  22
ATOM     22  C   UNL     1     -53.500 123.627 -10.716  1.00  0.00     0.000 C 
BRANCH  22  23
ATOM     23  C   UNL     1     -53.735 122.962  -9.347  1.00  0.00     0.000 C 
BRANCH  23  24
ATOM     24  C   UNL     1     -52.478 122.959  -8.459  1.00  0.00    -0.000 C 
BRANCH  24  25
ATOM     25  C   UNL     1     -51.184 122.822  -9.278  1.00  0.00    -0.000 C 
BRANCH  25  26
ATOM     26  C   UNL     1     -50.087 123.799  -8.820  1.00  0.00    -0.000 C 
BRANCH  26  27
ATOM     27  C   UNL     1     -49.217 124.297  -9.986  1.00  0.00    -0.000 C 
BRANCH  27  28
ATOM     28  C   UNL     1     -48.881 123.180 -10.987  1.00  0.00    -0.000 C 
BRANCH  28  29
ATOM     29  C   UNL     1     -49.938 123.100 -12.099  1.00  0.00    -0.000 C 
BRANCH  29  30
ATOM     30  C   UNL     1     -51.176 122.292 -11.680  1.00  0.00    -0.000 C 
BRANCH  30  31
ATOM     31  C   UNL     1     -51.040 120.796 -12.000  1.00  0.00    -0.003 C 
ATOM     32  C   UNL     1     -52.322 120.042 -11.662  1.00  0.00     0.004 C 
ENDBRANCH  30  31
ENDBRANCH  29  30
ENDBRANCH  28  29
ENDBRANCH  27  28
ENDBRANCH  26  27
ENDBRANCH  25  26
ENDBRANCH  24  25
ENDBRANCH  23  24
ENDBRANCH  22  23
ENDBRANCH  21  22
ENDBRANCH  20  21
ENDBRANCH  19  20
ENDBRANCH  18  19
ENDBRANCH   1  18
TORSDOF 28
ENDMDL
