MODEL 1
REMARK VINA RESULT:    -4.467      0.000      0.000
REMARK INTER + INTRA:         -14.957
REMARK INTER:                 -11.257
REMARK INTRA:                  -3.700
REMARK UNBOUND:                -3.700
REMARK SMILES CCCCCCCCCCCCCCCCCCCCCCCCCCCC(=O)[O-]
REMARK SMILES IDX 15 1 16 2 17 3 18 4 19 5 20 6 21 7 22 8 23 9 24 10 25 11
REMARK SMILES IDX 26 12 27 13 28 14 29 15 30 16 14 17 13 18 12 19 11 20 10 21
REMARK SMILES IDX 9 22 8 23 7 24 6 25 5 26 4 27 3 28 2 29 1 30
REMARK H PARENT
REMARK Flexibility Score: inf
ROOT
ATOM      1  C   UNL     1       1.465  -1.172   5.399  1.00  0.00     0.000 C 
ENDROOT
BRANCH   1   2
ATOM      2  C   UNL     1       2.576  -2.228   5.242  1.00  0.00     0.000 C 
BRANCH   2   3
ATOM      3  C   UNL     1       3.489  -2.320   6.476  1.00  0.00     0.000 C 
BRANCH   3   4
ATOM      4  C   UNL     1       3.179  -3.580   7.298  1.00  0.00     0.000 C 
BRANCH   4   5
ATOM      5  C   UNL     1       2.229  -3.306   8.477  1.00  0.00     0.000 C 
BRANCH   5   6
ATOM      6  C   UNL     1       2.296  -1.875   9.053  1.00  0.00     0.000 C 
BRANCH   6   7
ATOM      7  C   UNL     1       0.971  -1.089   9.013  1.00  0.00     0.000 C 
BRANCH   7   8
ATOM      8  C   UNL     1       1.126   0.428   8.793  1.00  0.00     0.000 C 
BRANCH   8   9
ATOM      9  C   UNL     1       2.511   0.835   8.238  1.00  0.00     0.000 C 
BRANCH   9  10
ATOM     10  C   UNL     1       2.580   2.271   7.683  1.00  0.00     0.000 C 
BRANCH  10  11
ATOM     11  C   UNL     1       1.222   2.890   7.298  1.00  0.00     0.000 C 
BRANCH  11  12
ATOM     12  C   UNL     1       1.334   3.961   6.202  1.00  0.00     0.006 C 
BRANCH  12  13
ATOM     13  C   UNL     1       0.274   5.052   6.395  1.00  0.00     0.053 C 
BRANCH  13  14
ATOM     14  C   UNL     1      -0.293   5.488   5.077  1.00  0.00     0.041 C 
ATOM     15  O   UNL     1      -1.364   6.153   5.038  1.00  0.00    -0.550 OA
ATOM     16  O   UNL     1       0.330   5.117   3.891  1.00  0.00    -0.550 OA
ENDBRANCH  13  14
ENDBRANCH  12  13
ENDBRANCH  11  12
ENDBRANCH  10  11
ENDBRANCH   9  10
ENDBRANCH   8   9
ENDBRANCH   7   8
ENDBRANCH   6   7
ENDBRANCH   5   6
ENDBRANCH   4   5
ENDBRANCH   3   4
ENDBRANCH   2   3
ENDBRANCH   1   2
BRANCH   1  17
ATOM     17  C   UNL     1       0.042  -1.693   5.131  1.00  0.00     0.000 C 
BRANCH  17  18
ATOM     18  C   UNL     1      -0.275  -2.977   5.914  1.00  0.00     0.000 C 
BRANCH  18  19
ATOM     19  C   UNL     1      -1.613  -2.890   6.667  1.00  0.00     0.000 C 
BRANCH  19  20
ATOM     20  C   UNL     1      -2.505  -4.119   6.420  1.00  0.00     0.000 C 
BRANCH  20  21
ATOM     21  C   UNL     1      -2.285  -4.736   5.021  1.00  0.00     0.000 C 
BRANCH  21  22
ATOM     22  C   UNL     1      -3.321  -4.285   3.972  1.00  0.00    -0.000 C 
BRANCH  22  23
ATOM     23  C   UNL     1      -2.865  -3.127   3.067  1.00  0.00    -0.000 C 
BRANCH  23  24
ATOM     24  C   UNL     1      -3.246  -1.747   3.628  1.00  0.00    -0.000 C 
BRANCH  24  25
ATOM     25  C   UNL     1      -4.525  -1.825   4.469  1.00  0.00    -0.000 C 
BRANCH  25  26
ATOM     26  C   UNL     1      -4.677  -0.580   5.356  1.00  0.00    -0.000 C 
BRANCH  26  27
ATOM     27  C   UNL     1      -5.886  -0.667   6.301  1.00  0.00    -0.000 C 
BRANCH  27  28
ATOM     28  C   UNL     1      -6.186   0.625   7.085  1.00  0.00    -0.000 C 
BRANCH  28  29
ATOM     29  C   UNL     1      -7.069   0.400   8.332  1.00  0.00    -0.003 C 
ATOM     30  C   UNL     1      -6.462   1.016   9.593  1.00  0.00     0.004 C 
ENDBRANCH  28  29
ENDBRANCH  27  28
ENDBRANCH  26  27
ENDBRANCH  25  26
ENDBRANCH  24  25
ENDBRANCH  23  24
ENDBRANCH  22  23
ENDBRANCH  21  22
ENDBRANCH  20  21
ENDBRANCH  19  20
ENDBRANCH  18  19
ENDBRANCH  17  18
ENDBRANCH   1  17
TORSDOF 26
ENDMDL
MODEL 2
REMARK VINA RESULT:    -4.354      2.434      5.815
REMARK INTER + INTRA:         -14.673
REMARK INTER:                 -11.343
REMARK INTRA:                  -3.330
REMARK UNBOUND:                -3.700
REMARK SMILES CCCCCCCCCCCCCCCCCCCCCCCCCCCC(=O)[O-]
REMARK SMILES IDX 15 1 16 2 17 3 18 4 19 5 20 6 21 7 22 8 23 9 24 10 25 11
REMARK SMILES IDX 26 12 27 13 28 14 29 15 30 16 14 17 13 18 12 19 11 20 10 21
REMARK SMILES IDX 9 22 8 23 7 24 6 25 5 26 4 27 3 28 2 29 1 30
REMARK H PARENT
REMARK Flexibility Score: inf
ROOT
ATOM      1  C   UNL     1       1.402   2.220   7.050  1.00  0.00     0.000 C 
ENDROOT
BRANCH   1   2
ATOM      2  C   UNL     1       2.315   3.434   7.310  1.00  0.00     0.000 C 
BRANCH   2   3
ATOM      3  C   UNL     1       1.636   4.518   8.163  1.00  0.00     0.000 C 
BRANCH   3   4
ATOM      4  C   UNL     1       0.173   4.153   8.457  1.00  0.00     0.000 C 
BRANCH   4   5
ATOM      5  C   UNL     1      -0.638   5.335   9.017  1.00  0.00     0.000 C 
BRANCH   5   6
ATOM      6  C   UNL     1      -1.396   6.167   7.960  1.00  0.00     0.000 C 
BRANCH   6   7
ATOM      7  C   UNL     1      -0.574   7.288   7.293  1.00  0.00     0.000 C 
BRANCH   7   8
ATOM      8  C   UNL     1      -0.357   7.115   5.777  1.00  0.00     0.000 C 
BRANCH   8   9
ATOM      9  C   UNL     1      -0.755   5.717   5.250  1.00  0.00     0.000 C 
BRANCH   9  10
ATOM     10  C   UNL     1       0.367   4.974   4.499  1.00  0.00     0.000 C 
BRANCH  10  11
ATOM     11  C   UNL     1       1.653   5.792   4.268  1.00  0.00     0.000 C 
BRANCH  11  12
ATOM     12  C   UNL     1       2.861   4.925   3.878  1.00  0.00     0.006 C 
BRANCH  12  13
ATOM     13  C   UNL     1       3.623   5.547   2.704  1.00  0.00     0.053 C 
BRANCH  13  14
ATOM     14  C   UNL     1       3.202   4.930   1.403  1.00  0.00     0.041 C 
ATOM     15  O   UNL     1       3.790   3.901   0.971  1.00  0.00    -0.550 OA
ATOM     16  O   UNL     1       2.200   5.520   0.642  1.00  0.00    -0.550 OA
ENDBRANCH  13  14
ENDBRANCH  12  13
ENDBRANCH  11  12
ENDBRANCH  10  11
ENDBRANCH   9  10
ENDBRANCH   8   9
ENDBRANCH   7   8
ENDBRANCH   6   7
ENDBRANCH   5   6
ENDBRANCH   4   5
ENDBRANCH   3   4
ENDBRANCH   2   3
ENDBRANCH   1   2
BRANCH   1  17
ATOM     17  C   UNL     1       1.792   0.946   7.820  1.00  0.00     0.000 C 
BRANCH  17  18
ATOM     18  C   UNL     1       2.208  -0.204   6.890  1.00  0.00     0.000 C 
BRANCH  18  19
ATOM     19  C   UNL     1       1.274  -0.345   5.678  1.00  0.00     0.000 C 
BRANCH  19  20
ATOM     20  C   UNL     1       1.058  -1.815   5.273  1.00  0.00     0.000 C 
BRANCH  20  21
ATOM     21  C   UNL     1      -0.430  -2.224   5.309  1.00  0.00     0.000 C 
BRANCH  21  22
ATOM     22  C   UNL     1      -0.980  -2.451   6.731  1.00  0.00    -0.000 C 
BRANCH  22  23
ATOM     23  C   UNL     1      -2.271  -3.285   6.801  1.00  0.00    -0.000 C 
BRANCH  23  24
ATOM     24  C   UNL     1      -3.503  -2.446   7.178  1.00  0.00    -0.000 C 
BRANCH  24  25
ATOM     25  C   UNL     1      -4.477  -2.332   5.999  1.00  0.00    -0.000 C 
BRANCH  25  26
ATOM     26  C   UNL     1      -4.132  -1.124   5.116  1.00  0.00    -0.000 C 
BRANCH  26  27
ATOM     27  C   UNL     1      -3.710  -1.527   3.694  1.00  0.00    -0.000 C 
BRANCH  27  28
ATOM     28  C   UNL     1      -3.969  -3.004   3.338  1.00  0.00    -0.000 C 
BRANCH  28  29
ATOM     29  C   UNL     1      -2.683  -3.798   3.022  1.00  0.00    -0.003 C 
ATOM     30  C   UNL     1      -2.752  -4.500   1.665  1.00  0.00     0.004 C 
ENDBRANCH  28  29
ENDBRANCH  27  28
ENDBRANCH  26  27
ENDBRANCH  25  26
ENDBRANCH  24  25
ENDBRANCH  23  24
ENDBRANCH  22  23
ENDBRANCH  21  22
ENDBRANCH  20  21
ENDBRANCH  19  20
ENDBRANCH  18  19
ENDBRANCH  17  18
ENDBRANCH   1  17
TORSDOF 26
ENDMDL
MODEL 3
REMARK VINA RESULT:    -4.326      1.666      3.590
REMARK INTER + INTRA:         -14.603
REMARK INTER:                 -11.070
REMARK INTRA:                  -3.533
REMARK UNBOUND:                -3.700
REMARK SMILES CCCCCCCCCCCCCCCCCCCCCCCCCCCC(=O)[O-]
REMARK SMILES IDX 15 1 16 2 17 3 18 4 19 5 20 6 21 7 22 8 23 9 24 10 25 11
REMARK SMILES IDX 26 12 27 13 28 14 29 15 30 16 14 17 13 18 12 19 11 20 10 21
REMARK SMILES IDX 9 22 8 23 7 24 6 25 5 26 4 27 3 28 2 29 1 30
REMARK H PARENT
REMARK Flexibility Score: inf
ROOT
ATOM      1  C   UNL     1       1.406  -1.361   5.218  1.00  0.00     0.000 C 
ENDROOT
BRANCH   1   2
ATOM      2  C   UNL     1       2.581  -2.355   5.284  1.00  0.00     0.000 C 
BRANCH   2   3
ATOM      3  C   UNL     1       3.913  -1.680   5.647  1.00  0.00     0.000 C 
BRANCH   3   4
ATOM      4  C   UNL     1       4.274  -1.929   7.120  1.00  0.00     0.000 C 
BRANCH   4   5
ATOM      5  C   UNL     1       3.860  -0.769   8.042  1.00  0.00     0.000 C 
BRANCH   5   6
ATOM      6  C   UNL     1       2.532  -0.979   8.801  1.00  0.00     0.000 C 
BRANCH   6   7
ATOM      7  C   UNL     1       1.470   0.117   8.581  1.00  0.00     0.000 C 
BRANCH   7   8
ATOM      8  C   UNL     1       2.029   1.473   8.111  1.00  0.00     0.000 C 
BRANCH   8   9
ATOM      9  C   UNL     1       1.541   1.890   6.704  1.00  0.00     0.000 C 
BRANCH   9  10
ATOM     10  C   UNL     1       1.395   3.411   6.503  1.00  0.00     0.000 C 
BRANCH  10  11
ATOM     11  C   UNL     1       0.486   4.121   7.525  1.00  0.00     0.000 C 
BRANCH  11  12
ATOM     12  C   UNL     1       0.077   5.538   7.090  1.00  0.00     0.006 C 
BRANCH  12  13
ATOM     13  C   UNL     1       0.132   5.678   5.565  1.00  0.00     0.053 C 
BRANCH  13  14
ATOM     14  C   UNL     1      -1.010   6.509   5.061  1.00  0.00     0.041 C 
ATOM     15  O   UNL     1      -2.196   6.205   5.363  1.00  0.00    -0.550 OA
ATOM     16  O   UNL     1      -0.769   7.585   4.215  1.00  0.00    -0.550 OA
ENDBRANCH  13  14
ENDBRANCH  12  13
ENDBRANCH  11  12
ENDBRANCH  10  11
ENDBRANCH   9  10
ENDBRANCH   8   9
ENDBRANCH   7   8
ENDBRANCH   6   7
ENDBRANCH   5   6
ENDBRANCH   4   5
ENDBRANCH   3   4
ENDBRANCH   2   3
ENDBRANCH   1   2
BRANCH   1  17
ATOM     17  C   UNL     1       0.044  -1.947   5.630  1.00  0.00     0.000 C 
BRANCH  17  18
ATOM     18  C   UNL     1       0.171  -3.036   6.707  1.00  0.00     0.000 C 
BRANCH  18  19
ATOM     19  C   UNL     1      -1.065  -3.948   6.769  1.00  0.00     0.000 C 
BRANCH  19  20
ATOM     20  C   UNL     1      -1.974  -3.623   7.967  1.00  0.00     0.000 C 
BRANCH  20  21
ATOM     21  C   UNL     1      -3.021  -2.537   7.636  1.00  0.00     0.000 C 
BRANCH  21  22
ATOM     22  C   UNL     1      -4.306  -3.088   6.987  1.00  0.00    -0.000 C 
BRANCH  22  23
ATOM     23  C   UNL     1      -5.215  -2.025   6.345  1.00  0.00    -0.000 C 
BRANCH  23  24
ATOM     24  C   UNL     1      -4.451  -1.070   5.414  1.00  0.00    -0.000 C 
BRANCH  24  25
ATOM     25  C   UNL     1      -4.355  -1.641   3.994  1.00  0.00    -0.000 C 
BRANCH  25  26
ATOM     26  C   UNL     1      -2.892  -1.738   3.538  1.00  0.00    -0.000 C 
BRANCH  26  27
ATOM     27  C   UNL     1      -2.387  -3.188   3.460  1.00  0.00    -0.000 C 
BRANCH  27  28
ATOM     28  C   UNL     1      -3.485  -4.242   3.221  1.00  0.00    -0.000 C 
BRANCH  28  29
ATOM     29  C   UNL     1      -3.691  -4.591   1.731  1.00  0.00    -0.003 C 
ATOM     30  C   UNL     1      -2.928  -5.851   1.318  1.00  0.00     0.004 C 
ENDBRANCH  28  29
ENDBRANCH  27  28
ENDBRANCH  26  27
ENDBRANCH  25  26
ENDBRANCH  24  25
ENDBRANCH  23  24
ENDBRANCH  22  23
ENDBRANCH  21  22
ENDBRANCH  20  21
ENDBRANCH  19  20
ENDBRANCH  18  19
ENDBRANCH  17  18
ENDBRANCH   1  17
TORSDOF 26
ENDMDL
MODEL 4
REMARK VINA RESULT:    -4.297      1.504      4.156
REMARK INTER + INTRA:         -14.528
REMARK INTER:                 -10.392
REMARK INTRA:                  -4.135
REMARK UNBOUND:                -3.700
REMARK SMILES CCCCCCCCCCCCCCCCCCCCCCCCCCCC(=O)[O-]
REMARK SMILES IDX 15 1 16 2 17 3 18 4 19 5 20 6 21 7 22 8 23 9 24 10 25 11
REMARK SMILES IDX 26 12 27 13 28 14 29 15 30 16 14 17 13 18 12 19 11 20 10 21
REMARK SMILES IDX 9 22 8 23 7 24 6 25 5 26 4 27 3 28 2 29 1 30
REMARK H PARENT
REMARK Flexibility Score: inf
ROOT
ATOM      1  C   UNL     1      -0.566  -2.303   8.318  1.00  0.00     0.000 C 
ENDROOT
BRANCH   1   2
ATOM      2  C   UNL     1       0.198  -3.510   8.895  1.00  0.00     0.000 C 
BRANCH   2   3
ATOM      3  C   UNL     1       1.673  -3.544   8.464  1.00  0.00     0.000 C 
BRANCH   3   4
ATOM      4  C   UNL     1       1.812  -4.019   7.009  1.00  0.00     0.000 C 
BRANCH   4   5
ATOM      5  C   UNL     1       3.098  -3.510   6.334  1.00  0.00     0.000 C 
BRANCH   5   6
ATOM      6  C   UNL     1       2.902  -2.328   5.360  1.00  0.00     0.000 C 
BRANCH   6   7
ATOM      7  C   UNL     1       1.437  -1.921   5.107  1.00  0.00     0.000 C 
BRANCH   7   8
ATOM      8  C   UNL     1       1.043  -0.542   5.668  1.00  0.00     0.000 C 
BRANCH   8   9
ATOM      9  C   UNL     1       2.066   0.032   6.676  1.00  0.00     0.000 C 
BRANCH   9  10
ATOM     10  C   UNL     1       1.470   1.017   7.701  1.00  0.00     0.000 C 
BRANCH  10  11
ATOM     11  C   UNL     1       2.066   2.437   7.666  1.00  0.00     0.000 C 
BRANCH  11  12
ATOM     12  C   UNL     1       1.065   3.503   7.191  1.00  0.00     0.006 C 
BRANCH  12  13
ATOM     13  C   UNL     1       1.218   3.763   5.689  1.00  0.00     0.053 C 
BRANCH  13  14
ATOM     14  C   UNL     1       0.339   4.896   5.248  1.00  0.00     0.041 C 
ATOM     15  O   UNL     1       0.229   5.172   4.022  1.00  0.00    -0.550 OA
ATOM     16  O   UNL     1      -0.317   5.678   6.192  1.00  0.00    -0.550 OA
ENDBRANCH  13  14
ENDBRANCH  12  13
ENDBRANCH  11  12
ENDBRANCH  10  11
ENDBRANCH   9  10
ENDBRANCH   8   9
ENDBRANCH   7   8
ENDBRANCH   6   7
ENDBRANCH   5   6
ENDBRANCH   4   5
ENDBRANCH   3   4
ENDBRANCH   2   3
ENDBRANCH   1   2
BRANCH   1  17
ATOM     17  C   UNL     1      -1.567  -2.651   7.202  1.00  0.00     0.000 C 
BRANCH  17  18
ATOM     18  C   UNL     1      -2.371  -3.926   7.505  1.00  0.00     0.000 C 
BRANCH  18  19
ATOM     19  C   UNL     1      -3.883  -3.725   7.313  1.00  0.00     0.000 C 
BRANCH  19  20
ATOM     20  C   UNL     1      -4.356  -2.341   7.791  1.00  0.00     0.000 C 
BRANCH  20  21
ATOM     21  C   UNL     1      -5.198  -1.605   6.726  1.00  0.00     0.000 C 
BRANCH  21  22
ATOM     22  C   UNL     1      -5.578  -2.482   5.517  1.00  0.00    -0.000 C 
BRANCH  22  23
ATOM     23  C   UNL     1      -5.254  -1.869   4.143  1.00  0.00    -0.000 C 
BRANCH  23  24
ATOM     24  C   UNL     1      -4.080  -0.879   4.194  1.00  0.00    -0.000 C 
BRANCH  24  25
ATOM     25  C   UNL     1      -2.734  -1.614   4.186  1.00  0.00    -0.000 C 
BRANCH  25  26
ATOM     26  C   UNL     1      -2.727  -2.733   3.134  1.00  0.00    -0.000 C 
BRANCH  26  27
ATOM     27  C   UNL     1      -2.469  -4.121   3.743  1.00  0.00    -0.000 C 
BRANCH  27  28
ATOM     28  C   UNL     1      -3.311  -5.259   3.136  1.00  0.00    -0.000 C 
BRANCH  28  29
ATOM     29  C   UNL     1      -3.680  -5.032   1.654  1.00  0.00    -0.003 C 
ATOM     30  C   UNL     1      -2.888  -5.940   0.712  1.00  0.00     0.004 C 
ENDBRANCH  28  29
ENDBRANCH  27  28
ENDBRANCH  26  27
ENDBRANCH  25  26
ENDBRANCH  24  25
ENDBRANCH  23  24
ENDBRANCH  22  23
ENDBRANCH  21  22
ENDBRANCH  20  21
ENDBRANCH  19  20
ENDBRANCH  18  19
ENDBRANCH  17  18
ENDBRANCH   1  17
TORSDOF 26
ENDMDL
MODEL 5
REMARK VINA RESULT:    -4.282      1.260      2.229
REMARK INTER + INTRA:         -14.491
REMARK INTER:                 -10.610
REMARK INTRA:                  -3.881
REMARK UNBOUND:                -3.700
REMARK SMILES CCCCCCCCCCCCCCCCCCCCCCCCCCCC(=O)[O-]
REMARK SMILES IDX 15 1 16 2 17 3 18 4 19 5 20 6 21 7 22 8 23 9 24 10 25 11
REMARK SMILES IDX 26 12 27 13 28 14 29 15 30 16 14 17 13 18 12 19 11 20 10 21
REMARK SMILES IDX 9 22 8 23 7 24 6 25 5 26 4 27 3 28 2 29 1 30
REMARK H PARENT
REMARK Flexibility Score: inf
ROOT
ATOM      1  C   UNL     1       2.908  -3.548   7.319  1.00  0.00     0.000 C 
ENDROOT
BRANCH   1   2
ATOM      2  C   UNL     1       3.121  -3.348   5.806  1.00  0.00     0.000 C 
BRANCH   2   3
ATOM      3  C   UNL     1       2.413  -2.097   5.263  1.00  0.00     0.000 C 
BRANCH   3   4
ATOM      4  C   UNL     1       2.666  -0.883   6.170  1.00  0.00     0.000 C 
BRANCH   4   5
ATOM      5  C   UNL     1       1.367  -0.211   6.647  1.00  0.00     0.000 C 
BRANCH   5   6
ATOM      6  C   UNL     1       1.083  -0.336   8.160  1.00  0.00     0.000 C 
BRANCH   6   7
ATOM      7  C   UNL     1       2.228   0.129   9.083  1.00  0.00     0.000 C 
BRANCH   7   8
ATOM      8  C   UNL     1       2.034   1.527   9.698  1.00  0.00     0.000 C 
BRANCH   8   9
ATOM      9  C   UNL     1       0.616   2.106   9.487  1.00  0.00     0.000 C 
BRANCH   9  10
ATOM     10  C   UNL     1       0.542   3.263   8.471  1.00  0.00     0.000 C 
BRANCH  10  11
ATOM     11  C   UNL     1       1.717   3.335   7.476  1.00  0.00     0.000 C 
BRANCH  11  12
ATOM     12  C   UNL     1       1.351   4.032   6.156  1.00  0.00     0.006 C 
BRANCH  12  13
ATOM     13  C   UNL     1       0.107   4.909   6.329  1.00  0.00     0.053 C 
BRANCH  13  14
ATOM     14  C   UNL     1      -0.305   5.521   5.023  1.00  0.00     0.041 C 
ATOM     15  O   UNL     1      -1.251   6.354   4.984  1.00  0.00    -0.550 OA
ATOM     16  O   UNL     1       0.318   5.132   3.843  1.00  0.00    -0.550 OA
ENDBRANCH  13  14
ENDBRANCH  12  13
ENDBRANCH  11  12
ENDBRANCH  10  11
ENDBRANCH   9  10
ENDBRANCH   8   9
ENDBRANCH   7   8
ENDBRANCH   6   7
ENDBRANCH   5   6
ENDBRANCH   4   5
ENDBRANCH   3   4
ENDBRANCH   2   3
ENDBRANCH   1   2
BRANCH   1  17
ATOM     17  C   UNL     1       1.748  -4.490   7.685  1.00  0.00     0.000 C 
BRANCH  17  18
ATOM     18  C   UNL     1       0.914  -3.971   8.867  1.00  0.00     0.000 C 
BRANCH  18  19
ATOM     19  C   UNL     1      -0.450  -3.418   8.425  1.00  0.00     0.000 C 
BRANCH  19  20
ATOM     20  C   UNL     1      -0.752  -3.717   6.946  1.00  0.00     0.000 C 
BRANCH  20  21
ATOM     21  C   UNL     1      -1.665  -2.651   6.303  1.00  0.00     0.000 C 
BRANCH  21  22
ATOM     22  C   UNL     1      -1.192  -2.180   4.914  1.00  0.00    -0.000 C 
BRANCH  22  23
ATOM     23  C   UNL     1      -2.321  -1.869   3.915  1.00  0.00    -0.000 C 
BRANCH  23  24
ATOM     24  C   UNL     1      -2.929  -3.135   3.290  1.00  0.00    -0.000 C 
BRANCH  24  25
ATOM     25  C   UNL     1      -4.461  -3.065   3.282  1.00  0.00    -0.000 C 
BRANCH  25  26
ATOM     26  C   UNL     1      -4.956  -1.762   3.926  1.00  0.00    -0.000 C 
BRANCH  26  27
ATOM     27  C   UNL     1      -5.342  -1.937   5.403  1.00  0.00    -0.000 C 
BRANCH  27  28
ATOM     28  C   UNL     1      -5.317  -0.641   6.235  1.00  0.00    -0.000 C 
BRANCH  28  29
ATOM     29  C   UNL     1      -5.655  -0.857   7.726  1.00  0.00    -0.003 C 
ATOM     30  C   UNL     1      -4.826  -1.977   8.354  1.00  0.00     0.004 C 
ENDBRANCH  28  29
ENDBRANCH  27  28
ENDBRANCH  26  27
ENDBRANCH  25  26
ENDBRANCH  24  25
ENDBRANCH  23  24
ENDBRANCH  22  23
ENDBRANCH  21  22
ENDBRANCH  20  21
ENDBRANCH  19  20
ENDBRANCH  18  19
ENDBRANCH  17  18
ENDBRANCH   1  17
TORSDOF 26
ENDMDL
MODEL 6
REMARK VINA RESULT:    -4.257      1.790      2.915
REMARK INTER + INTRA:         -14.428
REMARK INTER:                 -10.053
REMARK INTRA:                  -4.375
REMARK UNBOUND:                -3.700
REMARK SMILES CCCCCCCCCCCCCCCCCCCCCCCCCCCC(=O)[O-]
REMARK SMILES IDX 15 1 16 2 17 3 18 4 19 5 20 6 21 7 22 8 23 9 24 10 25 11
REMARK SMILES IDX 26 12 27 13 28 14 29 15 30 16 14 17 13 18 12 19 11 20 10 21
REMARK SMILES IDX 9 22 8 23 7 24 6 25 5 26 4 27 3 28 2 29 1 30
REMARK H PARENT
REMARK Flexibility Score: inf
ROOT
ATOM      1  C   UNL     1       1.481  -1.378   5.216  1.00  0.00     0.000 C 
ENDROOT
BRANCH   1   2
ATOM      2  C   UNL     1       2.560  -2.473   5.316  1.00  0.00     0.000 C 
BRANCH   2   3
ATOM      3  C   UNL     1       3.986  -1.923   5.148  1.00  0.00     0.000 C 
BRANCH   3   4
ATOM      4  C   UNL     1       4.727  -1.893   6.493  1.00  0.00     0.000 C 
BRANCH   4   5
ATOM      5  C   UNL     1       3.921  -2.536   7.635  1.00  0.00     0.000 C 
BRANCH   5   6
ATOM      6  C   UNL     1       3.696  -1.633   8.867  1.00  0.00     0.000 C 
BRANCH   6   7
ATOM      7  C   UNL     1       2.500  -0.666   8.763  1.00  0.00     0.000 C 
BRANCH   7   8
ATOM      8  C   UNL     1       2.819   0.688   8.101  1.00  0.00     0.000 C 
BRANCH   8   9
ATOM      9  C   UNL     1       1.564   1.458   7.629  1.00  0.00     0.000 C 
BRANCH   9  10
ATOM     10  C   UNL     1       1.831   2.915   7.203  1.00  0.00     0.000 C 
BRANCH  10  11
ATOM     11  C   UNL     1       0.664   3.892   7.447  1.00  0.00     0.000 C 
BRANCH  11  12
ATOM     12  C   UNL     1       0.524   4.955   6.345  1.00  0.00     0.006 C 
BRANCH  12  13
ATOM     13  C   UNL     1       1.055   4.428   5.008  1.00  0.00     0.053 C 
BRANCH  13  14
ATOM     14  C   UNL     1       1.967   5.427   4.361  1.00  0.00     0.041 C 
ATOM     15  O   UNL     1       1.491   6.460   3.815  1.00  0.00    -0.550 OA
ATOM     16  O   UNL     1       3.337   5.193   4.313  1.00  0.00    -0.550 OA
ENDBRANCH  13  14
ENDBRANCH  12  13
ENDBRANCH  11  12
ENDBRANCH  10  11
ENDBRANCH   9  10
ENDBRANCH   8   9
ENDBRANCH   7   8
ENDBRANCH   6   7
ENDBRANCH   5   6
ENDBRANCH   4   5
ENDBRANCH   3   4
ENDBRANCH   2   3
ENDBRANCH   1   2
BRANCH   1  17
ATOM     17  C   UNL     1       0.185  -1.681   5.988  1.00  0.00     0.000 C 
BRANCH  17  18
ATOM     18  C   UNL     1       0.252  -3.010   6.757  1.00  0.00     0.000 C 
BRANCH  18  19
ATOM     19  C   UNL     1      -1.129  -3.666   6.916  1.00  0.00     0.000 C 
BRANCH  19  20
ATOM     20  C   UNL     1      -2.140  -2.741   7.617  1.00  0.00     0.000 C 
BRANCH  20  21
ATOM     21  C   UNL     1      -3.591  -3.257   7.500  1.00  0.00     0.000 C 
BRANCH  21  22
ATOM     22  C   UNL     1      -3.714  -4.614   6.780  1.00  0.00    -0.000 C 
BRANCH  22  23
ATOM     23  C   UNL     1      -4.984  -4.782   5.928  1.00  0.00    -0.000 C 
BRANCH  23  24
ATOM     24  C   UNL     1      -4.687  -5.298   4.510  1.00  0.00    -0.000 C 
BRANCH  24  25
ATOM     25  C   UNL     1      -3.222  -5.054   4.128  1.00  0.00    -0.000 C 
BRANCH  25  26
ATOM     26  C   UNL     1      -3.115  -4.040   2.980  1.00  0.00    -0.000 C 
BRANCH  26  27
ATOM     27  C   UNL     1      -2.094  -2.926   3.263  1.00  0.00    -0.000 C 
BRANCH  27  28
ATOM     28  C   UNL     1      -2.634  -1.753   4.103  1.00  0.00    -0.000 C 
BRANCH  28  29
ATOM     29  C   UNL     1      -4.151  -1.519   3.933  1.00  0.00    -0.003 C 
ATOM     30  C   UNL     1      -4.748  -0.711   5.086  1.00  0.00     0.004 C 
ENDBRANCH  28  29
ENDBRANCH  27  28
ENDBRANCH  26  27
ENDBRANCH  25  26
ENDBRANCH  24  25
ENDBRANCH  23  24
ENDBRANCH  22  23
ENDBRANCH  21  22
ENDBRANCH  20  21
ENDBRANCH  19  20
ENDBRANCH  18  19
ENDBRANCH  17  18
ENDBRANCH   1  17
TORSDOF 26
ENDMDL
MODEL 7
REMARK VINA RESULT:    -4.256      1.230      2.238
REMARK INTER + INTRA:         -14.426
REMARK INTER:                 -10.167
REMARK INTRA:                  -4.259
REMARK UNBOUND:                -3.700
REMARK SMILES CCCCCCCCCCCCCCCCCCCCCCCCCCCC(=O)[O-]
REMARK SMILES IDX 15 1 16 2 17 3 18 4 19 5 20 6 21 7 22 8 23 9 24 10 25 11
REMARK SMILES IDX 26 12 27 13 28 14 29 15 30 16 14 17 13 18 12 19 11 20 10 21
REMARK SMILES IDX 9 22 8 23 7 24 6 25 5 26 4 27 3 28 2 29 1 30
REMARK H PARENT
REMARK Flexibility Score: inf
ROOT
ATOM      1  C   UNL     1      -0.682  -2.220   7.395  1.00  0.00     0.000 C 
ENDROOT
BRANCH   1   2
ATOM      2  C   UNL     1       0.145  -2.897   6.284  1.00  0.00     0.000 C 
BRANCH   2   3
ATOM      3  C   UNL     1       0.757  -1.889   5.298  1.00  0.00     0.000 C 
BRANCH   3   4
ATOM      4  C   UNL     1       2.272  -2.102   5.162  1.00  0.00     0.000 C 
BRANCH   4   5
ATOM      5  C   UNL     1       2.870  -2.908   6.329  1.00  0.00     0.000 C 
BRANCH   5   6
ATOM      6  C   UNL     1       4.101  -2.266   7.005  1.00  0.00     0.000 C 
BRANCH   6   7
ATOM      7  C   UNL     1       3.823  -0.954   7.766  1.00  0.00     0.000 C 
BRANCH   7   8
ATOM      8  C   UNL     1       2.570  -0.980   8.661  1.00  0.00     0.000 C 
BRANCH   8   9
ATOM      9  C   UNL     1       1.627   0.227   8.443  1.00  0.00     0.000 C 
BRANCH   9  10
ATOM     10  C   UNL     1       1.957   1.079   7.202  1.00  0.00     0.000 C 
BRANCH  10  11
ATOM     11  C   UNL     1       1.420   2.523   7.240  1.00  0.00     0.000 C 
BRANCH  11  12
ATOM     12  C   UNL     1       1.310   3.165   5.847  1.00  0.00     0.006 C 
BRANCH  12  13
ATOM     13  C   UNL     1       1.288   4.693   5.951  1.00  0.00     0.053 C 
BRANCH  13  14
ATOM     14  C   UNL     1       0.805   5.312   4.673  1.00  0.00     0.041 C 
ATOM     15  O   UNL     1       1.633   5.669   3.790  1.00  0.00    -0.550 OA
ATOM     16  O   UNL     1      -0.552   5.542   4.478  1.00  0.00    -0.550 OA
ENDBRANCH  13  14
ENDBRANCH  12  13
ENDBRANCH  11  12
ENDBRANCH  10  11
ENDBRANCH   9  10
ENDBRANCH   8   9
ENDBRANCH   7   8
ENDBRANCH   6   7
ENDBRANCH   5   6
ENDBRANCH   4   5
ENDBRANCH   3   4
ENDBRANCH   2   3
ENDBRANCH   1   2
BRANCH   1  17
ATOM     17  C   UNL     1      -1.896  -3.033   7.878  1.00  0.00     0.000 C 
BRANCH  17  18
ATOM     18  C   UNL     1      -1.521  -4.462   8.301  1.00  0.00     0.000 C 
BRANCH  18  19
ATOM     19  C   UNL     1      -2.258  -5.531   7.478  1.00  0.00     0.000 C 
BRANCH  19  20
ATOM     20  C   UNL     1      -3.594  -5.016   6.913  1.00  0.00     0.000 C 
BRANCH  20  21
ATOM     21  C   UNL     1      -3.745  -5.302   5.403  1.00  0.00     0.000 C 
BRANCH  21  22
ATOM     22  C   UNL     1      -2.510  -4.909   4.568  1.00  0.00    -0.000 C 
BRANCH  22  23
ATOM     23  C   UNL     1      -2.824  -4.191   3.244  1.00  0.00    -0.000 C 
BRANCH  23  24
ATOM     24  C   UNL     1      -2.262  -2.761   3.193  1.00  0.00    -0.000 C 
BRANCH  24  25
ATOM     25  C   UNL     1      -2.824  -1.905   4.334  1.00  0.00    -0.000 C 
BRANCH  25  26
ATOM     26  C   UNL     1      -4.138  -1.227   3.917  1.00  0.00    -0.000 C 
BRANCH  26  27
ATOM     27  C   UNL     1      -5.341  -1.697   4.752  1.00  0.00    -0.000 C 
BRANCH  27  28
ATOM     28  C   UNL     1      -5.124  -1.657   6.276  1.00  0.00    -0.000 C 
BRANCH  28  29
ATOM     29  C   UNL     1      -5.665  -0.373   6.943  1.00  0.00    -0.003 C 
ATOM     30  C   UNL     1      -7.182  -0.240   6.804  1.00  0.00     0.004 C 
ENDBRANCH  28  29
ENDBRANCH  27  28
ENDBRANCH  26  27
ENDBRANCH  25  26
ENDBRANCH  24  25
ENDBRANCH  23  24
ENDBRANCH  22  23
ENDBRANCH  21  22
ENDBRANCH  20  21
ENDBRANCH  19  20
ENDBRANCH  18  19
ENDBRANCH  17  18
ENDBRANCH   1  17
TORSDOF 26
ENDMDL
MODEL 8
REMARK VINA RESULT:    -4.162      2.198      3.805
REMARK INTER + INTRA:         -14.189
REMARK INTER:                 -10.685
REMARK INTRA:                  -3.504
REMARK UNBOUND:                -3.700
REMARK SMILES CCCCCCCCCCCCCCCCCCCCCCCCCCCC(=O)[O-]
REMARK SMILES IDX 15 1 16 2 17 3 18 4 19 5 20 6 21 7 22 8 23 9 24 10 25 11
REMARK SMILES IDX 26 12 27 13 28 14 29 15 30 16 14 17 13 18 12 19 11 20 10 21
REMARK SMILES IDX 9 22 8 23 7 24 6 25 5 26 4 27 3 28 2 29 1 30
REMARK H PARENT
REMARK Flexibility Score: inf
ROOT
ATOM      1  C   UNL     1       1.605  -3.842   6.755  1.00  0.00     0.000 C 
ENDROOT
BRANCH   1   2
ATOM      2  C   UNL     1       3.025  -3.366   6.394  1.00  0.00     0.000 C 
BRANCH   2   3
ATOM      3  C   UNL     1       3.026  -2.129   5.482  1.00  0.00     0.000 C 
BRANCH   3   4
ATOM      4  C   UNL     1       1.603  -1.581   5.295  1.00  0.00     0.000 C 
BRANCH   4   5
ATOM      5  C   UNL     1       1.420  -0.178   5.900  1.00  0.00     0.000 C 
BRANCH   5   6
ATOM      6  C   UNL     1       1.765  -0.062   7.401  1.00  0.00     0.000 C 
BRANCH   6   7
ATOM      7  C   UNL     1       2.137   1.355   7.882  1.00  0.00     0.000 C 
BRANCH   7   8
ATOM      8  C   UNL     1       1.063   2.047   8.743  1.00  0.00     0.000 C 
BRANCH   8   9
ATOM      9  C   UNL     1       0.564   3.386   8.153  1.00  0.00     0.000 C 
BRANCH   9  10
ATOM     10  C   UNL     1       1.052   3.675   6.720  1.00  0.00     0.000 C 
BRANCH  10  11
ATOM     11  C   UNL     1       0.387   4.884   6.034  1.00  0.00     0.000 C 
BRANCH  11  12
ATOM     12  C   UNL     1       0.750   5.011   4.546  1.00  0.00     0.006 C 
BRANCH  12  13
ATOM     13  C   UNL     1       2.262   4.876   4.339  1.00  0.00     0.053 C 
BRANCH  13  14
ATOM     14  C   UNL     1       2.663   5.357   2.976  1.00  0.00     0.041 C 
ATOM     15  O   UNL     1       2.302   6.497   2.575  1.00  0.00    -0.550 OA
ATOM     16  O   UNL     1       3.390   4.528   2.130  1.00  0.00    -0.550 OA
ENDBRANCH  13  14
ENDBRANCH  12  13
ENDBRANCH  11  12
ENDBRANCH  10  11
ENDBRANCH   9  10
ENDBRANCH   8   9
ENDBRANCH   7   8
ENDBRANCH   6   7
ENDBRANCH   5   6
ENDBRANCH   4   5
ENDBRANCH   3   4
ENDBRANCH   2   3
ENDBRANCH   1   2
BRANCH   1  17
ATOM     17  C   UNL     1       1.312  -3.902   8.265  1.00  0.00     0.000 C 
BRANCH  17  18
ATOM     18  C   UNL     1      -0.182  -3.734   8.585  1.00  0.00     0.000 C 
BRANCH  18  19
ATOM     19  C   UNL     1      -0.821  -2.572   7.808  1.00  0.00     0.000 C 
BRANCH  19  20
ATOM     20  C   UNL     1      -2.220  -2.925   7.271  1.00  0.00     0.000 C 
BRANCH  20  21
ATOM     21  C   UNL     1      -2.161  -3.717   5.948  1.00  0.00     0.000 C 
BRANCH  21  22
ATOM     22  C   UNL     1      -1.495  -2.948   4.790  1.00  0.00    -0.000 C 
BRANCH  22  23
ATOM     23  C   UNL     1      -2.082  -1.552   4.516  1.00  0.00    -0.000 C 
BRANCH  23  24
ATOM     24  C   UNL     1      -3.364  -1.600   3.669  1.00  0.00    -0.000 C 
BRANCH  24  25
ATOM     25  C   UNL     1      -4.611  -1.688   4.557  1.00  0.00    -0.000 C 
BRANCH  25  26
ATOM     26  C   UNL     1      -5.763  -2.385   3.819  1.00  0.00    -0.000 C 
BRANCH  26  27
ATOM     27  C   UNL     1      -5.455  -3.854   3.486  1.00  0.00    -0.000 C 
BRANCH  27  28
ATOM     28  C   UNL     1      -5.444  -4.186   1.982  1.00  0.00    -0.000 C 
BRANCH  28  29
ATOM     29  C   UNL     1      -4.143  -4.873   1.511  1.00  0.00    -0.003 C 
ATOM     30  C   UNL     1      -3.223  -5.238   2.676  1.00  0.00     0.004 C 
ENDBRANCH  28  29
ENDBRANCH  27  28
ENDBRANCH  26  27
ENDBRANCH  25  26
ENDBRANCH  24  25
ENDBRANCH  23  24
ENDBRANCH  22  23
ENDBRANCH  21  22
ENDBRANCH  20  21
ENDBRANCH  19  20
ENDBRANCH  18  19
ENDBRANCH  17  18
ENDBRANCH   1  17
TORSDOF 26
ENDMDL
MODEL 9
REMARK VINA RESULT:    -4.158      1.512      2.861
REMARK INTER + INTRA:         -14.179
REMARK INTER:                 -10.851
REMARK INTRA:                  -3.329
REMARK UNBOUND:                -3.700
REMARK SMILES CCCCCCCCCCCCCCCCCCCCCCCCCCCC(=O)[O-]
REMARK SMILES IDX 15 1 16 2 17 3 18 4 19 5 20 6 21 7 22 8 23 9 24 10 25 11
REMARK SMILES IDX 26 12 27 13 28 14 29 15 30 16 14 17 13 18 12 19 11 20 10 21
REMARK SMILES IDX 9 22 8 23 7 24 6 25 5 26 4 27 3 28 2 29 1 30
REMARK H PARENT
REMARK Flexibility Score: inf
ROOT
ATOM      1  C   UNL     1       0.005  -2.192   6.532  1.00  0.00     0.000 C 
ENDROOT
BRANCH   1   2
ATOM      2  C   UNL     1       0.770  -1.610   5.327  1.00  0.00     0.000 C 
BRANCH   2   3
ATOM      3  C   UNL     1       2.257  -1.999   5.320  1.00  0.00     0.000 C 
BRANCH   3   4
ATOM      4  C   UNL     1       2.534  -3.137   6.314  1.00  0.00     0.000 C 
BRANCH   4   5
ATOM      5  C   UNL     1       3.508  -2.730   7.433  1.00  0.00     0.000 C 
BRANCH   5   6
ATOM      6  C   UNL     1       4.281  -1.417   7.182  1.00  0.00     0.000 C 
BRANCH   6   7
ATOM      7  C   UNL     1       3.911  -0.248   8.116  1.00  0.00     0.000 C 
BRANCH   7   8
ATOM      8  C   UNL     1       2.485  -0.312   8.697  1.00  0.00     0.000 C 
BRANCH   8   9
ATOM      9  C   UNL     1       1.526   0.746   8.103  1.00  0.00     0.000 C 
BRANCH   9  10
ATOM     10  C   UNL     1       2.228   1.905   7.369  1.00  0.00     0.000 C 
BRANCH  10  11
ATOM     11  C   UNL     1       1.297   2.822   6.553  1.00  0.00     0.000 C 
BRANCH  11  12
ATOM     12  C   UNL     1       0.931   4.122   7.288  1.00  0.00     0.006 C 
BRANCH  12  13
ATOM     13  C   UNL     1       0.160   5.072   6.365  1.00  0.00     0.053 C 
BRANCH  13  14
ATOM     14  C   UNL     1       0.883   5.261   5.064  1.00  0.00     0.041 C 
ATOM     15  O   UNL     1       0.300   5.010   3.974  1.00  0.00    -0.550 OA
ATOM     16  O   UNL     1       2.213   5.662   5.057  1.00  0.00    -0.550 OA
ENDBRANCH  13  14
ENDBRANCH  12  13
ENDBRANCH  11  12
ENDBRANCH  10  11
ENDBRANCH   9  10
ENDBRANCH   8   9
ENDBRANCH   7   8
ENDBRANCH   6   7
ENDBRANCH   5   6
ENDBRANCH   4   5
ENDBRANCH   3   4
ENDBRANCH   2   3
ENDBRANCH   1   2
BRANCH   1  17
ATOM     17  C   UNL     1      -1.441  -2.622   6.228  1.00  0.00     0.000 C 
BRANCH  17  18
ATOM     18  C   UNL     1      -1.517  -3.730   5.166  1.00  0.00     0.000 C 
BRANCH  18  19
ATOM     19  C   UNL     1      -2.512  -3.398   4.042  1.00  0.00     0.000 C 
BRANCH  19  20
ATOM     20  C   UNL     1      -2.614  -1.886   3.777  1.00  0.00     0.000 C 
BRANCH  20  21
ATOM     21  C   UNL     1      -4.076  -1.392   3.730  1.00  0.00     0.000 C 
BRANCH  21  22
ATOM     22  C   UNL     1      -4.547  -0.715   5.032  1.00  0.00    -0.000 C 
BRANCH  22  23
ATOM     23  C   UNL     1      -5.158  -1.670   6.074  1.00  0.00    -0.000 C 
BRANCH  23  24
ATOM     24  C   UNL     1      -5.615  -0.945   7.350  1.00  0.00    -0.000 C 
BRANCH  24  25
ATOM     25  C   UNL     1      -6.003   0.508   7.053  1.00  0.00    -0.000 C 
BRANCH  25  26
ATOM     26  C   UNL     1      -7.383   0.839   7.639  1.00  0.00    -0.000 C 
BRANCH  26  27
ATOM     27  C   UNL     1      -8.373  -0.332   7.529  1.00  0.00    -0.000 C 
BRANCH  27  28
ATOM     28  C   UNL     1      -9.596  -0.062   6.631  1.00  0.00    -0.000 C 
BRANCH  28  29
ATOM     29  C   UNL     1      -9.914  -1.217   5.657  1.00  0.00    -0.003 C 
ATOM     30  C   UNL     1      -8.663  -2.000   5.255  1.00  0.00     0.004 C 
ENDBRANCH  28  29
ENDBRANCH  27  28
ENDBRANCH  26  27
ENDBRANCH  25  26
ENDBRANCH  24  25
ENDBRANCH  23  24
ENDBRANCH  22  23
ENDBRANCH  21  22
ENDBRANCH  20  21
ENDBRANCH  19  20
ENDBRANCH  18  19
ENDBRANCH  17  18
ENDBRANCH   1  17
TORSDOF 26
ENDMDL
