MODEL 1
REMARK VINA RESULT:    -6.152      0.000      0.000
REMARK INTER + INTRA:         -10.517
REMARK INTER:                  -8.489
REMARK INTRA:                  -2.028
REMARK UNBOUND:                -2.028
REMARK SMILES CC[C@H](CC[C@@H](C)[C@@H]1CC[C@@H]2C3=CC[C@H]4C[C@@H](O)CC[C@]4(C)[C@H]3CC[C@@]21C)C(C)C
REMARK SMILES IDX 5 1 4 2 3 3 2 4 1 5 28 6 29 7 30 8 6 9 7 10 8 11 9 12 26 13
REMARK SMILES IDX 10 14 11 15 25 16 27 17 12 18 24 19 23 20 13 21 21 22 14 23
REMARK SMILES IDX 15 24 20 25 22 26 16 27 19 28 17 29 18 30
REMARK H PARENT 18 31
REMARK Flexibility Score: inf
ROOT
ATOM      1  C   UNL     1      16.992 -14.643  16.832  1.00  0.00     0.004 C 
ENDROOT
BRANCH   1   2
ATOM      2  C   UNL     1      17.844 -15.860  17.284  1.00  0.00     0.004 C 
BRANCH   2   3
ATOM      3  C   UNL     1      19.286 -15.470  17.718  1.00  0.00    -0.009 C 
BRANCH   3   4
ATOM      4  C   UNL     1      19.536 -13.929  17.785  1.00  0.00     0.000 C 
ATOM      5  C   UNL     1      20.772 -13.483  18.575  1.00  0.00     0.004 C 
ENDBRANCH   3   4
BRANCH   3   6
ATOM      6  C   UNL     1      19.732 -16.258  18.996  1.00  0.00    -0.014 C 
ATOM      7  C   UNL     1      18.595 -17.125  19.562  1.00  0.00     0.007 C 
ATOM      8  C   UNL     1      20.997 -17.103  18.798  1.00  0.00     0.007 C 
ENDBRANCH   3   6
ENDBRANCH   2   3
ENDBRANCH   1   2
BRANCH   1   9
ATOM      9  C   UNL     1      15.724 -14.418  17.697  1.00  0.00    -0.011 C 
ATOM     10  C   UNL     1      14.483 -14.599  16.801  1.00  0.00     0.008 C 
BRANCH   9  11
ATOM     11  C   UNL     1      15.747 -15.323  18.985  1.00  0.00    -0.002 C 
ATOM     12  C   UNL     1      14.618 -16.352  19.140  1.00  0.00     0.005 C 
ATOM     13  C   UNL     1      15.836 -14.600  20.356  1.00  0.00    -0.023 C 
ATOM     14  C   UNL     1      14.557 -16.682  20.635  1.00  0.00     0.009 C 
ATOM     15  C   UNL     1      15.575 -15.766  21.335  1.00  0.00     0.021 C 
ATOM     16  C   UNL     1      14.750 -13.497  20.506  1.00  0.00     0.008 C 
ATOM     17  C   UNL     1      17.254 -14.012  20.575  1.00  0.00     0.012 C 
ATOM     18  C   UNL     1      15.120 -15.350  22.729  1.00  0.00    -0.067 C 
ATOM     19  C   UNL     1      14.616 -13.001  21.946  1.00  0.00     0.009 C 
ATOM     20  C   UNL     1      14.189 -14.147  22.892  1.00  0.00     0.021 C 
ATOM     21  C   UNL     1      15.362 -16.200  23.753  1.00  0.00    -0.027 C 
ATOM     22  C   UNL     1      14.015 -13.696  24.391  1.00  0.00    -0.023 C 
ATOM     23  C   UNL     1      14.894 -15.967  25.163  1.00  0.00     0.031 C 
ATOM     24  C   UNL     1      13.711 -14.989  25.217  1.00  0.00     0.002 C 
ATOM     25  C   UNL     1      12.796 -12.731  24.518  1.00  0.00     0.010 C 
ATOM     26  C   UNL     1      15.299 -12.975  24.898  1.00  0.00     0.012 C 
ATOM     27  C   UNL     1      13.293 -14.705  26.674  1.00  0.00     0.036 C 
ATOM     28  C   UNL     1      12.399 -12.454  25.976  1.00  0.00     0.032 C 
ATOM     29  C   UNL     1      12.088 -13.753  26.725  1.00  0.00     0.114 C 
BRANCH  29  30
ATOM     30  O   UNL     1      11.777 -13.452  28.060  1.00  0.00    -0.393 OA
ATOM     31  H   UNL     1      12.300 -14.079  28.624  1.00  0.00     0.210 HD
ENDBRANCH  29  30
ENDBRANCH   9  11
ENDBRANCH   1   9
TORSDOF 7
ENDMDL
MODEL 2
REMARK VINA RESULT:    -6.049      4.270      7.377
REMARK INTER + INTRA:         -10.375
REMARK INTER:                  -8.677
REMARK INTRA:                  -1.698
REMARK UNBOUND:                -2.028
REMARK SMILES CC[C@H](CC[C@@H](C)[C@@H]1CC[C@@H]2C3=CC[C@H]4C[C@@H](O)CC[C@]4(C)[C@H]3CC[C@@]21C)C(C)C
REMARK SMILES IDX 5 1 4 2 3 3 2 4 1 5 28 6 29 7 30 8 6 9 7 10 8 11 9 12 26 13
REMARK SMILES IDX 10 14 11 15 25 16 27 17 12 18 24 19 23 20 13 21 21 22 14 23
REMARK SMILES IDX 15 24 20 25 22 26 16 27 19 28 17 29 18 30
REMARK H PARENT 18 31
REMARK Flexibility Score: inf
ROOT
ATOM      1  C   UNL     1      16.218 -12.701  23.747  1.00  0.00     0.004 C 
ENDROOT
BRANCH   1   2
ATOM      2  C   UNL     1      16.612 -14.177  23.470  1.00  0.00     0.004 C 
BRANCH   2   3
ATOM      3  C   UNL     1      16.773 -15.022  24.766  1.00  0.00    -0.009 C 
BRANCH   3   4
ATOM      4  C   UNL     1      16.824 -14.172  26.077  1.00  0.00     0.000 C 
ATOM      5  C   UNL     1      18.142 -13.439  26.352  1.00  0.00     0.004 C 
ENDBRANCH   3   4
BRANCH   3   6
ATOM      6  C   UNL     1      15.759 -16.214  24.803  1.00  0.00    -0.014 C 
ATOM      7  C   UNL     1      14.577 -15.934  25.746  1.00  0.00     0.007 C 
ATOM      8  C   UNL     1      15.246 -16.640  23.421  1.00  0.00     0.007 C 
ENDBRANCH   3   6
ENDBRANCH   2   3
ENDBRANCH   1   2
BRANCH   1   9
ATOM      9  C   UNL     1      14.733 -12.385  23.432  1.00  0.00    -0.011 C 
ATOM     10  C   UNL     1      14.242 -13.368  22.352  1.00  0.00     0.008 C 
BRANCH   9  11
ATOM     11  C   UNL     1      13.867 -12.360  24.747  1.00  0.00    -0.002 C 
ATOM     12  C   UNL     1      12.558 -13.163  24.740  1.00  0.00     0.005 C 
ATOM     13  C   UNL     1      13.492 -10.968  25.322  1.00  0.00    -0.023 C 
ATOM     14  C   UNL     1      11.691 -12.557  25.849  1.00  0.00     0.009 C 
ATOM     15  C   UNL     1      12.464 -11.351  26.408  1.00  0.00     0.021 C 
ATOM     16  C   UNL     1      12.846 -10.047  24.247  1.00  0.00     0.008 C 
ATOM     17  C   UNL     1      14.730 -10.286  25.959  1.00  0.00     0.012 C 
ATOM     18  C   UNL     1      11.539 -10.222  26.850  1.00  0.00    -0.067 C 
ATOM     19  C   UNL     1      12.187  -8.809  24.858  1.00  0.00     0.009 C 
ATOM     20  C   UNL     1      11.044  -9.205  25.820  1.00  0.00     0.021 C 
ATOM     21  C   UNL     1      10.996 -10.297  28.087  1.00  0.00    -0.027 C 
ATOM     22  C   UNL     1      10.311  -7.972  26.469  1.00  0.00    -0.023 C 
ATOM     23  C   UNL     1       9.999  -9.307  28.624  1.00  0.00     0.031 C 
ATOM     24  C   UNL     1       9.284  -8.549  27.497  1.00  0.00     0.002 C 
ATOM     25  C   UNL     1       9.525  -7.184  25.375  1.00  0.00     0.010 C 
ATOM     26  C   UNL     1      11.339  -7.022  27.152  1.00  0.00     0.012 C 
ATOM     27  C   UNL     1       8.319  -7.489  28.067  1.00  0.00     0.036 C 
ATOM     28  C   UNL     1       8.576  -6.127  25.962  1.00  0.00     0.032 C 
ATOM     29  C   UNL     1       7.579  -6.755  26.939  1.00  0.00     0.114 C 
BRANCH  29  30
ATOM     30  O   UNL     1       6.767  -5.746  27.481  1.00  0.00    -0.393 OA
ATOM     31  H   UNL     1       7.223  -4.884  27.296  1.00  0.00     0.210 HD
ENDBRANCH  29  30
ENDBRANCH   9  11
ENDBRANCH   1   9
TORSDOF 7
ENDMDL
MODEL 3
REMARK VINA RESULT:    -6.049      0.604      1.579
REMARK INTER + INTRA:         -10.375
REMARK INTER:                  -8.618
REMARK INTRA:                  -1.756
REMARK UNBOUND:                -2.028
REMARK SMILES CC[C@H](CC[C@@H](C)[C@@H]1CC[C@@H]2C3=CC[C@H]4C[C@@H](O)CC[C@]4(C)[C@H]3CC[C@@]21C)C(C)C
REMARK SMILES IDX 5 1 4 2 3 3 2 4 1 5 28 6 29 7 30 8 6 9 7 10 8 11 9 12 26 13
REMARK SMILES IDX 10 14 11 15 25 16 27 17 12 18 24 19 23 20 13 21 21 22 14 23
REMARK SMILES IDX 15 24 20 25 22 26 16 27 19 28 17 29 18 30
REMARK H PARENT 18 31
REMARK Flexibility Score: inf
ROOT
ATOM      1  C   UNL     1      16.644 -15.474  16.619  1.00  0.00     0.004 C 
ENDROOT
BRANCH   1   2
ATOM      2  C   UNL     1      18.007 -14.769  16.389  1.00  0.00     0.004 C 
BRANCH   2   3
ATOM      3  C   UNL     1      18.903 -14.736  17.660  1.00  0.00    -0.009 C 
BRANCH   3   4
ATOM      4  C   UNL     1      19.772 -16.020  17.859  1.00  0.00     0.000 C 
ATOM      5  C   UNL     1      19.154 -17.120  18.730  1.00  0.00     0.004 C 
ENDBRANCH   3   4
BRANCH   3   6
ATOM      6  C   UNL     1      19.697 -13.390  17.766  1.00  0.00    -0.014 C 
ATOM      7  C   UNL     1      18.781 -12.210  18.131  1.00  0.00     0.007 C 
ATOM      8  C   UNL     1      20.896 -13.448  18.723  1.00  0.00     0.007 C 
ENDBRANCH   3   6
ENDBRANCH   2   3
ENDBRANCH   1   2
BRANCH   1   9
ATOM      9  C   UNL     1      15.773 -14.801  17.713  1.00  0.00    -0.011 C 
ATOM     10  C   UNL     1      14.403 -14.453  17.101  1.00  0.00     0.008 C 
BRANCH   9  11
ATOM     11  C   UNL     1      15.712 -15.685  19.014  1.00  0.00    -0.002 C 
ATOM     12  C   UNL     1      14.502 -16.617  19.172  1.00  0.00     0.005 C 
ATOM     13  C   UNL     1      15.847 -14.951  20.375  1.00  0.00    -0.023 C 
ATOM     14  C   UNL     1      14.401 -16.918  20.671  1.00  0.00     0.009 C 
ATOM     15  C   UNL     1      15.484 -16.076  21.368  1.00  0.00     0.021 C 
ATOM     16  C   UNL     1      14.853 -13.761  20.498  1.00  0.00     0.008 C 
ATOM     17  C   UNL     1      17.306 -14.476  20.600  1.00  0.00     0.012 C 
ATOM     18  C   UNL     1      15.052 -15.604  22.751  1.00  0.00    -0.067 C 
ATOM     19  C   UNL     1      14.747 -13.234  21.930  1.00  0.00     0.009 C 
ATOM     20  C   UNL     1      14.220 -14.327  22.888  1.00  0.00     0.021 C 
ATOM     21  C   UNL     1      15.215 -16.456  23.790  1.00  0.00    -0.027 C 
ATOM     22  C   UNL     1      14.070 -13.842  24.379  1.00  0.00    -0.023 C 
ATOM     23  C   UNL     1      14.755 -16.164  25.192  1.00  0.00     0.031 C 
ATOM     24  C   UNL     1      13.655 -15.093  25.219  1.00  0.00     0.002 C 
ATOM     25  C   UNL     1      12.932 -12.780  24.479  1.00  0.00     0.010 C 
ATOM     26  C   UNL     1      15.404 -13.219  24.888  1.00  0.00     0.012 C 
ATOM     27  C   UNL     1      13.248 -14.754  26.669  1.00  0.00     0.036 C 
ATOM     28  C   UNL     1      12.546 -12.449  25.929  1.00  0.00     0.032 C 
ATOM     29  C   UNL     1      12.124 -13.707  26.694  1.00  0.00     0.114 C 
BRANCH  29  30
ATOM     30  O   UNL     1      11.827 -13.361  28.021  1.00  0.00    -0.393 OA
ATOM     31  H   UNL     1      11.187 -14.041  28.357  1.00  0.00     0.210 HD
ENDBRANCH  29  30
ENDBRANCH   9  11
ENDBRANCH   1   9
TORSDOF 7
ENDMDL
MODEL 4
REMARK VINA RESULT:    -5.853      4.292     10.639
REMARK INTER + INTRA:         -10.104
REMARK INTER:                  -9.195
REMARK INTRA:                  -0.910
REMARK UNBOUND:                -2.028
REMARK SMILES CC[C@H](CC[C@@H](C)[C@@H]1CC[C@@H]2C3=CC[C@H]4C[C@@H](O)CC[C@]4(C)[C@H]3CC[C@@]21C)C(C)C
REMARK SMILES IDX 5 1 4 2 3 3 2 4 1 5 28 6 29 7 30 8 6 9 7 10 8 11 9 12 26 13
REMARK SMILES IDX 10 14 11 15 25 16 27 17 12 18 24 19 23 20 13 21 21 22 14 23
REMARK SMILES IDX 15 24 20 25 22 26 16 27 19 28 17 29 18 30
REMARK H PARENT 18 31
REMARK Flexibility Score: inf
ROOT
ATOM      1  C   UNL     1      10.140  -8.182  27.555  1.00  0.00     0.004 C 
ENDROOT
BRANCH   1   2
ATOM      2  C   UNL     1       9.514  -9.256  28.485  1.00  0.00     0.004 C 
BRANCH   2   3
ATOM      3  C   UNL     1       8.850  -8.654  29.756  1.00  0.00    -0.009 C 
BRANCH   3   4
ATOM      4  C   UNL     1       7.289  -8.702  29.743  1.00  0.00     0.000 C 
ATOM      5  C   UNL     1       6.605  -8.006  28.560  1.00  0.00     0.004 C 
ENDBRANCH   3   4
BRANCH   3   6
ATOM      6  C   UNL     1       9.507  -9.212  31.064  1.00  0.00    -0.014 C 
ATOM      7  C   UNL     1      10.244  -8.115  31.850  1.00  0.00     0.007 C 
ATOM      8  C   UNL     1       8.530  -9.960  31.982  1.00  0.00     0.007 C 
ENDBRANCH   3   6
ENDBRANCH   2   3
ENDBRANCH   1   2
BRANCH   1   9
ATOM      9  C   UNL     1      10.602  -8.741  26.184  1.00  0.00    -0.011 C 
ATOM     10  C   UNL     1      10.300  -7.688  25.100  1.00  0.00     0.008 C 
BRANCH   9  11
ATOM     11  C   UNL     1      12.101  -9.219  26.242  1.00  0.00    -0.002 C 
ATOM     12  C   UNL     1      13.079  -8.586  25.242  1.00  0.00     0.005 C 
ATOM     13  C   UNL     1      12.360 -10.747  26.159  1.00  0.00    -0.023 C 
ATOM     14  C   UNL     1      14.255  -9.562  25.133  1.00  0.00     0.009 C 
ATOM     15  C   UNL     1      13.894 -10.790  25.985  1.00  0.00     0.021 C 
ATOM     16  C   UNL     1      11.647 -11.395  24.937  1.00  0.00     0.008 C 
ATOM     17  C   UNL     1      11.940 -11.448  27.477  1.00  0.00     0.012 C 
ATOM     18  C   UNL     1      14.443 -12.086  25.400  1.00  0.00    -0.067 C 
ATOM     19  C   UNL     1      12.141 -12.815  24.656  1.00  0.00     0.009 C 
ATOM     20  C   UNL     1      13.649 -12.822  24.319  1.00  0.00     0.021 C 
ATOM     21  C   UNL     1      15.724 -12.415  25.684  1.00  0.00    -0.027 C 
ATOM     22  C   UNL     1      14.218 -14.256  24.002  1.00  0.00    -0.023 C 
ATOM     23  C   UNL     1      16.429 -13.612  25.107  1.00  0.00     0.031 C 
ATOM     24  C   UNL     1      15.761 -14.096  23.811  1.00  0.00     0.002 C 
ATOM     25  C   UNL     1      13.608 -14.785  22.667  1.00  0.00     0.010 C 
ATOM     26  C   UNL     1      13.877 -15.247  25.153  1.00  0.00     0.012 C 
ATOM     27  C   UNL     1      16.452 -15.367  23.274  1.00  0.00     0.036 C 
ATOM     28  C   UNL     1      14.303 -16.056  22.151  1.00  0.00     0.032 C 
ATOM     29  C   UNL     1      15.805 -15.830  21.960  1.00  0.00     0.114 C 
BRANCH  29  30
ATOM     30  O   UNL     1      16.400 -17.028  21.535  1.00  0.00    -0.393 OA
ATOM     31  H   UNL     1      15.859 -17.360  20.771  1.00  0.00     0.210 HD
ENDBRANCH  29  30
ENDBRANCH   9  11
ENDBRANCH   1   9
TORSDOF 7
ENDMDL
MODEL 5
REMARK VINA RESULT:    -5.725      4.118      9.841
REMARK INTER + INTRA:          -9.927
REMARK INTER:                  -9.028
REMARK INTRA:                  -0.899
REMARK UNBOUND:                -2.028
REMARK SMILES CC[C@H](CC[C@@H](C)[C@@H]1CC[C@@H]2C3=CC[C@H]4C[C@@H](O)CC[C@]4(C)[C@H]3CC[C@@]21C)C(C)C
REMARK SMILES IDX 5 1 4 2 3 3 2 4 1 5 28 6 29 7 30 8 6 9 7 10 8 11 9 12 26 13
REMARK SMILES IDX 10 14 11 15 25 16 27 17 12 18 24 19 23 20 13 21 21 22 14 23
REMARK SMILES IDX 15 24 20 25 22 26 16 27 19 28 17 29 18 30
REMARK H PARENT 18 31
REMARK Flexibility Score: inf
ROOT
ATOM      1  C   UNL     1      11.034  -9.616  26.971  1.00  0.00     0.004 C 
ENDROOT
BRANCH   1   2
ATOM      2  C   UNL     1      10.969  -8.067  26.889  1.00  0.00     0.004 C 
BRANCH   2   3
ATOM      3  C   UNL     1       9.525  -7.525  26.691  1.00  0.00    -0.009 C 
BRANCH   3   4
ATOM      4  C   UNL     1       8.599  -7.709  27.937  1.00  0.00     0.000 C 
ATOM      5  C   UNL     1       7.241  -7.000  27.875  1.00  0.00     0.004 C 
ENDBRANCH   3   4
BRANCH   3   6
ATOM      6  C   UNL     1       9.533  -6.077  26.095  1.00  0.00    -0.014 C 
ATOM      7  C   UNL     1      10.957  -5.504  26.000  1.00  0.00     0.007 C 
ATOM      8  C   UNL     1       8.820  -5.954  24.742  1.00  0.00     0.007 C 
ENDBRANCH   3   6
ENDBRANCH   2   3
ENDBRANCH   1   2
BRANCH   1   9
ATOM      9  C   UNL     1      11.533 -10.286  25.664  1.00  0.00    -0.011 C 
ATOM     10  C   UNL     1      11.466  -9.250  24.526  1.00  0.00     0.008 C 
BRANCH   9  11
ATOM     11  C   UNL     1      12.946 -10.951  25.870  1.00  0.00    -0.002 C 
ATOM     12  C   UNL     1      14.175 -10.124  25.467  1.00  0.00     0.005 C 
ATOM     13  C   UNL     1      13.167 -12.352  25.241  1.00  0.00    -0.023 C 
ATOM     14  C   UNL     1      15.305 -11.137  25.250  1.00  0.00     0.009 C 
ATOM     15  C   UNL     1      14.689 -12.535  25.427  1.00  0.00     0.021 C 
ATOM     16  C   UNL     1      12.785 -12.383  23.734  1.00  0.00     0.008 C 
ATOM     17  C   UNL     1      12.388 -13.437  26.029  1.00  0.00     0.012 C 
ATOM     18  C   UNL     1      15.332 -13.573  24.514  1.00  0.00    -0.067 C 
ATOM     19  C   UNL     1      13.290 -13.643  23.028  1.00  0.00     0.009 C 
ATOM     20  C   UNL     1      14.833 -13.727  23.076  1.00  0.00     0.021 C 
ATOM     21  C   UNL     1      16.480 -14.156  24.930  1.00  0.00    -0.027 C 
ATOM     22  C   UNL     1      15.418 -14.996  22.350  1.00  0.00    -0.023 C 
ATOM     23  C   UNL     1      17.273 -15.128  24.100  1.00  0.00     0.031 C 
ATOM     24  C   UNL     1      16.961 -14.988  22.603  1.00  0.00     0.002 C 
ATOM     25  C   UNL     1      15.170 -14.889  20.813  1.00  0.00     0.010 C 
ATOM     26  C   UNL     1      14.750 -16.294  22.892  1.00  0.00     0.012 C 
ATOM     27  C   UNL     1      17.727 -16.040  21.776  1.00  0.00     0.036 C 
ATOM     28  C   UNL     1      15.935 -15.951  20.006  1.00  0.00     0.032 C 
ATOM     29  C   UNL     1      17.441 -15.876  20.276  1.00  0.00     0.114 C 
BRANCH  29  30
ATOM     30  O   UNL     1      18.088 -16.892  19.555  1.00  0.00    -0.393 OA
ATOM     31  H   UNL     1      18.873 -16.474  19.115  1.00  0.00     0.210 HD
ENDBRANCH  29  30
ENDBRANCH   9  11
ENDBRANCH   1   9
TORSDOF 7
ENDMDL
MODEL 6
REMARK VINA RESULT:    -5.691      3.853      9.726
REMARK INTER + INTRA:          -9.881
REMARK INTER:                  -8.911
REMARK INTRA:                  -0.970
REMARK UNBOUND:                -2.028
REMARK SMILES CC[C@H](CC[C@@H](C)[C@@H]1CC[C@@H]2C3=CC[C@H]4C[C@@H](O)CC[C@]4(C)[C@H]3CC[C@@]21C)C(C)C
REMARK SMILES IDX 5 1 4 2 3 3 2 4 1 5 28 6 29 7 30 8 6 9 7 10 8 11 9 12 26 13
REMARK SMILES IDX 10 14 11 15 25 16 27 17 12 18 24 19 23 20 13 21 21 22 14 23
REMARK SMILES IDX 15 24 20 25 22 26 16 27 19 28 17 29 18 30
REMARK H PARENT 18 31
REMARK Flexibility Score: inf
ROOT
ATOM      1  C   UNL     1      11.321  -9.764  27.007  1.00  0.00     0.004 C 
ENDROOT
BRANCH   1   2
ATOM      2  C   UNL     1      11.214  -8.233  26.776  1.00  0.00     0.004 C 
BRANCH   2   3
ATOM      3  C   UNL     1      10.068  -7.569  27.592  1.00  0.00    -0.009 C 
BRANCH   3   4
ATOM      4  C   UNL     1       9.117  -6.671  26.738  1.00  0.00     0.000 C 
ATOM      5  C   UNL     1       9.416  -6.613  25.235  1.00  0.00     0.004 C 
ENDBRANCH   3   4
BRANCH   3   6
ATOM      6  C   UNL     1       9.335  -8.612  28.501  1.00  0.00    -0.014 C 
ATOM      7  C   UNL     1       9.826  -8.550  29.957  1.00  0.00     0.007 C 
ATOM      8  C   UNL     1       7.804  -8.514  28.453  1.00  0.00     0.007 C 
ENDBRANCH   3   6
ENDBRANCH   2   3
ENDBRANCH   1   2
BRANCH   1   9
ATOM      9  C   UNL     1      11.714 -10.558  25.733  1.00  0.00    -0.011 C 
ATOM     10  C   UNL     1      11.610  -9.617  24.518  1.00  0.00     0.008 C 
BRANCH   9  11
ATOM     11  C   UNL     1      13.114 -11.258  25.910  1.00  0.00    -0.002 C 
ATOM     12  C   UNL     1      14.358 -10.444  25.529  1.00  0.00     0.005 C 
ATOM     13  C   UNL     1      13.304 -12.642  25.233  1.00  0.00    -0.023 C 
ATOM     14  C   UNL     1      15.466 -11.471  25.272  1.00  0.00     0.009 C 
ATOM     15  C   UNL     1      14.822 -12.861  25.404  1.00  0.00     0.021 C 
ATOM     16  C   UNL     1      12.915 -12.613  23.727  1.00  0.00     0.008 C 
ATOM     17  C   UNL     1      12.506 -13.736  25.987  1.00  0.00     0.012 C 
ATOM     18  C   UNL     1      15.440 -13.881  24.454  1.00  0.00    -0.067 C 
ATOM     19  C   UNL     1      13.391 -13.858  22.976  1.00  0.00     0.009 C 
ATOM     20  C   UNL     1      14.931 -13.975  23.014  1.00  0.00     0.021 C 
ATOM     21  C   UNL     1      16.577 -14.501  24.844  1.00  0.00    -0.027 C 
ATOM     22  C   UNL     1      15.488 -15.230  22.242  1.00  0.00    -0.023 C 
ATOM     23  C   UNL     1      17.347 -15.460  23.978  1.00  0.00     0.031 C 
ATOM     24  C   UNL     1      17.031 -15.262  22.488  1.00  0.00     0.002 C 
ATOM     25  C   UNL     1      15.235 -15.066  20.711  1.00  0.00     0.010 C 
ATOM     26  C   UNL     1      14.795 -16.532  22.742  1.00  0.00     0.012 C 
ATOM     27  C   UNL     1      17.773 -16.301  21.622  1.00  0.00     0.036 C 
ATOM     28  C   UNL     1      15.975 -16.115  19.865  1.00  0.00     0.032 C 
ATOM     29  C   UNL     1      17.483 -16.081  20.130  1.00  0.00     0.114 C 
BRANCH  29  30
ATOM     30  O   UNL     1      18.106 -17.084  19.371  1.00  0.00    -0.393 OA
ATOM     31  H   UNL     1      18.027 -16.813  18.420  1.00  0.00     0.210 HD
ENDBRANCH  29  30
ENDBRANCH   9  11
ENDBRANCH   1   9
TORSDOF 7
ENDMDL
MODEL 7
REMARK VINA RESULT:    -5.654      4.531      9.954
REMARK INTER + INTRA:          -9.830
REMARK INTER:                  -9.139
REMARK INTRA:                  -0.692
REMARK UNBOUND:                -2.028
REMARK SMILES CC[C@H](CC[C@@H](C)[C@@H]1CC[C@@H]2C3=CC[C@H]4C[C@@H](O)CC[C@]4(C)[C@H]3CC[C@@]21C)C(C)C
REMARK SMILES IDX 5 1 4 2 3 3 2 4 1 5 28 6 29 7 30 8 6 9 7 10 8 11 9 12 26 13
REMARK SMILES IDX 10 14 11 15 25 16 27 17 12 18 24 19 23 20 13 21 21 22 14 23
REMARK SMILES IDX 15 24 20 25 22 26 16 27 19 28 17 29 18 30
REMARK H PARENT 18 31
REMARK Flexibility Score: inf
ROOT
ATOM      1  C   UNL     1      10.862  -8.109  25.857  1.00  0.00     0.004 C 
ENDROOT
BRANCH   1   2
ATOM      2  C   UNL     1      11.387  -6.656  26.003  1.00  0.00     0.004 C 
BRANCH   2   3
ATOM      3  C   UNL     1      10.253  -5.592  26.014  1.00  0.00    -0.009 C 
BRANCH   3   4
ATOM      4  C   UNL     1      10.606  -4.277  25.247  1.00  0.00     0.000 C 
ATOM      5  C   UNL     1      12.000  -3.697  25.515  1.00  0.00     0.004 C 
ENDBRANCH   3   4
BRANCH   3   6
ATOM      6  C   UNL     1       8.873  -6.222  25.623  1.00  0.00    -0.014 C 
ATOM      7  C   UNL     1       7.887  -6.223  26.803  1.00  0.00     0.007 C 
ATOM      8  C   UNL     1       8.223  -5.584  24.388  1.00  0.00     0.007 C 
ENDBRANCH   3   6
ENDBRANCH   2   3
ENDBRANCH   1   2
BRANCH   1   9
ATOM      9  C   UNL     1      11.298  -9.046  27.014  1.00  0.00    -0.011 C 
ATOM     10  C   UNL     1      10.423  -8.743  28.246  1.00  0.00     0.008 C 
BRANCH   9  11
ATOM     11  C   UNL     1      11.297 -10.552  26.555  1.00  0.00    -0.002 C 
ATOM     12  C   UNL     1      11.543 -11.615  27.636  1.00  0.00     0.005 C 
ATOM     13  C   UNL     1      12.236 -10.935  25.380  1.00  0.00    -0.023 C 
ATOM     14  C   UNL     1      12.024 -12.864  26.890  1.00  0.00     0.009 C 
ATOM     15  C   UNL     1      12.149 -12.476  25.408  1.00  0.00     0.021 C 
ATOM     16  C   UNL     1      13.697 -10.458  25.622  1.00  0.00     0.008 C 
ATOM     17  C   UNL     1      11.691 -10.382  24.039  1.00  0.00     0.012 C 
ATOM     18  C   UNL     1      13.296 -13.201  24.712  1.00  0.00    -0.067 C 
ATOM     19  C   UNL     1      14.688 -11.094  24.646  1.00  0.00     0.009 C 
ATOM     20  C   UNL     1      14.713 -12.632  24.800  1.00  0.00     0.021 C 
ATOM     21  C   UNL     1      13.064 -14.449  24.243  1.00  0.00    -0.027 C 
ATOM     22  C   UNL     1      15.730 -13.347  23.833  1.00  0.00    -0.023 C 
ATOM     23  C   UNL     1      14.120 -15.318  23.617  1.00  0.00     0.031 C 
ATOM     24  C   UNL     1      15.533 -14.885  24.032  1.00  0.00     0.002 C 
ATOM     25  C   UNL     1      17.192 -12.980  24.235  1.00  0.00     0.010 C 
ATOM     26  C   UNL     1      15.476 -12.918  22.358  1.00  0.00     0.012 C 
ATOM     27  C   UNL     1      16.605 -15.741  23.324  1.00  0.00     0.036 C 
ATOM     28  C   UNL     1      18.245 -13.836  23.513  1.00  0.00     0.032 C 
ATOM     29  C   UNL     1      18.017 -15.329  23.766  1.00  0.00     0.114 C 
BRANCH  29  30
ATOM     30  O   UNL     1      18.973 -16.068  23.051  1.00  0.00    -0.393 OA
ATOM     31  H   UNL     1      19.191 -16.863  23.604  1.00  0.00     0.210 HD
ENDBRANCH  29  30
ENDBRANCH   9  11
ENDBRANCH   1   9
TORSDOF 7
ENDMDL
MODEL 8
REMARK VINA RESULT:    -5.590      4.404      7.421
REMARK INTER + INTRA:          -9.741
REMARK INTER:                  -8.048
REMARK INTRA:                  -1.693
REMARK UNBOUND:                -2.028
REMARK SMILES CC[C@H](CC[C@@H](C)[C@@H]1CC[C@@H]2C3=CC[C@H]4C[C@@H](O)CC[C@]4(C)[C@H]3CC[C@@]21C)C(C)C
REMARK SMILES IDX 5 1 4 2 3 3 2 4 1 5 28 6 29 7 30 8 6 9 7 10 8 11 9 12 26 13
REMARK SMILES IDX 10 14 11 15 25 16 27 17 12 18 24 19 23 20 13 21 21 22 14 23
REMARK SMILES IDX 15 24 20 25 22 26 16 27 19 28 17 29 18 30
REMARK H PARENT 18 31
REMARK Flexibility Score: inf
ROOT
ATOM      1  C   UNL     1      16.288 -12.667  23.787  1.00  0.00     0.004 C 
ENDROOT
BRANCH   1   2
ATOM      2  C   UNL     1      17.305 -11.498  23.699  1.00  0.00     0.004 C 
BRANCH   2   3
ATOM      3  C   UNL     1      16.842 -10.352  22.754  1.00  0.00    -0.009 C 
BRANCH   3   4
ATOM      4  C   UNL     1      16.763  -8.952  23.444  1.00  0.00     0.000 C 
ATOM      5  C   UNL     1      18.060  -8.444  24.083  1.00  0.00     0.004 C 
ENDBRANCH   3   4
BRANCH   3   6
ATOM      6  C   UNL     1      17.634 -10.368  21.403  1.00  0.00    -0.014 C 
ATOM      7  C   UNL     1      17.235 -11.561  20.518  1.00  0.00     0.007 C 
ATOM      8  C   UNL     1      17.536  -9.059  20.607  1.00  0.00     0.007 C 
ENDBRANCH   3   6
ENDBRANCH   2   3
ENDBRANCH   1   2
BRANCH   1   9
ATOM      9  C   UNL     1      14.828 -12.244  23.476  1.00  0.00    -0.011 C 
ATOM     10  C   UNL     1      14.292 -13.137  22.340  1.00  0.00     0.008 C 
BRANCH   9  11
ATOM     11  C   UNL     1      13.949 -12.235  24.782  1.00  0.00    -0.002 C 
ATOM     12  C   UNL     1      12.651 -13.056  24.759  1.00  0.00     0.005 C 
ATOM     13  C   UNL     1      13.550 -10.850  25.357  1.00  0.00    -0.023 C 
ATOM     14  C   UNL     1      11.765 -12.465  25.861  1.00  0.00     0.009 C 
ATOM     15  C   UNL     1      12.516 -11.250  26.432  1.00  0.00     0.021 C 
ATOM     16  C   UNL     1      12.902  -9.935  24.279  1.00  0.00     0.008 C 
ATOM     17  C   UNL     1      14.772 -10.154  26.009  1.00  0.00     0.012 C 
ATOM     18  C   UNL     1      11.572 -10.136  26.868  1.00  0.00    -0.067 C 
ATOM     19  C   UNL     1      12.220  -8.708  24.887  1.00  0.00     0.009 C 
ATOM     20  C   UNL     1      11.073  -9.122  25.837  1.00  0.00     0.021 C 
ATOM     21  C   UNL     1      11.018 -10.222  28.100  1.00  0.00    -0.027 C 
ATOM     22  C   UNL     1      10.317  -7.901  26.483  1.00  0.00    -0.023 C 
ATOM     23  C   UNL     1      10.002  -9.248  28.631  1.00  0.00     0.031 C 
ATOM     24  C   UNL     1       9.287  -8.496  27.498  1.00  0.00     0.002 C 
ATOM     25  C   UNL     1       9.531  -7.121  25.384  1.00  0.00     0.010 C 
ATOM     26  C   UNL     1      11.325  -6.939  27.179  1.00  0.00     0.012 C 
ATOM     27  C   UNL     1       8.303  -7.451  28.063  1.00  0.00     0.036 C 
ATOM     28  C   UNL     1       8.563  -6.078  25.964  1.00  0.00     0.032 C 
ATOM     29  C   UNL     1       7.564  -6.724  26.930  1.00  0.00     0.114 C 
BRANCH  29  30
ATOM     30  O   UNL     1       6.734  -5.727  27.467  1.00  0.00    -0.393 OA
ATOM     31  H   UNL     1       6.945  -4.887  26.982  1.00  0.00     0.210 HD
ENDBRANCH  29  30
ENDBRANCH   9  11
ENDBRANCH   1   9
TORSDOF 7
ENDMDL
MODEL 9
REMARK VINA RESULT:    -5.434      2.747      3.858
REMARK INTER + INTRA:          -9.526
REMARK INTER:                  -9.001
REMARK INTRA:                  -0.526
REMARK UNBOUND:                -2.028
REMARK SMILES CC[C@H](CC[C@@H](C)[C@@H]1CC[C@@H]2C3=CC[C@H]4C[C@@H](O)CC[C@]4(C)[C@H]3CC[C@@]21C)C(C)C
REMARK SMILES IDX 5 1 4 2 3 3 2 4 1 5 28 6 29 7 30 8 6 9 7 10 8 11 9 12 26 13
REMARK SMILES IDX 10 14 11 15 25 16 27 17 12 18 24 19 23 20 13 21 21 22 14 23
REMARK SMILES IDX 15 24 20 25 22 26 16 27 19 28 17 29 18 30
REMARK H PARENT 18 31
REMARK Flexibility Score: inf
ROOT
ATOM      1  C   UNL     1      16.667 -11.857  18.565  1.00  0.00     0.004 C 
ENDROOT
BRANCH   1   2
ATOM      2  C   UNL     1      17.724 -10.723  18.481  1.00  0.00     0.004 C 
BRANCH   2   3
ATOM      3  C   UNL     1      17.415  -9.526  19.424  1.00  0.00    -0.009 C 
BRANCH   3   4
ATOM      4  C   UNL     1      17.949  -9.709  20.881  1.00  0.00     0.000 C 
ATOM      5  C   UNL     1      19.457  -9.951  21.018  1.00  0.00     0.004 C 
ENDBRANCH   3   4
BRANCH   3   6
ATOM      6  C   UNL     1      17.795  -8.160  18.759  1.00  0.00    -0.014 C 
ATOM      7  C   UNL     1      17.357  -8.097  17.286  1.00  0.00     0.007 C 
ATOM      8  C   UNL     1      17.280  -6.931  19.519  1.00  0.00     0.007 C 
ENDBRANCH   3   6
ENDBRANCH   2   3
ENDBRANCH   1   2
BRANCH   1   9
ATOM      9  C   UNL     1      17.197 -13.237  18.096  1.00  0.00    -0.011 C 
ATOM     10  C   UNL     1      18.694 -13.097  17.760  1.00  0.00     0.008 C 
BRANCH   9  11
ATOM     11  C   UNL     1      16.856 -14.362  19.144  1.00  0.00    -0.002 C 
ATOM     12  C   UNL     1      15.574 -15.172  18.911  1.00  0.00     0.005 C 
ATOM     13  C   UNL     1      16.815 -13.947  20.639  1.00  0.00    -0.023 C 
ATOM     14  C   UNL     1      15.203 -15.768  20.273  1.00  0.00     0.009 C 
ATOM     15  C   UNL     1      16.211 -15.210  21.291  1.00  0.00     0.021 C 
ATOM     16  C   UNL     1      15.902 -12.710  20.877  1.00  0.00     0.008 C 
ATOM     17  C   UNL     1      18.245 -13.686  21.177  1.00  0.00     0.012 C 
ATOM     18  C   UNL     1      15.590 -14.993  22.667  1.00  0.00    -0.067 C 
ATOM     19  C   UNL     1      15.595 -12.486  22.358  1.00  0.00     0.009 C 
ATOM     20  C   UNL     1      14.840 -13.692  22.960  1.00  0.00     0.021 C 
ATOM     21  C   UNL     1      15.516 -16.056  23.501  1.00  0.00    -0.027 C 
ATOM     22  C   UNL     1      14.478 -13.516  24.483  1.00  0.00    -0.023 C 
ATOM     23  C   UNL     1      14.850 -16.016  24.850  1.00  0.00     0.031 C 
ATOM     24  C   UNL     1      13.841 -14.863  24.953  1.00  0.00     0.002 C 
ATOM     25  C   UNL     1      13.418 -12.383  24.649  1.00  0.00     0.010 C 
ATOM     26  C   UNL     1      15.749 -13.158  25.309  1.00  0.00     0.012 C 
ATOM     27  C   UNL     1      13.223 -14.793  26.365  1.00  0.00     0.036 C 
ATOM     28  C   UNL     1      12.820 -12.323  26.063  1.00  0.00     0.032 C 
ATOM     29  C   UNL     1      12.188 -13.662  26.457  1.00  0.00     0.114 C 
BRANCH  29  30
ATOM     30  O   UNL     1      11.699 -13.571  27.770  1.00  0.00    -0.393 OA
ATOM     31  H   UNL     1      12.480 -13.387  28.353  1.00  0.00     0.210 HD
ENDBRANCH  29  30
ENDBRANCH   9  11
ENDBRANCH   1   9
TORSDOF 7
ENDMDL
