MODEL 1
REMARK VINA RESULT:    -7.631      0.000      0.000
REMARK INTER + INTRA:         -10.959
REMARK INTER:                 -10.084
REMARK INTRA:                  -0.874
REMARK UNBOUND:                -0.874
REMARK SMILES CC(C)=CCC[C@@H](C(=O)[O-])[C@@H]1CC[C@]2(C)C3=C(CC[C@]12C)[C@@]1(C)CC[C@H](O)C(C)(C)[C@H]1CC3
REMARK SMILES IDX 6 1 7 2 8 3 9 4 10 5 11 6 12 7 20 8 13 9 14 10 19 11 21 12
REMARK SMILES IDX 15 13 16 14 18 15 17 16 33 17 22 18 32 19 31 20 24 21 23 22
REMARK SMILES IDX 28 23 25 24 26 25 29 26 30 27 27 28 5 30 4 31 2 32 1 33 3 34
REMARK H PARENT 27 29
REMARK Flexibility Score: inf
ROOT
ATOM      1  C   UNL     1     173.217 170.268 151.512  1.00  0.00     0.014 C 
ENDROOT
BRANCH   1   2
ATOM      2  C   UNL     1     173.976 168.941 151.785  1.00  0.00     0.039 C 
BRANCH   2   3
ATOM      3  C   UNL     1     175.164 169.146 152.700  1.00  0.00     0.045 C 
ATOM      4  O   UNL     1     176.125 168.335 152.709  1.00  0.00    -0.550 OA
ATOM      5  O   UNL     1     175.191 170.235 153.562  1.00  0.00    -0.550 OA
ENDBRANCH   2   3
BRANCH   2   6
ATOM      6  C   UNL     1     173.018 167.747 152.176  1.00  0.00     0.004 C 
ATOM      7  C   UNL     1     173.245 167.072 153.532  1.00  0.00     0.006 C 
ATOM      8  C   UNL     1     172.903 166.567 151.163  1.00  0.00    -0.020 C 
ATOM      9  C   UNL     1     172.497 165.739 153.472  1.00  0.00     0.012 C 
ATOM     10  C   UNL     1     172.096 165.479 151.985  1.00  0.00    -0.006 C 
ATOM     11  C   UNL     1     174.313 166.028 150.707  1.00  0.00     0.012 C 
ATOM     12  C   UNL     1     172.155 167.041 149.885  1.00  0.00     0.012 C 
ATOM     13  C   UNL     1     170.555 165.703 151.892  1.00  0.00     0.017 C 
ATOM     14  C   UNL     1     172.492 164.030 151.585  1.00  0.00    -0.064 C 
ATOM     15  C   UNL     1     174.825 164.822 151.492  1.00  0.00     0.032 C 
ATOM     16  C   UNL     1     173.808 163.697 151.437  1.00  0.00    -0.064 C 
ATOM     17  C   UNL     1     171.464 162.937 151.341  1.00  0.00     0.032 C 
ATOM     18  C   UNL     1     174.225 162.193 151.385  1.00  0.00    -0.008 C 
ATOM     19  C   UNL     1     171.915 162.110 150.147  1.00  0.00     0.009 C 
ATOM     20  C   UNL     1     173.254 161.347 150.425  1.00  0.00     0.007 C 
ATOM     21  C   UNL     1     174.182 161.715 152.868  1.00  0.00     0.014 C 
ATOM     22  C   UNL     1     175.684 162.058 150.867  1.00  0.00     0.016 C 
ATOM     23  C   UNL     1     173.105 159.783 150.766  1.00  0.00    -0.006 C 
ATOM     24  C   UNL     1     174.245 160.207 153.041  1.00  0.00     0.033 C 
ATOM     25  C   UNL     1     173.073 159.540 152.307  1.00  0.00     0.120 C 
ATOM     26  C   UNL     1     171.803 159.169 150.176  1.00  0.00     0.014 C 
ATOM     27  C   UNL     1     174.262 158.965 150.107  1.00  0.00     0.014 C 
BRANCH  25  28
ATOM     28  O   UNL     1     173.004 158.167 152.620  1.00  0.00    -0.393 OA
ATOM     29  H   UNL     1     172.276 158.034 153.282  1.00  0.00     0.210 HD
ENDBRANCH  25  28
ENDBRANCH   2   6
ENDBRANCH   1   2
BRANCH   1  30
ATOM     30  C   UNL     1     173.427 170.885 150.113  1.00  0.00     0.028 C 
BRANCH  30  31
ATOM     31  C   UNL     1     174.495 171.954 150.107  1.00  0.00    -0.028 C 
ATOM     32  C   UNL     1     174.217 173.274 150.118  1.00  0.00    -0.080 C 
ATOM     33  C   UNL     1     172.795 173.784 150.124  1.00  0.00     0.039 C 
ATOM     34  C   UNL     1     175.361 174.255 150.131  1.00  0.00     0.039 C 
ENDBRANCH  30  31
ENDBRANCH   1  30
TORSDOF 6
ENDMDL
MODEL 2
REMARK VINA RESULT:    -7.390      7.391     11.411
REMARK INTER + INTRA:         -10.640
REMARK INTER:                  -9.788
REMARK INTRA:                  -0.852
REMARK UNBOUND:                -0.874
REMARK SMILES CC(C)=CCC[C@@H](C(=O)[O-])[C@@H]1CC[C@]2(C)C3=C(CC[C@]12C)[C@@]1(C)CC[C@H](O)C(C)(C)[C@H]1CC3
REMARK SMILES IDX 6 1 7 2 8 3 9 4 10 5 11 6 12 7 20 8 13 9 14 10 19 11 21 12
REMARK SMILES IDX 15 13 16 14 18 15 17 16 33 17 22 18 32 19 31 20 24 21 23 22
REMARK SMILES IDX 28 23 25 24 26 25 29 26 30 27 27 28 5 30 4 31 2 32 1 33 3 34
REMARK H PARENT 27 29
REMARK Flexibility Score: inf
ROOT
ATOM      1  C   UNL     1     163.524 173.081 150.564  1.00  0.00     0.014 C 
ENDROOT
BRANCH   1   2
ATOM      2  C   UNL     1     164.810 173.772 151.091  1.00  0.00     0.039 C 
BRANCH   2   3
ATOM      3  C   UNL     1     164.496 174.885 152.068  1.00  0.00     0.045 C 
ATOM      4  O   UNL     1     163.668 174.717 152.999  1.00  0.00    -0.550 OA
ATOM      5  O   UNL     1     165.114 176.120 151.927  1.00  0.00    -0.550 OA
ENDBRANCH   2   3
BRANCH   2   6
ATOM      6  C   UNL     1     165.917 172.747 151.564  1.00  0.00     0.004 C 
ATOM      7  C   UNL     1     166.472 172.910 152.981  1.00  0.00     0.006 C 
ATOM      8  C   UNL     1     167.179 172.599 150.661  1.00  0.00    -0.020 C 
ATOM      9  C   UNL     1     167.768 172.098 153.024  1.00  0.00     0.012 C 
ATOM     10  C   UNL     1     168.147 171.720 151.557  1.00  0.00    -0.006 C 
ATOM     11  C   UNL     1     167.824 173.990 150.296  1.00  0.00     0.012 C 
ATOM     12  C   UNL     1     166.793 171.904 149.325  1.00  0.00     0.012 C 
ATOM     13  C   UNL     1     167.860 170.193 151.401  1.00  0.00     0.017 C 
ATOM     14  C   UNL     1     169.644 172.053 151.304  1.00  0.00    -0.064 C 
ATOM     15  C   UNL     1     168.974 174.424 151.203  1.00  0.00     0.032 C 
ATOM     16  C   UNL     1     170.051 173.354 151.223  1.00  0.00    -0.064 C 
ATOM     17  C   UNL     1     170.706 170.978 151.132  1.00  0.00     0.032 C 
ATOM     18  C   UNL     1     171.570 173.697 151.322  1.00  0.00    -0.008 C 
ATOM     19  C   UNL     1     171.661 171.416 150.033  1.00  0.00     0.009 C 
ATOM     20  C   UNL     1     172.456 172.709 150.417  1.00  0.00     0.007 C 
ATOM     21  C   UNL     1     171.905 173.596 152.841  1.00  0.00     0.014 C 
ATOM     22  C   UNL     1     171.822 175.160 150.859  1.00  0.00     0.016 C 
ATOM     23  C   UNL     1     173.973 172.475 150.897  1.00  0.00    -0.006 C 
ATOM     24  C   UNL     1     173.392 173.581 153.154  1.00  0.00     0.033 C 
ATOM     25  C   UNL     1     174.069 172.395 152.452  1.00  0.00     0.120 C 
ATOM     26  C   UNL     1     174.578 171.159 150.330  1.00  0.00     0.014 C 
ATOM     27  C   UNL     1     174.902 173.605 150.348  1.00  0.00     0.014 C 
BRANCH  25  28
ATOM     28  O   UNL     1     175.402 172.252 152.888  1.00  0.00    -0.393 OA
ATOM     29  H   UNL     1     175.725 173.138 153.198  1.00  0.00     0.210 HD
ENDBRANCH  25  28
ENDBRANCH   2   6
ENDBRANCH   1   2
BRANCH   1  30
ATOM     30  C   UNL     1     162.446 174.022 149.986  1.00  0.00     0.028 C 
BRANCH  30  31
ATOM     31  C   UNL     1     161.060 173.693 150.489  1.00  0.00    -0.028 C 
ATOM     32  C   UNL     1     160.269 174.592 151.111  1.00  0.00    -0.080 C 
ATOM     33  C   UNL     1     160.726 176.008 151.363  1.00  0.00     0.039 C 
ATOM     34  C   UNL     1     158.894 174.161 151.554  1.00  0.00     0.039 C 
ENDBRANCH  30  31
ENDBRANCH   1  30
TORSDOF 6
ENDMDL
MODEL 3
REMARK VINA RESULT:    -7.330      1.301      1.808
REMARK INTER + INTRA:         -10.561
REMARK INTER:                  -9.171
REMARK INTRA:                  -1.390
REMARK UNBOUND:                -0.874
REMARK SMILES CC(C)=CCC[C@@H](C(=O)[O-])[C@@H]1CC[C@]2(C)C3=C(CC[C@]12C)[C@@]1(C)CC[C@H](O)C(C)(C)[C@H]1CC3
REMARK SMILES IDX 6 1 7 2 8 3 9 4 10 5 11 6 12 7 20 8 13 9 14 10 19 11 21 12
REMARK SMILES IDX 15 13 16 14 18 15 17 16 33 17 22 18 32 19 31 20 24 21 23 22
REMARK SMILES IDX 28 23 25 24 26 25 29 26 30 27 27 28 5 30 4 31 2 32 1 33 3 34
REMARK H PARENT 27 29
REMARK Flexibility Score: inf
ROOT
ATOM      1  C   UNL     1     173.170 170.498 150.141  1.00  0.00     0.014 C 
ENDROOT
BRANCH   1   2
ATOM      2  C   UNL     1     173.976 169.315 150.745  1.00  0.00     0.039 C 
BRANCH   2   3
ATOM      3  C   UNL     1     175.058 169.791 151.690  1.00  0.00     0.045 C 
ATOM      4  O   UNL     1     175.019 170.942 152.195  1.00  0.00    -0.550 OA
ATOM      5  O   UNL     1     176.125 168.955 151.992  1.00  0.00    -0.550 OA
ENDBRANCH   2   3
BRANCH   2   6
ATOM      6  C   UNL     1     173.055 168.155 151.297  1.00  0.00     0.004 C 
ATOM      7  C   UNL     1     173.308 167.672 152.727  1.00  0.00     0.006 C 
ATOM      8  C   UNL     1     172.972 166.850 150.448  1.00  0.00    -0.020 C 
ATOM      9  C   UNL     1     172.600 166.321 152.849  1.00  0.00     0.012 C 
ATOM     10  C   UNL     1     172.201 165.856 151.413  1.00  0.00    -0.006 C 
ATOM     11  C   UNL     1     174.395 166.297 150.056  1.00  0.00     0.012 C 
ATOM     12  C   UNL     1     172.204 167.129 149.126  1.00  0.00     0.012 C 
ATOM     13  C   UNL     1     170.653 166.021 151.304  1.00  0.00     0.017 C 
ATOM     14  C   UNL     1     172.639 164.379 151.204  1.00  0.00    -0.064 C 
ATOM     15  C   UNL     1     174.947 165.220 150.988  1.00  0.00     0.032 C 
ATOM     16  C   UNL     1     173.963 164.068 151.089  1.00  0.00    -0.064 C 
ATOM     17  C   UNL     1     171.643 163.234 151.113  1.00  0.00     0.032 C 
ATOM     18  C   UNL     1     174.425 162.584 151.233  1.00  0.00    -0.008 C 
ATOM     19  C   UNL     1     172.114 162.271 150.035  1.00  0.00     0.009 C 
ATOM     20  C   UNL     1     173.476 161.591 150.400  1.00  0.00     0.007 C 
ATOM     21  C   UNL     1     174.402 162.304 152.766  1.00  0.00     0.014 C 
ATOM     22  C   UNL     1     175.885 162.424 150.725  1.00  0.00     0.016 C 
ATOM     23  C   UNL     1     173.376 160.081 150.945  1.00  0.00    -0.006 C 
ATOM     24  C   UNL     1     174.512 160.834 153.135  1.00  0.00     0.033 C 
ATOM     25  C   UNL     1     173.357 160.042 152.505  1.00  0.00     0.120 C 
ATOM     26  C   UNL     1     172.090 159.357 150.451  1.00  0.00     0.014 C 
ATOM     27  C   UNL     1     174.554 159.218 150.389  1.00  0.00     0.014 C 
BRANCH  25  28
ATOM     28  O   UNL     1     173.331 158.721 152.995  1.00  0.00    -0.393 OA
ATOM     29  H   UNL     1     174.244 158.487 153.308  1.00  0.00     0.210 HD
ENDBRANCH  25  28
ENDBRANCH   2   6
ENDBRANCH   1   2
BRANCH   1  30
ATOM     30  C   UNL     1     171.670 170.539 150.499  1.00  0.00     0.028 C 
BRANCH  30  31
ATOM     31  C   UNL     1     171.268 171.840 151.154  1.00  0.00    -0.028 C 
ATOM     32  C   UNL     1     171.274 172.026 152.490  1.00  0.00    -0.080 C 
ATOM     33  C   UNL     1     171.676 170.925 153.441  1.00  0.00     0.039 C 
ATOM     34  C   UNL     1     170.872 173.373 153.035  1.00  0.00     0.039 C 
ENDBRANCH  30  31
ENDBRANCH   1  30
TORSDOF 6
ENDMDL
MODEL 4
REMARK VINA RESULT:    -7.004      6.628     10.608
REMARK INTER + INTRA:         -10.131
REMARK INTER:                  -8.449
REMARK INTRA:                  -1.681
REMARK UNBOUND:                -0.874
REMARK SMILES CC(C)=CCC[C@@H](C(=O)[O-])[C@@H]1CC[C@]2(C)C3=C(CC[C@]12C)[C@@]1(C)CC[C@H](O)C(C)(C)[C@H]1CC3
REMARK SMILES IDX 6 1 7 2 8 3 9 4 10 5 11 6 12 7 20 8 13 9 14 10 19 11 21 12
REMARK SMILES IDX 15 13 16 14 18 15 17 16 33 17 22 18 32 19 31 20 24 21 23 22
REMARK SMILES IDX 28 23 25 24 26 25 29 26 30 27 27 28 5 30 4 31 2 32 1 33 3 34
REMARK H PARENT 27 29
REMARK Flexibility Score: inf
ROOT
ATOM      1  C   UNL     1     163.587 173.788 150.742  1.00  0.00     0.014 C 
ENDROOT
BRANCH   1   2
ATOM      2  C   UNL     1     165.046 174.249 151.006  1.00  0.00     0.039 C 
BRANCH   2   3
ATOM      3  C   UNL     1     165.099 175.539 151.796  1.00  0.00     0.045 C 
ATOM      4  O   UNL     1     166.190 176.124 152.012  1.00  0.00    -0.550 OA
ATOM      5  O   UNL     1     163.928 176.079 152.312  1.00  0.00    -0.550 OA
ENDBRANCH   2   3
BRANCH   2   6
ATOM      6  C   UNL     1     165.977 173.088 151.540  1.00  0.00     0.004 C 
ATOM      7  C   UNL     1     166.569 173.246 152.943  1.00  0.00     0.006 C 
ATOM      8  C   UNL     1     167.187 172.680 150.645  1.00  0.00    -0.020 C 
ATOM      9  C   UNL     1     167.716 172.237 153.034  1.00  0.00     0.012 C 
ATOM     10  C   UNL     1     168.010 171.712 151.593  1.00  0.00    -0.006 C 
ATOM     11  C   UNL     1     168.045 173.922 150.191  1.00  0.00     0.012 C 
ATOM     12  C   UNL     1     166.676 171.977 149.356  1.00  0.00     0.012 C 
ATOM     13  C   UNL     1     167.477 170.247 151.534  1.00  0.00     0.017 C 
ATOM     14  C   UNL     1     169.538 171.780 151.315  1.00  0.00    -0.064 C 
ATOM     15  C   UNL     1     169.262 174.218 151.066  1.00  0.00     0.032 C 
ATOM     16  C   UNL     1     170.150 172.989 151.152  1.00  0.00    -0.064 C 
ATOM     17  C   UNL     1     170.408 170.538 151.210  1.00  0.00     0.032 C 
ATOM     18  C   UNL     1     171.706 173.086 151.225  1.00  0.00    -0.008 C 
ATOM     19  C   UNL     1     171.408 170.745 150.083  1.00  0.00     0.009 C 
ATOM     20  C   UNL     1     172.408 171.912 150.383  1.00  0.00     0.007 C 
ATOM     21  C   UNL     1     172.040 173.026 152.747  1.00  0.00     0.014 C 
ATOM     22  C   UNL     1     172.187 174.456 150.670  1.00  0.00     0.016 C 
ATOM     23  C   UNL     1     173.873 171.464 150.873  1.00  0.00    -0.006 C 
ATOM     24  C   UNL     1     173.508 172.788 153.056  1.00  0.00     0.033 C 
ATOM     25  C   UNL     1     173.974 171.466 152.430  1.00  0.00     0.120 C 
ATOM     26  C   UNL     1     174.247 170.034 150.388  1.00  0.00     0.014 C 
ATOM     27  C   UNL     1     174.966 172.391 150.251  1.00  0.00     0.014 C 
BRANCH  25  28
ATOM     28  O   UNL     1     175.271 171.134 152.871  1.00  0.00    -0.393 OA
ATOM     29  H   UNL     1     175.674 171.940 153.288  1.00  0.00     0.210 HD
ENDBRANCH  25  28
ENDBRANCH   2   6
ENDBRANCH   1   2
BRANCH   1  30
ATOM     30  C   UNL     1     163.087 172.616 151.611  1.00  0.00     0.028 C 
BRANCH  30  31
ATOM     31  C   UNL     1     163.261 171.277 150.933  1.00  0.00    -0.028 C 
ATOM     32  C   UNL     1     163.724 170.182 151.570  1.00  0.00    -0.080 C 
ATOM     33  C   UNL     1     164.120 170.221 153.027  1.00  0.00     0.039 C 
ATOM     34  C   UNL     1     163.839 168.891 150.801  1.00  0.00     0.039 C 
ENDBRANCH  30  31
ENDBRANCH   1  30
TORSDOF 6
ENDMDL
MODEL 5
REMARK VINA RESULT:    -6.981      6.913     10.976
REMARK INTER + INTRA:         -10.100
REMARK INTER:                  -9.119
REMARK INTRA:                  -0.982
REMARK UNBOUND:                -0.874
REMARK SMILES CC(C)=CCC[C@@H](C(=O)[O-])[C@@H]1CC[C@]2(C)C3=C(CC[C@]12C)[C@@]1(C)CC[C@H](O)C(C)(C)[C@H]1CC3
REMARK SMILES IDX 6 1 7 2 8 3 9 4 10 5 11 6 12 7 20 8 13 9 14 10 19 11 21 12
REMARK SMILES IDX 15 13 16 14 18 15 17 16 33 17 22 18 32 19 31 20 24 21 23 22
REMARK SMILES IDX 28 23 25 24 26 25 29 26 30 27 27 28 5 30 4 31 2 32 1 33 3 34
REMARK H PARENT 27 29
REMARK Flexibility Score: inf
ROOT
ATOM      1  C   UNL     1     171.319 160.677 151.797  1.00  0.00     0.014 C 
ENDROOT
BRANCH   1   2
ATOM      2  C   UNL     1     170.242 159.581 152.018  1.00  0.00     0.039 C 
BRANCH   2   3
ATOM      3  C   UNL     1     170.701 158.524 153.000  1.00  0.00     0.045 C 
ATOM      4  O   UNL     1     170.320 157.331 152.894  1.00  0.00    -0.550 OA
ATOM      5  O   UNL     1     171.540 158.876 154.048  1.00  0.00    -0.550 OA
ENDBRANCH   2   3
BRANCH   2   6
ATOM      6  C   UNL     1     168.800 160.172 152.284  1.00  0.00     0.004 C 
ATOM      7  C   UNL     1     168.129 159.826 153.616  1.00  0.00     0.006 C 
ATOM      8  C   UNL     1     167.708 159.892 151.207  1.00  0.00    -0.020 C 
ATOM      9  C   UNL     1     166.644 160.155 153.440  1.00  0.00     0.012 C 
ATOM     10  C   UNL     1     166.381 160.390 151.919  1.00  0.00    -0.006 C 
ATOM     11  C   UNL     1     167.625 158.366 150.819  1.00  0.00     0.012 C 
ATOM     12  C   UNL     1     168.033 160.682 149.909  1.00  0.00     0.012 C 
ATOM     13  C   UNL     1     166.163 161.924 151.735  1.00  0.00     0.017 C 
ATOM     14  C   UNL     1     165.136 159.574 151.473  1.00  0.00    -0.064 C 
ATOM     15  C   UNL     1     166.565 157.567 151.575  1.00  0.00     0.032 C 
ATOM     16  C   UNL     1     165.202 158.213 151.396  1.00  0.00    -0.064 C 
ATOM     17  C   UNL     1     163.814 160.230 151.106  1.00  0.00     0.032 C 
ATOM     18  C   UNL     1     163.887 157.378 151.296  1.00  0.00    -0.008 C 
ATOM     19  C   UNL     1     163.233 159.501 149.905  1.00  0.00     0.009 C 
ATOM     20  C   UNL     1     162.866 158.015 150.233  1.00  0.00     0.007 C 
ATOM     21  C   UNL     1     163.318 157.353 152.747  1.00  0.00     0.014 C 
ATOM     22  C   UNL     1     164.208 155.918 150.869  1.00  0.00     0.016 C 
ATOM     23  C   UNL     1     161.304 157.722 150.484  1.00  0.00    -0.006 C 
ATOM     24  C   UNL     1     161.882 156.866 152.847  1.00  0.00     0.033 C 
ATOM     25  C   UNL     1     160.960 157.759 152.005  1.00  0.00     0.120 C 
ATOM     26  C   UNL     1     160.387 158.762 149.779  1.00  0.00     0.014 C 
ATOM     27  C   UNL     1     160.897 156.349 149.862  1.00  0.00     0.014 C 
BRANCH  25  28
ATOM     28  O   UNL     1     159.607 157.444 152.243  1.00  0.00    -0.393 OA
ATOM     29  H   UNL     1     159.330 156.748 151.591  1.00  0.00     0.210 HD
ENDBRANCH  25  28
ENDBRANCH   2   6
ENDBRANCH   1   2
BRANCH   1  30
ATOM     30  C   UNL     1     171.801 160.860 150.343  1.00  0.00     0.028 C 
BRANCH  30  31
ATOM     31  C   UNL     1     173.307 160.916 150.235  1.00  0.00    -0.028 C 
ATOM     32  C   UNL     1     174.081 159.815 150.135  1.00  0.00    -0.080 C 
ATOM     33  C   UNL     1     173.487 158.427 150.138  1.00  0.00     0.039 C 
ATOM     34  C   UNL     1     175.573 159.988 150.012  1.00  0.00     0.039 C 
ENDBRANCH  30  31
ENDBRANCH   1  30
TORSDOF 6
ENDMDL
MODEL 6
REMARK VINA RESULT:    -6.947      1.896      8.859
REMARK INTER + INTRA:         -10.055
REMARK INTER:                  -8.458
REMARK INTRA:                  -1.597
REMARK UNBOUND:                -0.874
REMARK SMILES CC(C)=CCC[C@@H](C(=O)[O-])[C@@H]1CC[C@]2(C)C3=C(CC[C@]12C)[C@@]1(C)CC[C@H](O)C(C)(C)[C@H]1CC3
REMARK SMILES IDX 6 1 7 2 8 3 9 4 10 5 11 6 12 7 20 8 13 9 14 10 19 11 21 12
REMARK SMILES IDX 15 13 16 14 18 15 17 16 33 17 22 18 32 19 31 20 24 21 23 22
REMARK SMILES IDX 28 23 25 24 26 25 29 26 30 27 27 28 5 30 4 31 2 32 1 33 3 34
REMARK H PARENT 27 29
REMARK Flexibility Score: inf
ROOT
ATOM      1  C   UNL     1     172.210 158.210 151.040  1.00  0.00     0.014 C 
ENDROOT
BRANCH   1   2
ATOM      2  C   UNL     1     172.182 159.291 152.155  1.00  0.00     0.039 C 
BRANCH   2   3
ATOM      3  C   UNL     1     171.935 158.688 153.521  1.00  0.00     0.045 C 
ATOM      4  O   UNL     1     172.630 157.729 153.943  1.00  0.00    -0.550 OA
ATOM      5  O   UNL     1     170.913 159.185 154.319  1.00  0.00    -0.550 OA
ENDBRANCH   2   3
BRANCH   2   6
ATOM      6  C   UNL     1     173.393 160.303 152.069  1.00  0.00     0.004 C 
ATOM      7  C   UNL     1     173.998 160.795 153.387  1.00  0.00     0.006 C 
ATOM      8  C   UNL     1     173.179 161.597 151.226  1.00  0.00    -0.020 C 
ATOM      9  C   UNL     1     174.828 162.032 153.036  1.00  0.00     0.012 C 
ATOM     10  C   UNL     1     174.461 162.459 151.579  1.00  0.00    -0.006 C 
ATOM     11  C   UNL     1     171.847 162.348 151.607  1.00  0.00     0.012 C 
ATOM     12  C   UNL     1     173.089 161.234 149.717  1.00  0.00     0.012 C 
ATOM     13  C   UNL     1     175.682 162.082 150.683  1.00  0.00     0.017 C 
ATOM     14  C   UNL     1     174.169 163.985 151.542  1.00  0.00    -0.064 C 
ATOM     15  C   UNL     1     172.012 163.477 152.623  1.00  0.00     0.032 C 
ATOM     16  C   UNL     1     173.037 164.480 152.122  1.00  0.00    -0.064 C 
ATOM     17  C   UNL     1     175.102 164.982 150.872  1.00  0.00     0.032 C 
ATOM     18  C   UNL     1     172.912 166.011 152.396  1.00  0.00    -0.008 C 
ATOM     19  C   UNL     1     174.257 166.018 150.146  1.00  0.00     0.009 C 
ATOM     20  C   UNL     1     173.393 166.875 151.130  1.00  0.00     0.007 C 
ATOM     21  C   UNL     1     173.777 166.262 153.668  1.00  0.00     0.014 C 
ATOM     22  C   UNL     1     171.438 166.380 152.723  1.00  0.00     0.016 C 
ATOM     23  C   UNL     1     173.956 168.348 151.448  1.00  0.00    -0.006 C 
ATOM     24  C   UNL     1     174.065 167.727 153.949  1.00  0.00     0.033 C 
ATOM     25  C   UNL     1     174.801 168.360 152.759  1.00  0.00     0.120 C 
ATOM     26  C   UNL     1     174.864 168.893 150.309  1.00  0.00     0.014 C 
ATOM     27  C   UNL     1     172.782 169.375 151.543  1.00  0.00     0.014 C 
BRANCH  25  28
ATOM     28  O   UNL     1     175.249 169.657 153.082  1.00  0.00    -0.393 OA
ATOM     29  H   UNL     1     174.464 170.266 153.084  1.00  0.00     0.210 HD
ENDBRANCH  25  28
ENDBRANCH   2   6
ENDBRANCH   1   2
BRANCH   1  30
ATOM     30  C   UNL     1     170.998 158.202 150.085  1.00  0.00     0.028 C 
BRANCH  30  31
ATOM     31  C   UNL     1     169.907 159.148 150.527  1.00  0.00    -0.028 C 
ATOM     32  C   UNL     1     169.326 160.042 149.700  1.00  0.00    -0.080 C 
ATOM     33  C   UNL     1     169.743 160.171 148.255  1.00  0.00     0.039 C 
ATOM     34  C   UNL     1     168.231 160.925 150.242  1.00  0.00     0.039 C 
ENDBRANCH  30  31
ENDBRANCH   1  30
TORSDOF 6
ENDMDL
MODEL 7
REMARK VINA RESULT:    -6.934      2.246      9.156
REMARK INTER + INTRA:         -10.039
REMARK INTER:                  -8.583
REMARK INTRA:                  -1.455
REMARK UNBOUND:                -0.874
REMARK SMILES CC(C)=CCC[C@@H](C(=O)[O-])[C@@H]1CC[C@]2(C)C3=C(CC[C@]12C)[C@@]1(C)CC[C@H](O)C(C)(C)[C@H]1CC3
REMARK SMILES IDX 6 1 7 2 8 3 9 4 10 5 11 6 12 7 20 8 13 9 14 10 19 11 21 12
REMARK SMILES IDX 15 13 16 14 18 15 17 16 33 17 22 18 32 19 31 20 24 21 23 22
REMARK SMILES IDX 28 23 25 24 26 25 29 26 30 27 27 28 5 30 4 31 2 32 1 33 3 34
REMARK H PARENT 27 29
REMARK Flexibility Score: inf
ROOT
ATOM      1  C   UNL     1     172.066 162.783 151.916  1.00  0.00     0.014 C 
ENDROOT
BRANCH   1   2
ATOM      2  C   UNL     1     172.073 164.166 152.621  1.00  0.00     0.039 C 
BRANCH   2   3
ATOM      3  C   UNL     1     172.112 164.035 154.128  1.00  0.00     0.045 C 
ATOM      4  O   UNL     1     172.798 163.140 154.684  1.00  0.00    -0.550 OA
ATOM      5  O   UNL     1     171.364 164.900 154.915  1.00  0.00    -0.550 OA
ENDBRANCH   2   3
BRANCH   2   6
ATOM      6  C   UNL     1     173.122 165.174 152.001  1.00  0.00     0.004 C 
ATOM      7  C   UNL     1     174.285 165.620 152.891  1.00  0.00     0.006 C 
ATOM      8  C   UNL     1     172.562 166.495 151.391  1.00  0.00    -0.020 C 
ATOM      9  C   UNL     1     174.877 166.862 152.222  1.00  0.00     0.012 C 
ATOM     10  C   UNL     1     173.877 167.338 151.121  1.00  0.00    -0.006 C 
ATOM     11  C   UNL     1     171.581 167.242 152.374  1.00  0.00     0.012 C 
ATOM     12  C   UNL     1     171.765 166.182 150.094  1.00  0.00     0.012 C 
ATOM     13  C   UNL     1     174.525 166.982 149.746  1.00  0.00     0.017 C 
ATOM     14  C   UNL     1     173.633 168.866 151.264  1.00  0.00    -0.064 C 
ATOM     15  C   UNL     1     172.229 168.337 153.220  1.00  0.00     0.032 C 
ATOM     16  C   UNL     1     172.917 169.349 152.322  1.00  0.00    -0.064 C 
ATOM     17  C   UNL     1     174.161 169.879 150.260  1.00  0.00     0.032 C 
ATOM     18  C   UNL     1     172.967 170.871 152.661  1.00  0.00    -0.008 C 
ATOM     19  C   UNL     1     173.096 170.942 150.043  1.00  0.00     0.009 C 
ATOM     20  C   UNL     1     172.814 171.773 151.341  1.00  0.00     0.007 C 
ATOM     21  C   UNL     1     174.334 171.076 153.382  1.00  0.00     0.014 C 
ATOM     22  C   UNL     1     171.828 171.238 153.653  1.00  0.00     0.016 C 
ATOM     23  C   UNL     1     173.490 173.231 151.393  1.00  0.00    -0.006 C 
ATOM     24  C   UNL     1     174.750 172.530 153.531  1.00  0.00     0.033 C 
ATOM     25  C   UNL     1     174.853 173.195 152.152  1.00  0.00     0.120 C 
ATOM     26  C   UNL     1     173.767 173.807 149.975  1.00  0.00     0.014 C 
ATOM     27  C   UNL     1     172.520 174.261 152.056  1.00  0.00     0.014 C 
BRANCH  25  28
ATOM     28  O   UNL     1     175.426 174.479 152.259  1.00  0.00    -0.393 OA
ATOM     29  H   UNL     1     174.700 175.152 152.181  1.00  0.00     0.210 HD
ENDBRANCH  25  28
ENDBRANCH   2   6
ENDBRANCH   1   2
BRANCH   1  30
ATOM     30  C   UNL     1     172.758 162.729 150.538  1.00  0.00     0.028 C 
BRANCH  30  31
ATOM     31  C   UNL     1     173.625 161.503 150.373  1.00  0.00    -0.028 C 
ATOM     32  C   UNL     1     174.965 161.522 150.525  1.00  0.00    -0.080 C 
ATOM     33  C   UNL     1     175.706 162.794 150.863  1.00  0.00     0.039 C 
ATOM     34  C   UNL     1     175.731 160.235 150.357  1.00  0.00     0.039 C 
ENDBRANCH  30  31
ENDBRANCH   1  30
TORSDOF 6
ENDMDL
MODEL 8
REMARK VINA RESULT:    -6.930     12.919     15.086
REMARK INTER + INTRA:         -10.033
REMARK INTER:                  -8.513
REMARK INTRA:                  -1.520
REMARK UNBOUND:                -0.874
REMARK SMILES CC(C)=CCC[C@@H](C(=O)[O-])[C@@H]1CC[C@]2(C)C3=C(CC[C@]12C)[C@@]1(C)CC[C@H](O)C(C)(C)[C@H]1CC3
REMARK SMILES IDX 6 1 7 2 8 3 9 4 10 5 11 6 12 7 20 8 13 9 14 10 19 11 21 12
REMARK SMILES IDX 15 13 16 14 18 15 17 16 33 17 22 18 32 19 31 20 24 21 23 22
REMARK SMILES IDX 28 23 25 24 26 25 29 26 30 27 27 28 5 30 4 31 2 32 1 33 3 34
REMARK H PARENT 27 29
REMARK Flexibility Score: inf
ROOT
ATOM      1  C   UNL     1     156.483 168.358 151.330  1.00  0.00     0.014 C 
ENDROOT
BRANCH   1   2
ATOM      2  C   UNL     1     157.173 167.406 152.345  1.00  0.00     0.039 C 
BRANCH   2   3
ATOM      3  C   UNL     1     157.103 167.938 153.760  1.00  0.00     0.045 C 
ATOM      4  O   UNL     1     158.082 167.837 154.542  1.00  0.00    -0.550 OA
ATOM      5  O   UNL     1     155.933 168.531 154.216  1.00  0.00    -0.550 OA
ENDBRANCH   2   3
BRANCH   2   6
ATOM      6  C   UNL     1     156.745 165.894 152.168  1.00  0.00     0.004 C 
ATOM      7  C   UNL     1     156.510 165.072 153.438  1.00  0.00     0.006 C 
ATOM      8  C   UNL     1     157.662 164.996 151.281  1.00  0.00    -0.020 C 
ATOM      9  C   UNL     1     156.527 163.605 153.002  1.00  0.00     0.012 C 
ATOM     10  C   UNL     1     157.086 163.543 151.546  1.00  0.00    -0.006 C 
ATOM     11  C   UNL     1     159.181 165.105 151.686  1.00  0.00     0.012 C 
ATOM     12  C   UNL     1     157.548 165.433 149.794  1.00  0.00     0.012 C 
ATOM     13  C   UNL     1     155.875 163.219 150.616  1.00  0.00     0.017 C 
ATOM     14  C   UNL     1     158.188 162.451 151.457  1.00  0.00    -0.064 C 
ATOM     15  C   UNL     1     159.670 164.022 152.647  1.00  0.00     0.032 C 
ATOM     16  C   UNL     1     159.396 162.648 152.063  1.00  0.00    -0.064 C 
ATOM     17  C   UNL     1     157.989 161.143 150.709  1.00  0.00     0.032 C 
ATOM     18  C   UNL     1     160.360 161.440 152.278  1.00  0.00    -0.008 C 
ATOM     19  C   UNL     1     159.278 160.806 149.976  1.00  0.00     0.009 C 
ATOM     20  C   UNL     1     160.465 160.529 150.960  1.00  0.00     0.007 C 
ATOM     21  C   UNL     1     159.774 160.673 153.502  1.00  0.00     0.014 C 
ATOM     22  C   UNL     1     161.782 161.947 152.650  1.00  0.00     0.016 C 
ATOM     23  C   UNL     1     160.828 158.980 151.193  1.00  0.00    -0.006 C 
ATOM     24  C   UNL     1     160.360 159.286 153.710  1.00  0.00     0.033 C 
ATOM     25  C   UNL     1     160.122 158.419 152.466  1.00  0.00     0.120 C 
ATOM     26  C   UNL     1     160.398 158.084 149.996  1.00  0.00     0.014 C 
ATOM     27  C   UNL     1     162.375 158.788 151.294  1.00  0.00     0.014 C 
BRANCH  25  28
ATOM     28  O   UNL     1     160.481 157.079 152.716  1.00  0.00    -0.393 OA
ATOM     29  H   UNL     1     161.467 156.999 152.632  1.00  0.00     0.210 HD
ENDBRANCH  25  28
ENDBRANCH   2   6
ENDBRANCH   1   2
BRANCH   1  30
ATOM     30  C   UNL     1     157.395 169.421 150.683  1.00  0.00     0.028 C 
BRANCH  30  31
ATOM     31  C   UNL     1     158.001 168.948 149.382  1.00  0.00    -0.028 C 
ATOM     32  C   UNL     1     159.284 168.546 149.269  1.00  0.00    -0.080 C 
ATOM     33  C   UNL     1     160.223 168.555 150.451  1.00  0.00     0.039 C 
ATOM     34  C   UNL     1     159.779 168.074 147.926  1.00  0.00     0.039 C 
ENDBRANCH  30  31
ENDBRANCH   1  30
TORSDOF 6
ENDMDL
MODEL 9
REMARK VINA RESULT:    -6.880      4.840     10.445
REMARK INTER + INTRA:          -9.967
REMARK INTER:                  -8.542
REMARK INTRA:                  -1.425
REMARK UNBOUND:                -0.874
REMARK SMILES CC(C)=CCC[C@@H](C(=O)[O-])[C@@H]1CC[C@]2(C)C3=C(CC[C@]12C)[C@@]1(C)CC[C@H](O)C(C)(C)[C@H]1CC3
REMARK SMILES IDX 6 1 7 2 8 3 9 4 10 5 11 6 12 7 20 8 13 9 14 10 19 11 21 12
REMARK SMILES IDX 15 13 16 14 18 15 17 16 33 17 22 18 32 19 31 20 24 21 23 22
REMARK SMILES IDX 28 23 25 24 26 25 29 26 30 27 27 28 5 30 4 31 2 32 1 33 3 34
REMARK H PARENT 27 29
REMARK Flexibility Score: inf
ROOT
ATOM      1  C   UNL     1     175.047 169.967 151.502  1.00  0.00     0.014 C 
ENDROOT
BRANCH   1   2
ATOM      2  C   UNL     1     174.023 170.355 152.604  1.00  0.00     0.039 C 
BRANCH   2   3
ATOM      3  C   UNL     1     174.559 170.091 153.994  1.00  0.00     0.045 C 
ATOM      4  O   UNL     1     175.654 170.580 154.372  1.00  0.00    -0.550 OA
ATOM      5  O   UNL     1     173.845 169.279 154.865  1.00  0.00    -0.550 OA
ENDBRANCH   2   3
BRANCH   2   6
ATOM      6  C   UNL     1     173.386 171.785 152.383  1.00  0.00     0.004 C 
ATOM      7  C   UNL     1     172.975 172.576 153.627  1.00  0.00     0.006 C 
ATOM      8  C   UNL     1     172.151 171.873 151.434  1.00  0.00    -0.020 C 
ATOM      9  C   UNL     1     172.040 173.683 153.137  1.00  0.00     0.012 C 
ATOM     10  C   UNL     1     171.643 173.358 151.662  1.00  0.00    -0.006 C 
ATOM     11  C   UNL     1     171.040 170.815 151.794  1.00  0.00     0.012 C 
ATOM     12  C   UNL     1     172.591 171.600 149.969  1.00  0.00     0.012 C 
ATOM     13  C   UNL     1     172.405 174.378 150.759  1.00  0.00     0.017 C 
ATOM     14  C   UNL     1     170.103 173.482 151.497  1.00  0.00    -0.064 C 
ATOM     15  C   UNL     1     169.923 171.335 152.698  1.00  0.00     0.032 C 
ATOM     16  C   UNL     1     169.277 172.558 152.071  1.00  0.00    -0.064 C 
ATOM     17  C   UNL     1     169.450 174.605 150.706  1.00  0.00     0.032 C 
ATOM     18  C   UNL     1     167.753 172.863 152.210  1.00  0.00    -0.008 C 
ATOM     19  C   UNL     1     168.284 174.025 149.921  1.00  0.00     0.009 C 
ATOM     20  C   UNL     1     167.151 173.480 150.855  1.00  0.00     0.007 C 
ATOM     21  C   UNL     1     167.648 173.837 153.422  1.00  0.00     0.014 C 
ATOM     22  C   UNL     1     166.974 171.562 152.556  1.00  0.00     0.016 C 
ATOM     23  C   UNL     1     165.866 174.433 151.018  1.00  0.00    -0.006 C 
ATOM     24  C   UNL     1     166.299 174.522 153.559  1.00  0.00     0.033 C 
ATOM     25  C   UNL     1     165.983 175.328 152.291  1.00  0.00     0.120 C 
ATOM     26  C   UNL     1     165.677 175.385 149.802  1.00  0.00     0.014 C 
ATOM     27  C   UNL     1     164.556 173.584 151.063  1.00  0.00     0.014 C 
BRANCH  25  28
ATOM     28  O   UNL     1     164.834 176.123 152.479  1.00  0.00    -0.393 OA
ATOM     29  H   UNL     1     165.121 177.071 152.559  1.00  0.00     0.210 HD
ENDBRANCH  25  28
ENDBRANCH   2   6
ENDBRANCH   1   2
BRANCH   1  30
ATOM     30  C   UNL     1     174.995 168.500 151.026  1.00  0.00     0.028 C 
BRANCH  30  31
ATOM     31  C   UNL     1     174.289 168.347 149.700  1.00  0.00    -0.028 C 
ATOM     32  C   UNL     1     173.041 167.848 149.581  1.00  0.00    -0.080 C 
ATOM     33  C   UNL     1     172.255 167.387 150.786  1.00  0.00     0.039 C 
ATOM     34  C   UNL     1     172.424 167.758 148.209  1.00  0.00     0.039 C 
ENDBRANCH  30  31
ENDBRANCH   1  30
TORSDOF 6
ENDMDL
