MODEL 1
REMARK VINA RESULT:    -5.963      0.000      0.000
REMARK INTER + INTRA:          -9.319
REMARK INTER:                  -8.404
REMARK INTRA:                  -0.916
REMARK UNBOUND:                -0.916
REMARK SMILES C[C@@H](CO)CCC(=O)[C@@H](C)[C@@H]1C(=O)C[C@@H]2[C@@H]3CC=C4C[C@@H](O)CC[C@@]4(C)[C@H]3CC[C@@]21C
REMARK SMILES IDX 6 1 5 2 2 3 1 4 3 5 4 6 7 8 8 9 9 10 10 11 11 12 12 13 30 14
REMARK SMILES IDX 13 15 14 16 15 17 29 18 31 19 16 20 28 21 27 22 17 23 25 24
REMARK SMILES IDX 18 25 19 26 24 27 26 28 20 29 23 30 21 31 22 32
REMARK H PARENT 4 7 22 33
REMARK Flexibility Score: inf
ROOT
ATOM      1  C   UNL     1     129.656 132.832 114.156  1.00  0.00     0.076 C 
ENDROOT
BRANCH   1   2
ATOM      2  C   UNL     1     128.311 133.250 114.781  1.00  0.00     0.013 C 
BRANCH   2   3
ATOM      3  C   UNL     1     128.446 133.950 116.159  1.00  0.00     0.012 C 
ATOM      4  C   UNL     1     129.688 134.860 116.203  1.00  0.00     0.010 C 
BRANCH   3   5
ATOM      5  C   UNL     1     127.177 134.766 116.462  1.00  0.00     0.159 C 
BRANCH   5   6
ATOM      6  O   UNL     1     127.249 135.313 117.751  1.00  0.00    -0.396 OA
ATOM      7  H   UNL     1     126.467 135.917 117.839  1.00  0.00     0.210 HD
ENDBRANCH   5   6
ENDBRANCH   3   5
ENDBRANCH   2   3
ENDBRANCH   1   2
BRANCH   1   8
ATOM      8  C   UNL     1     130.085 131.449 114.599  1.00  0.00     0.136 C 
ATOM      9  O   UNL     1     131.113 130.976 114.135  1.00  0.00    -0.299 OA
BRANCH   8  10
ATOM     10  C   UNL     1     129.247 130.581 115.528  1.00  0.00     0.064 C 
ATOM     11  C   UNL     1     128.362 129.592 114.735  1.00  0.00     0.017 C 
BRANCH  10  12
ATOM     12  C   UNL     1     130.156 129.960 116.648  1.00  0.00     0.072 C 
ATOM     13  C   UNL     1     130.047 128.485 116.868  1.00  0.00     0.137 C 
ATOM     14  C   UNL     1     130.022 130.542 118.094  1.00  0.00    -0.019 C 
ATOM     15  O   UNL     1     129.979 127.663 115.968  1.00  0.00    -0.299 OA
ATOM     16  C   UNL     1     130.188 128.100 118.297  1.00  0.00     0.080 C 
ATOM     17  C   UNL     1     130.635 129.413 118.969  1.00  0.00     0.007 C 
ATOM     18  C   UNL     1     128.536 130.767 118.499  1.00  0.00     0.008 C 
ATOM     19  C   UNL     1     130.832 131.855 118.222  1.00  0.00     0.012 C 
ATOM     20  C   UNL     1     130.345 129.524 120.498  1.00  0.00     0.001 C 
ATOM     21  C   UNL     1     128.347 130.998 119.999  1.00  0.00     0.005 C 
ATOM     22  C   UNL     1     128.862 129.799 120.830  1.00  0.00     0.003 C 
ATOM     23  C   UNL     1     130.800 128.257 121.234  1.00  0.00     0.031 C 
ATOM     24  C   UNL     1     128.606 129.951 122.393  1.00  0.00    -0.008 C 
ATOM     25  C   UNL     1     130.581 128.380 122.707  1.00  0.00    -0.027 C 
ATOM     26  C   UNL     1     129.560 129.083 123.239  1.00  0.00    -0.065 C 
ATOM     27  C   UNL     1     128.799 131.428 122.870  1.00  0.00     0.014 C 
ATOM     28  C   UNL     1     127.148 129.500 122.672  1.00  0.00     0.016 C 
ATOM     29  C   UNL     1     129.497 129.225 124.746  1.00  0.00     0.063 C 
ATOM     30  C   UNL     1     128.749 131.614 124.402  1.00  0.00     0.033 C 
ATOM     31  C   UNL     1     129.732 130.691 125.138  1.00  0.00     0.118 C 
BRANCH  31  32
ATOM     32  O   UNL     1     131.050 131.073 124.833  1.00  0.00    -0.393 OA
ATOM     33  H   UNL     1     131.147 132.019 125.119  1.00  0.00     0.210 HD
ENDBRANCH  31  32
ENDBRANCH  10  12
ENDBRANCH   8  10
ENDBRANCH   1   8
TORSDOF 8
ENDMDL
MODEL 2
REMARK VINA RESULT:    -5.788      9.454     11.792
REMARK INTER + INTRA:          -9.072
REMARK INTER:                  -8.449
REMARK INTRA:                  -0.623
REMARK UNBOUND:                -0.916
REMARK SMILES C[C@@H](CO)CCC(=O)[C@@H](C)[C@@H]1C(=O)C[C@@H]2[C@@H]3CC=C4C[C@@H](O)CC[C@@]4(C)[C@H]3CC[C@@]21C
REMARK SMILES IDX 6 1 5 2 2 3 1 4 3 5 4 6 7 8 8 9 9 10 10 11 11 12 12 13 30 14
REMARK SMILES IDX 13 15 14 16 15 17 29 18 31 19 16 20 28 21 27 22 17 23 25 24
REMARK SMILES IDX 18 25 19 26 24 27 26 28 20 29 23 30 21 31 22 32
REMARK H PARENT 4 7 22 33
REMARK Flexibility Score: inf
ROOT
ATOM      1  C   UNL     1     143.055 129.559 114.749  1.00  0.00     0.076 C 
ENDROOT
BRANCH   1   2
ATOM      2  C   UNL     1     144.519 129.835 115.142  1.00  0.00     0.013 C 
BRANCH   2   3
ATOM      3  C   UNL     1     144.891 129.353 116.569  1.00  0.00     0.012 C 
ATOM      4  C   UNL     1     145.966 128.251 116.524  1.00  0.00     0.010 C 
BRANCH   3   5
ATOM      5  C   UNL     1     145.381 130.541 117.415  1.00  0.00     0.159 C 
BRANCH   5   6
ATOM      6  O   UNL     1     145.907 130.084 118.632  1.00  0.00    -0.396 OA
ATOM      7  H   UNL     1     145.134 129.756 119.161  1.00  0.00     0.210 HD
ENDBRANCH   5   6
ENDBRANCH   3   5
ENDBRANCH   2   3
ENDBRANCH   1   2
BRANCH   1   8
ATOM      8  C   UNL     1     142.609 128.169 115.153  1.00  0.00     0.136 C 
ATOM      9  O   UNL     1     143.235 127.207 114.733  1.00  0.00    -0.299 OA
BRANCH   8  10
ATOM     10  C   UNL     1     141.360 127.911 115.986  1.00  0.00     0.064 C 
ATOM     11  C   UNL     1     141.712 127.654 117.470  1.00  0.00     0.017 C 
BRANCH  10  12
ATOM     12  C   UNL     1     140.287 129.022 115.705  1.00  0.00     0.072 C 
ATOM     13  C   UNL     1     140.079 130.048 116.774  1.00  0.00     0.137 C 
ATOM     14  C   UNL     1     138.830 128.554 115.378  1.00  0.00    -0.019 C 
ATOM     15  O   UNL     1     140.984 130.576 117.398  1.00  0.00    -0.299 OA
ATOM     16  C   UNL     1     138.661 130.479 116.894  1.00  0.00     0.080 C 
ATOM     17  C   UNL     1     137.994 129.834 115.665  1.00  0.00     0.007 C 
ATOM     18  C   UNL     1     138.360 127.404 116.316  1.00  0.00     0.008 C 
ATOM     19  C   UNL     1     138.722 128.132 113.893  1.00  0.00     0.012 C 
ATOM     20  C   UNL     1     136.453 129.612 115.767  1.00  0.00     0.001 C 
ATOM     21  C   UNL     1     136.852 127.161 116.265  1.00  0.00     0.005 C 
ATOM     22  C   UNL     1     136.056 128.425 116.671  1.00  0.00     0.003 C 
ATOM     23  C   UNL     1     135.752 130.882 116.266  1.00  0.00     0.031 C 
ATOM     24  C   UNL     1     134.482 128.198 116.721  1.00  0.00    -0.008 C 
ATOM     25  C   UNL     1     134.270 130.698 116.310  1.00  0.00    -0.027 C 
ATOM     26  C   UNL     1     133.687 129.512 116.579  1.00  0.00    -0.065 C 
ATOM     27  C   UNL     1     133.997 127.252 115.573  1.00  0.00     0.014 C 
ATOM     28  C   UNL     1     134.146 127.562 118.095  1.00  0.00     0.016 C 
ATOM     29  C   UNL     1     132.177 129.420 116.494  1.00  0.00     0.063 C 
ATOM     30  C   UNL     1     132.462 127.138 115.448  1.00  0.00     0.033 C 
ATOM     31  C   UNL     1     131.779 128.508 115.325  1.00  0.00     0.118 C 
BRANCH  31  32
ATOM     32  O   UNL     1     132.135 129.100 114.100  1.00  0.00    -0.393 OA
ATOM     33  H   UNL     1     132.264 128.360 113.451  1.00  0.00     0.210 HD
ENDBRANCH  31  32
ENDBRANCH  10  12
ENDBRANCH   8  10
ENDBRANCH   1   8
TORSDOF 8
ENDMDL
MODEL 3
REMARK VINA RESULT:    -5.718     12.088     13.881
REMARK INTER + INTRA:          -8.974
REMARK INTER:                  -8.275
REMARK INTRA:                  -0.698
REMARK UNBOUND:                -0.916
REMARK SMILES C[C@@H](CO)CCC(=O)[C@@H](C)[C@@H]1C(=O)C[C@@H]2[C@@H]3CC=C4C[C@@H](O)CC[C@@]4(C)[C@H]3CC[C@@]21C
REMARK SMILES IDX 6 1 5 2 2 3 1 4 3 5 4 6 7 8 8 9 9 10 10 11 11 12 12 13 30 14
REMARK SMILES IDX 13 15 14 16 15 17 29 18 31 19 16 20 28 21 27 22 17 23 25 24
REMARK SMILES IDX 18 25 19 26 24 27 26 28 20 29 23 30 21 31 22 32
REMARK H PARENT 4 7 22 33
REMARK Flexibility Score: inf
ROOT
ATOM      1  C   UNL     1     145.670 132.058 116.999  1.00  0.00     0.076 C 
ENDROOT
BRANCH   1   2
ATOM      2  C   UNL     1     146.304 133.435 116.717  1.00  0.00     0.013 C 
BRANCH   2   3
ATOM      3  C   UNL     1     145.681 134.181 115.509  1.00  0.00     0.012 C 
ATOM      4  C   UNL     1     144.148 134.269 115.637  1.00  0.00     0.010 C 
BRANCH   3   5
ATOM      5  C   UNL     1     146.287 135.590 115.390  1.00  0.00     0.159 C 
BRANCH   5   6
ATOM      6  O   UNL     1     146.741 135.814 114.082  1.00  0.00    -0.396 OA
ATOM      7  H   UNL     1     147.672 136.146 114.166  1.00  0.00     0.210 HD
ENDBRANCH   5   6
ENDBRANCH   3   5
ENDBRANCH   2   3
ENDBRANCH   1   2
BRANCH   1   8
ATOM      8  C   UNL     1     145.993 131.050 115.917  1.00  0.00     0.136 C 
ATOM      9  O   UNL     1     147.125 131.028 115.455  1.00  0.00    -0.299 OA
BRANCH   8  10
ATOM     10  C   UNL     1     144.949 130.121 115.313  1.00  0.00     0.064 C 
ATOM     11  C   UNL     1     145.590 129.097 114.349  1.00  0.00     0.017 C 
BRANCH  10  12
ATOM     12  C   UNL     1     144.031 129.536 116.445  1.00  0.00     0.072 C 
ATOM     13  C   UNL     1     144.124 128.065 116.698  1.00  0.00     0.137 C 
ATOM     14  C   UNL     1     142.490 129.775 116.323  1.00  0.00    -0.019 C 
ATOM     15  O   UNL     1     145.173 127.443 116.731  1.00  0.00    -0.299 OA
ATOM     16  C   UNL     1     142.817 127.456 117.062  1.00  0.00     0.080 C 
ATOM     17  C   UNL     1     141.905 128.681 117.260  1.00  0.00     0.007 C 
ATOM     18  C   UNL     1     141.975 129.547 114.871  1.00  0.00     0.008 C 
ATOM     19  C   UNL     1     142.126 131.195 116.820  1.00  0.00     0.012 C 
ATOM     20  C   UNL     1     140.375 128.420 117.103  1.00  0.00     0.001 C 
ATOM     21  C   UNL     1     140.453 129.430 114.782  1.00  0.00     0.005 C 
ATOM     22  C   UNL     1     139.921 128.255 115.637  1.00  0.00     0.003 C 
ATOM     23  C   UNL     1     139.948 127.184 117.905  1.00  0.00     0.031 C 
ATOM     24  C   UNL     1     138.350 128.032 115.507  1.00  0.00    -0.008 C 
ATOM     25  C   UNL     1     138.474 126.961 117.809  1.00  0.00    -0.027 C 
ATOM     26  C   UNL     1     137.755 127.277 116.712  1.00  0.00    -0.065 C 
ATOM     27  C   UNL     1     137.581 129.390 115.402  1.00  0.00     0.014 C 
ATOM     28  C   UNL     1     138.103 127.194 114.225  1.00  0.00     0.016 C 
ATOM     29  C   UNL     1     136.251 127.103 116.766  1.00  0.00     0.063 C 
ATOM     30  C   UNL     1     136.044 129.256 115.461  1.00  0.00     0.033 C 
ATOM     31  C   UNL     1     135.569 128.477 116.696  1.00  0.00     0.118 C 
BRANCH  31  32
ATOM     32  O   UNL     1     135.850 129.221 117.856  1.00  0.00    -0.393 OA
ATOM     33  H   UNL     1     135.686 128.619 118.629  1.00  0.00     0.210 HD
ENDBRANCH  31  32
ENDBRANCH  10  12
ENDBRANCH   8  10
ENDBRANCH   1   8
TORSDOF 8
ENDMDL
MODEL 4
REMARK VINA RESULT:    -5.689      9.877     12.061
REMARK INTER + INTRA:          -8.932
REMARK INTER:                  -7.740
REMARK INTRA:                  -1.193
REMARK UNBOUND:                -0.916
REMARK SMILES C[C@@H](CO)CCC(=O)[C@@H](C)[C@@H]1C(=O)C[C@@H]2[C@@H]3CC=C4C[C@@H](O)CC[C@@]4(C)[C@H]3CC[C@@]21C
REMARK SMILES IDX 6 1 5 2 2 3 1 4 3 5 4 6 7 8 8 9 9 10 10 11 11 12 12 13 30 14
REMARK SMILES IDX 13 15 14 16 15 17 29 18 31 19 16 20 28 21 27 22 17 23 25 24
REMARK SMILES IDX 18 25 19 26 24 27 26 28 20 29 23 30 21 31 22 32
REMARK H PARENT 4 7 22 33
REMARK Flexibility Score: inf
ROOT
ATOM      1  C   UNL     1     133.960 127.278 117.699  1.00  0.00     0.076 C 
ENDROOT
BRANCH   1   2
ATOM      2  C   UNL     1     132.793 127.989 116.986  1.00  0.00     0.013 C 
BRANCH   2   3
ATOM      3  C   UNL     1     132.993 128.151 115.457  1.00  0.00     0.012 C 
ATOM      4  C   UNL     1     132.010 127.265 114.668  1.00  0.00     0.010 C 
BRANCH   3   5
ATOM      5  C   UNL     1     132.819 129.626 115.055  1.00  0.00     0.159 C 
BRANCH   5   6
ATOM      6  O   UNL     1     133.844 130.404 115.612  1.00  0.00    -0.396 OA
ATOM      7  H   UNL     1     133.469 131.316 115.724  1.00  0.00     0.210 HD
ENDBRANCH   5   6
ENDBRANCH   3   5
ENDBRANCH   2   3
ENDBRANCH   1   2
BRANCH   1   8
ATOM      8  C   UNL     1     135.195 128.150 117.779  1.00  0.00     0.136 C 
ATOM      9  O   UNL     1     135.094 129.267 118.267  1.00  0.00    -0.299 OA
BRANCH   8  10
ATOM     10  C   UNL     1     136.540 127.735 117.197  1.00  0.00     0.064 C 
ATOM     11  C   UNL     1     136.366 126.877 115.923  1.00  0.00     0.017 C 
BRANCH  10  12
ATOM     12  C   UNL     1     137.481 128.986 117.072  1.00  0.00     0.072 C 
ATOM     13  C   UNL     1     137.535 129.663 115.740  1.00  0.00     0.137 C 
ATOM     14  C   UNL     1     138.991 128.794 117.431  1.00  0.00    -0.019 C 
ATOM     15  O   UNL     1     136.556 129.882 115.045  1.00  0.00    -0.299 OA
ATOM     16  C   UNL     1     138.887 130.185 115.410  1.00  0.00     0.080 C 
ATOM     17  C   UNL     1     139.660 130.010 116.731  1.00  0.00     0.007 C 
ATOM     18  C   UNL     1     139.568 127.472 116.844  1.00  0.00     0.008 C 
ATOM     19  C   UNL     1     139.191 128.849 118.965  1.00  0.00     0.012 C 
ATOM     20  C   UNL     1     141.213 129.932 116.602  1.00  0.00     0.001 C 
ATOM     21  C   UNL     1     141.096 127.416 116.871  1.00  0.00     0.005 C 
ATOM     22  C   UNL     1     141.724 128.578 116.064  1.00  0.00     0.003 C 
ATOM     23  C   UNL     1     141.744 131.062 115.710  1.00  0.00     0.031 C 
ATOM     24  C   UNL     1     143.312 128.514 115.984  1.00  0.00    -0.008 C 
ATOM     25  C   UNL     1     143.235 131.031 115.630  1.00  0.00    -0.027 C 
ATOM     26  C   UNL     1     143.948 129.887 115.685  1.00  0.00    -0.065 C 
ATOM     27  C   UNL     1     143.938 128.011 117.327  1.00  0.00     0.014 C 
ATOM     28  C   UNL     1     143.682 127.536 114.839  1.00  0.00     0.016 C 
ATOM     29  C   UNL     1     145.459 129.984 115.699  1.00  0.00     0.063 C 
ATOM     30  C   UNL     1     145.478 128.102 117.384  1.00  0.00     0.033 C 
ATOM     31  C   UNL     1     145.996 129.510 117.057  1.00  0.00     0.118 C 
BRANCH  31  32
ATOM     32  O   UNL     1     145.606 130.400 118.074  1.00  0.00    -0.393 OA
ATOM     33  H   UNL     1     146.125 130.153 118.884  1.00  0.00     0.210 HD
ENDBRANCH  31  32
ENDBRANCH  10  12
ENDBRANCH   8  10
ENDBRANCH   1   8
TORSDOF 8
ENDMDL
MODEL 5
REMARK VINA RESULT:    -5.678      3.494      8.054
REMARK INTER + INTRA:          -8.918
REMARK INTER:                  -7.664
REMARK INTRA:                  -1.254
REMARK UNBOUND:                -0.916
REMARK SMILES C[C@@H](CO)CCC(=O)[C@@H](C)[C@@H]1C(=O)C[C@@H]2[C@@H]3CC=C4C[C@@H](O)CC[C@@]4(C)[C@H]3CC[C@@]21C
REMARK SMILES IDX 6 1 5 2 2 3 1 4 3 5 4 6 7 8 8 9 9 10 10 11 11 12 12 13 30 14
REMARK SMILES IDX 13 15 14 16 15 17 29 18 31 19 16 20 28 21 27 22 17 23 25 24
REMARK SMILES IDX 18 25 19 26 24 27 26 28 20 29 23 30 21 31 22 32
REMARK H PARENT 4 7 22 33
REMARK Flexibility Score: inf
ROOT
ATOM      1  C   UNL     1     129.558 129.064 115.125  1.00  0.00     0.076 C 
ENDROOT
BRANCH   1   2
ATOM      2  C   UNL     1     130.570 127.911 114.971  1.00  0.00     0.013 C 
BRANCH   2   3
ATOM      3  C   UNL     1     132.033 128.380 114.764  1.00  0.00     0.012 C 
ATOM      4  C   UNL     1     132.093 129.867 114.368  1.00  0.00     0.010 C 
BRANCH   3   5
ATOM      5  C   UNL     1     132.850 128.138 116.045  1.00  0.00     0.159 C 
BRANCH   5   6
ATOM      6  O   UNL     1     132.686 129.208 116.936  1.00  0.00    -0.396 OA
ATOM      7  H   UNL     1     131.904 128.979 117.502  1.00  0.00     0.210 HD
ENDBRANCH   5   6
ENDBRANCH   3   5
ENDBRANCH   2   3
ENDBRANCH   1   2
BRANCH   1   8
ATOM      8  C   UNL     1     129.218 129.333 116.576  1.00  0.00     0.136 C 
ATOM      9  O   UNL     1     129.188 128.392 117.356  1.00  0.00    -0.299 OA
BRANCH   8  10
ATOM     10  C   UNL     1     128.822 130.711 117.091  1.00  0.00     0.064 C 
ATOM     11  C   UNL     1     128.554 130.691 118.613  1.00  0.00     0.017 C 
BRANCH  10  12
ATOM     12  C   UNL     1     129.840 131.790 116.576  1.00  0.00     0.072 C 
ATOM     13  C   UNL     1     130.872 132.266 117.547  1.00  0.00     0.137 C 
ATOM     14  C   UNL     1     129.252 133.123 116.006  1.00  0.00    -0.019 C 
ATOM     15  O   UNL     1     131.485 131.532 118.306  1.00  0.00    -0.299 OA
ATOM     16  C   UNL     1     131.195 133.708 117.390  1.00  0.00     0.080 C 
ATOM     17  C   UNL     1     130.470 134.087 116.084  1.00  0.00     0.007 C 
ATOM     18  C   UNL     1     128.093 133.676 116.886  1.00  0.00     0.008 C 
ATOM     19  C   UNL     1     128.786 132.924 114.543  1.00  0.00     0.012 C 
ATOM     20  C   UNL     1     130.132 135.601 115.912  1.00  0.00     0.001 C 
ATOM     21  C   UNL     1     127.732 135.127 116.568  1.00  0.00     0.005 C 
ATOM     22  C   UNL     1     128.940 136.073 116.772  1.00  0.00     0.003 C 
ATOM     23  C   UNL     1     131.356 136.472 116.224  1.00  0.00     0.031 C 
ATOM     24  C   UNL     1     128.594 137.609 116.543  1.00  0.00    -0.008 C 
ATOM     25  C   UNL     1     131.059 137.919 116.003  1.00  0.00    -0.027 C 
ATOM     26  C   UNL     1     129.838 138.456 116.206  1.00  0.00    -0.065 C 
ATOM     27  C   UNL     1     127.585 137.803 115.362  1.00  0.00     0.014 C 
ATOM     28  C   UNL     1     127.968 138.147 117.856  1.00  0.00     0.016 C 
ATOM     29  C   UNL     1     129.627 139.913 115.851  1.00  0.00     0.063 C 
ATOM     30  C   UNL     1     127.349 139.276 114.964  1.00  0.00     0.033 C 
ATOM     31  C   UNL     1     128.658 140.020 114.664  1.00  0.00     0.118 C 
BRANCH  31  32
ATOM     32  O   UNL     1     129.245 139.487 113.504  1.00  0.00    -0.393 OA
ATOM     33  H   UNL     1     128.642 139.712 112.748  1.00  0.00     0.210 HD
ENDBRANCH  31  32
ENDBRANCH  10  12
ENDBRANCH   8  10
ENDBRANCH   1   8
TORSDOF 8
ENDMDL
MODEL 6
REMARK VINA RESULT:    -5.675      2.060      8.524
REMARK INTER + INTRA:          -8.913
REMARK INTER:                  -7.839
REMARK INTRA:                  -1.074
REMARK UNBOUND:                -0.916
REMARK SMILES C[C@@H](CO)CCC(=O)[C@@H](C)[C@@H]1C(=O)C[C@@H]2[C@@H]3CC=C4C[C@@H](O)CC[C@@]4(C)[C@H]3CC[C@@]21C
REMARK SMILES IDX 6 1 5 2 2 3 1 4 3 5 4 6 7 8 8 9 9 10 10 11 11 12 12 13 30 14
REMARK SMILES IDX 13 15 14 16 15 17 29 18 31 19 16 20 28 21 27 22 17 23 25 24
REMARK SMILES IDX 18 25 19 26 24 27 26 28 20 29 23 30 21 31 22 32
REMARK H PARENT 4 7 22 33
REMARK Flexibility Score: inf
ROOT
ATOM      1  C   UNL     1     127.249 129.052 125.177  1.00  0.00     0.076 C 
ENDROOT
BRANCH   1   2
ATOM      2  C   UNL     1     128.147 127.996 125.852  1.00  0.00     0.013 C 
BRANCH   2   3
ATOM      3  C   UNL     1     128.449 128.286 127.345  1.00  0.00     0.012 C 
ATOM      4  C   UNL     1     127.933 127.152 128.250  1.00  0.00     0.010 C 
BRANCH   3   5
ATOM      5  C   UNL     1     129.962 128.482 127.548  1.00  0.00     0.159 C 
BRANCH   5   6
ATOM      6  O   UNL     1     130.652 128.194 126.361  1.00  0.00    -0.396 OA
ATOM      7  H   UNL     1     131.366 127.551 126.606  1.00  0.00     0.210 HD
ENDBRANCH   5   6
ENDBRANCH   3   5
ENDBRANCH   2   3
ENDBRANCH   1   2
BRANCH   1   8
ATOM      8  C   UNL     1     127.911 130.413 125.126  1.00  0.00     0.136 C 
ATOM      9  O   UNL     1     127.627 131.236 125.984  1.00  0.00    -0.299 OA
BRANCH   8  10
ATOM     10  C   UNL     1     128.847 130.836 124.002  1.00  0.00     0.064 C 
ATOM     11  C   UNL     1     130.233 131.253 124.545  1.00  0.00     0.017 C 
BRANCH  10  12
ATOM     12  C   UNL     1     128.841 129.756 122.862  1.00  0.00     0.072 C 
ATOM     13  C   UNL     1     130.112 129.001 122.637  1.00  0.00     0.137 C 
ATOM     14  C   UNL     1     128.452 130.226 121.422  1.00  0.00    -0.019 C 
ATOM     15  O   UNL     1     130.817 128.568 123.534  1.00  0.00    -0.299 OA
ATOM     16  C   UNL     1     130.356 128.691 121.204  1.00  0.00     0.080 C 
ATOM     17  C   UNL     1     129.030 129.092 120.529  1.00  0.00     0.007 C 
ATOM     18  C   UNL     1     129.125 131.579 121.046  1.00  0.00     0.008 C 
ATOM     19  C   UNL     1     126.913 130.321 121.284  1.00  0.00     0.012 C 
ATOM     20  C   UNL     1     129.116 129.421 119.007  1.00  0.00     0.001 C 
ATOM     21  C   UNL     1     129.055 131.894 119.551  1.00  0.00     0.005 C 
ATOM     22  C   UNL     1     129.746 130.798 118.704  1.00  0.00     0.003 C 
ATOM     23  C   UNL     1     129.897 128.334 118.257  1.00  0.00     0.031 C 
ATOM     24  C   UNL     1     129.780 131.123 117.147  1.00  0.00    -0.008 C 
ATOM     25  C   UNL     1     129.932 128.611 116.789  1.00  0.00    -0.027 C 
ATOM     26  C   UNL     1     129.947 129.860 116.279  1.00  0.00    -0.065 C 
ATOM     27  C   UNL     1     128.464 131.824 116.673  1.00  0.00     0.014 C 
ATOM     28  C   UNL     1     130.989 132.062 116.894  1.00  0.00     0.016 C 
ATOM     29  C   UNL     1     129.878 130.021 114.775  1.00  0.00     0.063 C 
ATOM     30  C   UNL     1     128.352 131.999 115.144  1.00  0.00     0.033 C 
ATOM     31  C   UNL     1     128.547 130.678 114.385  1.00  0.00     0.118 C 
BRANCH  31  32
ATOM     32  O   UNL     1     127.474 129.814 114.667  1.00  0.00    -0.393 OA
ATOM     33  H   UNL     1     127.745 129.268 115.451  1.00  0.00     0.210 HD
ENDBRANCH  31  32
ENDBRANCH  10  12
ENDBRANCH   8  10
ENDBRANCH   1   8
TORSDOF 8
ENDMDL
MODEL 7
REMARK VINA RESULT:    -5.616     10.233     12.824
REMARK INTER + INTRA:          -8.830
REMARK INTER:                  -8.257
REMARK INTRA:                  -0.573
REMARK UNBOUND:                -0.916
REMARK SMILES C[C@@H](CO)CCC(=O)[C@@H](C)[C@@H]1C(=O)C[C@@H]2[C@@H]3CC=C4C[C@@H](O)CC[C@@]4(C)[C@H]3CC[C@@]21C
REMARK SMILES IDX 6 1 5 2 2 3 1 4 3 5 4 6 7 8 8 9 9 10 10 11 11 12 12 13 30 14
REMARK SMILES IDX 13 15 14 16 15 17 29 18 31 19 16 20 28 21 27 22 17 23 25 24
REMARK SMILES IDX 18 25 19 26 24 27 26 28 20 29 23 30 21 31 22 32
REMARK H PARENT 4 7 22 33
REMARK Flexibility Score: inf
ROOT
ATOM      1  C   UNL     1     128.379 142.320 117.536  1.00  0.00     0.076 C 
ENDROOT
BRANCH   1   2
ATOM      2  C   UNL     1     129.330 141.753 116.464  1.00  0.00     0.013 C 
BRANCH   2   3
ATOM      3  C   UNL     1     129.193 142.434 115.077  1.00  0.00     0.012 C 
ATOM      4  C   UNL     1     127.714 142.616 114.688  1.00  0.00     0.010 C 
BRANCH   3   5
ATOM      5  C   UNL     1     129.913 143.793 115.083  1.00  0.00     0.159 C 
BRANCH   5   6
ATOM      6  O   UNL     1     130.371 144.106 113.796  1.00  0.00    -0.396 OA
ATOM      7  H   UNL     1     129.721 143.700 113.165  1.00  0.00     0.210 HD
ENDBRANCH   5   6
ENDBRANCH   3   5
ENDBRANCH   2   3
ENDBRANCH   1   2
BRANCH   1   8
ATOM      8  C   UNL     1     127.553 141.236 118.197  1.00  0.00     0.136 C 
ATOM      9  O   UNL     1     127.024 140.390 117.491  1.00  0.00    -0.299 OA
BRANCH   8  10
ATOM     10  C   UNL     1     127.278 141.203 119.694  1.00  0.00     0.064 C 
ATOM     11  C   UNL     1     126.984 139.766 120.184  1.00  0.00     0.017 C 
BRANCH  10  12
ATOM     12  C   UNL     1     128.398 141.988 120.465  1.00  0.00     0.072 C 
ATOM     13  C   UNL     1     129.592 141.204 120.907  1.00  0.00     0.137 C 
ATOM     14  C   UNL     1     127.981 142.756 121.762  1.00  0.00    -0.019 C 
ATOM     15  O   UNL     1     130.153 140.367 120.219  1.00  0.00    -0.299 OA
ATOM     16  C   UNL     1     130.129 141.657 122.217  1.00  0.00     0.080 C 
ATOM     17  C   UNL     1     129.341 142.953 122.489  1.00  0.00     0.007 C 
ATOM     18  C   UNL     1     127.027 141.913 122.660  1.00  0.00     0.008 C 
ATOM     19  C   UNL     1     127.336 144.116 121.399  1.00  0.00     0.012 C 
ATOM     20  C   UNL     1     129.240 143.384 123.985  1.00  0.00     0.001 C 
ATOM     21  C   UNL     1     126.879 142.474 124.075  1.00  0.00     0.005 C 
ATOM     22  C   UNL     1     128.241 142.543 124.807  1.00  0.00     0.003 C 
ATOM     23  C   UNL     1     130.617 143.335 124.660  1.00  0.00     0.031 C 
ATOM     24  C   UNL     1     128.129 143.035 126.316  1.00  0.00    -0.008 C 
ATOM     25  C   UNL     1     130.540 143.805 126.076  1.00  0.00    -0.027 C 
ATOM     26  C   UNL     1     129.452 143.617 126.852  1.00  0.00    -0.065 C 
ATOM     27  C   UNL     1     127.046 144.152 126.482  1.00  0.00     0.014 C 
ATOM     28  C   UNL     1     127.743 141.805 127.179  1.00  0.00     0.016 C 
ATOM     29  C   UNL     1     129.447 144.227 128.239  1.00  0.00     0.063 C 
ATOM     30  C   UNL     1     127.014 144.805 127.880  1.00  0.00     0.033 C 
ATOM     31  C   UNL     1     128.389 145.337 128.311  1.00  0.00     0.118 C 
BRANCH  31  32
ATOM     32  O   UNL     1     128.754 146.415 127.486  1.00  0.00    -0.393 OA
ATOM     33  H   UNL     1     128.320 147.224 127.864  1.00  0.00     0.210 HD
ENDBRANCH  31  32
ENDBRANCH  10  12
ENDBRANCH   8  10
ENDBRANCH   1   8
TORSDOF 8
ENDMDL
MODEL 8
REMARK VINA RESULT:    -5.584     15.276     17.077
REMARK INTER + INTRA:          -8.785
REMARK INTER:                  -8.328
REMARK INTRA:                  -0.457
REMARK UNBOUND:                -0.916
REMARK SMILES C[C@@H](CO)CCC(=O)[C@@H](C)[C@@H]1C(=O)C[C@@H]2[C@@H]3CC=C4C[C@@H](O)CC[C@@]4(C)[C@H]3CC[C@@]21C
REMARK SMILES IDX 6 1 5 2 2 3 1 4 3 5 4 6 7 8 8 9 9 10 10 11 11 12 12 13 30 14
REMARK SMILES IDX 13 15 14 16 15 17 29 18 31 19 16 20 28 21 27 22 17 23 25 24
REMARK SMILES IDX 18 25 19 26 24 27 26 28 20 29 23 30 21 31 22 32
REMARK H PARENT 4 7 22 33
REMARK Flexibility Score: inf
ROOT
ATOM      1  C   UNL     1     145.632 139.627 115.969  1.00  0.00     0.076 C 
ENDROOT
BRANCH   1   2
ATOM      2  C   UNL     1     145.078 141.053 116.157  1.00  0.00     0.013 C 
BRANCH   2   3
ATOM      3  C   UNL     1     146.077 142.035 116.821  1.00  0.00     0.012 C 
ATOM      4  C   UNL     1     146.496 143.151 115.845  1.00  0.00     0.010 C 
BRANCH   3   5
ATOM      5  C   UNL     1     145.455 142.643 118.090  1.00  0.00     0.159 C 
BRANCH   5   6
ATOM      6  O   UNL     1     146.406 143.411 118.776  1.00  0.00    -0.396 OA
ATOM      7  H   UNL     1     146.803 144.024 118.104  1.00  0.00     0.210 HD
ENDBRANCH   5   6
ENDBRANCH   3   5
ENDBRANCH   2   3
ENDBRANCH   1   2
BRANCH   1   8
ATOM      8  C   UNL     1     144.816 138.595 116.719  1.00  0.00     0.136 C 
ATOM      9  O   UNL     1     144.627 138.754 117.916  1.00  0.00    -0.299 OA
BRANCH   8  10
ATOM     10  C   UNL     1     144.296 137.319 116.069  1.00  0.00     0.064 C 
ATOM     11  C   UNL     1     143.820 137.575 114.621  1.00  0.00     0.017 C 
BRANCH  10  12
ATOM     12  C   UNL     1     145.330 136.154 116.269  1.00  0.00     0.072 C 
ATOM     13  C   UNL     1     146.148 135.764 115.080  1.00  0.00     0.137 C 
ATOM     14  C   UNL     1     144.783 134.783 116.786  1.00  0.00    -0.019 C 
ATOM     15  O   UNL     1     146.654 136.562 114.308  1.00  0.00    -0.299 OA
ATOM     16  C   UNL     1     146.417 134.303 115.016  1.00  0.00     0.080 C 
ATOM     17  C   UNL     1     145.914 133.796 116.381  1.00  0.00     0.007 C 
ATOM     18  C   UNL     1     143.458 134.376 116.075  1.00  0.00     0.008 C 
ATOM     19  C   UNL     1     144.594 134.823 118.322  1.00  0.00     0.012 C 
ATOM     20  C   UNL     1     145.533 132.284 116.444  1.00  0.00     0.001 C 
ATOM     21  C   UNL     1     143.083 132.909 116.291  1.00  0.00     0.005 C 
ATOM     22  C   UNL     1     144.184 131.956 115.768  1.00  0.00     0.003 C 
ATOM     23  C   UNL     1     146.634 131.417 115.820  1.00  0.00     0.031 C 
ATOM     24  C   UNL     1     143.802 130.416 115.886  1.00  0.00    -0.008 C 
ATOM     25  C   UNL     1     146.304 129.964 115.931  1.00  0.00    -0.027 C 
ATOM     26  C   UNL     1     145.040 129.495 115.895  1.00  0.00    -0.065 C 
ATOM     27  C   UNL     1     143.009 130.116 117.201  1.00  0.00     0.014 C 
ATOM     28  C   UNL     1     142.927 130.057 114.657  1.00  0.00     0.016 C 
ATOM     29  C   UNL     1     144.818 128.014 116.120  1.00  0.00     0.063 C 
ATOM     30  C   UNL     1     142.770 128.615 117.471  1.00  0.00     0.033 C 
ATOM     31  C   UNL     1     144.070 127.799 117.444  1.00  0.00     0.118 C 
BRANCH  31  32
ATOM     32  O   UNL     1     144.881 128.172 118.530  1.00  0.00    -0.393 OA
ATOM     33  H   UNL     1     145.260 127.335 118.905  1.00  0.00     0.210 HD
ENDBRANCH  31  32
ENDBRANCH  10  12
ENDBRANCH   8  10
ENDBRANCH   1   8
TORSDOF 8
ENDMDL
