MODEL 1
REMARK VINA RESULT:    -5.880      0.000      0.000
REMARK INTER + INTRA:          -6.372
REMARK INTER:                  -6.395
REMARK INTRA:                   0.024
REMARK UNBOUND:                 0.024
REMARK SMILES CC(=O)[C@H]1CC[C@H]2[C@H]3CC=C4C[C@H](O)CC[C@@]4(C)[C@H]3CC[C@]12C
REMARK SMILES IDX 4 1 5 2 6 3 7 4 22 5 21 6 20 7 19 8 8 9 9 10 10 11 11 12
REMARK SMILES IDX 17 13 16 14 15 15 13 16 12 17 18 18 23 19 2 20 1 21 3 22
REMARK SMILES IDX 14 23
REMARK H PARENT 14 24
REMARK Flexibility Score: inf
ROOT
ATOM      1  C   UNL     1      20.319  24.657  15.748  1.00  0.00     0.062 C 
ATOM      2  C   UNL     1      21.030  25.200  14.480  1.00  0.00     0.012 C 
ATOM      3  C   UNL     1      20.018  26.116  13.768  1.00  0.00     0.005 C 
ATOM      4  C   UNL     1      18.815  26.144  14.704  1.00  0.00    -0.001 C 
ATOM      5  C   UNL     1      18.809  24.789  15.422  1.00  0.00    -0.020 C 
ATOM      6  C   UNL     1      17.895  24.928  16.652  1.00  0.00     0.008 C 
ATOM      7  C   UNL     1      16.468  25.375  16.254  1.00  0.00     0.005 C 
ATOM      8  C   UNL     1      16.404  26.665  15.362  1.00  0.00     0.003 C 
ATOM      9  C   UNL     1      17.446  26.642  14.189  1.00  0.00     0.000 C 
ATOM     10  C   UNL     1      16.944  25.978  12.875  1.00  0.00     0.031 C 
ATOM     11  C   UNL     1      15.506  25.526  12.882  1.00  0.00    -0.027 C 
ATOM     12  C   UNL     1      14.573  25.995  13.736  1.00  0.00    -0.065 C 
ATOM     13  C   UNL     1      14.957  27.000  14.823  1.00  0.00    -0.008 C 
ATOM     14  C   UNL     1      13.906  26.986  15.985  1.00  0.00     0.014 C 
ATOM     15  C   UNL     1      12.451  26.963  15.502  1.00  0.00     0.033 C 
ATOM     16  C   UNL     1      12.210  25.726  14.635  1.00  0.00     0.118 C 
ATOM     17  C   UNL     1      13.114  25.751  13.396  1.00  0.00     0.063 C 
ATOM     18  C   UNL     1      14.950  28.420  14.194  1.00  0.00     0.016 C 
ATOM     19  C   UNL     1      18.348  23.586  14.545  1.00  0.00     0.012 C 
ENDROOT
BRANCH   1  20
ATOM     20  C   UNL     1      20.755  23.278  16.224  1.00  0.00     0.133 C 
ATOM     21  C   UNL     1      20.864  22.911  17.677  1.00  0.00     0.088 C 
ATOM     22  O   UNL     1      21.019  22.428  15.386  1.00  0.00    -0.300 OA
ENDBRANCH   1  20
BRANCH  16  23
ATOM     23  O   UNL     1      10.863  25.699  14.242  1.00  0.00    -0.393 OA
ATOM     24  H   UNL     1      10.642  26.608  13.910  1.00  0.00     0.210 HD
ENDBRANCH  16  23
TORSDOF 2
ENDMDL
MODEL 2
REMARK VINA RESULT:    -5.710      8.638     12.271
REMARK INTER + INTRA:          -6.187
REMARK INTER:                  -6.083
REMARK INTRA:                  -0.103
REMARK UNBOUND:                 0.024
REMARK SMILES CC(=O)[C@H]1CC[C@H]2[C@H]3CC=C4C[C@H](O)CC[C@@]4(C)[C@H]3CC[C@]12C
REMARK SMILES IDX 4 1 5 2 6 3 7 4 22 5 21 6 20 7 19 8 8 9 9 10 10 11 11 12
REMARK SMILES IDX 17 13 16 14 15 15 13 16 12 17 18 18 23 19 2 20 1 21 3 22
REMARK SMILES IDX 14 23
REMARK H PARENT 14 24
REMARK Flexibility Score: inf
ROOT
ATOM      1  C   UNL     1       8.079  29.372  16.369  1.00  0.00     0.062 C 
ATOM      2  C   UNL     1       7.253  30.359  17.237  1.00  0.00     0.012 C 
ATOM      3  C   UNL     1       5.942  29.636  17.595  1.00  0.00     0.005 C 
ATOM      4  C   UNL     1       6.113  28.238  17.011  1.00  0.00    -0.001 C 
ATOM      5  C   UNL     1       7.020  28.403  15.785  1.00  0.00    -0.020 C 
ATOM      6  C   UNL     1       7.556  27.007  15.423  1.00  0.00     0.008 C 
ATOM      7  C   UNL     1       6.406  26.006  15.158  1.00  0.00     0.005 C 
ATOM      8  C   UNL     1       5.334  25.913  16.300  1.00  0.00     0.003 C 
ATOM      9  C   UNL     1       4.883  27.322  16.823  1.00  0.00     0.000 C 
ATOM     10  C   UNL     1       3.688  27.958  16.056  1.00  0.00     0.031 C 
ATOM     11  C   UNL     1       3.076  27.099  14.977  1.00  0.00    -0.027 C 
ATOM     12  C   UNL     1       3.214  25.759  14.913  1.00  0.00    -0.065 C 
ATOM     13  C   UNL     1       4.082  25.022  15.933  1.00  0.00    -0.008 C 
ATOM     14  C   UNL     1       4.528  23.628  15.374  1.00  0.00     0.014 C 
ATOM     15  C   UNL     1       3.401  22.849  14.685  1.00  0.00     0.033 C 
ATOM     16  C   UNL     1       2.840  23.665  13.520  1.00  0.00     0.118 C 
ATOM     17  C   UNL     1       2.254  24.991  14.022  1.00  0.00     0.063 C 
ATOM     18  C   UNL     1       3.228  24.772  17.206  1.00  0.00     0.016 C 
ATOM     19  C   UNL     1       6.334  29.052  14.545  1.00  0.00     0.012 C 
ENDROOT
BRANCH   1  20
ATOM     20  C   UNL     1       9.011  30.001  15.343  1.00  0.00     0.133 C 
ATOM     21  C   UNL     1      10.222  29.297  14.799  1.00  0.00     0.088 C 
ATOM     22  O   UNL     1       8.757  31.125  14.934  1.00  0.00    -0.300 OA
ENDBRANCH   1  20
BRANCH  16  23
ATOM     23  O   UNL     1       1.844  22.917  12.875  1.00  0.00    -0.393 OA
ATOM     24  H   UNL     1       2.159  22.759  11.947  1.00  0.00     0.210 HD
ENDBRANCH  16  23
TORSDOF 2
ENDMDL
MODEL 3
REMARK VINA RESULT:    -5.480      3.894      7.258
REMARK INTER + INTRA:          -5.937
REMARK INTER:                  -5.809
REMARK INTRA:                  -0.128
REMARK UNBOUND:                 0.024
REMARK SMILES CC(=O)[C@H]1CC[C@H]2[C@H]3CC=C4C[C@H](O)CC[C@@]4(C)[C@H]3CC[C@]12C
REMARK SMILES IDX 4 1 5 2 6 3 7 4 22 5 21 6 20 7 19 8 8 9 9 10 10 11 11 12
REMARK SMILES IDX 17 13 16 14 15 15 13 16 12 17 18 18 23 19 2 20 1 21 3 22
REMARK SMILES IDX 14 23
REMARK H PARENT 14 24
REMARK Flexibility Score: inf
ROOT
ATOM      1  C   UNL     1      12.982  24.625  13.887  1.00  0.00     0.062 C 
ATOM      2  C   UNL     1      12.108  23.582  13.141  1.00  0.00     0.012 C 
ATOM      3  C   UNL     1      10.740  24.245  12.901  1.00  0.00     0.005 C 
ATOM      4  C   UNL     1      10.917  25.667  13.422  1.00  0.00    -0.001 C 
ATOM      5  C   UNL     1      11.952  25.576  14.550  1.00  0.00    -0.020 C 
ATOM      6  C   UNL     1      12.470  27.002  14.811  1.00  0.00     0.008 C 
ATOM      7  C   UNL     1      11.316  27.971  15.165  1.00  0.00     0.005 C 
ATOM      8  C   UNL     1      10.128  27.987  14.140  1.00  0.00     0.003 C 
ATOM      9  C   UNL     1       9.679  26.546  13.710  1.00  0.00     0.000 C 
ATOM     10  C   UNL     1       8.595  25.896  14.617  1.00  0.00     0.031 C 
ATOM     11  C   UNL     1       8.067  26.768  15.727  1.00  0.00    -0.027 C 
ATOM     12  C   UNL     1       8.159  28.114  15.737  1.00  0.00    -0.065 C 
ATOM     13  C   UNL     1       8.888  28.846  14.609  1.00  0.00    -0.008 C 
ATOM     14  C   UNL     1       9.335  30.273  15.076  1.00  0.00     0.014 C 
ATOM     15  C   UNL     1       8.257  31.035  15.855  1.00  0.00     0.033 C 
ATOM     16  C   UNL     1       7.852  30.240  17.097  1.00  0.00     0.118 C 
ATOM     17  C   UNL     1       7.268  28.879  16.700  1.00  0.00     0.063 C 
ATOM     18  C   UNL     1       7.897  29.022  13.426  1.00  0.00     0.016 C 
ATOM     19  C   UNL     1      11.424  24.947  15.874  1.00  0.00     0.012 C 
ENDROOT
BRANCH   1  20
ATOM     20  C   UNL     1      14.039  24.065  14.829  1.00  0.00     0.133 C 
ATOM     21  C   UNL     1      15.101  24.917  15.464  1.00  0.00     0.088 C 
ATOM     22  O   UNL     1      14.015  22.871  15.089  1.00  0.00    -0.300 OA
ENDBRANCH   1  20
BRANCH  16  23
ATOM     23  O   UNL     1       6.900  30.975  17.820  1.00  0.00    -0.393 OA
ATOM     24  H   UNL     1       7.291  31.150  18.716  1.00  0.00     0.210 HD
ENDBRANCH  16  23
TORSDOF 2
ENDMDL
MODEL 4
REMARK VINA RESULT:    -5.440      3.837      6.955
REMARK INTER + INTRA:          -5.893
REMARK INTER:                  -5.768
REMARK INTRA:                  -0.125
REMARK UNBOUND:                 0.024
REMARK SMILES CC(=O)[C@H]1CC[C@H]2[C@H]3CC=C4C[C@H](O)CC[C@@]4(C)[C@H]3CC[C@]12C
REMARK SMILES IDX 4 1 5 2 6 3 7 4 22 5 21 6 20 7 19 8 8 9 9 10 10 11 11 12
REMARK SMILES IDX 17 13 16 14 15 15 13 16 12 17 18 18 23 19 2 20 1 21 3 22
REMARK SMILES IDX 14 23
REMARK H PARENT 14 24
REMARK Flexibility Score: inf
ROOT
ATOM      1  C   UNL     1      14.107  26.742  13.886  1.00  0.00     0.062 C 
ATOM      2  C   UNL     1      13.980  25.363  13.186  1.00  0.00     0.012 C 
ATOM      3  C   UNL     1      12.485  25.162  12.878  1.00  0.00     0.005 C 
ATOM      4  C   UNL     1      11.835  26.470  13.314  1.00  0.00    -0.001 C 
ATOM      5  C   UNL     1      12.694  27.003  14.467  1.00  0.00    -0.020 C 
ATOM      6  C   UNL     1      12.339  28.490  14.652  1.00  0.00     0.008 C 
ATOM      7  C   UNL     1      10.828  28.686  14.921  1.00  0.00     0.005 C 
ATOM      8  C   UNL     1       9.877  28.011  13.872  1.00  0.00     0.003 C 
ATOM      9  C   UNL     1      10.305  26.543  13.522  1.00  0.00     0.000 C 
ATOM     10  C   UNL     1       9.704  25.443  14.444  1.00  0.00     0.031 C 
ATOM     11  C   UNL     1       8.730  25.929  15.488  1.00  0.00    -0.027 C 
ATOM     12  C   UNL     1       8.076  27.106  15.416  1.00  0.00    -0.065 C 
ATOM     13  C   UNL     1       8.346  28.072  14.262  1.00  0.00    -0.008 C 
ATOM     14  C   UNL     1       7.922  29.529  14.650  1.00  0.00     0.014 C 
ATOM     15  C   UNL     1       6.565  29.611  15.358  1.00  0.00     0.033 C 
ATOM     16  C   UNL     1       6.594  28.773  16.638  1.00  0.00     0.118 C 
ATOM     17  C   UNL     1       6.865  27.299  16.312  1.00  0.00     0.063 C 
ATOM     18  C   UNL     1       7.481  27.632  13.050  1.00  0.00     0.016 C 
ATOM     19  C   UNL     1      12.525  26.241  15.816  1.00  0.00     0.012 C 
ENDROOT
BRANCH   1  20
ATOM     20  C   UNL     1      15.249  26.887  14.882  1.00  0.00     0.133 C 
ATOM     21  C   UNL     1      15.893  25.713  15.563  1.00  0.00     0.088 C 
ATOM     22  O   UNL     1      15.669  28.008  15.130  1.00  0.00    -0.300 OA
ENDBRANCH   1  20
BRANCH  16  23
ATOM     23  O   UNL     1       5.361  28.898  17.294  1.00  0.00    -0.393 OA
ATOM     24  H   UNL     1       5.004  29.797  17.068  1.00  0.00     0.210 HD
ENDBRANCH  16  23
TORSDOF 2
ENDMDL
MODEL 5
REMARK VINA RESULT:    -5.379      2.309      7.826
REMARK INTER + INTRA:          -5.827
REMARK INTER:                  -5.679
REMARK INTRA:                  -0.148
REMARK UNBOUND:                 0.024
REMARK SMILES CC(=O)[C@H]1CC[C@H]2[C@H]3CC=C4C[C@H](O)CC[C@@]4(C)[C@H]3CC[C@]12C
REMARK SMILES IDX 4 1 5 2 6 3 7 4 22 5 21 6 20 7 19 8 8 9 9 10 10 11 11 12
REMARK SMILES IDX 17 13 16 14 15 15 13 16 12 17 18 18 23 19 2 20 1 21 3 22
REMARK SMILES IDX 14 23
REMARK H PARENT 14 24
REMARK Flexibility Score: inf
ROOT
ATOM      1  C   UNL     1       9.349  26.614  13.684  1.00  0.00     0.062 C 
ATOM      2  C   UNL     1       9.151  27.846  14.607  1.00  0.00     0.012 C 
ATOM      3  C   UNL     1      10.558  28.357  14.966  1.00  0.00     0.005 C 
ATOM      4  C   UNL     1      11.496  27.468  14.157  1.00  0.00    -0.001 C 
ATOM      5  C   UNL     1      10.780  26.120  14.015  1.00  0.00    -0.020 C 
ATOM      6  C   UNL     1      11.475  25.352  12.875  1.00  0.00     0.008 C 
ATOM      7  C   UNL     1      12.987  25.175  13.147  1.00  0.00     0.005 C 
ATOM      8  C   UNL     1      13.759  26.500  13.478  1.00  0.00     0.003 C 
ATOM      9  C   UNL     1      12.999  27.401  14.513  1.00  0.00     0.000 C 
ATOM     10  C   UNL     1      13.318  27.104  16.006  1.00  0.00     0.031 C 
ATOM     11  C   UNL     1      14.373  26.054  16.249  1.00  0.00    -0.027 C 
ATOM     12  C   UNL     1      15.287  25.678  15.332  1.00  0.00    -0.065 C 
ATOM     13  C   UNL     1      15.259  26.275  13.924  1.00  0.00    -0.008 C 
ATOM     14  C   UNL     1      16.012  25.344  12.914  1.00  0.00     0.014 C 
ATOM     15  C   UNL     1      17.346  24.807  13.445  1.00  0.00     0.033 C 
ATOM     16  C   UNL     1      17.113  24.014  14.732  1.00  0.00     0.118 C 
ATOM     17  C   UNL     1      16.504  24.910  15.816  1.00  0.00     0.063 C 
ATOM     18  C   UNL     1      16.003  27.638  13.960  1.00  0.00     0.016 C 
ATOM     19  C   UNL     1      10.757  25.252  15.308  1.00  0.00     0.012 C 
ENDROOT
BRANCH   1  20
ATOM     20  C   UNL     1       8.267  25.545  13.751  1.00  0.00     0.133 C 
ATOM     21  C   UNL     1       7.170  25.556  14.776  1.00  0.00     0.088 C 
ATOM     22  O   UNL     1       8.286  24.643  12.927  1.00  0.00    -0.300 OA
ENDBRANCH   1  20
BRANCH  16  23
ATOM     23  O   UNL     1      18.337  23.492  15.176  1.00  0.00    -0.393 OA
ATOM     24  H   UNL     1      18.421  23.732  16.136  1.00  0.00     0.210 HD
ENDBRANCH  16  23
TORSDOF 2
ENDMDL
MODEL 6
REMARK VINA RESULT:    -5.218      1.318      6.855
REMARK INTER + INTRA:          -5.652
REMARK INTER:                  -5.519
REMARK INTRA:                  -0.134
REMARK UNBOUND:                 0.024
REMARK SMILES CC(=O)[C@H]1CC[C@H]2[C@H]3CC=C4C[C@H](O)CC[C@@]4(C)[C@H]3CC[C@]12C
REMARK SMILES IDX 4 1 5 2 6 3 7 4 22 5 21 6 20 7 19 8 8 9 9 10 10 11 11 12
REMARK SMILES IDX 17 13 16 14 15 15 13 16 12 17 18 18 23 19 2 20 1 21 3 22
REMARK SMILES IDX 14 23
REMARK H PARENT 14 24
REMARK Flexibility Score: inf
ROOT
ATOM      1  C   UNL     1      12.168  26.135  13.982  1.00  0.00     0.062 C 
ATOM      2  C   UNL     1      12.157  27.471  14.772  1.00  0.00     0.012 C 
ATOM      3  C   UNL     1      13.630  27.871  14.977  1.00  0.00     0.005 C 
ATOM      4  C   UNL     1      14.415  26.812  14.212  1.00  0.00    -0.001 C 
ATOM      5  C   UNL     1      13.568  25.535  14.270  1.00  0.00    -0.020 C 
ATOM      6  C   UNL     1      14.097  24.585  13.181  1.00  0.00     0.008 C 
ATOM      7  C   UNL     1      15.603  24.285  13.369  1.00  0.00     0.005 C 
ATOM      8  C   UNL     1      16.518  25.553  13.497  1.00  0.00     0.003 C 
ATOM      9  C   UNL     1      15.928  26.630  14.473  1.00  0.00     0.000 C 
ATOM     10  C   UNL     1      16.333  26.461  15.965  1.00  0.00     0.031 C 
ATOM     11  C   UNL     1      17.300  25.341  16.254  1.00  0.00    -0.027 C 
ATOM     12  C   UNL     1      18.101  24.780  15.326  1.00  0.00    -0.065 C 
ATOM     13  C   UNL     1      18.020  25.224  13.865  1.00  0.00    -0.008 C 
ATOM     14  C   UNL     1      18.603  24.121  12.918  1.00  0.00     0.014 C 
ATOM     15  C   UNL     1      19.918  23.510  13.416  1.00  0.00     0.033 C 
ATOM     16  C   UNL     1      19.711  22.884  14.797  1.00  0.00     0.118 C 
ATOM     17  C   UNL     1      19.275  23.948  15.812  1.00  0.00     0.063 C 
ATOM     18  C   UNL     1      18.889  26.501  13.698  1.00  0.00     0.016 C 
ATOM     19  C   UNL     1      13.563  24.815  15.652  1.00  0.00     0.012 C 
ENDROOT
BRANCH   1  20
ATOM     20  C   UNL     1      10.999  25.194  14.241  1.00  0.00     0.133 C 
ATOM     21  C   UNL     1      10.715  23.990  13.388  1.00  0.00     0.088 C 
ATOM     22  O   UNL     1      10.265  25.422  15.191  1.00  0.00    -0.300 OA
ENDBRANCH   1  20
BRANCH  16  23
ATOM     23  O   UNL     1      20.912  22.291  15.214  1.00  0.00    -0.393 OA
ATOM     24  H   UNL     1      21.565  22.413  14.476  1.00  0.00     0.210 HD
ENDBRANCH  16  23
TORSDOF 2
ENDMDL
MODEL 7
REMARK VINA RESULT:    -5.020      6.385      9.973
REMARK INTER + INTRA:          -5.437
REMARK INTER:                  -5.329
REMARK INTRA:                  -0.108
REMARK UNBOUND:                 0.024
REMARK SMILES CC(=O)[C@H]1CC[C@H]2[C@H]3CC=C4C[C@H](O)CC[C@@]4(C)[C@H]3CC[C@]12C
REMARK SMILES IDX 4 1 5 2 6 3 7 4 22 5 21 6 20 7 19 8 8 9 9 10 10 11 11 12
REMARK SMILES IDX 17 13 16 14 15 15 13 16 12 17 18 18 23 19 2 20 1 21 3 22
REMARK SMILES IDX 14 23
REMARK H PARENT 14 24
REMARK Flexibility Score: inf
ROOT
ATOM      1  C   UNL     1      11.008  27.372  14.689  1.00  0.00     0.062 C 
ATOM      2  C   UNL     1      11.437  28.863  14.709  1.00  0.00     0.012 C 
ATOM      3  C   UNL     1      10.201  29.669  15.151  1.00  0.00     0.005 C 
ATOM      4  C   UNL     1       9.154  28.606  15.464  1.00  0.00    -0.001 C 
ATOM      5  C   UNL     1       9.466  27.422  14.541  1.00  0.00    -0.020 C 
ATOM      6  C   UNL     1       8.726  26.196  15.104  1.00  0.00     0.008 C 
ATOM      7  C   UNL     1       7.204  26.452  15.218  1.00  0.00     0.005 C 
ATOM      8  C   UNL     1       6.809  27.751  16.003  1.00  0.00     0.003 C 
ATOM      9  C   UNL     1       7.663  28.998  15.580  1.00  0.00     0.000 C 
ATOM     10  C   UNL     1       7.093  29.814  14.385  1.00  0.00     0.031 C 
ATOM     11  C   UNL     1       5.761  29.346  13.855  1.00  0.00    -0.027 C 
ATOM     12  C   UNL     1       4.896  28.585  14.557  1.00  0.00    -0.065 C 
ATOM     13  C   UNL     1       5.265  28.085  15.954  1.00  0.00    -0.008 C 
ATOM     14  C   UNL     1       4.406  26.833  16.339  1.00  0.00     0.014 C 
ATOM     15  C   UNL     1       2.920  26.972  15.989  1.00  0.00     0.033 C 
ATOM     16  C   UNL     1       2.758  27.211  14.487  1.00  0.00     0.118 C 
ATOM     17  C   UNL     1       3.461  28.508  14.068  1.00  0.00     0.063 C 
ATOM     18  C   UNL     1       4.943  29.214  16.973  1.00  0.00     0.016 C 
ATOM     19  C   UNL     1       9.083  27.639  13.046  1.00  0.00     0.012 C 
ENDROOT
BRANCH   1  20
ATOM     20  C   UNL     1      11.723  26.482  13.680  1.00  0.00     0.133 C 
ATOM     21  C   UNL     1      11.529  24.994  13.622  1.00  0.00     0.088 C 
ATOM     22  O   UNL     1      12.479  27.004  12.875  1.00  0.00    -0.300 OA
ENDBRANCH   1  20
BRANCH  16  23
ATOM     23  O   UNL     1       1.391  27.289  14.181  1.00  0.00    -0.393 OA
ATOM     24  H   UNL     1       0.947  26.536  14.654  1.00  0.00     0.210 HD
ENDBRANCH  16  23
TORSDOF 2
ENDMDL
MODEL 8
REMARK VINA RESULT:    -4.964      1.954      6.791
REMARK INTER + INTRA:          -5.376
REMARK INTER:                  -5.221
REMARK INTRA:                  -0.155
REMARK UNBOUND:                 0.024
REMARK SMILES CC(=O)[C@H]1CC[C@H]2[C@H]3CC=C4C[C@H](O)CC[C@@]4(C)[C@H]3CC[C@]12C
REMARK SMILES IDX 4 1 5 2 6 3 7 4 22 5 21 6 20 7 19 8 8 9 9 10 10 11 11 12
REMARK SMILES IDX 17 13 16 14 15 15 13 16 12 17 18 18 23 19 2 20 1 21 3 22
REMARK SMILES IDX 14 23
REMARK H PARENT 14 24
REMARK Flexibility Score: inf
ROOT
ATOM      1  C   UNL     1      15.780  26.590  13.690  1.00  0.00     0.062 C 
ATOM      2  C   UNL     1      16.743  27.801  13.575  1.00  0.00     0.012 C 
ATOM      3  C   UNL     1      18.172  27.228  13.583  1.00  0.00     0.005 C 
ATOM      4  C   UNL     1      17.969  25.717  13.596  1.00  0.00    -0.001 C 
ATOM      5  C   UNL     1      16.646  25.477  14.333  1.00  0.00    -0.020 C 
ATOM      6  C   UNL     1      16.195  24.041  14.006  1.00  0.00     0.008 C 
ATOM      7  C   UNL     1      17.272  23.003  14.401  1.00  0.00     0.005 C 
ATOM      8  C   UNL     1      18.704  23.283  13.825  1.00  0.00     0.003 C 
ATOM      9  C   UNL     1      19.138  24.783  13.983  1.00  0.00     0.000 C 
ATOM     10  C   UNL     1      19.851  25.125  15.322  1.00  0.00     0.031 C 
ATOM     11  C   UNL     1      20.103  23.958  16.243  1.00  0.00    -0.027 C 
ATOM     12  C   UNL     1      20.125  22.671  15.838  1.00  0.00    -0.065 C 
ATOM     13  C   UNL     1      19.821  22.313  14.383  1.00  0.00    -0.008 C 
ATOM     14  C   UNL     1      19.377  20.816  14.263  1.00  0.00     0.014 C 
ATOM     15  C   UNL     1      20.240  19.848  15.081  1.00  0.00     0.033 C 
ATOM     16  C   UNL     1      20.196  20.234  16.560  1.00  0.00     0.118 C 
ATOM     17  C   UNL     1      20.755  21.647  16.766  1.00  0.00     0.063 C 
ATOM     18  C   UNL     1      21.125  22.490  13.558  1.00  0.00     0.016 C 
ATOM     19  C   UNL     1      16.710  25.679  15.877  1.00  0.00     0.012 C 
ENDROOT
BRANCH   1  20
ATOM     20  C   UNL     1      14.451  26.853  14.385  1.00  0.00     0.133 C 
ATOM     21  C   UNL     1      14.155  28.124  15.128  1.00  0.00     0.088 C 
ATOM     22  O   UNL     1      13.582  25.996  14.326  1.00  0.00    -0.300 OA
ENDBRANCH   1  20
BRANCH  16  23
ATOM     23  O   UNL     1      20.953  19.310  17.296  1.00  0.00    -0.393 OA
ATOM     24  H   UNL     1      20.694  19.419  18.248  1.00  0.00     0.210 HD
ENDBRANCH  16  23
TORSDOF 2
ENDMDL
MODEL 9
REMARK VINA RESULT:    -4.937      5.068     10.438
REMARK INTER + INTRA:          -5.346
REMARK INTER:                  -5.204
REMARK INTRA:                  -0.142
REMARK UNBOUND:                 0.024
REMARK SMILES CC(=O)[C@H]1CC[C@H]2[C@H]3CC=C4C[C@H](O)CC[C@@]4(C)[C@H]3CC[C@]12C
REMARK SMILES IDX 4 1 5 2 6 3 7 4 22 5 21 6 20 7 19 8 8 9 9 10 10 11 11 12
REMARK SMILES IDX 17 13 16 14 15 15 13 16 12 17 18 18 23 19 2 20 1 21 3 22
REMARK SMILES IDX 14 23
REMARK H PARENT 14 24
REMARK Flexibility Score: inf
ROOT
ATOM      1  C   UNL     1       5.425  27.836  14.884  1.00  0.00     0.062 C 
ATOM      2  C   UNL     1       5.396  28.840  13.702  1.00  0.00     0.012 C 
ATOM      3  C   UNL     1       6.756  28.719  12.990  1.00  0.00     0.005 C 
ATOM      4  C   UNL     1       7.463  27.585  13.723  1.00  0.00    -0.001 C 
ATOM      5  C   UNL     1       6.935  27.621  15.162  1.00  0.00    -0.020 C 
ATOM      6  C   UNL     1       7.283  26.269  15.811  1.00  0.00     0.008 C 
ATOM      7  C   UNL     1       8.804  25.990  15.763  1.00  0.00     0.005 C 
ATOM      8  C   UNL     1       9.453  26.110  14.340  1.00  0.00     0.003 C 
ATOM      9  C   UNL     1       8.989  27.395  13.568  1.00  0.00     0.000 C 
ATOM     10  C   UNL     1       9.849  28.665  13.824  1.00  0.00     0.031 C 
ATOM     11  C   UNL     1      11.055  28.467  14.707  1.00  0.00    -0.027 C 
ATOM     12  C   UNL     1      11.632  27.269  14.937  1.00  0.00    -0.065 C 
ATOM     13  C   UNL     1      11.030  25.995  14.342  1.00  0.00    -0.008 C 
ATOM     14  C   UNL     1      11.501  24.735  15.144  1.00  0.00     0.014 C 
ATOM     15  C   UNL     1      12.997  24.740  15.480  1.00  0.00     0.033 C 
ATOM     16  C   UNL     1      13.341  25.979  16.307  1.00  0.00     0.118 C 
ATOM     17  C   UNL     1      13.034  27.258  15.518  1.00  0.00     0.063 C 
ATOM     18  C   UNL     1      11.545  25.851  12.884  1.00  0.00     0.016 C 
ATOM     19  C   UNL     1       7.485  28.791  16.033  1.00  0.00     0.012 C 
ENDROOT
BRANCH   1  20
ATOM     20  C   UNL     1       4.593  28.211  16.103  1.00  0.00     0.133 C 
ATOM     21  C   UNL     1       3.919  29.545  16.253  1.00  0.00     0.088 C 
ATOM     22  O   UNL     1       4.459  27.385  16.995  1.00  0.00    -0.300 OA
ENDBRANCH   1  20
BRANCH  16  23
ATOM     23  O   UNL     1      14.703  25.941  16.644  1.00  0.00    -0.393 OA
ATOM     24  H   UNL     1      15.008  25.007  16.503  1.00  0.00     0.210 HD
ENDBRANCH  16  23
TORSDOF 2
ENDMDL
