MODEL 1
REMARK VINA RESULT:    -4.756      0.000      0.000
REMARK INTER + INTRA:          -5.423
REMARK INTER:                  -5.173
REMARK INTRA:                  -0.250
REMARK UNBOUND:                -0.250
REMARK SMILES O=C([O-])c1ccccc1O
REMARK SMILES IDX 4 1 9 2 5 3 8 4 6 5 7 6 2 7 1 8 3 9 10 10
REMARK H PARENT 10 11
REMARK Flexibility Score: inf
ROOT
ATOM      1  C   UNL     1      18.183  86.862  30.454  1.00  0.00     0.039 A 
ATOM      2  C   UNL     1      17.149  86.865  31.421  1.00  0.00     0.124 A 
ATOM      3  C   UNL     1      19.210  87.821  30.554  1.00  0.00     0.014 A 
ATOM      4  C   UNL     1      17.162  87.814  32.455  1.00  0.00     0.047 A 
ATOM      5  C   UNL     1      19.211  88.759  31.590  1.00  0.00     0.001 A 
ATOM      6  C   UNL     1      18.189  88.756  32.538  1.00  0.00     0.004 A 
ENDROOT
BRANCH   1   7
ATOM      7  C   UNL     1      18.208  85.876  29.342  1.00  0.00     0.075 C 
ATOM      8  O   UNL     1      18.017  84.653  29.572  1.00  0.00    -0.545 OA
ATOM      9  O   UNL     1      18.440  86.278  28.032  1.00  0.00    -0.545 OA
ENDBRANCH   1   7
BRANCH   2  10
ATOM     10  O   UNL     1      16.112  85.936  31.361  1.00  0.00    -0.507 OA
ATOM     11  H   UNL     1      15.483  85.890  30.568  1.00  0.00     0.293 HD
ENDBRANCH   2  10
TORSDOF 2
ENDMDL
MODEL 2
REMARK VINA RESULT:    -4.646      2.059      2.651
REMARK INTER + INTRA:          -5.304
REMARK INTER:                  -5.049
REMARK INTRA:                  -0.255
REMARK UNBOUND:                -0.250
REMARK SMILES O=C([O-])c1ccccc1O
REMARK SMILES IDX 4 1 9 2 5 3 8 4 6 5 7 6 2 7 1 8 3 9 10 10
REMARK H PARENT 10 11
REMARK Flexibility Score: inf
ROOT
ATOM      1  C   UNL     1      18.775  87.231  30.687  1.00  0.00     0.039 A 
ATOM      2  C   UNL     1      18.823  88.245  31.674  1.00  0.00     0.124 A 
ATOM      3  C   UNL     1      17.660  86.371  30.651  1.00  0.00     0.014 A 
ATOM      4  C   UNL     1      17.771  88.376  32.593  1.00  0.00     0.047 A 
ATOM      5  C   UNL     1      16.619  86.514  31.572  1.00  0.00     0.001 A 
ATOM      6  C   UNL     1      16.674  87.514  32.541  1.00  0.00     0.004 A 
ENDROOT
BRANCH   1   7
ATOM      7  C   UNL     1      19.868  87.056  29.694  1.00  0.00     0.075 C 
ATOM      8  O   UNL     1      20.337  85.911  29.461  1.00  0.00    -0.545 OA
ATOM      9  O   UNL     1      20.392  88.142  29.005  1.00  0.00    -0.545 OA
ENDBRANCH   1   7
BRANCH   2  10
ATOM     10  O   UNL     1      19.907  89.119  31.748  1.00  0.00    -0.507 OA
ATOM     11  H   UNL     1      20.829  88.802  32.024  1.00  0.00     0.293 HD
ENDBRANCH   2  10
TORSDOF 2
ENDMDL
MODEL 3
REMARK VINA RESULT:    -4.623      1.099      2.383
REMARK INTER + INTRA:          -5.279
REMARK INTER:                  -5.029
REMARK INTRA:                  -0.250
REMARK UNBOUND:                -0.250
REMARK SMILES O=C([O-])c1ccccc1O
REMARK SMILES IDX 4 1 9 2 5 3 8 4 6 5 7 6 2 7 1 8 3 9 10 10
REMARK H PARENT 10 11
REMARK Flexibility Score: inf
ROOT
ATOM      1  C   UNL     1      18.056  86.662  30.543  1.00  0.00     0.039 A 
ATOM      2  C   UNL     1      18.981  87.691  30.838  1.00  0.00     0.124 A 
ATOM      3  C   UNL     1      16.923  86.509  31.367  1.00  0.00     0.014 A 
ATOM      4  C   UNL     1      18.759  88.536  31.937  1.00  0.00     0.047 A 
ATOM      5  C   UNL     1      16.715  87.359  32.457  1.00  0.00     0.001 A 
ATOM      6  C   UNL     1      17.631  88.370  32.742  1.00  0.00     0.004 A 
ENDROOT
BRANCH   1   7
ATOM      7  C   UNL     1      18.251  85.743  29.391  1.00  0.00     0.075 C 
ATOM      8  O   UNL     1      18.443  86.205  28.235  1.00  0.00    -0.545 OA
ATOM      9  O   UNL     1      18.229  84.364  29.560  1.00  0.00    -0.545 OA
ENDBRANCH   1   7
BRANCH   2  10
ATOM     10  O   UNL     1      20.116  87.879  30.051  1.00  0.00    -0.507 OA
ATOM     11  H   UNL     1      20.084  88.410  29.188  1.00  0.00     0.293 HD
ENDBRANCH   2  10
TORSDOF 2
ENDMDL
MODEL 4
REMARK VINA RESULT:    -4.608      1.308      2.030
REMARK INTER + INTRA:          -5.262
REMARK INTER:                  -5.008
REMARK INTRA:                  -0.254
REMARK UNBOUND:                -0.250
REMARK SMILES O=C([O-])c1ccccc1O
REMARK SMILES IDX 4 1 9 2 5 3 8 4 6 5 7 6 2 7 1 8 3 9 10 10
REMARK H PARENT 10 11
REMARK Flexibility Score: inf
ROOT
ATOM      1  C   UNL     1      18.618  87.300  30.678  1.00  0.00     0.039 A 
ATOM      2  C   UNL     1      17.504  86.431  30.763  1.00  0.00     0.124 A 
ATOM      3  C   UNL     1      18.747  88.334  31.626  1.00  0.00     0.014 A 
ATOM      4  C   UNL     1      16.554  86.611  31.781  1.00  0.00     0.047 A 
ATOM      5  C   UNL     1      17.795  88.499  32.634  1.00  0.00     0.001 A 
ATOM      6  C   UNL     1      16.700  87.640  32.712  1.00  0.00     0.004 A 
ENDROOT
BRANCH   1   7
ATOM      7  C   UNL     1      19.647  87.147  29.616  1.00  0.00     0.075 C 
ATOM      8  O   UNL     1      20.020  88.145  28.943  1.00  0.00    -0.545 OA
ATOM      9  O   UNL     1      20.219  85.910  29.344  1.00  0.00    -0.545 OA
ENDBRANCH   1   7
BRANCH   2  10
ATOM     10  O   UNL     1      17.334  85.395  29.847  1.00  0.00    -0.507 OA
ATOM     11  H   UNL     1      16.704  85.480  29.057  1.00  0.00     0.293 HD
ENDBRANCH   2  10
TORSDOF 2
ENDMDL
MODEL 5
REMARK VINA RESULT:    -4.582      2.513      3.202
REMARK INTER + INTRA:          -5.235
REMARK INTER:                  -4.985
REMARK INTRA:                  -0.250
REMARK UNBOUND:                -0.250
REMARK SMILES O=C([O-])c1ccccc1O
REMARK SMILES IDX 4 1 9 2 5 3 8 4 6 5 7 6 2 7 1 8 3 9 10 10
REMARK H PARENT 10 11
REMARK Flexibility Score: inf
ROOT
ATOM      1  C   UNL     1      18.950  87.658  31.114  1.00  0.00     0.039 A 
ATOM      2  C   UNL     1      18.112  88.141  32.148  1.00  0.00     0.124 A 
ATOM      3  C   UNL     1      18.511  86.566  30.339  1.00  0.00     0.014 A 
ATOM      4  C   UNL     1      16.869  87.533  32.382  1.00  0.00     0.047 A 
ATOM      5  C   UNL     1      17.271  85.972  30.582  1.00  0.00     0.001 A 
ATOM      6  C   UNL     1      16.451  86.453  31.602  1.00  0.00     0.004 A 
ENDROOT
BRANCH   1   7
ATOM      7  C   UNL     1      20.274  88.271  30.832  1.00  0.00     0.075 C 
ATOM      8  O   UNL     1      21.309  87.555  30.783  1.00  0.00    -0.545 OA
ATOM      9  O   UNL     1      20.401  89.638  30.616  1.00  0.00    -0.545 OA
ENDBRANCH   1   7
BRANCH   2  10
ATOM     10  O   UNL     1      18.505  89.218  32.941  1.00  0.00    -0.507 OA
ATOM     11  H   UNL     1      17.829  89.795  33.428  1.00  0.00     0.293 HD
ENDBRANCH   2  10
TORSDOF 2
ENDMDL
MODEL 6
REMARK VINA RESULT:    -4.550      1.791      3.545
REMARK INTER + INTRA:          -5.199
REMARK INTER:                  -4.945
REMARK INTRA:                  -0.255
REMARK UNBOUND:                -0.250
REMARK SMILES O=C([O-])c1ccccc1O
REMARK SMILES IDX 4 1 9 2 5 3 8 4 6 5 7 6 2 7 1 8 3 9 10 10
REMARK H PARENT 10 11
REMARK Flexibility Score: inf
ROOT
ATOM      1  C   UNL     1      17.759  87.618  30.959  1.00  0.00     0.039 A 
ATOM      2  C   UNL     1      17.720  86.258  30.569  1.00  0.00     0.124 A 
ATOM      3  C   UNL     1      18.161  88.584  30.015  1.00  0.00     0.014 A 
ATOM      4  C   UNL     1      18.078  85.895  29.261  1.00  0.00     0.047 A 
ATOM      5  C   UNL     1      18.514  88.208  28.716  1.00  0.00     0.001 A 
ATOM      6  C   UNL     1      18.473  86.867  28.340  1.00  0.00     0.004 A 
ENDROOT
BRANCH   1   7
ATOM      7  C   UNL     1      17.390  88.048  32.333  1.00  0.00     0.075 C 
ATOM      8  O   UNL     1      18.104  88.879  32.953  1.00  0.00    -0.545 OA
ATOM      9  O   UNL     1      16.256  87.547  32.961  1.00  0.00    -0.545 OA
ENDBRANCH   1   7
BRANCH   2  10
ATOM     10  O   UNL     1      17.329  85.268  31.469  1.00  0.00    -0.507 OA
ATOM     11  H   UNL     1      17.872  84.422  31.599  1.00  0.00     0.293 HD
ENDBRANCH   2  10
TORSDOF 2
ENDMDL
MODEL 7
REMARK VINA RESULT:    -4.266      2.251      3.303
REMARK INTER + INTRA:          -4.890
REMARK INTER:                  -4.709
REMARK INTRA:                  -0.181
REMARK UNBOUND:                -0.250
REMARK SMILES O=C([O-])c1ccccc1O
REMARK SMILES IDX 4 1 9 2 5 3 8 4 6 5 7 6 2 7 1 8 3 9 10 10
REMARK H PARENT 10 11
REMARK Flexibility Score: inf
ROOT
ATOM      1  C   UNL     1      18.770  88.046  31.238  1.00  0.00     0.039 A 
ATOM      2  C   UNL     1      18.467  86.871  30.508  1.00  0.00     0.124 A 
ATOM      3  C   UNL     1      17.911  88.435  32.285  1.00  0.00     0.014 A 
ATOM      4  C   UNL     1      17.328  86.119  30.834  1.00  0.00     0.047 A 
ATOM      5  C   UNL     1      16.781  87.675  32.600  1.00  0.00     0.001 A 
ATOM      6  C   UNL     1      16.490  86.520  31.876  1.00  0.00     0.004 A 
ENDROOT
BRANCH   1   7
ATOM      7  C   UNL     1      19.965  88.873  30.926  1.00  0.00     0.075 C 
ATOM      8  O   UNL     1      21.118  88.463  31.225  1.00  0.00    -0.545 OA
ATOM      9  O   UNL     1      19.840  90.108  30.302  1.00  0.00    -0.545 OA
ENDBRANCH   1   7
BRANCH   2  10
ATOM     10  O   UNL     1      19.288  86.448  29.463  1.00  0.00    -0.507 OA
ATOM     11  H   UNL     1      19.117  86.728  28.505  1.00  0.00     0.293 HD
ENDBRANCH   2  10
TORSDOF 2
ENDMDL
MODEL 8
REMARK VINA RESULT:    -4.232      2.568      3.964
REMARK INTER + INTRA:          -4.854
REMARK INTER:                  -4.604
REMARK INTRA:                  -0.249
REMARK UNBOUND:                -0.250
REMARK SMILES O=C([O-])c1ccccc1O
REMARK SMILES IDX 4 1 9 2 5 3 8 4 6 5 7 6 2 7 1 8 3 9 10 10
REMARK H PARENT 10 11
REMARK Flexibility Score: inf
ROOT
ATOM      1  C   UNL     1      17.923  88.201  30.787  1.00  0.00     0.039 A 
ATOM      2  C   UNL     1      18.095  89.465  30.174  1.00  0.00     0.124 A 
ATOM      3  C   UNL     1      18.100  87.039  30.010  1.00  0.00     0.014 A 
ATOM      4  C   UNL     1      18.436  89.541  28.814  1.00  0.00     0.047 A 
ATOM      5  C   UNL     1      18.441  87.131  28.658  1.00  0.00     0.001 A 
ATOM      6  C   UNL     1      18.608  88.379  28.061  1.00  0.00     0.004 A 
ENDROOT
BRANCH   1   7
ATOM      7  C   UNL     1      17.562  88.073  32.223  1.00  0.00     0.075 C 
ATOM      8  O   UNL     1      18.252  88.646  33.107  1.00  0.00    -0.545 OA
ATOM      9  O   UNL     1      16.461  87.325  32.622  1.00  0.00    -0.545 OA
ENDBRANCH   1   7
BRANCH   2  10
ATOM     10  O   UNL     1      17.929  90.641  30.903  1.00  0.00    -0.507 OA
ATOM     11  H   UNL     1      17.010  90.999  31.135  1.00  0.00     0.293 HD
ENDBRANCH   2  10
TORSDOF 2
ENDMDL
MODEL 9
REMARK VINA RESULT:    -4.075      9.457      9.989
REMARK INTER + INTRA:          -4.683
REMARK INTER:                  -4.430
REMARK INTRA:                  -0.253
REMARK UNBOUND:                -0.250
REMARK SMILES O=C([O-])c1ccccc1O
REMARK SMILES IDX 4 1 9 2 5 3 8 4 6 5 7 6 2 7 1 8 3 9 10 10
REMARK H PARENT 10 11
REMARK Flexibility Score: inf
ROOT
ATOM      1  C   UNL     1      11.017  91.001  25.733  1.00  0.00     0.039 A 
ATOM      2  C   UNL     1      10.466  91.460  26.954  1.00  0.00     0.124 A 
ATOM      3  C   UNL     1      10.154  90.457  24.760  1.00  0.00     0.014 A 
ATOM      4  C   UNL     1       9.083  91.367  27.175  1.00  0.00     0.047 A 
ATOM      5  C   UNL     1       8.779  90.373  24.994  1.00  0.00     0.001 A 
ATOM      6  C   UNL     1       8.244  90.826  26.199  1.00  0.00     0.004 A 
ENDROOT
BRANCH   1   7
ATOM      7  C   UNL     1      12.475  91.079  25.456  1.00  0.00     0.075 C 
ATOM      8  O   UNL     1      12.889  91.444  24.324  1.00  0.00    -0.545 OA
ATOM      9  O   UNL     1      13.409  90.754  26.432  1.00  0.00    -0.545 OA
ENDBRANCH   1   7
BRANCH   2  10
ATOM     10  O   UNL     1      11.281  92.004  27.945  1.00  0.00    -0.507 OA
ATOM     11  H   UNL     1      12.282  91.850  27.955  1.00  0.00     0.293 HD
ENDBRANCH   2  10
TORSDOF 2
ENDMDL
