MODEL 1
REMARK VINA RESULT:    -4.801      0.000      0.000
REMARK INTER + INTRA:          -6.858
REMARK INTER:                  -7.046
REMARK INTRA:                   0.188
REMARK UNBOUND:                 0.188
REMARK SMILES C=C1C=C[C@H](C(C)C)CCC(C)=CCC1
REMARK SMILES IDX 3 1 4 2 5 3 9 4 10 5 11 6 12 7 13 8 6 10 7 11 8 12 2 13 1 14
REMARK SMILES IDX 15 15 14 16
REMARK H PARENT
REMARK Flexibility Score: 70.00
ROOT
ATOM      1  C   UNL     1     109.599 110.929 113.473  1.00  0.00    -0.001 C 
ATOM      2  C   UNL     1     109.973 109.912 114.258  1.00  0.00    -0.023 C 
ENDROOT
BRANCH   2   3
ATOM      3  C   UNL     1     110.168 109.983 115.760  1.00  0.00     0.014 C 
BRANCH   3   4
ATOM      4  C   UNL     1     111.688 110.040 116.104  1.00  0.00     0.012 C 
BRANCH   4   5
ATOM      5  C   UNL     1     112.652 110.104 114.887  1.00  0.00     0.031 C 
BRANCH   5   6
ATOM      6  C   UNL     1     112.915 111.533 114.426  1.00  0.00    -0.077 C 
ATOM      7  C   UNL     1     113.320 112.542 115.472  1.00  0.00     0.039 C 
ATOM      8  C   UNL     1     112.783 111.983 113.151  1.00  0.00    -0.028 CG0
ATOM      9  G   UNL     1     112.338 111.201 111.933  1.00  0.00     0.000 G0
ENDBRANCH   5   6
ENDBRANCH   4   5
ENDBRANCH   3   4
BRANCH   3  10
ATOM     10  C   UNL     1     109.293 111.036 116.523  1.00  0.00    -0.010 C 
ATOM     11  C   UNL     1     109.790 112.487 116.383  1.00  0.00     0.008 C 
ATOM     12  C   UNL     1     109.157 110.680 118.014  1.00  0.00     0.008 C 
ENDBRANCH   3  10
ENDBRANCH   2   3
BRANCH   1  13
ATOM     13  C   UNL     1     109.812 110.900 112.010  1.00  0.00    -0.055 C 
ATOM     14  C   UNL     1     108.921 110.271 111.237  1.00  0.00     0.012 C 
BRANCH  13  15
ATOM     15  C   UNL     1     110.957 111.671 111.382  1.00  0.00     0.039 C 
BRANCH  15  16
ATOM     16  C   UNL     1     112.332 111.195 111.908  1.00  0.00     0.032 CG0
ATOM     17  G   UNL     1     112.771 111.981 113.126  1.00  0.00     0.000 G0
ENDBRANCH  15  16
ENDBRANCH  13  15
ENDBRANCH   1  13
TORSDOF 1
ENDMDL
MODEL 2
REMARK VINA RESULT:    -4.775      3.680      6.061
REMARK INTER + INTRA:          -6.820
REMARK INTER:                  -6.920
REMARK INTRA:                   0.100
REMARK UNBOUND:                 0.188
REMARK SMILES C=C1C=C[C@H](C(C)C)CCC(C)=CCC1
REMARK SMILES IDX 3 1 4 2 5 3 9 4 10 5 11 6 12 7 13 8 6 10 7 11 8 12 2 13 1 14
REMARK SMILES IDX 15 15 14 16
REMARK H PARENT
REMARK Flexibility Score: 70.00
ROOT
ATOM      1  C   UNL     1     112.656 111.589 108.496  1.00  0.00    -0.001 C 
ATOM      2  C   UNL     1     112.115 112.443 109.373  1.00  0.00    -0.023 C 
ENDROOT
BRANCH   2   3
ATOM      3  C   UNL     1     111.990 112.213 110.866  1.00  0.00     0.014 C 
BRANCH   3   4
ATOM      4  C   UNL     1     110.490 112.060 111.263  1.00  0.00     0.012 C 
BRANCH   4   5
ATOM      5  C   UNL     1     109.475 112.089 110.087  1.00  0.00     0.031 C 
BRANCH   5   6
ATOM      6  C   UNL     1     109.273 110.715 109.458  1.00  0.00    -0.077 C 
ATOM      7  C   UNL     1     108.884 109.578 110.370  1.00  0.00     0.039 C 
ATOM      8  C   UNL     1     109.445 110.422 108.142  1.00  0.00    -0.028 CG0
ATOM      9  G   UNL     1     109.885 111.355 107.034  1.00  0.00     0.000 G0
ENDBRANCH   5   6
ENDBRANCH   4   5
ENDBRANCH   3   4
BRANCH   3  10
ATOM     10  C   UNL     1     112.936 111.124 111.480  1.00  0.00    -0.010 C 
ATOM     11  C   UNL     1     112.441 109.678 111.285  1.00  0.00     0.008 C 
ATOM     12  C   UNL     1     113.195 111.382 112.975  1.00  0.00     0.008 C 
ENDBRANCH   3  10
ENDBRANCH   2   3
BRANCH   1  13
ATOM     13  C   UNL     1     112.391 111.694 107.045  1.00  0.00    -0.055 C 
ATOM     14  C   UNL     1     113.242 112.383 106.278  1.00  0.00     0.012 C 
BRANCH  13  15
ATOM     15  C   UNL     1     111.240 110.935 106.414  1.00  0.00     0.039 C 
BRANCH  15  16
ATOM     16  C   UNL     1     109.876 111.346 107.019  1.00  0.00     0.032 CG0
ATOM     17  G   UNL     1     109.456 110.418 108.139  1.00  0.00     0.000 G0
ENDBRANCH  15  16
ENDBRANCH  13  15
ENDBRANCH   1  13
TORSDOF 1
ENDMDL
MODEL 3
REMARK VINA RESULT:    -4.635      3.496      5.088
REMARK INTER + INTRA:          -6.614
REMARK INTER:                  -6.847
REMARK INTRA:                   0.233
REMARK UNBOUND:                 0.188
REMARK SMILES C=C1C=C[C@H](C(C)C)CCC(C)=CCC1
REMARK SMILES IDX 3 1 4 2 5 3 9 4 10 5 11 6 12 7 13 8 6 10 7 11 8 12 2 13 1 14
REMARK SMILES IDX 15 15 14 16
REMARK H PARENT
REMARK Flexibility Score: 70.00
ROOT
ATOM      1  C   UNL     1     109.473 110.837 108.329  1.00  0.00    -0.001 C 
ATOM      2  C   UNL     1     109.936 109.953 109.221  1.00  0.00    -0.023 C 
ENDROOT
BRANCH   2   3
ATOM      3  C   UNL     1     110.043 110.182 110.716  1.00  0.00     0.014 C 
BRANCH   3   4
ATOM      4  C   UNL     1     111.538 110.162 111.157  1.00  0.00     0.012 C 
BRANCH   4   5
ATOM      5  C   UNL     1     112.580 110.104 110.006  1.00  0.00     0.031 C 
BRANCH   5   6
ATOM      6  C   UNL     1     112.860 111.476 109.403  1.00  0.00    -0.077 C 
ATOM      7  C   UNL     1     113.261 112.585 110.345  1.00  0.00     0.039 C 
ATOM      8  C   UNL     1     112.748 111.792 108.087  1.00  0.00    -0.028 CG0
ATOM      9  G   UNL     1     112.311 110.891 106.951  1.00  0.00     0.000 G0
ENDBRANCH   5   6
ENDBRANCH   4   5
ENDBRANCH   3   4
BRANCH   3  10
ATOM     10  C   UNL     1     109.213 111.379 111.295  1.00  0.00    -0.010 C 
ATOM     11  C   UNL     1     109.874 112.756 111.097  1.00  0.00     0.008 C 
ATOM     12  C   UNL     1     108.890 111.171 112.785  1.00  0.00     0.008 C 
ENDBRANCH   3  10
ENDBRANCH   2   3
BRANCH   1  13
ATOM     13  C   UNL     1     109.763 110.708 106.885  1.00  0.00    -0.055 C 
ATOM     14  C   UNL     1     108.874 110.094 106.098  1.00  0.00     0.012 C 
BRANCH  13  15
ATOM     15  C   UNL     1     110.989 111.365 106.282  1.00  0.00     0.039 C 
BRANCH  15  16
ATOM     16  C   UNL     1     112.296 110.872 106.949  1.00  0.00     0.032 CG0
ATOM     17  G   UNL     1     112.734 111.787 108.073  1.00  0.00     0.000 G0
ENDBRANCH  15  16
ENDBRANCH  13  15
ENDBRANCH   1  13
TORSDOF 1
ENDMDL
MODEL 4
REMARK VINA RESULT:    -4.629      1.603      3.491
REMARK INTER + INTRA:          -6.605
REMARK INTER:                  -6.831
REMARK INTRA:                   0.226
REMARK UNBOUND:                 0.188
REMARK SMILES C=C1C=C[C@H](C(C)C)CCC(C)=CCC1
REMARK SMILES IDX 3 1 4 2 5 3 9 4 10 5 11 6 12 7 13 8 6 10 7 11 8 12 2 13 1 14
REMARK SMILES IDX 15 15 14 16
REMARK H PARENT
REMARK Flexibility Score: 70.00
ROOT
ATOM      1  C   UNL     1     112.569 111.290 113.305  1.00  0.00    -0.001 C 
ATOM      2  C   UNL     1     112.398 112.244 114.228  1.00  0.00    -0.023 C 
ENDROOT
BRANCH   2   3
ATOM      3  C   UNL     1     112.253 112.012 115.719  1.00  0.00     0.014 C 
BRANCH   3   4
ATOM      4  C   UNL     1     110.748 112.038 116.124  1.00  0.00     0.012 C 
BRANCH   4   5
ATOM      5  C   UNL     1     109.742 112.275 114.963  1.00  0.00     0.031 C 
BRANCH   5   6
ATOM      6  C   UNL     1     109.258 110.971 114.337  1.00  0.00    -0.077 C 
ATOM      7  C   UNL     1     108.765 109.889 115.266  1.00  0.00     0.039 C 
ATOM      8  C   UNL     1     109.264 110.691 113.008  1.00  0.00    -0.028 CG0
ATOM      9  G   UNL     1     109.756 111.569 111.876  1.00  0.00     0.000 G0
ENDBRANCH   5   6
ENDBRANCH   4   5
ENDBRANCH   3   4
BRANCH   3  10
ATOM     10  C   UNL     1     113.062 110.808 116.315  1.00  0.00    -0.010 C 
ATOM     11  C   UNL     1     112.441 109.428 116.025  1.00  0.00     0.008 C 
ATOM     12  C   UNL     1     113.275 110.969 117.831  1.00  0.00     0.008 C 
ENDBRANCH   3  10
ENDBRANCH   2   3
BRANCH   1  13
ATOM     13  C   UNL     1     112.307 111.541 111.872  1.00  0.00    -0.055 C 
ATOM     14  C   UNL     1     113.245 112.146 111.136  1.00  0.00     0.012 C 
BRANCH  13  15
ATOM     15  C   UNL     1     111.045 111.015 111.215  1.00  0.00     0.039 C 
BRANCH  15  16
ATOM     16  C   UNL     1     109.768 111.583 111.880  1.00  0.00     0.032 CG0
ATOM     17  G   UNL     1     109.269 110.689 112.995  1.00  0.00     0.000 G0
ENDBRANCH  15  16
ENDBRANCH  13  15
ENDBRANCH   1  13
TORSDOF 1
ENDMDL
MODEL 5
REMARK VINA RESULT:    -4.501      2.269      5.568
REMARK INTER + INTRA:          -6.417
REMARK INTER:                  -6.566
REMARK INTRA:                   0.149
REMARK UNBOUND:                 0.188
REMARK SMILES C=C1C=C[C@H](C(C)C)CCC(C)=CCC1
REMARK SMILES IDX 3 1 4 2 5 3 9 4 10 5 11 6 12 7 13 8 6 10 7 11 8 12 2 13 1 14
REMARK SMILES IDX 15 15 14 16
REMARK H PARENT
REMARK Flexibility Score: 70.00
ROOT
ATOM      1  C   UNL     1     112.598 110.766 112.381  1.00  0.00    -0.001 C 
ATOM      2  C   UNL     1     111.987 109.780 111.713  1.00  0.00    -0.023 C 
ENDROOT
BRANCH   2   3
ATOM      3  C   UNL     1     111.955 109.624 110.206  1.00  0.00     0.014 C 
BRANCH   3   4
ATOM      4  C   UNL     1     110.527 109.935 109.663  1.00  0.00     0.012 C 
BRANCH   4   5
ATOM      5  C   UNL     1     109.497 110.427 110.718  1.00  0.00     0.031 C 
BRANCH   5   6
ATOM      6  C   UNL     1     109.562 111.935 110.936  1.00  0.00    -0.077 C 
ATOM      7  C   UNL     1     109.489 112.822 109.718  1.00  0.00     0.039 C 
ATOM      8  C   UNL     1     109.712 112.547 112.140  1.00  0.00    -0.028 CG0
ATOM      9  G   UNL     1     109.867 111.897 113.498  1.00  0.00     0.000 G0
ENDBRANCH   5   6
ENDBRANCH   4   5
ENDBRANCH   3   4
BRANCH   3  10
ATOM     10  C   UNL     1     113.114 110.319 109.412  1.00  0.00    -0.010 C 
ATOM     11  C   UNL     1     112.915 111.832 109.204  1.00  0.00     0.008 C 
ATOM     12  C   UNL     1     113.353 109.639 108.053  1.00  0.00     0.008 C 
ENDBRANCH   3  10
ENDBRANCH   2   3
BRANCH   1  13
ATOM     13  C   UNL     1     112.262 111.076 113.787  1.00  0.00    -0.055 C 
ATOM     14  C   UNL     1     112.921 110.448 114.766  1.00  0.00     0.012 C 
BRANCH  13  15
ATOM     15  C   UNL     1     111.271 112.175 114.119  1.00  0.00     0.039 C 
BRANCH  15  16
ATOM     16  C   UNL     1     109.874 111.896 113.515  1.00  0.00     0.032 CG0
ATOM     17  G   UNL     1     109.710 112.540 112.155  1.00  0.00     0.000 G0
ENDBRANCH  15  16
ENDBRANCH  13  15
ENDBRANCH   1  13
TORSDOF 1
ENDMDL
MODEL 6
REMARK VINA RESULT:    -4.450      1.689      4.643
REMARK INTER + INTRA:          -6.343
REMARK INTER:                  -6.333
REMARK INTRA:                  -0.010
REMARK UNBOUND:                 0.188
REMARK SMILES C=C1C=C[C@H](C(C)C)CCC(C)=CCC1
REMARK SMILES IDX 3 1 4 2 5 3 9 4 10 5 11 6 12 7 13 8 6 10 7 11 8 12 2 13 1 14
REMARK SMILES IDX 15 15 14 16
REMARK H PARENT
REMARK Flexibility Score: 70.00
ROOT
ATOM      1  C   UNL     1     109.951 111.892 113.289  1.00  0.00    -0.001 C 
ATOM      2  C   UNL     1     110.600 112.496 112.287  1.00  0.00    -0.023 C 
ENDROOT
BRANCH   2   3
ATOM      3  C   UNL     1     110.498 112.125 110.820  1.00  0.00     0.014 C 
BRANCH   3   4
ATOM      4  C   UNL     1     111.803 111.412 110.353  1.00  0.00     0.012 C 
BRANCH   4   5
ATOM      5  C   UNL     1     112.911 111.259 111.433  1.00  0.00     0.031 C 
BRANCH   5   6
ATOM      6  C   UNL     1     112.796 109.949 112.204  1.00  0.00    -0.077 C 
ATOM      7  C   UNL     1     112.735 108.670 111.405  1.00  0.00     0.039 C 
ATOM      8  C   UNL     1     112.713 109.839 113.555  1.00  0.00    -0.028 CG0
ATOM      9  G   UNL     1     112.693 110.956 114.577  1.00  0.00     0.000 G0
ENDBRANCH   5   6
ENDBRANCH   4   5
ENDBRANCH   3   4
BRANCH   3  10
ATOM     10  C   UNL     1     109.176 111.409 110.377  1.00  0.00    -0.010 C 
ATOM     11  C   UNL     1     109.183 109.884 110.592  1.00  0.00     0.008 C 
ATOM     12  C   UNL     1     108.833 111.720 108.909  1.00  0.00     0.008 C 
ENDBRANCH   3  10
ENDBRANCH   2   3
BRANCH   1  13
ATOM     13  C   UNL     1     110.389 112.032 114.694  1.00  0.00    -0.055 C 
ATOM     14  C   UNL     1     109.875 113.016 115.439  1.00  0.00     0.012 C 
BRANCH  13  15
ATOM     15  C   UNL     1     111.315 111.007 115.320  1.00  0.00     0.039 C 
BRANCH  15  16
ATOM     16  C   UNL     1     112.685 110.951 114.601  1.00  0.00     0.032 CG0
ATOM     17  G   UNL     1     112.726 109.859 113.553  1.00  0.00     0.000 G0
ENDBRANCH  15  16
ENDBRANCH  13  15
ENDBRANCH   1  13
TORSDOF 1
ENDMDL
MODEL 7
REMARK VINA RESULT:    -4.443      3.467      6.781
REMARK INTER + INTRA:          -6.333
REMARK INTER:                  -6.531
REMARK INTRA:                   0.198
REMARK UNBOUND:                 0.188
REMARK SMILES C=C1C=C[C@H](C(C)C)CCC(C)=CCC1
REMARK SMILES IDX 3 1 4 2 5 3 9 4 10 5 11 6 12 7 13 8 6 10 7 11 8 12 2 13 1 14
REMARK SMILES IDX 15 15 14 16
REMARK H PARENT
REMARK Flexibility Score: 70.00
ROOT
ATOM      1  C   UNL     1     109.813 111.567 109.564  1.00  0.00    -0.001 C 
ATOM      2  C   UNL     1     110.423 112.452 108.767  1.00  0.00    -0.023 C 
ENDROOT
BRANCH   2   3
ATOM      3  C   UNL     1     110.614 112.305 107.270  1.00  0.00     0.014 C 
BRANCH   3   4
ATOM      4  C   UNL     1     112.091 111.925 106.950  1.00  0.00     0.012 C 
BRANCH   4   5
ATOM      5  C   UNL     1     113.009 111.689 108.182  1.00  0.00     0.031 C 
BRANCH   5   6
ATOM      6  C   UNL     1     112.943 110.254 108.691  1.00  0.00    -0.077 C 
ATOM      7  C   UNL     1     113.122 109.145 107.684  1.00  0.00     0.039 C 
ATOM      8  C   UNL     1     112.704 109.889 109.978  1.00  0.00    -0.028 CG0
ATOM      9  G   UNL     1     112.434 110.791 111.164  1.00  0.00     0.000 G0
ENDBRANCH   5   6
ENDBRANCH   4   5
ENDBRANCH   3   4
BRANCH   3  10
ATOM     10  C   UNL     1     109.545 111.440 106.517  1.00  0.00    -0.010 C 
ATOM     11  C   UNL     1     109.769 109.920 106.636  1.00  0.00     0.008 C 
ATOM     12  C   UNL     1     109.448 111.831 105.032  1.00  0.00     0.008 C 
ENDBRANCH   3  10
ENDBRANCH   2   3
BRANCH   1  13
ATOM     13  C   UNL     1     110.010 111.577 111.029  1.00  0.00    -0.055 C 
ATOM     14  C   UNL     1     109.256 112.386 111.780  1.00  0.00     0.012 C 
BRANCH  13  15
ATOM     15  C   UNL     1     110.968 110.601 111.686  1.00  0.00     0.039 C 
BRANCH  15  16
ATOM     16  C   UNL     1     112.417 110.779 111.170  1.00  0.00     0.032 CG0
ATOM     17  G   UNL     1     112.703 109.886 109.981  1.00  0.00     0.000 G0
ENDBRANCH  15  16
ENDBRANCH  13  15
ENDBRANCH   1  13
TORSDOF 1
ENDMDL
MODEL 8
REMARK VINA RESULT:    -4.417      1.910      5.008
REMARK INTER + INTRA:          -6.294
REMARK INTER:                  -6.423
REMARK INTRA:                   0.129
REMARK UNBOUND:                 0.188
REMARK SMILES C=C1C=C[C@H](C(C)C)CCC(C)=CCC1
REMARK SMILES IDX 3 1 4 2 5 3 9 4 10 5 11 6 12 7 13 8 6 10 7 11 8 12 2 13 1 14
REMARK SMILES IDX 15 15 14 16
REMARK H PARENT
REMARK Flexibility Score: 70.00
ROOT
ATOM      1  C   UNL     1     112.615 110.819 114.957  1.00  0.00    -0.001 C 
ATOM      2  C   UNL     1     111.992 109.873 114.246  1.00  0.00    -0.023 C 
ENDROOT
BRANCH   2   3
ATOM      3  C   UNL     1     111.811 109.877 112.741  1.00  0.00     0.014 C 
BRANCH   3   4
ATOM      4  C   UNL     1     110.345 110.264 112.376  1.00  0.00     0.012 C 
BRANCH   4   5
ATOM      5  C   UNL     1     109.377 110.444 113.578  1.00  0.00     0.031 C 
BRANCH   5   6
ATOM      6  C   UNL     1     109.267 111.897 114.025  1.00  0.00    -0.077 C 
ATOM      7  C   UNL     1     108.903 112.925 112.982  1.00  0.00     0.039 C 
ATOM      8  C   UNL     1     109.502 112.350 115.284  1.00  0.00    -0.028 CG0
ATOM      9  G   UNL     1     109.935 111.548 116.493  1.00  0.00     0.000 G0
ENDBRANCH   5   6
ENDBRANCH   4   5
ENDBRANCH   3   4
BRANCH   3  10
ATOM     10  C   UNL     1     112.905 110.635 111.913  1.00  0.00    -0.010 C 
ATOM     11  C   UNL     1     112.807 112.170 111.998  1.00  0.00     0.008 C 
ATOM     12  C   UNL     1     112.897 110.200 110.437  1.00  0.00     0.008 C 
ENDBRANCH   3  10
ENDBRANCH   2   3
BRANCH   1  13
ATOM     13  C   UNL     1     112.412 110.956 116.415  1.00  0.00    -0.055 C 
ATOM     14  C   UNL     1     113.233 110.308 117.248  1.00  0.00     0.012 C 
BRANCH  13  15
ATOM     15  C   UNL     1     111.366 111.907 116.963  1.00  0.00     0.039 C 
BRANCH  15  16
ATOM     16  C   UNL     1     109.940 111.529 116.497  1.00  0.00     0.032 CG0
ATOM     17  G   UNL     1     109.506 112.343 115.297  1.00  0.00     0.000 G0
ENDBRANCH  15  16
ENDBRANCH  13  15
ENDBRANCH   1  13
TORSDOF 1
ENDMDL
MODEL 9
REMARK VINA RESULT:    -4.405      4.124      7.638
REMARK INTER + INTRA:          -6.276
REMARK INTER:                  -6.285
REMARK INTRA:                   0.009
REMARK UNBOUND:                 0.188
REMARK SMILES C=C1C=C[C@H](C(C)C)CCC(C)=CCC1
REMARK SMILES IDX 3 1 4 2 5 3 9 4 10 5 11 6 12 7 13 8 6 10 7 11 8 12 2 13 1 14
REMARK SMILES IDX 15 15 14 16
REMARK H PARENT
REMARK Flexibility Score: 70.00
ROOT
ATOM      1  C   UNL     1     112.329 110.362 108.927  1.00  0.00    -0.001 C 
ATOM      2  C   UNL     1     111.819 109.650 107.915  1.00  0.00    -0.023 C 
ENDROOT
BRANCH   2   3
ATOM      3  C   UNL     1     111.709 110.116 106.477  1.00  0.00     0.014 C 
BRANCH   3   4
ATOM      4  C   UNL     1     110.302 110.737 106.218  1.00  0.00     0.012 C 
BRANCH   4   5
ATOM      5  C   UNL     1     109.303 110.659 107.406  1.00  0.00     0.031 C 
BRANCH   5   6
ATOM      6  C   UNL     1     109.290 111.934 108.242  1.00  0.00    -0.077 C 
ATOM      7  C   UNL     1     109.145 113.247 107.513  1.00  0.00     0.039 C 
ATOM      8  C   UNL     1     109.430 111.987 109.592  1.00  0.00    -0.028 CG0
ATOM      9  G   UNL     1     109.647 110.834 110.549  1.00  0.00     0.000 G0
ENDBRANCH   5   6
ENDBRANCH   4   5
ENDBRANCH   3   4
BRANCH   3  10
ATOM     10  C   UNL     1     112.904 110.972 105.932  1.00  0.00    -0.010 C 
ATOM     11  C   UNL     1     112.726 112.491 106.119  1.00  0.00     0.008 C 
ATOM     12  C   UNL     1     113.188 110.665 104.451  1.00  0.00     0.008 C 
ENDBRANCH   3  10
ENDBRANCH   2   3
BRANCH   1  13
ATOM     13  C   UNL     1     112.048 110.019 110.337  1.00  0.00    -0.055 C 
ATOM     14  C   UNL     1     112.726 109.020 110.910  1.00  0.00     0.012 C 
BRANCH  13  15
ATOM     15  C   UNL     1     111.092 110.861 111.160  1.00  0.00     0.039 C 
BRANCH  15  16
ATOM     16  C   UNL     1     109.658 110.842 110.578  1.00  0.00     0.032 CG0
ATOM     17  G   UNL     1     109.436 111.969 109.591  1.00  0.00     0.000 G0
ENDBRANCH  15  16
ENDBRANCH  13  15
ENDBRANCH   1  13
TORSDOF 1
ENDMDL
