MODEL 1
REMARK VINA RESULT:    -5.470      0.000      0.000
REMARK INTER + INTRA:         -11.135
REMARK INTER:                  -8.987
REMARK INTRA:                  -2.148
REMARK UNBOUND:                -2.148
REMARK SMILES CCCCCCCCCCCCCC
REMARK SMILES IDX 7 1 6 2 5 3 4 4 3 5 2 6 1 7 8 8 9 9 10 10 11 11 12 12 13 13
REMARK SMILES IDX 14 14
REMARK H PARENT
REMARK Flexibility Score: inf
ROOT
ATOM      1  C   UNL     1      28.273  38.857  29.200  1.00  0.00    -0.000 C 
ENDROOT
BRANCH   1   2
ATOM      2  C   UNL     1      27.606  37.516  28.849  1.00  0.00    -0.000 C 
BRANCH   2   3
ATOM      3  C   UNL     1      26.665  37.625  27.637  1.00  0.00    -0.000 C 
BRANCH   3   4
ATOM      4  C   UNL     1      27.065  38.757  26.675  1.00  0.00    -0.000 C 
BRANCH   4   5
ATOM      5  C   UNL     1      27.809  38.240  25.433  1.00  0.00    -0.000 C 
BRANCH   5   6
ATOM      6  C   UNL     1      28.211  39.369  24.473  1.00  0.00    -0.003 C 
ATOM      7  C   UNL     1      29.697  39.298  24.132  1.00  0.00     0.004 C 
ENDBRANCH   5   6
ENDBRANCH   4   5
ENDBRANCH   3   4
ENDBRANCH   2   3
ENDBRANCH   1   2
BRANCH   1   8
ATOM      8  C   UNL     1      29.804  38.748  29.296  1.00  0.00    -0.000 C 
BRANCH   8   9
ATOM      9  C   UNL     1      30.525  39.507  28.173  1.00  0.00    -0.000 C 
BRANCH   9  10
ATOM     10  C   UNL     1      31.381  38.556  27.328  1.00  0.00    -0.000 C 
BRANCH  10  11
ATOM     11  C   UNL     1      31.184  37.100  27.766  1.00  0.00    -0.000 C 
BRANCH  11  12
ATOM     12  C   UNL     1      30.509  36.279  26.661  1.00  0.00    -0.000 C 
BRANCH  12  13
ATOM     13  C   UNL     1      29.846  35.023  27.237  1.00  0.00    -0.003 C 
ATOM     14  C   UNL     1      28.563  34.682  26.483  1.00  0.00     0.004 C 
ENDBRANCH  12  13
ENDBRANCH  11  12
ENDBRANCH  10  11
ENDBRANCH   9  10
ENDBRANCH   8   9
ENDBRANCH   1   8
TORSDOF 11
ENDMDL
MODEL 2
REMARK VINA RESULT:    -5.459      0.272      4.303
REMARK INTER + INTRA:         -11.118
REMARK INTER:                  -8.990
REMARK INTRA:                  -2.128
REMARK UNBOUND:                -2.148
REMARK SMILES CCCCCCCCCCCCCC
REMARK SMILES IDX 7 1 6 2 5 3 4 4 3 5 2 6 1 7 8 8 9 9 10 10 11 11 12 12 13 13
REMARK SMILES IDX 14 14
REMARK H PARENT
REMARK Flexibility Score: inf
ROOT
ATOM      1  C   UNL     1      29.788  38.748  29.180  1.00  0.00    -0.000 C 
ENDROOT
BRANCH   1   2
ATOM      2  C   UNL     1      30.504  39.218  27.902  1.00  0.00    -0.000 C 
BRANCH   2   3
ATOM      3  C   UNL     1      31.589  38.232  27.437  1.00  0.00    -0.000 C 
BRANCH   3   4
ATOM      4  C   UNL     1      31.234  36.768  27.750  1.00  0.00    -0.000 C 
BRANCH   4   5
ATOM      5  C   UNL     1      30.436  36.100  26.619  1.00  0.00    -0.000 C 
BRANCH   5   6
ATOM      6  C   UNL     1      29.750  34.802  27.067  1.00  0.00    -0.003 C 
ATOM      7  C   UNL     1      28.375  34.656  26.423  1.00  0.00     0.004 C 
ENDBRANCH   5   6
ENDBRANCH   4   5
ENDBRANCH   3   4
ENDBRANCH   2   3
ENDBRANCH   1   2
BRANCH   1   8
ATOM      8  C   UNL     1      28.257  38.795  29.050  1.00  0.00    -0.000 C 
BRANCH   8   9
ATOM      9  C   UNL     1      27.652  37.440  28.652  1.00  0.00    -0.000 C 
BRANCH   9  10
ATOM     10  C   UNL     1      26.500  37.624  27.657  1.00  0.00    -0.000 C 
BRANCH  10  11
ATOM     11  C   UNL     1      26.840  38.690  26.609  1.00  0.00    -0.000 C 
BRANCH  11  12
ATOM     12  C   UNL     1      27.703  38.103  25.486  1.00  0.00    -0.000 C 
BRANCH  12  13
ATOM     13  C   UNL     1      28.311  39.214  24.622  1.00  0.00    -0.003 C 
ATOM     14  C   UNL     1      29.764  38.905  24.269  1.00  0.00     0.004 C 
ENDBRANCH  12  13
ENDBRANCH  11  12
ENDBRANCH  10  11
ENDBRANCH   9  10
ENDBRANCH   8   9
ENDBRANCH   1   8
TORSDOF 11
ENDMDL
MODEL 3
REMARK VINA RESULT:    -5.388      1.105      4.291
REMARK INTER + INTRA:         -11.002
REMARK INTER:                  -8.785
REMARK INTRA:                  -2.217
REMARK UNBOUND:                -2.148
REMARK SMILES CCCCCCCCCCCCCC
REMARK SMILES IDX 7 1 6 2 5 3 4 4 3 5 2 6 1 7 8 8 9 9 10 10 11 11 12 12 13 13
REMARK SMILES IDX 14 14
REMARK H PARENT
REMARK Flexibility Score: inf
ROOT
ATOM      1  C   UNL     1      30.017  38.950  24.752  1.00  0.00    -0.000 C 
ENDROOT
BRANCH   1   2
ATOM      2  C   UNL     1      30.771  37.655  25.100  1.00  0.00    -0.000 C 
BRANCH   2   3
ATOM      3  C   UNL     1      31.775  37.849  26.249  1.00  0.00    -0.000 C 
BRANCH   3   4
ATOM      4  C   UNL     1      31.303  38.886  27.283  1.00  0.00    -0.000 C 
BRANCH   4   5
ATOM      5  C   UNL     1      30.550  38.245  28.459  1.00  0.00    -0.000 C 
BRANCH   5   6
ATOM      6  C   UNL     1      29.763  39.272  29.287  1.00  0.00    -0.003 C 
ATOM      7  C   UNL     1      28.386  38.735  29.663  1.00  0.00     0.004 C 
ENDBRANCH   5   6
ENDBRANCH   4   5
ENDBRANCH   3   4
ENDBRANCH   2   3
ENDBRANCH   1   2
BRANCH   1   8
ATOM      8  C   UNL     1      28.492  38.754  24.716  1.00  0.00    -0.000 C 
BRANCH   8   9
ATOM      9  C   UNL     1      27.808  39.175  26.024  1.00  0.00    -0.000 C 
BRANCH   9  10
ATOM     10  C   UNL     1      26.712  38.178  26.417  1.00  0.00    -0.000 C 
BRANCH  10  11
ATOM     11  C   UNL     1      27.088  36.752  25.999  1.00  0.00    -0.000 C 
BRANCH  11  12
ATOM     12  C   UNL     1      27.857  36.035  27.116  1.00  0.00    -0.000 C 
BRANCH  12  13
ATOM     13  C   UNL     1      28.679  34.869  26.556  1.00  0.00    -0.003 C 
ATOM     14  C   UNL     1      30.030  34.760  27.260  1.00  0.00     0.004 C 
ENDBRANCH  12  13
ENDBRANCH  11  12
ENDBRANCH  10  11
ENDBRANCH   9  10
ENDBRANCH   8   9
ENDBRANCH   1   8
TORSDOF 11
ENDMDL
MODEL 4
REMARK VINA RESULT:    -5.376      1.078      4.201
REMARK INTER + INTRA:         -10.982
REMARK INTER:                  -8.809
REMARK INTRA:                  -2.173
REMARK UNBOUND:                -2.148
REMARK SMILES CCCCCCCCCCCCCC
REMARK SMILES IDX 7 1 6 2 5 3 4 4 3 5 2 6 1 7 8 8 9 9 10 10 11 11 12 12 13 13
REMARK SMILES IDX 14 14
REMARK H PARENT
REMARK Flexibility Score: inf
ROOT
ATOM      1  C   UNL     1      29.801  35.257  26.626  1.00  0.00    -0.000 C 
ENDROOT
BRANCH   1   2
ATOM      2  C   UNL     1      30.569  36.055  27.693  1.00  0.00    -0.000 C 
BRANCH   2   3
ATOM      3  C   UNL     1      31.600  37.018  27.081  1.00  0.00    -0.000 C 
BRANCH   3   4
ATOM      4  C   UNL     1      31.244  37.433  25.642  1.00  0.00    -0.000 C 
BRANCH   4   5
ATOM      5  C   UNL     1      30.343  38.677  25.594  1.00  0.00    -0.000 C 
BRANCH   5   6
ATOM      6  C   UNL     1      29.664  38.861  24.230  1.00  0.00    -0.003 C 
ATOM      7  C   UNL     1      28.299  39.527  24.380  1.00  0.00     0.004 C 
ENDBRANCH   5   6
ENDBRANCH   4   5
ENDBRANCH   3   4
ENDBRANCH   2   3
ENDBRANCH   1   2
BRANCH   1   8
ATOM      8  C   UNL     1      28.281  35.274  26.856  1.00  0.00    -0.000 C 
BRANCH   8   9
ATOM      9  C   UNL     1      27.530  36.110  25.809  1.00  0.00    -0.000 C 
BRANCH   9  10
ATOM     10  C   UNL     1      26.635  37.158  26.480  1.00  0.00    -0.000 C 
BRANCH  10  11
ATOM     11  C   UNL     1      27.053  37.389  27.937  1.00  0.00    -0.000 C 
BRANCH  11  12
ATOM     12  C   UNL     1      27.796  38.722  28.092  1.00  0.00    -0.000 C 
BRANCH  12  13
ATOM     13  C   UNL     1      28.536  38.786  29.432  1.00  0.00    -0.003 C 
ATOM     14  C   UNL     1      29.937  39.367  29.261  1.00  0.00     0.004 C 
ENDBRANCH  12  13
ENDBRANCH  11  12
ENDBRANCH  10  11
ENDBRANCH   9  10
ENDBRANCH   8   9
ENDBRANCH   1   8
TORSDOF 11
ENDMDL
MODEL 5
REMARK VINA RESULT:    -5.334      1.070      3.790
REMARK INTER + INTRA:         -10.912
REMARK INTER:                  -8.878
REMARK INTRA:                  -2.034
REMARK UNBOUND:                -2.148
REMARK SMILES CCCCCCCCCCCCCC
REMARK SMILES IDX 7 1 6 2 5 3 4 4 3 5 2 6 1 7 8 8 9 9 10 10 11 11 12 12 13 13
REMARK SMILES IDX 14 14
REMARK H PARENT
REMARK Flexibility Score: inf
ROOT
ATOM      1  C   UNL     1      28.239  35.164  26.941  1.00  0.00    -0.000 C 
ENDROOT
BRANCH   1   2
ATOM      2  C   UNL     1      27.465  35.915  25.844  1.00  0.00    -0.000 C 
BRANCH   2   3
ATOM      3  C   UNL     1      26.745  37.164  26.381  1.00  0.00    -0.000 C 
BRANCH   3   4
ATOM      4  C   UNL     1      26.989  37.390  27.884  1.00  0.00    -0.000 C 
BRANCH   4   5
ATOM      5  C   UNL     1      27.839  38.640  28.162  1.00  0.00    -0.000 C 
BRANCH   5   6
ATOM      6  C   UNL     1      28.320  38.715  29.618  1.00  0.00    -0.003 C 
ATOM      7  C   UNL     1      29.791  39.109  29.692  1.00  0.00     0.004 C 
ENDBRANCH   5   6
ENDBRANCH   4   5
ENDBRANCH   3   4
ENDBRANCH   2   3
ENDBRANCH   1   2
BRANCH   1   8
ATOM      8  C   UNL     1      29.746  35.082  26.648  1.00  0.00    -0.000 C 
BRANCH   8   9
ATOM      9  C   UNL     1      30.601  35.726  27.749  1.00  0.00    -0.000 C 
BRANCH   9  10
ATOM     10  C   UNL     1      31.312  36.980  27.229  1.00  0.00    -0.000 C 
BRANCH  10  11
ATOM     11  C   UNL     1      30.914  37.280  25.779  1.00  0.00    -0.000 C 
BRANCH  11  12
ATOM     12  C   UNL     1      30.407  38.720  25.634  1.00  0.00    -0.000 C 
BRANCH  12  13
ATOM     13  C   UNL     1      29.796  38.950  24.247  1.00  0.00    -0.003 C 
ATOM     14  C   UNL     1      28.356  39.443  24.353  1.00  0.00     0.004 C 
ENDBRANCH  12  13
ENDBRANCH  11  12
ENDBRANCH  10  11
ENDBRANCH   9  10
ENDBRANCH   8   9
ENDBRANCH   1   8
TORSDOF 11
ENDMDL
MODEL 6
REMARK VINA RESULT:    -5.329      1.121      3.031
REMARK INTER + INTRA:         -10.904
REMARK INTER:                  -8.804
REMARK INTRA:                  -2.100
REMARK UNBOUND:                -2.148
REMARK SMILES CCCCCCCCCCCCCC
REMARK SMILES IDX 7 1 6 2 5 3 4 4 3 5 2 6 1 7 8 8 9 9 10 10 11 11 12 12 13 13
REMARK SMILES IDX 14 14
REMARK H PARENT
REMARK Flexibility Score: inf
ROOT
ATOM      1  C   UNL     1      28.614  38.998  29.126  1.00  0.00    -0.000 C 
ENDROOT
BRANCH   1   2
ATOM      2  C   UNL     1      27.816  38.886  27.816  1.00  0.00    -0.000 C 
BRANCH   2   3
ATOM      3  C   UNL     1      26.974  37.601  27.746  1.00  0.00    -0.000 C 
BRANCH   3   4
ATOM      4  C   UNL     1      26.727  37.131  26.302  1.00  0.00    -0.000 C 
BRANCH   4   5
ATOM      5  C   UNL     1      27.631  35.955  25.902  1.00  0.00    -0.000 C 
BRANCH   5   6
ATOM      6  C   UNL     1      28.419  35.385  27.090  1.00  0.00    -0.003 C 
ATOM      7  C   UNL     1      29.511  34.429  26.619  1.00  0.00     0.004 C 
ENDBRANCH   5   6
ENDBRANCH   4   5
ENDBRANCH   3   4
ENDBRANCH   2   3
ENDBRANCH   1   2
BRANCH   1   8
ATOM      8  C   UNL     1      30.113  39.240  28.885  1.00  0.00    -0.000 C 
BRANCH   8   9
ATOM      9  C   UNL     1      30.797  38.067  28.168  1.00  0.00    -0.000 C 
BRANCH   9  10
ATOM     10  C   UNL     1      31.503  38.539  26.892  1.00  0.00    -0.000 C 
BRANCH  10  11
ATOM     11  C   UNL     1      31.455  37.461  25.803  1.00  0.00    -0.000 C 
BRANCH  11  12
ATOM     12  C   UNL     1      30.503  37.864  24.671  1.00  0.00    -0.000 C 
BRANCH  12  13
ATOM     13  C   UNL     1      29.903  39.251  24.924  1.00  0.00    -0.003 C 
ATOM     14  C   UNL     1      28.575  39.420  24.191  1.00  0.00     0.004 C 
ENDBRANCH  12  13
ENDBRANCH  11  12
ENDBRANCH  10  11
ENDBRANCH   9  10
ENDBRANCH   8   9
ENDBRANCH   1   8
TORSDOF 11
ENDMDL
MODEL 7
REMARK VINA RESULT:    -5.302      1.025      3.736
REMARK INTER + INTRA:         -10.860
REMARK INTER:                  -8.890
REMARK INTRA:                  -1.970
REMARK UNBOUND:                -2.148
REMARK SMILES CCCCCCCCCCCCCC
REMARK SMILES IDX 7 1 6 2 5 3 4 4 3 5 2 6 1 7 8 8 9 9 10 10 11 11 12 12 13 13
REMARK SMILES IDX 14 14
REMARK H PARENT
REMARK Flexibility Score: inf
ROOT
ATOM      1  C   UNL     1      28.066  39.150  24.794  1.00  0.00    -0.000 C 
ENDROOT
BRANCH   1   2
ATOM      2  C   UNL     1      27.584  39.119  26.255  1.00  0.00    -0.000 C 
BRANCH   2   3
ATOM      3  C   UNL     1      26.457  38.098  26.482  1.00  0.00    -0.000 C 
BRANCH   3   4
ATOM      4  C   UNL     1      26.676  37.243  27.743  1.00  0.00    -0.000 C 
BRANCH   4   5
ATOM      5  C   UNL     1      27.991  36.448  27.696  1.00  0.00    -0.000 C 
BRANCH   5   6
ATOM      6  C   UNL     1      27.999  35.387  26.587  1.00  0.00    -0.003 C 
ATOM      7  C   UNL     1      29.275  34.552  26.634  1.00  0.00     0.004 C 
ENDBRANCH   5   6
ENDBRANCH   4   5
ENDBRANCH   3   4
ENDBRANCH   2   3
ENDBRANCH   1   2
BRANCH   1   8
ATOM      8  C   UNL     1      29.401  38.412  24.597  1.00  0.00    -0.000 C 
BRANCH   8   9
ATOM      9  C   UNL     1      30.482  38.865  25.589  1.00  0.00    -0.000 C 
BRANCH   9  10
ATOM     10  C   UNL     1      31.150  37.660  26.261  1.00  0.00    -0.000 C 
BRANCH  10  11
ATOM     11  C   UNL     1      31.332  37.896  27.765  1.00  0.00    -0.000 C 
BRANCH  11  12
ATOM     12  C   UNL     1      30.855  39.298  28.163  1.00  0.00    -0.000 C 
BRANCH  12  13
ATOM     13  C   UNL     1      29.681  39.220  29.146  1.00  0.00    -0.003 C 
ATOM     14  C   UNL     1      30.173  39.089  30.585  1.00  0.00     0.004 C 
ENDBRANCH  12  13
ENDBRANCH  11  12
ENDBRANCH  10  11
ENDBRANCH   9  10
ENDBRANCH   8   9
ENDBRANCH   1   8
TORSDOF 11
ENDMDL
MODEL 8
REMARK VINA RESULT:    -5.199      0.822      4.772
REMARK INTER + INTRA:         -10.691
REMARK INTER:                  -8.764
REMARK INTRA:                  -1.926
REMARK UNBOUND:                -2.148
REMARK SMILES CCCCCCCCCCCCCC
REMARK SMILES IDX 7 1 6 2 5 3 4 4 3 5 2 6 1 7 8 8 9 9 10 10 11 11 12 12 13 13
REMARK SMILES IDX 14 14
REMARK H PARENT
REMARK Flexibility Score: inf
ROOT
ATOM      1  C   UNL     1      29.816  38.734  24.480  1.00  0.00    -0.000 C 
ENDROOT
BRANCH   1   2
ATOM      2  C   UNL     1      30.586  38.743  25.812  1.00  0.00    -0.000 C 
BRANCH   2   3
ATOM      3  C   UNL     1      31.632  37.618  25.896  1.00  0.00    -0.000 C 
BRANCH   3   4
ATOM      4  C   UNL     1      31.601  36.878  27.245  1.00  0.00    -0.000 C 
BRANCH   4   5
ATOM      5  C   UNL     1      30.234  36.239  27.535  1.00  0.00    -0.000 C 
BRANCH   5   6
ATOM      6  C   UNL     1      30.035  34.908  26.798  1.00  0.00    -0.003 C 
ATOM      7  C   UNL     1      28.555  34.632  26.549  1.00  0.00     0.004 C 
ENDBRANCH   5   6
ENDBRANCH   4   5
ENDBRANCH   3   4
ENDBRANCH   2   3
ENDBRANCH   1   2
BRANCH   1   8
ATOM      8  C   UNL     1      28.325  39.062  24.659  1.00  0.00    -0.000 C 
BRANCH   8   9
ATOM      9  C   UNL     1      27.580  38.007  25.489  1.00  0.00    -0.000 C 
BRANCH   9  10
ATOM     10  C   UNL     1      27.003  38.622  26.769  1.00  0.00    -0.000 C 
BRANCH  10  11
ATOM     11  C   UNL     1      26.791  37.553  27.848  1.00  0.00    -0.000 C 
BRANCH  11  12
ATOM     12  C   UNL     1      27.630  37.856  29.095  1.00  0.00    -0.000 C 
BRANCH  12  13
ATOM     13  C   UNL     1      28.489  39.109  28.889  1.00  0.00    -0.003 C 
ATOM     14  C   UNL     1      29.718  39.089  29.795  1.00  0.00     0.004 C 
ENDBRANCH  12  13
ENDBRANCH  11  12
ENDBRANCH  10  11
ENDBRANCH   9  10
ENDBRANCH   8   9
ENDBRANCH   1   8
TORSDOF 11
ENDMDL
MODEL 9
REMARK VINA RESULT:    -5.175      0.742      3.220
REMARK INTER + INTRA:         -10.650
REMARK INTER:                  -8.619
REMARK INTRA:                  -2.032
REMARK UNBOUND:                -2.148
REMARK SMILES CCCCCCCCCCCCCC
REMARK SMILES IDX 7 1 6 2 5 3 4 4 3 5 2 6 1 7 8 8 9 9 10 10 11 11 12 12 13 13
REMARK SMILES IDX 14 14
REMARK H PARENT
REMARK Flexibility Score: inf
ROOT
ATOM      1  C   UNL     1      28.205  39.434  24.641  1.00  0.00    -0.000 C 
ENDROOT
BRANCH   1   2
ATOM      2  C   UNL     1      27.645  38.283  25.495  1.00  0.00    -0.000 C 
BRANCH   2   3
ATOM      3  C   UNL     1      26.997  38.777  26.799  1.00  0.00    -0.000 C 
BRANCH   3   4
ATOM      4  C   UNL     1      26.845  37.660  27.847  1.00  0.00    -0.000 C 
BRANCH   4   5
ATOM      5  C   UNL     1      27.760  37.865  29.064  1.00  0.00    -0.000 C 
BRANCH   5   6
ATOM      6  C   UNL     1      28.630  39.124  28.944  1.00  0.00    -0.003 C 
ATOM      7  C   UNL     1      29.745  39.123  29.985  1.00  0.00     0.004 C 
ENDBRANCH   5   6
ENDBRANCH   4   5
ENDBRANCH   3   4
ENDBRANCH   2   3
ENDBRANCH   1   2
BRANCH   1   8
ATOM      8  C   UNL     1      29.712  39.293  24.375  1.00  0.00    -0.000 C 
BRANCH   8   9
ATOM      9  C   UNL     1      30.298  37.995  24.950  1.00  0.00    -0.000 C 
BRANCH   9  10
ATOM     10  C   UNL     1      31.074  38.268  26.243  1.00  0.00    -0.000 C 
BRANCH  10  11
ATOM     11  C   UNL     1      31.004  37.067  27.194  1.00  0.00    -0.000 C 
BRANCH  11  12
ATOM     12  C   UNL     1      30.499  35.816  26.464  1.00  0.00    -0.000 C 
BRANCH  12  13
ATOM     13  C   UNL     1      29.345  35.160  27.231  1.00  0.00    -0.003 C 
ATOM     14  C   UNL     1      28.255  34.676  26.279  1.00  0.00     0.004 C 
ENDBRANCH  12  13
ENDBRANCH  11  12
ENDBRANCH  10  11
ENDBRANCH   9  10
ENDBRANCH   8   9
ENDBRANCH   1   8
TORSDOF 11
ENDMDL
