MODEL 1
REMARK VINA RESULT:    -2.616      0.000      0.000
REMARK INTER + INTRA:          -3.132
REMARK INTER:                  -3.075
REMARK INTRA:                  -0.057
REMARK UNBOUND:                -0.057
REMARK SMILES CCCCC(=O)[O-]
REMARK SMILES IDX 4 1 5 2 6 3 7 4 3 5 2 6 1 7
REMARK H PARENT
REMARK Flexibility Score: inf
ROOT
ATOM      1  C   UNL     1      58.391  17.104  48.879  1.00  0.00     0.053 C 
ENDROOT
BRANCH   1   2
ATOM      2  C   UNL     1      59.646  17.912  48.781  1.00  0.00     0.041 C 
ATOM      3  O   UNL     1      60.704  17.510  49.335  1.00  0.00    -0.550 OA
ATOM      4  O   UNL     1      59.637  19.135  48.121  1.00  0.00    -0.550 OA
ENDBRANCH   1   2
BRANCH   1   5
ATOM      5  C   UNL     1      57.805  17.191  50.291  1.00  0.00     0.006 C 
BRANCH   5   6
ATOM      6  C   UNL     1      57.326  18.613  50.601  1.00  0.00    -0.003 C 
ATOM      7  C   UNL     1      55.805  18.675  50.696  1.00  0.00     0.004 C 
ENDBRANCH   5   6
ENDBRANCH   1   5
TORSDOF 3
ENDMDL
MODEL 2
REMARK VINA RESULT:    -2.590      2.334      3.539
REMARK INTER + INTRA:          -3.101
REMARK INTER:                  -3.028
REMARK INTRA:                  -0.073
REMARK UNBOUND:                -0.057
REMARK SMILES CCCCC(=O)[O-]
REMARK SMILES IDX 4 1 5 2 6 3 7 4 3 5 2 6 1 7
REMARK H PARENT
REMARK Flexibility Score: inf
ROOT
ATOM      1  C   UNL     1      57.739  17.155  50.571  1.00  0.00     0.053 C 
ENDROOT
BRANCH   1   2
ATOM      2  C   UNL     1      56.936  18.396  50.802  1.00  0.00     0.041 C 
ATOM      3  O   UNL     1      55.740  18.458  50.412  1.00  0.00    -0.550 OA
ATOM      4  O   UNL     1      57.522  19.503  51.404  1.00  0.00    -0.550 OA
ENDBRANCH   1   2
BRANCH   1   5
ATOM      5  C   UNL     1      58.072  17.000  49.084  1.00  0.00     0.006 C 
BRANCH   5   6
ATOM      6  C   UNL     1      59.519  17.419  48.798  1.00  0.00    -0.003 C 
ATOM      7  C   UNL     1      59.602  18.897  48.430  1.00  0.00     0.004 C 
ENDBRANCH   5   6
ENDBRANCH   1   5
TORSDOF 3
ENDMDL
MODEL 3
REMARK VINA RESULT:    -2.554      8.844      9.696
REMARK INTER + INTRA:          -3.059
REMARK INTER:                  -3.040
REMARK INTRA:                  -0.019
REMARK UNBOUND:                -0.057
REMARK SMILES CCCCC(=O)[O-]
REMARK SMILES IDX 4 1 5 2 6 3 7 4 3 5 2 6 1 7
REMARK H PARENT
REMARK Flexibility Score: inf
ROOT
ATOM      1  C   UNL     1      57.332  28.080  50.369  1.00  0.00     0.053 C 
ENDROOT
BRANCH   1   2
ATOM      2  C   UNL     1      58.572  28.105  49.534  1.00  0.00     0.041 C 
ATOM      3  O   UNL     1      58.925  29.166  48.954  1.00  0.00    -0.550 OA
ATOM      4  O   UNL     1      59.314  26.944  49.353  1.00  0.00    -0.550 OA
ENDBRANCH   1   2
BRANCH   1   5
ATOM      5  C   UNL     1      56.557  26.778  50.140  1.00  0.00     0.006 C 
BRANCH   5   6
ATOM      6  C   UNL     1      55.056  27.051  49.995  1.00  0.00    -0.003 C 
ATOM      7  C   UNL     1      54.361  25.921  49.241  1.00  0.00     0.004 C 
ENDBRANCH   5   6
ENDBRANCH   1   5
TORSDOF 3
ENDMDL
MODEL 4
REMARK VINA RESULT:    -2.552     21.821     22.257
REMARK INTER + INTRA:          -3.057
REMARK INTER:                  -2.938
REMARK INTRA:                  -0.119
REMARK UNBOUND:                -0.057
REMARK SMILES CCCCC(=O)[O-]
REMARK SMILES IDX 4 1 5 2 6 3 7 4 3 5 2 6 1 7
REMARK H PARENT
REMARK Flexibility Score: inf
ROOT
ATOM      1  C   UNL     1      73.074  31.468  60.918  1.00  0.00     0.053 C 
ENDROOT
BRANCH   1   2
ATOM      2  C   UNL     1      71.939  32.325  60.456  1.00  0.00     0.041 C 
ATOM      3  O   UNL     1      71.934  33.560  60.706  1.00  0.00    -0.550 OA
ATOM      4  O   UNL     1      70.861  31.755  59.790  1.00  0.00    -0.550 OA
ENDBRANCH   1   2
BRANCH   1   5
ATOM      5  C   UNL     1      72.594  30.037  61.178  1.00  0.00     0.006 C 
BRANCH   5   6
ATOM      6  C   UNL     1      72.074  29.883  62.612  1.00  0.00    -0.003 C 
ATOM      7  C   UNL     1      70.574  29.607  62.629  1.00  0.00     0.004 C 
ENDBRANCH   5   6
ENDBRANCH   1   5
TORSDOF 3
ENDMDL
MODEL 5
REMARK VINA RESULT:    -2.544     10.434     11.328
REMARK INTER + INTRA:          -3.047
REMARK INTER:                  -3.024
REMARK INTRA:                  -0.022
REMARK UNBOUND:                -0.057
REMARK SMILES CCCCC(=O)[O-]
REMARK SMILES IDX 4 1 5 2 6 3 7 4 3 5 2 6 1 7
REMARK H PARENT
REMARK Flexibility Score: inf
ROOT
ATOM      1  C   UNL     1      55.458  28.832  50.649  1.00  0.00     0.053 C 
ENDROOT
BRANCH   1   2
ATOM      2  C   UNL     1      54.449  27.941  49.997  1.00  0.00     0.041 C 
ATOM      3  O   UNL     1      54.758  26.765  49.669  1.00  0.00    -0.550 OA
ATOM      4  O   UNL     1      53.179  28.424  49.704  1.00  0.00    -0.550 OA
ENDBRANCH   1   2
BRANCH   1   5
ATOM      5  C   UNL     1      56.877  28.324  50.379  1.00  0.00     0.006 C 
BRANCH   5   6
ATOM      6  C   UNL     1      57.879  29.482  50.348  1.00  0.00    -0.003 C 
ATOM      7  C   UNL     1      58.878  29.317  49.206  1.00  0.00     0.004 C 
ENDBRANCH   5   6
ENDBRANCH   1   5
TORSDOF 3
ENDMDL
MODEL 6
REMARK VINA RESULT:    -2.543     20.599     21.220
REMARK INTER + INTRA:          -3.046
REMARK INTER:                  -3.026
REMARK INTRA:                  -0.020
REMARK UNBOUND:                -0.057
REMARK SMILES CCCCC(=O)[O-]
REMARK SMILES IDX 4 1 5 2 6 3 7 4 3 5 2 6 1 7
REMARK H PARENT
REMARK Flexibility Score: inf
ROOT
ATOM      1  C   UNL     1      63.879  34.681  60.509  1.00  0.00     0.053 C 
ENDROOT
BRANCH   1   2
ATOM      2  C   UNL     1      64.445  33.326  60.226  1.00  0.00     0.041 C 
ATOM      3  O   UNL     1      64.413  32.428  61.108  1.00  0.00    -0.550 OA
ATOM      4  O   UNL     1      65.055  33.068  59.003  1.00  0.00    -0.550 OA
ENDBRANCH   1   2
BRANCH   1   5
ATOM      5  C   UNL     1      64.519  35.278  61.766  1.00  0.00     0.006 C 
BRANCH   5   6
ATOM      6  C   UNL     1      63.707  36.470  62.283  1.00  0.00    -0.003 C 
ATOM      7  C   UNL     1      64.140  36.863  63.692  1.00  0.00     0.004 C 
ENDBRANCH   5   6
ENDBRANCH   1   5
TORSDOF 3
ENDMDL
MODEL 7
REMARK VINA RESULT:    -2.540      9.804     10.500
REMARK INTER + INTRA:          -3.042
REMARK INTER:                  -2.945
REMARK INTRA:                  -0.097
REMARK UNBOUND:                -0.057
REMARK SMILES CCCCC(=O)[O-]
REMARK SMILES IDX 4 1 5 2 6 3 7 4 3 5 2 6 1 7
REMARK H PARENT
REMARK Flexibility Score: inf
ROOT
ATOM      1  C   UNL     1      58.862  29.228  49.271  1.00  0.00     0.053 C 
ENDROOT
BRANCH   1   2
ATOM      2  C   UNL     1      59.793  28.058  49.266  1.00  0.00     0.041 C 
ATOM      3  O   UNL     1      61.040  28.239  49.244  1.00  0.00    -0.550 OA
ATOM      4  O   UNL     1      59.286  26.764  49.236  1.00  0.00    -0.550 OA
ENDBRANCH   1   2
BRANCH   1   5
ATOM      5  C   UNL     1      58.182  29.367  50.636  1.00  0.00     0.006 C 
BRANCH   5   6
ATOM      6  C   UNL     1      56.658  29.272  50.503  1.00  0.00    -0.003 C 
ATOM      7  C   UNL     1      56.195  27.818  50.498  1.00  0.00     0.004 C 
ENDBRANCH   5   6
ENDBRANCH   1   5
TORSDOF 3
ENDMDL
MODEL 8
REMARK VINA RESULT:    -2.511     10.038     11.225
REMARK INTER + INTRA:          -3.008
REMARK INTER:                  -2.966
REMARK INTRA:                  -0.042
REMARK UNBOUND:                -0.057
REMARK SMILES CCCCC(=O)[O-]
REMARK SMILES IDX 4 1 5 2 6 3 7 4 3 5 2 6 1 7
REMARK H PARENT
REMARK Flexibility Score: inf
ROOT
ATOM      1  C   UNL     1      53.883  28.152  50.094  1.00  0.00     0.053 C 
ENDROOT
BRANCH   1   2
ATOM      2  C   UNL     1      54.536  29.424  50.533  1.00  0.00     0.041 C 
ATOM      3  O   UNL     1      55.773  29.452  50.773  1.00  0.00    -0.550 OA
ATOM      4  O   UNL     1      53.773  30.569  50.726  1.00  0.00    -0.550 OA
ENDBRANCH   1   2
BRANCH   1   5
ATOM      5  C   UNL     1      54.926  27.045  49.919  1.00  0.00     0.006 C 
BRANCH   5   6
ATOM      6  C   UNL     1      54.315  25.816  49.238  1.00  0.00    -0.003 C 
ATOM      7  C   UNL     1      52.882  26.088  48.792  1.00  0.00     0.004 C 
ENDBRANCH   5   6
ENDBRANCH   1   5
TORSDOF 3
ENDMDL
MODEL 9
REMARK VINA RESULT:    -2.465     22.023     22.443
REMARK INTER + INTRA:          -2.954
REMARK INTER:                  -2.858
REMARK INTRA:                  -0.096
REMARK UNBOUND:                -0.057
REMARK SMILES CCCCC(=O)[O-]
REMARK SMILES IDX 4 1 5 2 6 3 7 4 3 5 2 6 1 7
REMARK H PARENT
REMARK Flexibility Score: inf
ROOT
ATOM      1  C   UNL     1      73.091  31.129  61.676  1.00  0.00     0.053 C 
ENDROOT
BRANCH   1   2
ATOM      2  C   UNL     1      72.436  29.875  62.161  1.00  0.00     0.041 C 
ATOM      3  O   UNL     1      73.004  28.761  62.005  1.00  0.00    -0.550 OA
ATOM      4  O   UNL     1      71.175  29.927  62.742  1.00  0.00    -0.550 OA
ENDBRANCH   1   2
BRANCH   1   5
ATOM      5  C   UNL     1      73.125  31.160  60.146  1.00  0.00     0.006 C 
BRANCH   5   6
ATOM      6  C   UNL     1      71.990  32.025  59.588  1.00  0.00    -0.003 C 
ATOM      7  C   UNL     1      71.673  33.189  60.523  1.00  0.00     0.004 C 
ENDBRANCH   5   6
ENDBRANCH   1   5
TORSDOF 3
ENDMDL
