MODEL 1
REMARK VINA RESULT:    -4.273      0.000      0.000
REMARK INTER + INTRA:          -5.964
REMARK INTER:                  -5.647
REMARK INTRA:                  -0.317
REMARK UNBOUND:                -0.317
REMARK SMILES C=C[C@H](O)CCCCC
REMARK SMILES IDX 6 1 7 2 8 3 9 4 5 5 3 6 2 7 1 8 4 9
REMARK H PARENT 4 10
REMARK Flexibility Score: inf
ROOT
ATOM      1  C   UNL     1      -3.201  17.365  47.928  1.00  0.00     0.003 C 
ENDROOT
BRANCH   1   2
ATOM      2  C   UNL     1      -4.373  18.336  48.137  1.00  0.00    -0.000 C 
BRANCH   2   3
ATOM      3  C   UNL     1      -3.908  19.757  48.487  1.00  0.00    -0.003 C 
ATOM      4  C   UNL     1      -4.670  20.837  47.717  1.00  0.00     0.004 C 
ENDBRANCH   2   3
ENDBRANCH   1   2
BRANCH   1   5
ATOM      5  C   UNL     1      -2.373  17.759  46.694  1.00  0.00     0.036 C 
BRANCH   5   6
ATOM      6  C   UNL     1      -3.122  17.490  45.378  1.00  0.00     0.136 C 
BRANCH   6   7
ATOM      7  C   UNL     1      -2.286  16.668  44.424  1.00  0.00    -0.004 C 
ATOM      8  C   UNL     1      -1.058  16.258  44.755  1.00  0.00     0.007 C 
ENDBRANCH   6   7
BRANCH   6   9
ATOM      9  O   UNL     1      -3.434  18.722  44.780  1.00  0.00    -0.389 OA
ATOM     10  H   UNL     1      -3.549  19.382  45.514  1.00  0.00     0.211 HD
ENDBRANCH   6   9
ENDBRANCH   5   6
ENDBRANCH   1   5
TORSDOF 6
ENDMDL
MODEL 2
REMARK VINA RESULT:    -4.191      4.730      7.477
REMARK INTER + INTRA:          -5.855
REMARK INTER:                  -5.618
REMARK INTRA:                  -0.237
REMARK UNBOUND:                -0.317
REMARK SMILES C=C[C@H](O)CCCCC
REMARK SMILES IDX 6 1 7 2 8 3 9 4 5 5 3 6 2 7 1 8 4 9
REMARK H PARENT 4 10
REMARK Flexibility Score: inf
ROOT
ATOM      1  C   UNL     1      -4.778  22.783  48.755  1.00  0.00     0.003 C 
ENDROOT
BRANCH   1   2
ATOM      2  C   UNL     1      -5.247  21.831  47.645  1.00  0.00    -0.000 C 
BRANCH   2   3
ATOM      3  C   UNL     1      -4.631  20.430  47.768  1.00  0.00    -0.003 C 
ATOM      4  C   UNL     1      -3.523  20.360  48.819  1.00  0.00     0.004 C 
ENDBRANCH   2   3
ENDBRANCH   1   2
BRANCH   1   5
ATOM      5  C   UNL     1      -5.570  24.099  48.722  1.00  0.00     0.036 C 
BRANCH   5   6
ATOM      6  C   UNL     1      -5.355  24.943  49.990  1.00  0.00     0.136 C 
BRANCH   6   7
ATOM      7  C   UNL     1      -4.723  24.129  51.095  1.00  0.00    -0.004 C 
ATOM      8  C   UNL     1      -3.622  24.548  51.724  1.00  0.00     0.007 C 
ENDBRANCH   6   7
BRANCH   6   9
ATOM      9  O   UNL     1      -6.600  25.428  50.422  1.00  0.00    -0.389 OA
ATOM     10  H   UNL     1      -6.441  26.321  50.827  1.00  0.00     0.211 HD
ENDBRANCH   6   9
ENDBRANCH   5   6
ENDBRANCH   1   5
TORSDOF 6
ENDMDL
MODEL 3
REMARK VINA RESULT:    -4.141      1.751      2.312
REMARK INTER + INTRA:          -5.789
REMARK INTER:                  -5.430
REMARK INTRA:                  -0.359
REMARK UNBOUND:                -0.317
REMARK SMILES C=C[C@H](O)CCCCC
REMARK SMILES IDX 6 1 7 2 8 3 9 4 5 5 3 6 2 7 1 8 4 9
REMARK H PARENT 4 10
REMARK Flexibility Score: inf
ROOT
ATOM      1  C   UNL     1      -4.398  18.457  48.504  1.00  0.00     0.003 C 
ENDROOT
BRANCH   1   2
ATOM      2  C   UNL     1      -3.926  19.919  48.517  1.00  0.00    -0.000 C 
BRANCH   2   3
ATOM      3  C   UNL     1      -4.688  20.795  47.512  1.00  0.00    -0.003 C 
ATOM      4  C   UNL     1      -5.074  22.159  48.087  1.00  0.00     0.004 C 
ENDBRANCH   2   3
ENDBRANCH   1   2
BRANCH   1   5
ATOM      5  C   UNL     1      -3.208  17.495  48.643  1.00  0.00     0.036 C 
BRANCH   5   6
ATOM      6  C   UNL     1      -2.224  17.607  47.466  1.00  0.00     0.136 C 
BRANCH   6   7
ATOM      7  C   UNL     1      -2.808  17.024  46.200  1.00  0.00    -0.004 C 
ATOM      8  C   UNL     1      -3.012  17.780  45.118  1.00  0.00     0.007 C 
ENDBRANCH   6   7
BRANCH   6   9
ATOM      9  O   UNL     1      -1.048  16.916  47.798  1.00  0.00    -0.389 OA
ATOM     10  H   UNL     1      -0.855  17.108  48.753  1.00  0.00     0.211 HD
ENDBRANCH   6   9
ENDBRANCH   5   6
ENDBRANCH   1   5
TORSDOF 6
ENDMDL
MODEL 4
REMARK VINA RESULT:    -4.109      1.691      2.345
REMARK INTER + INTRA:          -5.748
REMARK INTER:                  -5.411
REMARK INTRA:                  -0.337
REMARK UNBOUND:                -0.317
REMARK SMILES C=C[C@H](O)CCCCC
REMARK SMILES IDX 6 1 7 2 8 3 9 4 5 5 3 6 2 7 1 8 4 9
REMARK H PARENT 4 10
REMARK Flexibility Score: inf
ROOT
ATOM      1  C   UNL     1      -3.427  19.322  48.909  1.00  0.00     0.003 C 
ENDROOT
BRANCH   1   2
ATOM      2  C   UNL     1      -3.685  20.826  48.732  1.00  0.00    -0.000 C 
BRANCH   2   3
ATOM      3  C   UNL     1      -4.821  21.118  47.741  1.00  0.00    -0.003 C 
ATOM      4  C   UNL     1      -5.386  22.532  47.887  1.00  0.00     0.004 C 
ENDBRANCH   2   3
ENDBRANCH   1   2
BRANCH   1   5
ATOM      5  C   UNL     1      -4.374  18.494  48.026  1.00  0.00     0.036 C 
BRANCH   5   6
ATOM      6  C   UNL     1      -3.617  17.672  46.969  1.00  0.00     0.136 C 
BRANCH   6   7
ATOM      7  C   UNL     1      -2.258  17.242  47.471  1.00  0.00    -0.004 C 
ATOM      8  C   UNL     1      -2.045  16.002  47.921  1.00  0.00     0.007 C 
ENDBRANCH   6   7
BRANCH   6   9
ATOM      9  O   UNL     1      -3.460  18.460  45.817  1.00  0.00    -0.389 OA
ATOM     10  H   UNL     1      -4.325  18.921  45.658  1.00  0.00     0.211 HD
ENDBRANCH   6   9
ENDBRANCH   5   6
ENDBRANCH   1   5
TORSDOF 6
ENDMDL
MODEL 5
REMARK VINA RESULT:    -4.048      3.437      5.980
REMARK INTER + INTRA:          -5.666
REMARK INTER:                  -5.375
REMARK INTRA:                  -0.291
REMARK UNBOUND:                -0.317
REMARK SMILES C=C[C@H](O)CCCCC
REMARK SMILES IDX 6 1 7 2 8 3 9 4 5 5 3 6 2 7 1 8 4 9
REMARK H PARENT 4 10
REMARK Flexibility Score: inf
ROOT
ATOM      1  C   UNL     1      -4.220  20.939  47.486  1.00  0.00     0.003 C 
ENDROOT
BRANCH   1   2
ATOM      2  C   UNL     1      -3.581  20.596  48.840  1.00  0.00    -0.000 C 
BRANCH   2   3
ATOM      3  C   UNL     1      -3.266  19.099  48.982  1.00  0.00    -0.003 C 
ATOM      4  C   UNL     1      -4.380  18.205  48.435  1.00  0.00     0.004 C 
ENDBRANCH   2   3
ENDBRANCH   1   2
BRANCH   1   5
ATOM      5  C   UNL     1      -5.387  21.924  47.663  1.00  0.00     0.036 C 
BRANCH   5   6
ATOM      6  C   UNL     1      -4.939  23.390  47.540  1.00  0.00     0.136 C 
BRANCH   6   7
ATOM      7  C   UNL     1      -5.515  24.239  48.650  1.00  0.00    -0.004 C 
ATOM      8  C   UNL     1      -5.113  24.092  49.915  1.00  0.00     0.007 C 
ENDBRANCH   6   7
BRANCH   6   9
ATOM      9  O   UNL     1      -5.372  23.888  46.301  1.00  0.00    -0.389 OA
ATOM     10  H   UNL     1      -6.316  23.601  46.184  1.00  0.00     0.211 HD
ENDBRANCH   6   9
ENDBRANCH   5   6
ENDBRANCH   1   5
TORSDOF 6
ENDMDL
MODEL 6
REMARK VINA RESULT:    -4.023      2.091      3.107
REMARK INTER + INTRA:          -5.634
REMARK INTER:                  -5.379
REMARK INTRA:                  -0.255
REMARK UNBOUND:                -0.317
REMARK SMILES C=C[C@H](O)CCCCC
REMARK SMILES IDX 6 1 7 2 8 3 9 4 5 5 3 6 2 7 1 8 4 9
REMARK H PARENT 4 10
REMARK Flexibility Score: inf
ROOT
ATOM      1  C   UNL     1      -4.004  20.047  48.530  1.00  0.00     0.003 C 
ENDROOT
BRANCH   1   2
ATOM      2  C   UNL     1      -4.767  20.896  47.502  1.00  0.00    -0.000 C 
BRANCH   2   3
ATOM      3  C   UNL     1      -5.110  22.297  48.029  1.00  0.00    -0.003 C 
ATOM      4  C   UNL     1      -4.271  22.694  49.245  1.00  0.00     0.004 C 
ENDBRANCH   2   3
ENDBRANCH   1   2
BRANCH   1   5
ATOM      5  C   UNL     1      -4.318  18.553  48.350  1.00  0.00     0.036 C 
BRANCH   5   6
ATOM      6  C   UNL     1      -3.057  17.677  48.440  1.00  0.00     0.136 C 
BRANCH   6   7
ATOM      7  C   UNL     1      -2.720  17.055  47.104  1.00  0.00    -0.004 C 
ATOM      8  C   UNL     1      -3.298  17.478  45.976  1.00  0.00     0.007 C 
ENDBRANCH   6   7
BRANCH   6   9
ATOM      9  O   UNL     1      -3.284  16.660  49.381  1.00  0.00    -0.389 OA
ATOM     10  H   UNL     1      -4.074  16.145  49.070  1.00  0.00     0.211 HD
ENDBRANCH   6   9
ENDBRANCH   5   6
ENDBRANCH   1   5
TORSDOF 6
ENDMDL
MODEL 7
REMARK VINA RESULT:    -4.020      1.660      4.559
REMARK INTER + INTRA:          -5.629
REMARK INTER:                  -5.332
REMARK INTRA:                  -0.297
REMARK UNBOUND:                -0.317
REMARK SMILES C=C[C@H](O)CCCCC
REMARK SMILES IDX 6 1 7 2 8 3 9 4 5 5 3 6 2 7 1 8 4 9
REMARK H PARENT 4 10
REMARK Flexibility Score: inf
ROOT
ATOM      1  C   UNL     1      -1.886  17.906  46.632  1.00  0.00     0.003 C 
ENDROOT
BRANCH   1   2
ATOM      2  C   UNL     1      -3.008  17.960  45.584  1.00  0.00    -0.000 C 
BRANCH   2   3
ATOM      3  C   UNL     1      -3.154  16.644  44.806  1.00  0.00    -0.003 C 
ATOM      4  C   UNL     1      -1.872  16.242  44.076  1.00  0.00     0.004 C 
ENDBRANCH   2   3
ENDBRANCH   1   2
BRANCH   1   5
ATOM      5  C   UNL     1      -2.277  18.686  47.897  1.00  0.00     0.036 C 
BRANCH   5   6
ATOM      6  C   UNL     1      -3.799  18.855  48.032  1.00  0.00     0.136 C 
BRANCH   6   7
ATOM      7  C   UNL     1      -4.165  20.260  48.453  1.00  0.00    -0.004 C 
ATOM      8  C   UNL     1      -4.784  21.096  47.615  1.00  0.00     0.007 C 
ENDBRANCH   6   7
BRANCH   6   9
ATOM      9  O   UNL     1      -4.267  17.945  48.994  1.00  0.00    -0.389 OA
ATOM     10  H   UNL     1      -4.347  17.062  48.546  1.00  0.00     0.211 HD
ENDBRANCH   6   9
ENDBRANCH   5   6
ENDBRANCH   1   5
TORSDOF 6
ENDMDL
MODEL 8
REMARK VINA RESULT:    -3.982      2.484      4.200
REMARK INTER + INTRA:          -5.580
REMARK INTER:                  -5.422
REMARK INTRA:                  -0.158
REMARK UNBOUND:                -0.317
REMARK SMILES C=C[C@H](O)CCCCC
REMARK SMILES IDX 6 1 7 2 8 3 9 4 5 5 3 6 2 7 1 8 4 9
REMARK H PARENT 4 10
REMARK Flexibility Score: inf
ROOT
ATOM      1  C   UNL     1      -5.218  21.818  47.684  1.00  0.00     0.003 C 
ENDROOT
BRANCH   1   2
ATOM      2  C   UNL     1      -5.276  23.199  48.356  1.00  0.00    -0.000 C 
BRANCH   2   3
ATOM      3  C   UNL     1      -4.360  23.298  49.584  1.00  0.00    -0.003 C 
ATOM      4  C   UNL     1      -4.957  24.155  50.701  1.00  0.00     0.004 C 
ENDBRANCH   2   3
ENDBRANCH   1   2
BRANCH   1   5
ATOM      5  C   UNL     1      -4.262  20.880  48.437  1.00  0.00     0.036 C 
BRANCH   5   6
ATOM      6  C   UNL     1      -4.395  19.419  47.977  1.00  0.00     0.136 C 
BRANCH   6   7
ATOM      7  C   UNL     1      -3.638  18.481  48.891  1.00  0.00    -0.004 C 
ATOM      8  C   UNL     1      -3.068  17.367  48.423  1.00  0.00     0.007 C 
ENDBRANCH   6   7
BRANCH   6   9
ATOM      9  O   UNL     1      -3.884  19.311  46.674  1.00  0.00    -0.389 OA
ATOM     10  H   UNL     1      -4.601  18.916  46.111  1.00  0.00     0.211 HD
ENDBRANCH   6   9
ENDBRANCH   5   6
ENDBRANCH   1   5
TORSDOF 6
ENDMDL
MODEL 9
REMARK VINA RESULT:    -3.967      2.000      4.506
REMARK INTER + INTRA:          -5.559
REMARK INTER:                  -5.193
REMARK INTRA:                  -0.366
REMARK UNBOUND:                -0.317
REMARK SMILES C=C[C@H](O)CCCCC
REMARK SMILES IDX 6 1 7 2 8 3 9 4 5 5 3 6 2 7 1 8 4 9
REMARK H PARENT 4 10
REMARK Flexibility Score: inf
ROOT
ATOM      1  C   UNL     1      -1.322  17.294  46.388  1.00  0.00     0.003 C 
ENDROOT
BRANCH   1   2
ATOM      2  C   UNL     1      -0.833  16.294  45.330  1.00  0.00    -0.000 C 
BRANCH   2   3
ATOM      3  C   UNL     1      -1.735  16.261  44.087  1.00  0.00    -0.003 C 
ATOM      4  C   UNL     1      -3.223  16.213  44.436  1.00  0.00     0.004 C 
ENDBRANCH   2   3
ENDBRANCH   1   2
BRANCH   1   5
ATOM      5  C   UNL     1      -1.649  16.580  47.710  1.00  0.00     0.036 C 
BRANCH   5   6
ATOM      6  C   UNL     1      -3.046  16.944  48.240  1.00  0.00     0.136 C 
BRANCH   6   7
ATOM      7  C   UNL     1      -3.599  18.169  47.548  1.00  0.00    -0.004 C 
ATOM      8  C   UNL     1      -4.348  19.059  48.206  1.00  0.00     0.007 C 
ENDBRANCH   6   7
BRANCH   6   9
ATOM      9  O   UNL     1      -2.951  17.192  49.619  1.00  0.00    -0.389 OA
ATOM     10  H   UNL     1      -3.863  17.424  49.937  1.00  0.00     0.211 HD
ENDBRANCH   6   9
ENDBRANCH   5   6
ENDBRANCH   1   5
TORSDOF 6
ENDMDL
