MODEL 1
REMARK VINA RESULT:    -3.427      0.000      0.000
REMARK INTER + INTRA:          -6.113
REMARK INTER:                  -5.230
REMARK INTRA:                  -0.883
REMARK UNBOUND:                -0.883
REMARK SMILES O=C([O-])CCCCCCCCC(=O)[O-]
REMARK SMILES IDX 7 1 6 2 5 3 4 4 2 5 1 6 3 7 8 8 9 9 10 10 11 11 12 12 13 13
REMARK SMILES IDX 14 14
REMARK H PARENT
REMARK Flexibility Score: inf
ROOT
ATOM      1  C   UNL     1     -16.909  -9.104 -21.007  1.00  0.00     0.000 C 
ENDROOT
BRANCH   1   2
ATOM      2  C   UNL     1     -15.929  -7.977 -20.635  1.00  0.00     0.000 C 
BRANCH   2   3
ATOM      3  C   UNL     1     -16.420  -6.586 -21.070  1.00  0.00     0.006 C 
BRANCH   3   4
ATOM      4  C   UNL     1     -15.547  -5.983 -22.178  1.00  0.00     0.053 C 
BRANCH   4   5
ATOM      5  C   UNL     1     -16.222  -4.825 -22.846  1.00  0.00     0.041 C 
ATOM      6  O   UNL     1     -16.415  -3.753 -22.216  1.00  0.00    -0.550 OA
ATOM      7  O   UNL     1     -16.607  -4.919 -24.178  1.00  0.00    -0.550 OA
ENDBRANCH   4   5
ENDBRANCH   3   4
ENDBRANCH   2   3
ENDBRANCH   1   2
BRANCH   1   8
ATOM      8  C   UNL     1     -18.160  -8.653 -21.784  1.00  0.00     0.000 C 
BRANCH   8   9
ATOM      9  C   UNL     1     -18.188  -9.174 -23.231  1.00  0.00     0.000 C 
BRANCH   9  10
ATOM     10  C   UNL     1     -17.437  -8.251 -24.210  1.00  0.00     0.006 C 
BRANCH  10  11
ATOM     11  C   UNL     1     -16.382  -8.964 -25.072  1.00  0.00     0.053 C 
BRANCH  11  12
ATOM     12  C   UNL     1     -15.015  -8.891 -24.463  1.00  0.00     0.041 C 
ATOM     13  O   UNL     1     -14.737  -9.580 -23.446  1.00  0.00    -0.550 OA
ATOM     14  O   UNL     1     -14.039  -8.088 -25.038  1.00  0.00    -0.550 OA
ENDBRANCH  11  12
ENDBRANCH  10  11
ENDBRANCH   9  10
ENDBRANCH   8   9
ENDBRANCH   1   8
TORSDOF 9
ENDMDL
MODEL 2
REMARK VINA RESULT:    -3.414      0.093      4.207
REMARK INTER + INTRA:          -6.092
REMARK INTER:                  -5.323
REMARK INTRA:                  -0.769
REMARK UNBOUND:                -0.883
REMARK SMILES O=C([O-])CCCCCCCCC(=O)[O-]
REMARK SMILES IDX 7 1 6 2 5 3 4 4 2 5 1 6 3 7 8 8 9 9 10 10 11 11 12 12 13 13
REMARK SMILES IDX 14 14
REMARK H PARENT
REMARK Flexibility Score: inf
ROOT
ATOM      1  C   UNL     1     -18.066  -8.754 -21.759  1.00  0.00     0.000 C 
ENDROOT
BRANCH   1   2
ATOM      2  C   UNL     1     -18.136  -9.163 -23.241  1.00  0.00     0.000 C 
BRANCH   2   3
ATOM      3  C   UNL     1     -17.409  -8.177 -24.171  1.00  0.00     0.006 C 
BRANCH   3   4
ATOM      4  C   UNL     1     -16.413  -8.885 -25.100  1.00  0.00     0.053 C 
BRANCH   4   5
ATOM      5  C   UNL     1     -15.026  -8.877 -24.533  1.00  0.00     0.041 C 
ATOM      6  O   UNL     1     -14.742  -9.597 -23.541  1.00  0.00    -0.550 OA
ATOM      7  O   UNL     1     -14.039  -8.098 -25.125  1.00  0.00    -0.550 OA
ENDBRANCH   4   5
ENDBRANCH   3   4
ENDBRANCH   2   3
ENDBRANCH   1   2
BRANCH   1   8
ATOM      8  C   UNL     1     -16.797  -9.210 -21.014  1.00  0.00     0.000 C 
BRANCH   8   9
ATOM      9  C   UNL     1     -15.879  -8.039 -20.622  1.00  0.00     0.000 C 
BRANCH   9  10
ATOM     10  C   UNL     1     -16.413  -6.677 -21.104  1.00  0.00     0.006 C 
BRANCH  10  11
ATOM     11  C   UNL     1     -15.522  -5.977 -22.143  1.00  0.00     0.053 C 
BRANCH  11  12
ATOM     12  C   UNL     1     -16.212  -4.812 -22.783  1.00  0.00     0.041 C 
ATOM     13  O   UNL     1     -16.378  -3.743 -22.140  1.00  0.00    -0.550 OA
ATOM     14  O   UNL     1     -16.643  -4.897 -24.101  1.00  0.00    -0.550 OA
ENDBRANCH  11  12
ENDBRANCH  10  11
ENDBRANCH   9  10
ENDBRANCH   8   9
ENDBRANCH   1   8
TORSDOF 9
ENDMDL
MODEL 3
REMARK VINA RESULT:    -3.268     15.624     17.667
REMARK INTER + INTRA:          -5.870
REMARK INTER:                  -5.658
REMARK INTRA:                  -0.212
REMARK UNBOUND:                -0.883
REMARK SMILES O=C([O-])CCCCCCCCC(=O)[O-]
REMARK SMILES IDX 7 1 6 2 5 3 4 4 2 5 1 6 3 7 8 8 9 9 10 10 11 11 12 12 13 13
REMARK SMILES IDX 14 14
REMARK H PARENT
REMARK Flexibility Score: inf
ROOT
ATOM      1  C   UNL     1      -9.454  -9.824  -6.747  1.00  0.00     0.000 C 
ENDROOT
BRANCH   1   2
ATOM      2  C   UNL     1      -7.934  -9.577  -6.713  1.00  0.00     0.000 C 
BRANCH   2   3
ATOM      3  C   UNL     1      -7.137 -10.630  -7.501  1.00  0.00     0.006 C 
BRANCH   3   4
ATOM      4  C   UNL     1      -5.625 -10.498  -7.278  1.00  0.00     0.053 C 
BRANCH   4   5
ATOM      5  C   UNL     1      -4.968  -9.727  -8.382  1.00  0.00     0.041 C 
ATOM      6  O   UNL     1      -4.959  -8.469  -8.358  1.00  0.00    -0.550 OA
ATOM      7  O   UNL     1      -4.337 -10.400  -9.419  1.00  0.00    -0.550 OA
ENDBRANCH   4   5
ENDBRANCH   3   4
ENDBRANCH   2   3
ENDBRANCH   1   2
BRANCH   1   8
ATOM      8  C   UNL     1     -10.316  -8.565  -6.955  1.00  0.00     0.000 C 
BRANCH   8   9
ATOM      9  C   UNL     1     -11.819  -8.876  -7.047  1.00  0.00     0.000 C 
BRANCH   9  10
ATOM     10  C   UNL     1     -12.696  -7.749  -6.470  1.00  0.00     0.006 C 
BRANCH  10  11
ATOM     11  C   UNL     1     -13.614  -7.067  -7.500  1.00  0.00     0.053 C 
BRANCH  11  12
ATOM     12  C   UNL     1     -15.046  -7.469  -7.330  1.00  0.00     0.041 C 
ATOM     13  O   UNL     1     -15.411  -8.092  -6.299  1.00  0.00    -0.550 OA
ATOM     14  O   UNL     1     -15.984  -7.127  -8.295  1.00  0.00    -0.550 OA
ENDBRANCH  11  12
ENDBRANCH  10  11
ENDBRANCH   9  10
ENDBRANCH   8   9
ENDBRANCH   1   8
TORSDOF 9
ENDMDL
MODEL 4
REMARK VINA RESULT:    -3.238     16.445     17.987
REMARK INTER + INTRA:          -5.825
REMARK INTER:                  -5.433
REMARK INTRA:                  -0.392
REMARK UNBOUND:                -0.883
REMARK SMILES O=C([O-])CCCCCCCCC(=O)[O-]
REMARK SMILES IDX 7 1 6 2 5 3 4 4 2 5 1 6 3 7 8 8 9 9 10 10 11 11 12 12 13 13
REMARK SMILES IDX 14 14
REMARK H PARENT
REMARK Flexibility Score: inf
ROOT
ATOM      1  C   UNL     1      -8.436  -8.822  -6.671  1.00  0.00     0.000 C 
ENDROOT
BRANCH   1   2
ATOM      2  C   UNL     1      -9.854  -8.511  -6.160  1.00  0.00     0.000 C 
BRANCH   2   3
ATOM      3  C   UNL     1     -10.894  -8.423  -7.289  1.00  0.00     0.006 C 
BRANCH   3   4
ATOM      4  C   UNL     1     -12.319  -8.688  -6.786  1.00  0.00     0.053 C 
BRANCH   4   5
ATOM      5  C   UNL     1     -13.119  -7.425  -6.700  1.00  0.00     0.041 C 
ATOM      6  O   UNL     1     -13.916  -7.114  -7.623  1.00  0.00    -0.550 OA
ATOM      7  O   UNL     1     -13.010  -6.608  -5.581  1.00  0.00    -0.550 OA
ENDBRANCH   4   5
ENDBRANCH   3   4
ENDBRANCH   2   3
ENDBRANCH   1   2
BRANCH   1   8
ATOM      8  C   UNL     1      -8.199 -10.286  -7.090  1.00  0.00     0.000 C 
BRANCH   8   9
ATOM      9  C   UNL     1      -6.708 -10.638  -7.224  1.00  0.00     0.000 C 
BRANCH   9  10
ATOM     10  C   UNL     1      -5.795  -9.400  -7.139  1.00  0.00     0.006 C 
BRANCH  10  11
ATOM     11  C   UNL     1      -4.934  -9.159  -8.390  1.00  0.00     0.053 C 
BRANCH  11  12
ATOM     12  C   UNL     1      -3.960 -10.271  -8.626  1.00  0.00     0.041 C 
ATOM     13  O   UNL     1      -3.805 -10.744  -9.783  1.00  0.00    -0.550 OA
ATOM     14  O   UNL     1      -3.198 -10.763  -7.574  1.00  0.00    -0.550 OA
ENDBRANCH  11  12
ENDBRANCH  10  11
ENDBRANCH   9  10
ENDBRANCH   8   9
ENDBRANCH   1   8
TORSDOF 9
ENDMDL
MODEL 5
REMARK VINA RESULT:    -3.219     16.450     18.444
REMARK INTER + INTRA:          -5.796
REMARK INTER:                  -5.463
REMARK INTRA:                  -0.332
REMARK UNBOUND:                -0.883
REMARK SMILES O=C([O-])CCCCCCCCC(=O)[O-]
REMARK SMILES IDX 7 1 6 2 5 3 4 4 2 5 1 6 3 7 8 8 9 9 10 10 11 11 12 12 13 13
REMARK SMILES IDX 14 14
REMARK H PARENT
REMARK Flexibility Score: inf
ROOT
ATOM      1  C   UNL     1      -7.507 -10.051  -6.862  1.00  0.00     0.000 C 
ENDROOT
BRANCH   1   2
ATOM      2  C   UNL     1      -6.786  -8.761  -6.433  1.00  0.00     0.000 C 
BRANCH   2   3
ATOM      3  C   UNL     1      -5.278  -8.787  -6.732  1.00  0.00     0.006 C 
BRANCH   3   4
ATOM      4  C   UNL     1      -4.988  -8.889  -8.236  1.00  0.00     0.053 C 
BRANCH   4   5
ATOM      5  C   UNL     1      -4.156 -10.092  -8.559  1.00  0.00     0.041 C 
ATOM      6  O   UNL     1      -4.214 -10.615  -9.702  1.00  0.00    -0.550 OA
ATOM      7  O   UNL     1      -3.291 -10.615  -7.605  1.00  0.00    -0.550 OA
ENDBRANCH   4   5
ENDBRANCH   3   4
ENDBRANCH   2   3
ENDBRANCH   1   2
BRANCH   1   8
ATOM      8  C   UNL     1      -9.043 -10.011  -6.746  1.00  0.00     0.000 C 
BRANCH   8   9
ATOM      9  C   UNL     1      -9.609  -8.581  -6.764  1.00  0.00     0.000 C 
BRANCH   9  10
ATOM     10  C   UNL     1     -11.025  -8.510  -7.365  1.00  0.00     0.006 C 
BRANCH  10  11
ATOM     11  C   UNL     1     -12.159  -8.560  -6.327  1.00  0.00     0.053 C 
BRANCH  11  12
ATOM     12  C   UNL     1     -13.052  -7.361  -6.411  1.00  0.00     0.041 C 
ATOM     13  O   UNL     1     -13.240  -6.639  -5.397  1.00  0.00    -0.550 OA
ATOM     14  O   UNL     1     -13.649  -7.021  -7.617  1.00  0.00    -0.550 OA
ENDBRANCH  11  12
ENDBRANCH  10  11
ENDBRANCH   9  10
ENDBRANCH   8   9
ENDBRANCH   1   8
TORSDOF 9
ENDMDL
MODEL 6
REMARK VINA RESULT:    -3.184     17.390     19.097
REMARK INTER + INTRA:          -5.741
REMARK INTER:                  -5.106
REMARK INTRA:                  -0.635
REMARK UNBOUND:                -0.883
REMARK SMILES O=C([O-])CCCCCCCCC(=O)[O-]
REMARK SMILES IDX 7 1 6 2 5 3 4 4 2 5 1 6 3 7 8 8 9 9 10 10 11 11 12 12 13 13
REMARK SMILES IDX 14 14
REMARK H PARENT
REMARK Flexibility Score: inf
ROOT
ATOM      1  C   UNL     1      -7.214 -10.923  -7.595  1.00  0.00     0.000 C 
ENDROOT
BRANCH   1   2
ATOM      2  C   UNL     1      -8.039 -10.521  -6.359  1.00  0.00     0.000 C 
BRANCH   2   3
ATOM      3  C   UNL     1      -8.508  -9.057  -6.401  1.00  0.00     0.006 C 
BRANCH   3   4
ATOM      4  C   UNL     1      -9.802  -8.887  -7.208  1.00  0.00     0.053 C 
BRANCH   4   5
ATOM      5  C   UNL     1     -10.845  -8.144  -6.431  1.00  0.00     0.041 C 
ATOM      6  O   UNL     1     -10.546  -7.577  -5.348  1.00  0.00    -0.550 OA
ATOM      7  O   UNL     1     -12.142  -8.051  -6.922  1.00  0.00    -0.550 OA
ENDBRANCH   4   5
ENDBRANCH   3   4
ENDBRANCH   2   3
ENDBRANCH   1   2
BRANCH   1   8
ATOM      8  C   UNL     1      -5.686 -10.902  -7.397  1.00  0.00     0.000 C 
BRANCH   8   9
ATOM      9  C   UNL     1      -4.952 -10.086  -8.474  1.00  0.00     0.000 C 
BRANCH   9  10
ATOM     10  C   UNL     1      -4.904  -8.581  -8.150  1.00  0.00     0.006 C 
BRANCH  10  11
ATOM     11  C   UNL     1      -4.753  -8.258  -6.654  1.00  0.00     0.053 C 
BRANCH  11  12
ATOM     12  C   UNL     1      -3.558  -7.397  -6.382  1.00  0.00     0.041 C 
ATOM     13  O   UNL     1      -3.464  -6.259  -6.910  1.00  0.00    -0.550 OA
ATOM     14  O   UNL     1      -2.564  -7.839  -5.518  1.00  0.00    -0.550 OA
ENDBRANCH  11  12
ENDBRANCH  10  11
ENDBRANCH   9  10
ENDBRANCH   8   9
ENDBRANCH   1   8
TORSDOF 9
ENDMDL
MODEL 7
REMARK VINA RESULT:    -2.915     15.746     17.508
REMARK INTER + INTRA:          -5.332
REMARK INTER:                  -5.035
REMARK INTRA:                  -0.297
REMARK UNBOUND:                -0.883
REMARK SMILES O=C([O-])CCCCCCCCC(=O)[O-]
REMARK SMILES IDX 7 1 6 2 5 3 4 4 2 5 1 6 3 7 8 8 9 9 10 10 11 11 12 12 13 13
REMARK SMILES IDX 14 14
REMARK H PARENT
REMARK Flexibility Score: inf
ROOT
ATOM      1  C   UNL     1     -11.136  -8.512  -7.103  1.00  0.00     0.000 C 
ENDROOT
BRANCH   1   2
ATOM      2  C   UNL     1     -11.857  -7.812  -5.937  1.00  0.00     0.000 C 
BRANCH   2   3
ATOM      3  C   UNL     1     -13.387  -7.963  -6.000  1.00  0.00     0.006 C 
BRANCH   3   4
ATOM      4  C   UNL     1     -13.999  -7.175  -7.166  1.00  0.00     0.053 C 
BRANCH   4   5
ATOM      5  C   UNL     1     -15.456  -7.480  -7.335  1.00  0.00     0.041 C 
ATOM      6  O   UNL     1     -16.071  -8.142  -6.460  1.00  0.00    -0.550 OA
ATOM      7  O   UNL     1     -16.141  -7.003  -8.445  1.00  0.00    -0.550 OA
ENDBRANCH   4   5
ENDBRANCH   3   4
ENDBRANCH   2   3
ENDBRANCH   1   2
BRANCH   1   8
ATOM      8  C   UNL     1      -9.692  -8.957  -6.805  1.00  0.00     0.000 C 
BRANCH   8   9
ATOM      9  C   UNL     1      -8.780  -7.792  -6.382  1.00  0.00     0.000 C 
BRANCH   9  10
ATOM     10  C   UNL     1      -7.319  -8.228  -6.168  1.00  0.00     0.006 C 
BRANCH  10  11
ATOM     11  C   UNL     1      -6.968  -9.595  -6.779  1.00  0.00     0.053 C 
BRANCH  11  12
ATOM     12  C   UNL     1      -5.740  -9.531  -7.634  1.00  0.00     0.041 C 
ATOM     13  O   UNL     1      -5.094  -8.455  -7.736  1.00  0.00    -0.550 OA
ATOM     14  O   UNL     1      -5.289 -10.669  -8.291  1.00  0.00    -0.550 OA
ENDBRANCH  11  12
ENDBRANCH  10  11
ENDBRANCH   9  10
ENDBRANCH   8   9
ENDBRANCH   1   8
TORSDOF 9
ENDMDL
MODEL 8
REMARK VINA RESULT:    -2.820     16.608     17.558
REMARK INTER + INTRA:          -5.186
REMARK INTER:                  -4.467
REMARK INTRA:                  -0.718
REMARK UNBOUND:                -0.883
REMARK SMILES O=C([O-])CCCCCCCCC(=O)[O-]
REMARK SMILES IDX 7 1 6 2 5 3 4 4 2 5 1 6 3 7 8 8 9 9 10 10 11 11 12 12 13 13
REMARK SMILES IDX 14 14
REMARK H PARENT
REMARK Flexibility Score: inf
ROOT
ATOM      1  C   UNL     1     -13.324  -7.206  -6.973  1.00  0.00     0.000 C 
ENDROOT
BRANCH   1   2
ATOM      2  C   UNL     1     -13.666  -7.222  -5.472  1.00  0.00     0.000 C 
BRANCH   2   3
ATOM      3  C   UNL     1     -15.172  -7.383  -5.201  1.00  0.00     0.006 C 
BRANCH   3   4
ATOM      4  C   UNL     1     -15.938  -7.845  -6.448  1.00  0.00     0.053 C 
BRANCH   4   5
ATOM      5  C   UNL     1     -16.380  -9.271  -6.328  1.00  0.00     0.041 C 
ATOM      6  O   UNL     1     -15.539 -10.204  -6.403  1.00  0.00    -0.550 OA
ATOM      7  O   UNL     1     -17.718  -9.567  -6.101  1.00  0.00    -0.550 OA
ENDBRANCH   4   5
ENDBRANCH   3   4
ENDBRANCH   2   3
ENDBRANCH   1   2
BRANCH   1   8
ATOM      8  C   UNL     1     -12.163  -8.129  -7.389  1.00  0.00     0.000 C 
BRANCH   8   9
ATOM      9  C   UNL     1     -12.075  -9.404  -6.533  1.00  0.00     0.000 C 
BRANCH   9  10
ATOM     10  C   UNL     1     -10.685  -9.600  -5.899  1.00  0.00     0.006 C 
BRANCH  10  11
ATOM     11  C   UNL     1      -9.510  -9.402  -6.871  1.00  0.00     0.053 C 
BRANCH  11  12
ATOM     12  C   UNL     1      -8.558  -8.347  -6.396  1.00  0.00     0.041 C 
ATOM     13  O   UNL     1      -8.993  -7.304  -5.843  1.00  0.00    -0.550 OA
ATOM     14  O   UNL     1      -7.189  -8.533  -6.535  1.00  0.00    -0.550 OA
ENDBRANCH  11  12
ENDBRANCH  10  11
ENDBRANCH   9  10
ENDBRANCH   8   9
ENDBRANCH   1   8
TORSDOF 9
ENDMDL
MODEL 9
REMARK VINA RESULT:    -2.787     15.906     17.529
REMARK INTER + INTRA:          -5.136
REMARK INTER:                  -4.680
REMARK INTRA:                  -0.456
REMARK UNBOUND:                -0.883
REMARK SMILES O=C([O-])CCCCCCCCC(=O)[O-]
REMARK SMILES IDX 7 1 6 2 5 3 4 4 2 5 1 6 3 7 8 8 9 9 10 10 11 11 12 12 13 13
REMARK SMILES IDX 14 14
REMARK H PARENT
REMARK Flexibility Score: inf
ROOT
ATOM      1  C   UNL     1     -12.087  -8.310  -7.126  1.00  0.00     0.000 C 
ENDROOT
BRANCH   1   2
ATOM      2  C   UNL     1     -13.186  -7.394  -6.557  1.00  0.00     0.000 C 
BRANCH   2   3
ATOM      3  C   UNL     1     -14.157  -8.132  -5.620  1.00  0.00     0.006 C 
BRANCH   3   4
ATOM      4  C   UNL     1     -15.393  -8.656  -6.362  1.00  0.00     0.053 C 
BRANCH   4   5
ATOM      5  C   UNL     1     -16.256  -7.536  -6.860  1.00  0.00     0.041 C 
ATOM      6  O   UNL     1     -16.946  -6.861  -6.053  1.00  0.00    -0.550 OA
ATOM      7  O   UNL     1     -16.270  -7.218  -8.212  1.00  0.00    -0.550 OA
ENDBRANCH   4   5
ENDBRANCH   3   4
ENDBRANCH   2   3
ENDBRANCH   1   2
BRANCH   1   8
ATOM      8  C   UNL     1     -11.946  -9.674  -6.425  1.00  0.00     0.000 C 
BRANCH   8   9
ATOM      9  C   UNL     1     -10.511  -9.959  -5.951  1.00  0.00     0.000 C 
BRANCH   9  10
ATOM     10  C   UNL     1      -9.446  -9.463  -6.947  1.00  0.00     0.006 C 
BRANCH  10  11
ATOM     11  C   UNL     1      -8.009  -9.469  -6.397  1.00  0.00     0.053 C 
BRANCH  11  12
ATOM     12  C   UNL     1      -7.503  -8.085  -6.131  1.00  0.00     0.041 C 
ATOM     13  O   UNL     1      -6.275  -7.886  -5.936  1.00  0.00    -0.550 OA
ATOM     14  O   UNL     1      -8.382  -7.010  -6.133  1.00  0.00    -0.550 OA
ENDBRANCH  11  12
ENDBRANCH  10  11
ENDBRANCH   9  10
ENDBRANCH   8   9
ENDBRANCH   1   8
TORSDOF 9
ENDMDL
