MODEL 1
REMARK VINA RESULT:    -3.197      0.000      0.000
REMARK INTER + INTRA:          -4.118
REMARK INTER:                  -4.038
REMARK INTRA:                  -0.080
REMARK UNBOUND:                -0.080
REMARK SMILES CCCCCCO
REMARK SMILES IDX 4 1 3 2 2 3 1 4 5 5 6 6 7 7
REMARK H PARENT 7 8
REMARK Flexibility Score: inf
ROOT
ATOM      1  C   UNL     1     164.355 178.998 180.400  1.00  0.00     0.002 C 
ENDROOT
BRANCH   1   2
ATOM      2  C   UNL     1     163.567 178.994 181.718  1.00  0.00    -0.000 C 
BRANCH   2   3
ATOM      3  C   UNL     1     162.231 179.728 181.560  1.00  0.00    -0.003 C 
ATOM      4  C   UNL     1     161.965 180.084 180.100  1.00  0.00     0.004 C 
ENDBRANCH   2   3
ENDBRANCH   1   2
BRANCH   1   5
ATOM      5  C   UNL     1     165.650 179.825 180.476  1.00  0.00     0.028 C 
BRANCH   5   6
ATOM      6  C   UNL     1     166.923 178.979 180.354  1.00  0.00     0.156 C 
BRANCH   6   7
ATOM      7  O   UNL     1     167.697 179.418 179.272  1.00  0.00    -0.396 OA
ATOM      8  H   UNL     1     168.204 180.206 179.598  1.00  0.00     0.210 HD
ENDBRANCH   6   7
ENDBRANCH   5   6
ENDBRANCH   1   5
TORSDOF 5
ENDMDL
MODEL 2
REMARK VINA RESULT:    -3.190      2.254      3.240
REMARK INTER + INTRA:          -4.110
REMARK INTER:                  -4.031
REMARK INTRA:                  -0.079
REMARK UNBOUND:                -0.080
REMARK SMILES CCCCCCO
REMARK SMILES IDX 4 1 3 2 2 3 1 4 5 5 6 6 7 7
REMARK H PARENT 7 8
REMARK Flexibility Score: inf
ROOT
ATOM      1  C   UNL     1     162.977 179.787 179.410  1.00  0.00     0.002 C 
ENDROOT
BRANCH   1   2
ATOM      2  C   UNL     1     161.942 179.998 180.525  1.00  0.00    -0.000 C 
BRANCH   2   3
ATOM      3  C   UNL     1     162.461 179.462 181.864  1.00  0.00    -0.003 C 
ATOM      4  C   UNL     1     163.800 178.750 181.692  1.00  0.00     0.004 C 
ENDBRANCH   2   3
ENDBRANCH   1   2
BRANCH   1   5
ATOM      5  C   UNL     1     162.340 179.643 178.018  1.00  0.00     0.028 C 
BRANCH   5   6
ATOM      6  C   UNL     1     163.306 179.104 176.957  1.00  0.00     0.156 C 
BRANCH   6   7
ATOM      7  O   UNL     1     164.522 179.798 177.008  1.00  0.00    -0.396 OA
ATOM      8  H   UNL     1     165.077 179.330 177.685  1.00  0.00     0.210 HD
ENDBRANCH   6   7
ENDBRANCH   5   6
ENDBRANCH   1   5
TORSDOF 5
ENDMDL
MODEL 3
REMARK VINA RESULT:    -3.149     12.173     12.681
REMARK INTER + INTRA:          -4.058
REMARK INTER:                  -3.938
REMARK INTRA:                  -0.120
REMARK UNBOUND:                -0.080
REMARK SMILES CCCCCCO
REMARK SMILES IDX 4 1 3 2 2 3 1 4 5 5 6 6 7 7
REMARK H PARENT 7 8
REMARK Flexibility Score: inf
ROOT
ATOM      1  C   UNL     1     176.302 179.745 179.422  1.00  0.00     0.002 C 
ENDROOT
BRANCH   1   2
ATOM      2  C   UNL     1     177.197 180.118 180.613  1.00  0.00    -0.000 C 
BRANCH   2   3
ATOM      3  C   UNL     1     176.772 179.361 181.877  1.00  0.00    -0.003 C 
ATOM      4  C   UNL     1     176.774 177.852 181.643  1.00  0.00     0.004 C 
ENDBRANCH   2   3
ENDBRANCH   1   2
BRANCH   1   5
ATOM      5  C   UNL     1     177.102 179.358 178.166  1.00  0.00     0.028 C 
BRANCH   5   6
ATOM      6  C   UNL     1     176.796 177.945 177.659  1.00  0.00     0.156 C 
BRANCH   6   7
ATOM      7  O   UNL     1     177.830 177.492 176.827  1.00  0.00    -0.396 OA
ATOM      8  H   UNL     1     178.165 176.653 177.238  1.00  0.00     0.210 HD
ENDBRANCH   6   7
ENDBRANCH   5   6
ENDBRANCH   1   5
TORSDOF 5
ENDMDL
MODEL 4
REMARK VINA RESULT:    -3.139     10.458     12.198
REMARK INTER + INTRA:          -4.045
REMARK INTER:                  -3.927
REMARK INTRA:                  -0.118
REMARK UNBOUND:                -0.080
REMARK SMILES CCCCCCO
REMARK SMILES IDX 4 1 3 2 2 3 1 4 5 5 6 6 7 7
REMARK H PARENT 7 8
REMARK Flexibility Score: inf
ROOT
ATOM      1  C   UNL     1     177.144 177.180 180.899  1.00  0.00     0.002 C 
ENDROOT
BRANCH   1   2
ATOM      2  C   UNL     1     176.540 178.169 181.907  1.00  0.00    -0.000 C 
BRANCH   2   3
ATOM      3  C   UNL     1     175.907 179.367 181.189  1.00  0.00    -0.003 C 
ATOM      4  C   UNL     1     174.393 179.209 181.083  1.00  0.00     0.004 C 
ENDBRANCH   2   3
ENDBRANCH   1   2
BRANCH   1   5
ATOM      5  C   UNL     1     177.469 177.828 179.542  1.00  0.00     0.028 C 
BRANCH   5   6
ATOM      6  C   UNL     1     176.975 177.013 178.342  1.00  0.00     0.156 C 
BRANCH   6   7
ATOM      7  O   UNL     1     177.694 177.358 177.189  1.00  0.00    -0.396 OA
ATOM      8  H   UNL     1     178.641 177.445 177.472  1.00  0.00     0.210 HD
ENDBRANCH   6   7
ENDBRANCH   5   6
ENDBRANCH   1   5
TORSDOF 5
ENDMDL
MODEL 5
REMARK VINA RESULT:    -3.138      2.027      2.359
REMARK INTER + INTRA:          -4.044
REMARK INTER:                  -3.929
REMARK INTRA:                  -0.115
REMARK UNBOUND:                -0.080
REMARK SMILES CCCCCCO
REMARK SMILES IDX 4 1 3 2 2 3 1 4 5 5 6 6 7 7
REMARK H PARENT 7 8
REMARK Flexibility Score: inf
ROOT
ATOM      1  C   UNL     1     164.519 179.487 180.851  1.00  0.00     0.002 C 
ENDROOT
BRANCH   1   2
ATOM      2  C   UNL     1     163.642 178.659 181.802  1.00  0.00    -0.000 C 
BRANCH   2   3
ATOM      3  C   UNL     1     162.197 178.590 181.296  1.00  0.00    -0.003 C 
ATOM      4  C   UNL     1     161.755 177.144 181.083  1.00  0.00     0.004 C 
ENDBRANCH   2   3
ENDBRANCH   1   2
BRANCH   1   5
ATOM      5  C   UNL     1     163.886 179.677 179.462  1.00  0.00     0.028 C 
BRANCH   5   6
ATOM      6  C   UNL     1     164.619 178.922 178.348  1.00  0.00     0.156 C 
BRANCH   6   7
ATOM      7  O   UNL     1     164.637 179.685 177.173  1.00  0.00    -0.396 OA
ATOM      8  H   UNL     1     164.854 180.613 177.451  1.00  0.00     0.210 HD
ENDBRANCH   6   7
ENDBRANCH   5   6
ENDBRANCH   1   5
TORSDOF 5
ENDMDL
MODEL 6
REMARK VINA RESULT:    -3.100     12.952     13.434
REMARK INTER + INTRA:          -3.996
REMARK INTER:                  -3.906
REMARK INTRA:                  -0.090
REMARK UNBOUND:                -0.080
REMARK SMILES CCCCCCO
REMARK SMILES IDX 4 1 3 2 2 3 1 4 5 5 6 6 7 7
REMARK H PARENT 7 8
REMARK Flexibility Score: inf
ROOT
ATOM      1  C   UNL     1     177.103 177.355 180.528  1.00  0.00     0.002 C 
ENDROOT
BRANCH   1   2
ATOM      2  C   UNL     1     177.259 178.467 179.480  1.00  0.00    -0.000 C 
BRANCH   2   3
ATOM      3  C   UNL     1     177.292 179.847 180.146  1.00  0.00    -0.003 C 
ATOM      4  C   UNL     1     177.064 179.739 181.651  1.00  0.00     0.004 C 
ENDBRANCH   2   3
ENDBRANCH   1   2
BRANCH   1   5
ATOM      5  C   UNL     1     178.249 176.329 180.491  1.00  0.00     0.028 C 
BRANCH   5   6
ATOM      6  C   UNL     1     177.766 174.879 180.378  1.00  0.00     0.156 C 
BRANCH   6   7
ATOM      7  O   UNL     1     178.367 174.250 179.279  1.00  0.00    -0.396 OA
ATOM      8  H   UNL     1     177.683 174.240 178.560  1.00  0.00     0.210 HD
ENDBRANCH   6   7
ENDBRANCH   5   6
ENDBRANCH   1   5
TORSDOF 5
ENDMDL
MODEL 7
REMARK VINA RESULT:    -3.014      3.032      4.137
REMARK INTER + INTRA:          -3.887
REMARK INTER:                  -3.674
REMARK INTRA:                  -0.214
REMARK UNBOUND:                -0.080
REMARK SMILES CCCCCCO
REMARK SMILES IDX 4 1 3 2 2 3 1 4 5 5 6 6 7 7
REMARK H PARENT 7 8
REMARK Flexibility Score: inf
ROOT
ATOM      1  C   UNL     1     162.431 179.940 179.551  1.00  0.00     0.002 C 
ENDROOT
BRANCH   1   2
ATOM      2  C   UNL     1     161.823 180.109 180.952  1.00  0.00    -0.000 C 
BRANCH   2   3
ATOM      3  C   UNL     1     162.616 179.311 181.993  1.00  0.00    -0.003 C 
ATOM      4  C   UNL     1     163.885 178.718 181.385  1.00  0.00     0.004 C 
ENDBRANCH   2   3
ENDBRANCH   1   2
BRANCH   1   5
ATOM      5  C   UNL     1     161.421 179.414 178.517  1.00  0.00     0.028 C 
BRANCH   5   6
ATOM      6  C   UNL     1     161.651 177.950 178.129  1.00  0.00     0.156 C 
BRANCH   6   7
ATOM      7  O   UNL     1     161.306 177.104 179.191  1.00  0.00    -0.396 OA
ATOM      8  H   UNL     1     162.099 176.531 179.355  1.00  0.00     0.210 HD
ENDBRANCH   6   7
ENDBRANCH   5   6
ENDBRANCH   1   5
TORSDOF 5
ENDMDL
MODEL 8
REMARK VINA RESULT:    -2.942      9.104     11.382
REMARK INTER + INTRA:          -3.796
REMARK INTER:                  -3.574
REMARK INTRA:                  -0.223
REMARK UNBOUND:                -0.080
REMARK SMILES CCCCCCO
REMARK SMILES IDX 4 1 3 2 2 3 1 4 5 5 6 6 7 7
REMARK H PARENT 7 8
REMARK Flexibility Score: inf
ROOT
ATOM      1  C   UNL     1     175.560 177.846 180.702  1.00  0.00     0.002 C 
ENDROOT
BRANCH   1   2
ATOM      2  C   UNL     1     176.565 178.222 181.801  1.00  0.00    -0.000 C 
BRANCH   2   3
ATOM      3  C   UNL     1     177.063 179.661 181.620  1.00  0.00    -0.003 C 
ATOM      4  C   UNL     1     177.291 179.984 180.145  1.00  0.00     0.004 C 
ENDBRANCH   2   3
ENDBRANCH   1   2
BRANCH   1   5
ATOM      5  C   UNL     1     174.096 177.971 181.158  1.00  0.00     0.028 C 
BRANCH   5   6
ATOM      6  C   UNL     1     173.424 179.272 180.706  1.00  0.00     0.156 C 
BRANCH   6   7
ATOM      7  O   UNL     1     173.832 179.605 179.408  1.00  0.00    -0.396 OA
ATOM      8  H   UNL     1     174.781 179.884 179.481  1.00  0.00     0.210 HD
ENDBRANCH   6   7
ENDBRANCH   5   6
ENDBRANCH   1   5
TORSDOF 5
ENDMDL
MODEL 9
REMARK VINA RESULT:    -0.811     15.387     17.396
REMARK INTER + INTRA:          -1.105
REMARK INTER:                  -1.002
REMARK INTRA:                  -0.102
REMARK UNBOUND:                -0.080
REMARK SMILES CCCCCCO
REMARK SMILES IDX 4 1 3 2 2 3 1 4 5 5 6 6 7 7
REMARK H PARENT 7 8
REMARK Flexibility Score: inf
ROOT
ATOM      1  C   UNL     1     177.204 166.960 179.178  1.00  0.00     0.002 C 
ENDROOT
BRANCH   1   2
ATOM      2  C   UNL     1     177.083 165.642 179.957  1.00  0.00    -0.000 C 
BRANCH   2   3
ATOM      3  C   UNL     1     176.235 164.624 179.185  1.00  0.00    -0.003 C 
ATOM      4  C   UNL     1     176.201 164.951 177.695  1.00  0.00     0.004 C 
ENDBRANCH   2   3
ENDBRANCH   1   2
BRANCH   1   5
ATOM      5  C   UNL     1     176.352 168.092 179.777  1.00  0.00     0.028 C 
BRANCH   5   6
ATOM      6  C   UNL     1     175.845 169.093 178.733  1.00  0.00     0.156 C 
BRANCH   6   7
ATOM      7  O   UNL     1     175.349 170.243 179.361  1.00  0.00    -0.396 OA
ATOM      8  H   UNL     1     175.684 170.213 180.294  1.00  0.00     0.210 HD
ENDBRANCH   6   7
ENDBRANCH   5   6
ENDBRANCH   1   5
TORSDOF 5
ENDMDL
