MODEL 1
REMARK VINA RESULT:    -2.934      0.000      0.000
REMARK INTER + INTRA:          -3.316
REMARK INTER:                  -3.277
REMARK INTRA:                  -0.038
REMARK UNBOUND:                -0.038
REMARK SMILES CCCC(=O)[O-]
REMARK SMILES IDX 3 1 4 2 5 3 6 4 2 5 1 6
REMARK H PARENT
REMARK Flexibility Score: inf
ROOT
ATOM      1  C   UNL     1      -4.425  -6.314  -1.920  1.00  0.00     0.052 C 
ENDROOT
BRANCH   1   2
ATOM      2  C   UNL     1      -5.485  -6.343  -2.979  1.00  0.00     0.041 C 
ATOM      3  O   UNL     1      -6.524  -7.036  -2.815  1.00  0.00    -0.550 OA
ATOM      4  O   UNL     1      -5.311  -5.632  -4.159  1.00  0.00    -0.550 OA
ENDBRANCH   1   2
BRANCH   1   5
ATOM      5  C   UNL     1      -3.033  -6.591  -2.502  1.00  0.00     0.003 C 
ATOM      6  C   UNL     1      -2.129  -5.360  -2.462  1.00  0.00     0.004 C 
ENDBRANCH   1   5
TORSDOF 2
ENDMDL
MODEL 2
REMARK VINA RESULT:    -2.916     14.306     15.702
REMARK INTER + INTRA:          -3.296
REMARK INTER:                  -3.257
REMARK INTRA:                  -0.038
REMARK UNBOUND:                -0.038
REMARK SMILES CCCC(=O)[O-]
REMARK SMILES IDX 3 1 4 2 5 3 6 4 2 5 1 6
REMARK H PARENT
REMARK Flexibility Score: inf
ROOT
ATOM      1  C   UNL     1       4.412   6.382  -1.852  1.00  0.00     0.052 C 
ENDROOT
BRANCH   1   2
ATOM      2  C   UNL     1       5.481   6.393  -2.903  1.00  0.00     0.041 C 
ATOM      3  O   UNL     1       6.512   7.100  -2.750  1.00  0.00    -0.550 OA
ATOM      4  O   UNL     1       5.321   5.650  -4.066  1.00  0.00    -0.550 OA
ENDBRANCH   1   2
BRANCH   1   5
ATOM      5  C   UNL     1       3.029   6.675  -2.445  1.00  0.00     0.003 C 
ATOM      6  C   UNL     1       2.117   5.448  -2.428  1.00  0.00     0.004 C 
ENDBRANCH   1   5
TORSDOF 2
ENDMDL
MODEL 3
REMARK VINA RESULT:    -2.895      0.140      1.327
REMARK INTER + INTRA:          -3.272
REMARK INTER:                  -3.235
REMARK INTRA:                  -0.038
REMARK UNBOUND:                -0.038
REMARK SMILES CCCC(=O)[O-]
REMARK SMILES IDX 3 1 4 2 5 3 6 4 2 5 1 6
REMARK H PARENT
REMARK Flexibility Score: inf
ROOT
ATOM      1  C   UNL     1      -4.390  -6.375  -1.936  1.00  0.00     0.052 C 
ENDROOT
BRANCH   1   2
ATOM      2  C   UNL     1      -5.429  -6.361  -3.016  1.00  0.00     0.041 C 
ATOM      3  O   UNL     1      -5.245  -5.684  -4.062  1.00  0.00    -0.550 OA
ATOM      4  O   UNL     1      -6.613  -7.067  -2.853  1.00  0.00    -0.550 OA
ENDBRANCH   1   2
BRANCH   1   5
ATOM      5  C   UNL     1      -2.976  -6.530  -2.509  1.00  0.00     0.003 C 
ATOM      6  C   UNL     1      -2.085  -5.329  -2.196  1.00  0.00     0.004 C 
ENDBRANCH   1   5
TORSDOF 2
ENDMDL
MODEL 4
REMARK VINA RESULT:    -2.751     15.519     16.315
REMARK INTER + INTRA:          -3.111
REMARK INTER:                  -3.096
REMARK INTRA:                  -0.015
REMARK UNBOUND:                -0.038
REMARK SMILES CCCC(=O)[O-]
REMARK SMILES IDX 3 1 4 2 5 3 6 4 2 5 1 6
REMARK H PARENT
REMARK Flexibility Score: inf
ROOT
ATOM      1  C   UNL     1       5.727   6.908  -2.492  1.00  0.00     0.052 C 
ENDROOT
BRANCH   1   2
ATOM      2  C   UNL     1       6.757   5.862  -2.792  1.00  0.00     0.041 C 
ATOM      3  O   UNL     1       6.979   4.937  -1.967  1.00  0.00    -0.550 OA
ATOM      4  O   UNL     1       7.496   5.928  -3.967  1.00  0.00    -0.550 OA
ENDBRANCH   1   2
BRANCH   1   5
ATOM      5  C   UNL     1       4.535   6.327  -1.721  1.00  0.00     0.003 C 
ATOM      6  C   UNL     1       3.204   6.582  -2.427  1.00  0.00     0.004 C 
ENDBRANCH   1   5
TORSDOF 2
ENDMDL
MODEL 5
REMARK VINA RESULT:    -2.723     15.731     16.352
REMARK INTER + INTRA:          -3.080
REMARK INTER:                  -3.064
REMARK INTRA:                  -0.015
REMARK UNBOUND:                -0.038
REMARK SMILES CCCC(=O)[O-]
REMARK SMILES IDX 3 1 4 2 5 3 6 4 2 5 1 6
REMARK H PARENT
REMARK Flexibility Score: inf
ROOT
ATOM      1  C   UNL     1       5.157   2.054   6.167  1.00  0.00     0.052 C 
ENDROOT
BRANCH   1   2
ATOM      2  C   UNL     1       6.115   3.204   6.097  1.00  0.00     0.041 C 
ATOM      3  O   UNL     1       6.892   3.321   5.113  1.00  0.00    -0.550 OA
ATOM      4  O   UNL     1       6.174   4.127   7.134  1.00  0.00    -0.550 OA
ENDBRANCH   1   2
BRANCH   1   5
ATOM      5  C   UNL     1       5.749   0.782   5.549  1.00  0.00     0.003 C 
ATOM      6  C   UNL     1       5.766  -0.389   6.530  1.00  0.00     0.004 C 
ENDBRANCH   1   5
TORSDOF 2
ENDMDL
MODEL 6
REMARK VINA RESULT:    -2.667      2.672      3.717
REMARK INTER + INTRA:          -3.017
REMARK INTER:                  -3.008
REMARK INTRA:                  -0.009
REMARK UNBOUND:                -0.038
REMARK SMILES CCCC(=O)[O-]
REMARK SMILES IDX 3 1 4 2 5 3 6 4 2 5 1 6
REMARK H PARENT
REMARK Flexibility Score: inf
ROOT
ATOM      1  C   UNL     1      -3.197  -6.541  -2.523  1.00  0.00     0.052 C 
ENDROOT
BRANCH   1   2
ATOM      2  C   UNL     1      -2.225  -5.476  -2.116  1.00  0.00     0.041 C 
ATOM      3  O   UNL     1      -1.828  -4.626  -2.957  1.00  0.00    -0.550 OA
ATOM      4  O   UNL     1      -1.731  -5.441  -0.818  1.00  0.00    -0.550 OA
ENDBRANCH   1   2
BRANCH   1   5
ATOM      5  C   UNL     1      -4.523  -6.421  -1.763  1.00  0.00     0.003 C 
ATOM      6  C   UNL     1      -5.733  -6.426  -2.696  1.00  0.00     0.004 C 
ENDBRANCH   1   5
TORSDOF 2
ENDMDL
MODEL 7
REMARK VINA RESULT:    -2.640     13.311     14.410
REMARK INTER + INTRA:          -2.987
REMARK INTER:                  -2.976
REMARK INTRA:                  -0.011
REMARK UNBOUND:                -0.038
REMARK SMILES CCCC(=O)[O-]
REMARK SMILES IDX 3 1 4 2 5 3 6 4 2 5 1 6
REMARK H PARENT
REMARK Flexibility Score: inf
ROOT
ATOM      1  C   UNL     1       3.180   6.641  -2.452  1.00  0.00     0.052 C 
ENDROOT
BRANCH   1   2
ATOM      2  C   UNL     1       2.227   5.556  -2.056  1.00  0.00     0.041 C 
ATOM      3  O   UNL     1       1.758   5.521  -0.888  1.00  0.00    -0.550 OA
ATOM      4  O   UNL     1       1.882   4.564  -2.966  1.00  0.00    -0.550 OA
ENDBRANCH   1   2
BRANCH   1   5
ATOM      5  C   UNL     1       4.508   6.538  -1.691  1.00  0.00     0.003 C 
ATOM      6  C   UNL     1       5.712   6.452  -2.629  1.00  0.00     0.004 C 
ENDBRANCH   1   5
TORSDOF 2
ENDMDL
MODEL 8
REMARK VINA RESULT:    -2.606      9.081      9.626
REMARK INTER + INTRA:          -2.949
REMARK INTER:                  -2.919
REMARK INTRA:                  -0.030
REMARK UNBOUND:                -0.038
REMARK SMILES CCCC(=O)[O-]
REMARK SMILES IDX 3 1 4 2 5 3 6 4 2 5 1 6
REMARK H PARENT
REMARK Flexibility Score: inf
ROOT
ATOM      1  C   UNL     1      -4.267  -3.256   6.276  1.00  0.00     0.052 C 
ENDROOT
BRANCH   1   2
ATOM      2  C   UNL     1      -5.561  -3.588   6.955  1.00  0.00     0.041 C 
ATOM      3  O   UNL     1      -6.606  -2.943   6.676  1.00  0.00    -0.550 OA
ATOM      4  O   UNL     1      -5.605  -4.586   7.920  1.00  0.00    -0.550 OA
ENDBRANCH   1   2
BRANCH   1   5
ATOM      5  C   UNL     1      -3.607  -4.500   5.670  1.00  0.00     0.003 C 
ATOM      6  C   UNL     1      -3.897  -4.644   4.176  1.00  0.00     0.004 C 
ENDBRANCH   1   5
TORSDOF 2
ENDMDL
MODEL 9
REMARK VINA RESULT:    -2.566      1.408      1.962
REMARK INTER + INTRA:          -2.904
REMARK INTER:                  -2.836
REMARK INTRA:                  -0.068
REMARK UNBOUND:                -0.038
REMARK SMILES CCCC(=O)[O-]
REMARK SMILES IDX 3 1 4 2 5 3 6 4 2 5 1 6
REMARK H PARENT
REMARK Flexibility Score: inf
ROOT
ATOM      1  C   UNL     1      -5.482  -5.195  -2.533  1.00  0.00     0.052 C 
ENDROOT
BRANCH   1   2
ATOM      2  C   UNL     1      -5.301  -4.842  -3.978  1.00  0.00     0.041 C 
ATOM      3  O   UNL     1      -5.835  -5.548  -4.874  1.00  0.00    -0.550 OA
ATOM      4  O   UNL     1      -4.515  -3.754  -4.336  1.00  0.00    -0.550 OA
ENDBRANCH   1   2
BRANCH   1   5
ATOM      5  C   UNL     1      -4.806  -6.526  -2.184  1.00  0.00     0.003 C 
ATOM      6  C   UNL     1      -3.306  -6.512  -2.476  1.00  0.00     0.004 C 
ENDBRANCH   1   5
TORSDOF 2
ENDMDL
