MODEL 1
REMARK VINA RESULT:    -8.273      0.000      0.000
REMARK INTER + INTRA:         -10.008
REMARK INTER:                  -9.724
REMARK INTRA:                  -0.284
REMARK UNBOUND:                -0.284
REMARK SMILES O=c1cc(-c2ccc(O)c(O)c2)oc2cc(O)cc(O)c12
REMARK SMILES IDX 4 1 3 2 2 3 1 4 21 5 19 6 18 7 16 8 15 9 14 10 13 11 5 12
REMARK SMILES IDX 6 13 7 14 8 15 12 16 10 17 9 18 11 20 20 22 17 24
REMARK H PARENT 9 19 11 21 20 23 17 25
REMARK Flexibility Score: inf
ROOT
ATOM      1  C   UNL     1      17.192  22.541  40.239  1.00  0.00     0.138 A 
ATOM      2  C   UNL     1      16.849  23.573  39.355  1.00  0.00     0.100 A 
ATOM      3  C   UNL     1      15.738  24.373  39.626  1.00  0.00     0.197 A 
ATOM      4  O   UNL     1      15.424  25.255  38.785  1.00  0.00    -0.289 OA
ATOM      5  C   UNL     1      14.989  24.161  40.808  1.00  0.00     0.107 A 
ATOM      6  C   UNL     1      13.857  24.936  41.206  1.00  0.00     0.134 A 
ATOM      7  C   UNL     1      13.136  24.568  42.348  1.00  0.00     0.093 A 
ATOM      8  C   UNL     1      13.537  23.490  43.138  1.00  0.00     0.123 A 
ATOM      9  C   UNL     1      14.670  22.757  42.786  1.00  0.00     0.094 A 
ATOM     10  C   UNL     1      15.391  23.077  41.634  1.00  0.00     0.146 A 
ATOM     11  O   UNL     1      16.454  22.342  41.325  1.00  0.00    -0.456 OA
ENDROOT
BRANCH   1  12
ATOM     12  C   UNL     1      18.365  21.662  40.002  1.00  0.00     0.021 A 
ATOM     13  C   UNL     1      18.375  20.316  40.410  1.00  0.00     0.016 A 
ATOM     14  C   UNL     1      19.497  19.516  40.182  1.00  0.00     0.051 A 
ATOM     15  C   UNL     1      20.632  20.037  39.553  1.00  0.00     0.157 A 
ATOM     16  C   UNL     1      19.511  22.189  39.383  1.00  0.00     0.062 A 
ATOM     17  C   UNL     1      20.640  21.392  39.150  1.00  0.00     0.158 A 
BRANCH  15  18
ATOM     18  O   UNL     1      21.717  19.183  39.354  1.00  0.00    -0.504 OA
ATOM     19  H   UNL     1      22.680  19.488  39.334  1.00  0.00     0.293 HD
ENDBRANCH  15  18
BRANCH  17  20
ATOM     20  O   UNL     1      21.737  21.985  38.521  1.00  0.00    -0.504 OA
ATOM     21  H   UNL     1      22.024  21.782  37.575  1.00  0.00     0.293 HD
ENDBRANCH  17  20
ENDBRANCH   1  12
BRANCH   6  22
ATOM     22  O   UNL     1      13.417  26.080  40.533  1.00  0.00    -0.507 OA
ATOM     23  H   UNL     1      12.490  26.469  40.598  1.00  0.00     0.293 HD
ENDBRANCH   6  22
BRANCH   8  24
ATOM     24  O   UNL     1      12.803  23.164  44.276  1.00  0.00    -0.508 OA
ATOM     25  H   UNL     1      11.903  22.703  44.212  1.00  0.00     0.293 HD
ENDBRANCH   8  24
TORSDOF 5
ENDMDL
MODEL 2
REMARK VINA RESULT:    -8.140     14.611     15.591
REMARK INTER + INTRA:          -9.851
REMARK INTER:                  -9.564
REMARK INTRA:                  -0.287
REMARK UNBOUND:                -0.284
REMARK SMILES O=c1cc(-c2ccc(O)c(O)c2)oc2cc(O)cc(O)c12
REMARK SMILES IDX 4 1 3 2 2 3 1 4 21 5 19 6 18 7 16 8 15 9 14 10 13 11 5 12
REMARK SMILES IDX 6 13 7 14 8 15 12 16 10 17 9 18 11 20 20 22 17 24
REMARK H PARENT 9 19 11 21 20 23 17 25
REMARK Flexibility Score: inf
ROOT
ATOM      1  C   UNL     1      24.834  12.050  35.136  1.00  0.00     0.138 A 
ATOM      2  C   UNL     1      25.367  13.058  34.321  1.00  0.00     0.100 A 
ATOM      3  C   UNL     1      26.545  13.703  34.701  1.00  0.00     0.197 A 
ATOM      4  O   UNL     1      26.967  14.641  33.977  1.00  0.00    -0.289 OA
ATOM      5  C   UNL     1      27.211  13.310  35.887  1.00  0.00     0.107 A 
ATOM      6  C   UNL     1      28.437  13.872  36.356  1.00  0.00     0.134 A 
ATOM      7  C   UNL     1      28.950  13.470  37.596  1.00  0.00     0.093 A 
ATOM      8  C   UNL     1      28.315  12.487  38.354  1.00  0.00     0.123 A 
ATOM      9  C   UNL     1      27.144  11.895  37.881  1.00  0.00     0.094 A 
ATOM     10  C   UNL     1      26.587  12.298  36.665  1.00  0.00     0.146 A 
ATOM     11  O   UNL     1      25.462  11.722  36.259  1.00  0.00    -0.456 OA
ENDROOT
BRANCH   1  12
ATOM     12  C   UNL     1      23.586  11.329  34.779  1.00  0.00     0.021 A 
ATOM     13  C   UNL     1      22.760  10.750  35.759  1.00  0.00     0.016 A 
ATOM     14  C   UNL     1      21.597  10.069  35.391  1.00  0.00     0.051 A 
ATOM     15  C   UNL     1      21.236   9.943  34.046  1.00  0.00     0.157 A 
ATOM     16  C   UNL     1      23.230  11.190  33.426  1.00  0.00     0.062 A 
ATOM     17  C   UNL     1      22.065  10.509  33.050  1.00  0.00     0.158 A 
BRANCH  15  18
ATOM     18  O   UNL     1      20.060   9.253  33.748  1.00  0.00    -0.504 OA
ATOM     19  H   UNL     1      19.998   8.247  33.682  1.00  0.00     0.293 HD
ENDBRANCH  15  18
BRANCH  17  20
ATOM     20  O   UNL     1      21.773  10.421  31.687  1.00  0.00    -0.504 OA
ATOM     21  H   UNL     1      20.837  10.407  31.309  1.00  0.00     0.293 HD
ENDBRANCH  17  20
ENDBRANCH   1  12
BRANCH   6  22
ATOM     22  O   UNL     1      29.195  14.804  35.642  1.00  0.00    -0.507 OA
ATOM     23  H   UNL     1      29.800  14.587  34.865  1.00  0.00     0.293 HD
ENDBRANCH   6  22
BRANCH   8  24
ATOM     24  O   UNL     1      28.864  12.101  39.575  1.00  0.00    -0.508 OA
ATOM     25  H   UNL     1      29.822  11.777  39.647  1.00  0.00     0.293 HD
ENDBRANCH   8  24
TORSDOF 5
ENDMDL
MODEL 3
REMARK VINA RESULT:    -8.083     14.268     14.958
REMARK INTER + INTRA:          -9.784
REMARK INTER:                  -9.493
REMARK INTRA:                  -0.291
REMARK UNBOUND:                -0.284
REMARK SMILES O=c1cc(-c2ccc(O)c(O)c2)oc2cc(O)cc(O)c12
REMARK SMILES IDX 4 1 3 2 2 3 1 4 21 5 19 6 18 7 16 8 15 9 14 10 13 11 5 12
REMARK SMILES IDX 6 13 7 14 8 15 12 16 10 17 9 18 11 20 20 22 17 24
REMARK H PARENT 9 19 11 21 20 23 17 25
REMARK Flexibility Score: inf
ROOT
ATOM      1  C   UNL     1      24.821  12.201  35.059  1.00  0.00     0.138 A 
ATOM      2  C   UNL     1      24.638  12.464  33.694  1.00  0.00     0.100 A 
ATOM      3  C   UNL     1      23.638  11.792  32.989  1.00  0.00     0.197 A 
ATOM      4  O   UNL     1      23.537  12.008  31.754  1.00  0.00    -0.289 OA
ATOM      5  C   UNL     1      22.793  10.878  33.665  1.00  0.00     0.107 A 
ATOM      6  C   UNL     1      21.719  10.160  33.057  1.00  0.00     0.134 A 
ATOM      7  C   UNL     1      21.015   9.209  33.805  1.00  0.00     0.093 A 
ATOM      8  C   UNL     1      21.307   8.990  35.152  1.00  0.00     0.123 A 
ATOM      9  C   UNL     1      22.322   9.722  35.768  1.00  0.00     0.094 A 
ATOM     10  C   UNL     1      23.066  10.654  35.041  1.00  0.00     0.146 A 
ATOM     11  O   UNL     1      24.035  11.316  35.662  1.00  0.00    -0.456 OA
ENDROOT
BRANCH   1  12
ATOM     12  C   UNL     1      25.867  12.889  35.858  1.00  0.00     0.021 A 
ATOM     13  C   UNL     1      25.796  12.964  37.260  1.00  0.00     0.016 A 
ATOM     14  C   UNL     1      26.790  13.627  37.984  1.00  0.00     0.051 A 
ATOM     15  C   UNL     1      27.867  14.234  37.331  1.00  0.00     0.157 A 
ATOM     16  C   UNL     1      26.941  13.512  35.200  1.00  0.00     0.062 A 
ATOM     17  C   UNL     1      27.942  14.178  35.920  1.00  0.00     0.158 A 
BRANCH  15  18
ATOM     18  O   UNL     1      28.826  14.877  38.114  1.00  0.00    -0.504 OA
ATOM     19  H   UNL     1      29.260  15.755  37.867  1.00  0.00     0.293 HD
ENDBRANCH  15  18
BRANCH  17  20
ATOM     20  O   UNL     1      28.983  14.764  35.197  1.00  0.00    -0.504 OA
ATOM     21  H   UNL     1      29.673  15.382  35.600  1.00  0.00     0.293 HD
ENDBRANCH  17  20
ENDBRANCH   1  12
BRANCH   6  22
ATOM     22  O   UNL     1      21.291  10.358  31.741  1.00  0.00    -0.507 OA
ATOM     23  H   UNL     1      21.626   9.847  30.939  1.00  0.00     0.293 HD
ENDBRANCH   6  22
BRANCH   8  24
ATOM     24  O   UNL     1      20.574   8.046  35.868  1.00  0.00    -0.508 OA
ATOM     25  H   UNL     1      20.970   7.147  36.118  1.00  0.00     0.293 HD
ENDBRANCH   8  24
TORSDOF 5
ENDMDL
MODEL 4
REMARK VINA RESULT:    -7.937      1.423      7.318
REMARK INTER + INTRA:          -9.612
REMARK INTER:                  -9.347
REMARK INTRA:                  -0.265
REMARK UNBOUND:                -0.284
REMARK SMILES O=c1cc(-c2ccc(O)c(O)c2)oc2cc(O)cc(O)c12
REMARK SMILES IDX 4 1 3 2 2 3 1 4 21 5 19 6 18 7 16 8 15 9 14 10 13 11 5 12
REMARK SMILES IDX 6 13 7 14 8 15 12 16 10 17 9 18 11 20 20 22 17 24
REMARK H PARENT 9 19 11 21 20 23 17 25
REMARK Flexibility Score: inf
ROOT
ATOM      1  C   UNL     1      16.577  22.231  40.972  1.00  0.00     0.138 A 
ATOM      2  C   UNL     1      16.610  20.832  40.888  1.00  0.00     0.100 A 
ATOM      3  C   UNL     1      17.756  20.196  40.410  1.00  0.00     0.197 A 
ATOM      4  O   UNL     1      17.734  18.943  40.295  1.00  0.00    -0.289 OA
ATOM      5  C   UNL     1      18.890  20.964  40.049  1.00  0.00     0.107 A 
ATOM      6  C   UNL     1      20.125  20.423  39.582  1.00  0.00     0.134 A 
ATOM      7  C   UNL     1      21.142  21.288  39.161  1.00  0.00     0.093 A 
ATOM      8  C   UNL     1      20.991  22.672  39.244  1.00  0.00     0.123 A 
ATOM      9  C   UNL     1      19.807  23.211  39.745  1.00  0.00     0.094 A 
ATOM     10  C   UNL     1      18.760  22.376  40.141  1.00  0.00     0.146 A 
ATOM     11  O   UNL     1      17.642  22.930  40.597  1.00  0.00    -0.456 OA
ENDROOT
BRANCH   1  12
ATOM     12  C   UNL     1      15.385  22.960  41.475  1.00  0.00     0.021 A 
ATOM     13  C   UNL     1      14.697  23.892  40.677  1.00  0.00     0.016 A 
ATOM     14  C   UNL     1      13.585  24.570  41.182  1.00  0.00     0.051 A 
ATOM     15  C   UNL     1      13.139  24.341  42.488  1.00  0.00     0.157 A 
ATOM     16  C   UNL     1      14.945  22.741  42.791  1.00  0.00     0.062 A 
ATOM     17  C   UNL     1      13.830  23.416  43.304  1.00  0.00     0.158 A 
BRANCH  15  18
ATOM     18  O   UNL     1      12.020  25.050  42.928  1.00  0.00    -0.504 OA
ATOM     19  H   UNL     1      11.391  24.722  43.647  1.00  0.00     0.293 HD
ENDBRANCH  15  18
BRANCH  17  20
ATOM     20  O   UNL     1      13.448  23.139  44.618  1.00  0.00    -0.504 OA
ATOM     21  H   UNL     1      12.895  23.761  45.189  1.00  0.00     0.293 HD
ENDBRANCH  17  20
ENDBRANCH   1  12
BRANCH   6  22
ATOM     22  O   UNL     1      20.412  19.055  39.533  1.00  0.00    -0.507 OA
ATOM     23  H   UNL     1      20.338  18.476  38.712  1.00  0.00     0.293 HD
ENDBRANCH   6  22
BRANCH   8  24
ATOM     24  O   UNL     1      22.031  23.502  38.830  1.00  0.00    -0.508 OA
ATOM     25  H   UNL     1      21.861  24.454  38.528  1.00  0.00     0.293 HD
ENDBRANCH   8  24
TORSDOF 5
ENDMDL
MODEL 5
REMARK VINA RESULT:    -7.920     16.673     18.684
REMARK INTER + INTRA:          -9.593
REMARK INTER:                  -9.279
REMARK INTRA:                  -0.314
REMARK UNBOUND:                -0.284
REMARK SMILES O=c1cc(-c2ccc(O)c(O)c2)oc2cc(O)cc(O)c12
REMARK SMILES IDX 4 1 3 2 2 3 1 4 21 5 19 6 18 7 16 8 15 9 14 10 13 11 5 12
REMARK SMILES IDX 6 13 7 14 8 15 12 16 10 17 9 18 11 20 20 22 17 24
REMARK H PARENT 9 19 11 21 20 23 17 25
REMARK Flexibility Score: inf
ROOT
ATOM      1  C   UNL     1      30.537  10.777  39.723  1.00  0.00     0.138 A 
ATOM      2  C   UNL     1      30.748   9.612  38.972  1.00  0.00     0.100 A 
ATOM      3  C   UNL     1      30.716   9.675  37.578  1.00  0.00     0.197 A 
ATOM      4  O   UNL     1      30.853   8.603  36.934  1.00  0.00    -0.289 OA
ATOM      5  C   UNL     1      30.508  10.918  36.933  1.00  0.00     0.107 A 
ATOM      6  C   UNL     1      30.489  11.108  35.518  1.00  0.00     0.134 A 
ATOM      7  C   UNL     1      30.175  12.369  34.996  1.00  0.00     0.093 A 
ATOM      8  C   UNL     1      29.936  13.458  35.834  1.00  0.00     0.123 A 
ATOM      9  C   UNL     1      30.001  13.294  37.218  1.00  0.00     0.094 A 
ATOM     10  C   UNL     1      30.278  12.042  37.771  1.00  0.00     0.146 A 
ATOM     11  O   UNL     1      30.313  11.926  39.094  1.00  0.00    -0.456 OA
ENDROOT
BRANCH   1  12
ATOM     12  C   UNL     1      30.564  10.770  41.208  1.00  0.00     0.021 A 
ATOM     13  C   UNL     1      31.124   9.702  41.932  1.00  0.00     0.016 A 
ATOM     14  C   UNL     1      31.124   9.719  43.329  1.00  0.00     0.051 A 
ATOM     15  C   UNL     1      30.564  10.790  44.032  1.00  0.00     0.157 A 
ATOM     16  C   UNL     1      29.988  11.839  41.915  1.00  0.00     0.062 A 
ATOM     17  C   UNL     1      29.986  11.863  43.316  1.00  0.00     0.158 A 
BRANCH  15  18
ATOM     18  O   UNL     1      30.601  10.745  45.426  1.00  0.00    -0.504 OA
ATOM     19  H   UNL     1      29.818  10.982  46.020  1.00  0.00     0.293 HD
ENDBRANCH  15  18
BRANCH  17  20
ATOM     20  O   UNL     1      29.404  12.964  43.947  1.00  0.00    -0.504 OA
ATOM     21  H   UNL     1      28.511  13.357  43.688  1.00  0.00     0.293 HD
ENDBRANCH  17  20
ENDBRANCH   1  12
BRANCH   6  22
ATOM     22  O   UNL     1      30.791  10.108  34.589  1.00  0.00    -0.507 OA
ATOM     23  H   UNL     1      30.292   9.946  33.729  1.00  0.00     0.293 HD
ENDBRANCH   6  22
BRANCH   8  24
ATOM     24  O   UNL     1      29.643  14.701  35.278  1.00  0.00    -0.508 OA
ATOM     25  H   UNL     1      30.375  15.336  34.983  1.00  0.00     0.293 HD
ENDBRANCH   8  24
TORSDOF 5
ENDMDL
MODEL 6
REMARK VINA RESULT:    -7.533      1.406      6.878
REMARK INTER + INTRA:          -9.138
REMARK INTER:                  -8.823
REMARK INTRA:                  -0.315
REMARK UNBOUND:                -0.284
REMARK SMILES O=c1cc(-c2ccc(O)c(O)c2)oc2cc(O)cc(O)c12
REMARK SMILES IDX 4 1 3 2 2 3 1 4 21 5 19 6 18 7 16 8 15 9 14 10 13 11 5 12
REMARK SMILES IDX 6 13 7 14 8 15 12 16 10 17 9 18 11 20 20 22 17 24
REMARK H PARENT 9 19 11 21 20 23 17 25
REMARK Flexibility Score: inf
ROOT
ATOM      1  C   UNL     1      16.274  23.137  40.546  1.00  0.00     0.138 A 
ATOM      2  C   UNL     1      16.763  23.947  39.511  1.00  0.00     0.100 A 
ATOM      3  C   UNL     1      17.902  23.554  38.806  1.00  0.00     0.197 A 
ATOM      4  O   UNL     1      18.348  24.330  37.922  1.00  0.00    -0.289 OA
ATOM      5  C   UNL     1      18.533  22.325  39.116  1.00  0.00     0.107 A 
ATOM      6  C   UNL     1      19.679  21.806  38.442  1.00  0.00     0.134 A 
ATOM      7  C   UNL     1      20.274  20.625  38.903  1.00  0.00     0.093 A 
ATOM      8  C   UNL     1      19.732  19.915  39.974  1.00  0.00     0.123 A 
ATOM      9  C   UNL     1      18.583  20.387  40.608  1.00  0.00     0.094 A 
ATOM     10  C   UNL     1      17.986  21.580  40.195  1.00  0.00     0.146 A 
ATOM     11  O   UNL     1      16.903  22.004  40.837  1.00  0.00    -0.456 OA
ENDROOT
BRANCH   1  12
ATOM     12  C   UNL     1      15.065  23.504  41.326  1.00  0.00     0.021 A 
ATOM     13  C   UNL     1      14.182  24.509  40.893  1.00  0.00     0.016 A 
ATOM     14  C   UNL     1      13.059  24.839  41.655  1.00  0.00     0.051 A 
ATOM     15  C   UNL     1      12.794  24.185  42.861  1.00  0.00     0.157 A 
ATOM     16  C   UNL     1      14.807  22.856  42.546  1.00  0.00     0.062 A 
ATOM     17  C   UNL     1      13.681  23.182  43.314  1.00  0.00     0.158 A 
BRANCH  15  18
ATOM     18  O   UNL     1      11.653  24.561  43.571  1.00  0.00    -0.504 OA
ATOM     19  H   UNL     1      11.219  23.994  44.285  1.00  0.00     0.293 HD
ENDBRANCH  15  18
BRANCH  17  20
ATOM     20  O   UNL     1      13.487  22.488  44.511  1.00  0.00    -0.504 OA
ATOM     21  H   UNL     1      13.072  21.570  44.571  1.00  0.00     0.293 HD
ENDBRANCH  17  20
ENDBRANCH   1  12
BRANCH   6  22
ATOM     22  O   UNL     1      20.255  22.393  37.311  1.00  0.00    -0.507 OA
ATOM     23  H   UNL     1      21.219  22.296  37.035  1.00  0.00     0.293 HD
ENDBRANCH   6  22
BRANCH   8  24
ATOM     24  O   UNL     1      20.343  18.735  40.394  1.00  0.00    -0.508 OA
ATOM     25  H   UNL     1      20.604  18.010  39.736  1.00  0.00     0.293 HD
ENDBRANCH   8  24
TORSDOF 5
ENDMDL
