MODEL 1
REMARK VINA RESULT:    -6.380      0.000      0.000
REMARK INTER + INTRA:          -7.624
REMARK INTER:                  -7.499
REMARK INTRA:                  -0.125
REMARK UNBOUND:                -0.125
REMARK SMILES O=c1c(O)c(-c2ccc(O)c(O)c2)oc2cc(O)ccc12
REMARK SMILES IDX 5 1 3 2 2 3 1 4 21 5 15 6 14 7 16 8 17 9 19 10 20 11 6 12
REMARK SMILES IDX 7 13 8 14 9 15 13 16 11 17 10 18 12 20 4 22 18 24
REMARK H PARENT 10 19 12 21 4 23 18 25
REMARK Flexibility Score: inf
ROOT
ATOM      1  C   UNL     1      -7.416  14.370  -2.776  1.00  0.00     0.180 A 
ATOM      2  C   UNL     1      -7.489  12.962  -2.831  1.00  0.00     0.208 A 
ATOM      3  C   UNL     1      -7.597  12.340  -4.085  1.00  0.00     0.235 A 
ATOM      4  O   UNL     1      -7.675  11.083  -4.159  1.00  0.00    -0.285 OA
ATOM      5  C   UNL     1      -7.608  13.125  -5.248  1.00  0.00     0.069 A 
ATOM      6  C   UNL     1      -7.505  14.526  -5.109  1.00  0.00     0.142 A 
ATOM      7  O   UNL     1      -7.414  15.078  -3.904  1.00  0.00    -0.452 OA
ATOM      8  C   UNL     1      -7.502  15.344  -6.246  1.00  0.00     0.094 A 
ATOM      9  C   UNL     1      -7.603  14.776  -7.523  1.00  0.00     0.119 A 
ATOM     10  C   UNL     1      -7.705  13.388  -7.662  1.00  0.00     0.047 A 
ATOM     11  C   UNL     1      -7.708  12.563  -6.533  1.00  0.00     0.020 A 
ENDROOT
BRANCH   1  12
ATOM     12  C   UNL     1      -7.319  15.102  -1.493  1.00  0.00     0.025 A 
ATOM     13  C   UNL     1      -8.361  15.955  -1.105  1.00  0.00     0.016 A 
ATOM     14  C   UNL     1      -8.299  16.639   0.110  1.00  0.00     0.051 A 
ATOM     15  C   UNL     1      -7.207  16.476   0.967  1.00  0.00     0.157 A 
ATOM     16  C   UNL     1      -6.230  14.918  -0.625  1.00  0.00     0.062 A 
ATOM     17  C   UNL     1      -6.160  15.598   0.597  1.00  0.00     0.158 A 
BRANCH  15  18
ATOM     18  O   UNL     1      -7.201  17.195   2.164  1.00  0.00    -0.504 OA
ATOM     19  H   UNL     1      -8.014  17.322   2.750  1.00  0.00     0.293 HD
ENDBRANCH  15  18
BRANCH  17  20
ATOM     20  O   UNL     1      -5.047  15.366   1.409  1.00  0.00    -0.504 OA
ATOM     21  H   UNL     1      -4.202  15.919   1.378  1.00  0.00     0.293 HD
ENDBRANCH  17  20
ENDBRANCH   1  12
BRANCH   2  22
ATOM     22  O   UNL     1      -7.427  12.205  -1.660  1.00  0.00    -0.502 OA
ATOM     23  H   UNL     1      -8.257  11.940  -1.142  1.00  0.00     0.293 HD
ENDBRANCH   2  22
BRANCH   9  24
ATOM     24  O   UNL     1      -7.601  15.582  -8.659  1.00  0.00    -0.508 OA
ATOM     25  H   UNL     1      -7.755  16.581  -8.600  1.00  0.00     0.293 HD
ENDBRANCH   9  24
TORSDOF 5
ENDMDL
MODEL 2
REMARK VINA RESULT:    -6.352      3.039      8.075
REMARK INTER + INTRA:          -7.591
REMARK INTER:                  -7.412
REMARK INTRA:                  -0.179
REMARK UNBOUND:                -0.125
REMARK SMILES O=c1c(O)c(-c2ccc(O)c(O)c2)oc2cc(O)ccc12
REMARK SMILES IDX 5 1 3 2 2 3 1 4 21 5 15 6 14 7 16 8 17 9 19 10 20 11 6 12
REMARK SMILES IDX 7 13 8 14 9 15 13 16 11 17 10 18 12 20 4 22 18 24
REMARK H PARENT 10 19 12 21 4 23 18 25
REMARK Flexibility Score: inf
ROOT
ATOM      1  C   UNL     1      -7.501  16.008   1.216  1.00  0.00     0.180 A 
ATOM      2  C   UNL     1      -7.585  14.800   1.939  1.00  0.00     0.208 A 
ATOM      3  C   UNL     1      -7.277  14.809   3.309  1.00  0.00     0.235 A 
ATOM      4  O   UNL     1      -7.335  13.739   3.974  1.00  0.00    -0.285 OA
ATOM      5  C   UNL     1      -6.915  16.015   3.928  1.00  0.00     0.069 A 
ATOM      6  C   UNL     1      -6.878  17.186   3.140  1.00  0.00     0.142 A 
ATOM      7  O   UNL     1      -7.168  17.135   1.844  1.00  0.00    -0.452 OA
ATOM      8  C   UNL     1      -6.532  18.411   3.722  1.00  0.00     0.094 A 
ATOM      9  C   UNL     1      -6.219  18.480   5.086  1.00  0.00     0.119 A 
ATOM     10  C   UNL     1      -6.254  17.320   5.868  1.00  0.00     0.047 A 
ATOM     11  C   UNL     1      -6.600  16.093   5.296  1.00  0.00     0.020 A 
ENDROOT
BRANCH   1  12
ATOM     12  C   UNL     1      -7.791  16.079  -0.234  1.00  0.00     0.025 A 
ATOM     13  C   UNL     1      -8.842  16.888  -0.688  1.00  0.00     0.016 A 
ATOM     14  C   UNL     1      -9.120  16.984  -2.052  1.00  0.00     0.051 A 
ATOM     15  C   UNL     1      -8.349  16.290  -2.990  1.00  0.00     0.157 A 
ATOM     16  C   UNL     1      -7.000  15.397  -1.173  1.00  0.00     0.062 A 
ATOM     17  C   UNL     1      -7.269  15.490  -2.545  1.00  0.00     0.158 A 
BRANCH  15  18
ATOM     18  O   UNL     1      -8.684  16.422  -4.339  1.00  0.00    -0.504 OA
ATOM     19  H   UNL     1      -8.869  17.306  -4.791  1.00  0.00     0.293 HD
ENDBRANCH  15  18
BRANCH  17  20
ATOM     20  O   UNL     1      -6.442  14.784  -3.421  1.00  0.00    -0.504 OA
ATOM     21  H   UNL     1      -6.769  14.063  -4.048  1.00  0.00     0.293 HD
ENDBRANCH  17  20
ENDBRANCH   1  12
BRANCH   2  22
ATOM     22  O   UNL     1      -7.995  13.624   1.306  1.00  0.00    -0.502 OA
ATOM     23  H   UNL     1      -8.352  12.828   1.822  1.00  0.00     0.293 HD
ENDBRANCH   2  22
BRANCH   9  24
ATOM     24  O   UNL     1      -5.872  19.694   5.674  1.00  0.00    -0.508 OA
ATOM     25  H   UNL     1      -6.518  20.475   5.697  1.00  0.00     0.293 HD
ENDBRANCH   9  24
TORSDOF 5
ENDMDL
MODEL 3
REMARK VINA RESULT:    -6.196      1.797      1.912
REMARK INTER + INTRA:          -7.408
REMARK INTER:                  -7.205
REMARK INTRA:                  -0.203
REMARK UNBOUND:                -0.125
REMARK SMILES O=c1c(O)c(-c2ccc(O)c(O)c2)oc2cc(O)ccc12
REMARK SMILES IDX 5 1 3 2 2 3 1 4 21 5 15 6 14 7 16 8 17 9 19 10 20 11 6 12
REMARK SMILES IDX 7 13 8 14 9 15 13 16 11 17 10 18 12 20 4 22 18 24
REMARK H PARENT 10 19 12 21 4 23 18 25
REMARK Flexibility Score: inf
ROOT
ATOM      1  C   UNL     1      -8.439  15.086  -2.058  1.00  0.00     0.180 A 
ATOM      2  C   UNL     1      -9.653  14.368  -2.062  1.00  0.00     0.208 A 
ATOM      3  C   UNL     1     -10.183  13.944  -3.292  1.00  0.00     0.235 A 
ATOM      4  O   UNL     1     -11.273  13.309  -3.323  1.00  0.00    -0.285 OA
ATOM      5  C   UNL     1      -9.487  14.226  -4.478  1.00  0.00     0.069 A 
ATOM      6  C   UNL     1      -8.266  14.928  -4.386  1.00  0.00     0.142 A 
ATOM      7  O   UNL     1      -7.802  15.320  -3.204  1.00  0.00    -0.452 OA
ATOM      8  C   UNL     1      -7.537  15.219  -5.545  1.00  0.00     0.094 A 
ATOM      9  C   UNL     1      -8.016  14.818  -6.799  1.00  0.00     0.119 A 
ATOM     10  C   UNL     1      -9.226  14.122  -6.892  1.00  0.00     0.047 A 
ATOM     11  C   UNL     1      -9.961  13.825  -5.740  1.00  0.00     0.020 A 
ENDROOT
BRANCH   1  12
ATOM     12  C   UNL     1      -7.825  15.583  -0.806  1.00  0.00     0.025 A 
ATOM     13  C   UNL     1      -8.451  16.613  -0.091  1.00  0.00     0.016 A 
ATOM     14  C   UNL     1      -7.899  17.082   1.102  1.00  0.00     0.051 A 
ATOM     15  C   UNL     1      -6.723  16.523   1.614  1.00  0.00     0.157 A 
ATOM     16  C   UNL     1      -6.656  15.003  -0.283  1.00  0.00     0.062 A 
ATOM     17  C   UNL     1      -6.097  15.465   0.915  1.00  0.00     0.158 A 
BRANCH  15  18
ATOM     18  O   UNL     1      -6.219  17.043   2.808  1.00  0.00    -0.504 OA
ATOM     19  H   UNL     1      -6.786  17.492   3.513  1.00  0.00     0.293 HD
ENDBRANCH  15  18
BRANCH  17  20
ATOM     20  O   UNL     1      -4.933  14.842   1.373  1.00  0.00    -0.504 OA
ATOM     21  H   UNL     1      -4.896  13.889   1.705  1.00  0.00     0.293 HD
ENDBRANCH  17  20
ENDBRANCH   1  12
BRANCH   2  22
ATOM     22  O   UNL     1     -10.298  14.060  -0.863  1.00  0.00    -0.502 OA
ATOM     23  H   UNL     1     -11.260  14.321  -0.683  1.00  0.00     0.293 HD
ENDBRANCH   2  22
BRANCH   9  24
ATOM     24  O   UNL     1      -7.298  15.104  -7.958  1.00  0.00    -0.508 OA
ATOM     25  H   UNL     1      -6.453  15.663  -7.933  1.00  0.00     0.293 HD
ENDBRANCH   9  24
TORSDOF 5
ENDMDL
MODEL 4
REMARK VINA RESULT:    -6.081      1.996      2.158
REMARK INTER + INTRA:          -7.273
REMARK INTER:                  -6.963
REMARK INTRA:                  -0.310
REMARK UNBOUND:                -0.125
REMARK SMILES O=c1c(O)c(-c2ccc(O)c(O)c2)oc2cc(O)ccc12
REMARK SMILES IDX 5 1 3 2 2 3 1 4 21 5 15 6 14 7 16 8 17 9 19 10 20 11 6 12
REMARK SMILES IDX 7 13 8 14 9 15 13 16 11 17 10 18 12 20 4 22 18 24
REMARK H PARENT 10 19 12 21 4 23 18 25
REMARK Flexibility Score: inf
ROOT
ATOM      1  C   UNL     1      -8.407  14.322  -3.095  1.00  0.00     0.180 A 
ATOM      2  C   UNL     1      -9.695  13.755  -3.001  1.00  0.00     0.208 A 
ATOM      3  C   UNL     1     -10.435  13.559  -4.179  1.00  0.00     0.235 A 
ATOM      4  O   UNL     1     -11.594  13.063  -4.119  1.00  0.00    -0.285 OA
ATOM      5  C   UNL     1      -9.871  13.909  -5.415  1.00  0.00     0.069 A 
ATOM      6  C   UNL     1      -8.566  14.448  -5.426  1.00  0.00     0.142 A 
ATOM      7  O   UNL     1      -7.902  14.627  -4.289  1.00  0.00    -0.452 OA
ATOM      8  C   UNL     1      -7.965  14.800  -6.640  1.00  0.00     0.094 A 
ATOM      9  C   UNL     1      -8.654  14.622  -7.847  1.00  0.00     0.119 A 
ATOM     10  C   UNL     1      -9.948  14.088  -7.838  1.00  0.00     0.047 A 
ATOM     11  C   UNL     1     -10.556  13.732  -6.631  1.00  0.00     0.020 A 
ENDROOT
BRANCH   1  12
ATOM     12  C   UNL     1      -7.572  14.578  -1.900  1.00  0.00     0.025 A 
ATOM     13  C   UNL     1      -7.757  15.759  -1.169  1.00  0.00     0.016 A 
ATOM     14  C   UNL     1      -6.995  16.011  -0.027  1.00  0.00     0.051 A 
ATOM     15  C   UNL     1      -6.046  15.085   0.416  1.00  0.00     0.157 A 
ATOM     16  C   UNL     1      -6.636  13.635  -1.445  1.00  0.00     0.062 A 
ATOM     17  C   UNL     1      -5.868  13.877  -0.299  1.00  0.00     0.158 A 
BRANCH  15  18
ATOM     18  O   UNL     1      -5.310  15.400   1.561  1.00  0.00    -0.504 OA
ATOM     19  H   UNL     1      -5.251  14.805   2.375  1.00  0.00     0.293 HD
ENDBRANCH  15  18
BRANCH  17  20
ATOM     20  O   UNL     1      -4.955  12.895   0.093  1.00  0.00    -0.504 OA
ATOM     21  H   UNL     1      -4.731  12.079  -0.460  1.00  0.00     0.293 HD
ENDBRANCH  17  20
ENDBRANCH   1  12
BRANCH   2  22
ATOM     22  O   UNL     1     -10.211  13.372  -1.761  1.00  0.00    -0.502 OA
ATOM     23  H   UNL     1      -9.711  13.530  -0.895  1.00  0.00     0.293 HD
ENDBRANCH   2  22
BRANCH   9  24
ATOM     24  O   UNL     1      -8.064  14.970  -9.060  1.00  0.00    -0.508 OA
ATOM     25  H   UNL     1      -7.419  14.348  -9.533  1.00  0.00     0.293 HD
ENDBRANCH   9  24
TORSDOF 5
ENDMDL
MODEL 5
REMARK VINA RESULT:    -5.927      1.812      7.063
REMARK INTER + INTRA:          -7.092
REMARK INTER:                  -7.153
REMARK INTRA:                   0.061
REMARK UNBOUND:                -0.125
REMARK SMILES O=c1c(O)c(-c2ccc(O)c(O)c2)oc2cc(O)ccc12
REMARK SMILES IDX 5 1 3 2 2 3 1 4 21 5 15 6 14 7 16 8 17 9 19 10 20 11 6 12
REMARK SMILES IDX 7 13 8 14 9 15 13 16 11 17 10 18 12 20 4 22 18 24
REMARK H PARENT 10 19 12 21 4 23 18 25
REMARK Flexibility Score: inf
ROOT
ATOM      1  C   UNL     1      -7.538  14.910  -3.178  1.00  0.00     0.180 A 
ATOM      2  C   UNL     1      -8.137  16.034  -2.572  1.00  0.00     0.208 A 
ATOM      3  C   UNL     1      -8.040  16.183  -1.179  1.00  0.00     0.235 A 
ATOM      4  O   UNL     1      -8.576  17.174  -0.612  1.00  0.00    -0.285 OA
ATOM      5  C   UNL     1      -7.335  15.228  -0.430  1.00  0.00     0.069 A 
ATOM      6  C   UNL     1      -6.743  14.145  -1.115  1.00  0.00     0.142 A 
ATOM      7  O   UNL     1      -6.866  14.035  -2.433  1.00  0.00    -0.452 OA
ATOM      8  C   UNL     1      -6.023  13.177  -0.405  1.00  0.00     0.094 A 
ATOM      9  C   UNL     1      -5.889  13.277   0.986  1.00  0.00     0.119 A 
ATOM     10  C   UNL     1      -6.476  14.349   1.667  1.00  0.00     0.047 A 
ATOM     11  C   UNL     1      -7.195  15.322   0.966  1.00  0.00     0.020 A 
ENDROOT
BRANCH   1  12
ATOM     12  C   UNL     1      -7.612  14.672  -4.638  1.00  0.00     0.025 A 
ATOM     13  C   UNL     1      -6.476  14.220  -5.321  1.00  0.00     0.016 A 
ATOM     14  C   UNL     1      -6.530  13.970  -6.693  1.00  0.00     0.051 A 
ATOM     15  C   UNL     1      -7.719  14.151  -7.407  1.00  0.00     0.157 A 
ATOM     16  C   UNL     1      -8.815  14.834  -5.346  1.00  0.00     0.062 A 
ATOM     17  C   UNL     1      -8.879  14.583  -6.722  1.00  0.00     0.158 A 
BRANCH  15  18
ATOM     18  O   UNL     1      -7.704  13.891  -8.779  1.00  0.00    -0.504 OA
ATOM     19  H   UNL     1      -6.862  13.836  -9.334  1.00  0.00     0.293 HD
ENDBRANCH  15  18
BRANCH  17  20
ATOM     20  O   UNL     1     -10.108  14.766  -7.361  1.00  0.00    -0.504 OA
ATOM     21  H   UNL     1     -10.334  15.570  -7.930  1.00  0.00     0.293 HD
ENDBRANCH  17  20
ENDBRANCH   1  12
BRANCH   2  22
ATOM     22  O   UNL     1      -8.790  16.994  -3.348  1.00  0.00    -0.502 OA
ATOM     23  H   UNL     1      -8.304  17.555  -4.038  1.00  0.00     0.293 HD
ENDBRANCH   2  22
BRANCH   9  24
ATOM     24  O   UNL     1      -5.175  12.318   1.701  1.00  0.00    -0.508 OA
ATOM     25  H   UNL     1      -4.525  12.578   2.433  1.00  0.00     0.293 HD
ENDBRANCH   9  24
TORSDOF 5
ENDMDL
MODEL 6
REMARK VINA RESULT:    -5.869      1.772      6.618
REMARK INTER + INTRA:          -7.023
REMARK INTER:                  -6.704
REMARK INTRA:                  -0.319
REMARK UNBOUND:                -0.125
REMARK SMILES O=c1c(O)c(-c2ccc(O)c(O)c2)oc2cc(O)ccc12
REMARK SMILES IDX 5 1 3 2 2 3 1 4 21 5 15 6 14 7 16 8 17 9 19 10 20 11 6 12
REMARK SMILES IDX 7 13 8 14 9 15 13 16 11 17 10 18 12 20 4 22 18 24
REMARK H PARENT 10 19 12 21 4 23 18 25
REMARK Flexibility Score: inf
ROOT
ATOM      1  C   UNL     1      -7.650  14.576  -2.111  1.00  0.00     0.180 A 
ATOM      2  C   UNL     1      -8.271  13.456  -1.519  1.00  0.00     0.208 A 
ATOM      3  C   UNL     1      -8.316  13.369  -0.118  1.00  0.00     0.235 A 
ATOM      4  O   UNL     1      -8.857  12.372   0.434  1.00  0.00    -0.285 OA
ATOM      5  C   UNL     1      -7.765  14.402   0.656  1.00  0.00     0.069 A 
ATOM      6  C   UNL     1      -7.184  15.501  -0.013  1.00  0.00     0.142 A 
ATOM      7  O   UNL     1      -7.152  15.542  -1.340  1.00  0.00    -0.452 OA
ATOM      8  C   UNL     1      -6.633  16.557   0.724  1.00  0.00     0.094 A 
ATOM      9  C   UNL     1      -6.654  16.526   2.124  1.00  0.00     0.119 A 
ATOM     10  C   UNL     1      -7.230  15.437   2.788  1.00  0.00     0.047 A 
ATOM     11  C   UNL     1      -7.784  14.379   2.062  1.00  0.00     0.020 A 
ENDROOT
BRANCH   1  12
ATOM     12  C   UNL     1      -7.545  14.731  -3.579  1.00  0.00     0.025 A 
ATOM     13  C   UNL     1      -8.467  15.542  -4.254  1.00  0.00     0.016 A 
ATOM     14  C   UNL     1      -8.374  15.719  -5.636  1.00  0.00     0.051 A 
ATOM     15  C   UNL     1      -7.353  15.105  -6.368  1.00  0.00     0.157 A 
ATOM     16  C   UNL     1      -6.504  14.131  -4.307  1.00  0.00     0.062 A 
ATOM     17  C   UNL     1      -6.400  14.305  -5.693  1.00  0.00     0.158 A 
BRANCH  15  18
ATOM     18  O   UNL     1      -7.320  15.315  -7.748  1.00  0.00    -0.504 OA
ATOM     19  H   UNL     1      -7.169  14.583  -8.427  1.00  0.00     0.293 HD
ENDBRANCH  15  18
BRANCH  17  20
ATOM     20  O   UNL     1      -5.340  13.677  -6.351  1.00  0.00    -0.504 OA
ATOM     21  H   UNL     1      -4.754  14.130  -7.037  1.00  0.00     0.293 HD
ENDBRANCH  17  20
ENDBRANCH   1  12
BRANCH   2  22
ATOM     22  O   UNL     1      -8.853  12.467  -2.315  1.00  0.00    -0.502 OA
ATOM     23  H   UNL     1      -8.370  11.608  -2.551  1.00  0.00     0.293 HD
ENDBRANCH   2  22
BRANCH   9  24
ATOM     24  O   UNL     1      -6.108  17.571   2.865  1.00  0.00    -0.508 OA
ATOM     25  H   UNL     1      -5.894  18.466   2.441  1.00  0.00     0.293 HD
ENDBRANCH   9  24
TORSDOF 5
ENDMDL
MODEL 7
REMARK VINA RESULT:    -5.836      2.194      7.347
REMARK INTER + INTRA:          -6.984
REMARK INTER:                  -6.677
REMARK INTRA:                  -0.307
REMARK UNBOUND:                -0.125
REMARK SMILES O=c1c(O)c(-c2ccc(O)c(O)c2)oc2cc(O)ccc12
REMARK SMILES IDX 5 1 3 2 2 3 1 4 21 5 15 6 14 7 16 8 17 9 19 10 20 11 6 12
REMARK SMILES IDX 7 13 8 14 9 15 13 16 11 17 10 18 12 20 4 22 18 24
REMARK H PARENT 10 19 12 21 4 23 18 25
REMARK Flexibility Score: inf
ROOT
ATOM      1  C   UNL     1      -8.080  15.559  -0.917  1.00  0.00     0.180 A 
ATOM      2  C   UNL     1      -6.807  15.384  -0.333  1.00  0.00     0.208 A 
ATOM      3  C   UNL     1      -6.581  15.888   0.957  1.00  0.00     0.235 A 
ATOM      4  O   UNL     1      -5.448  15.754   1.496  1.00  0.00    -0.285 OA
ATOM      5  C   UNL     1      -7.624  16.532   1.640  1.00  0.00     0.069 A 
ATOM      6  C   UNL     1      -8.875  16.645   0.996  1.00  0.00     0.142 A 
ATOM      7  O   UNL     1      -9.047  16.162  -0.230  1.00  0.00    -0.452 OA
ATOM      8  C   UNL     1      -9.944  17.271   1.648  1.00  0.00     0.094 A 
ATOM      9  C   UNL     1      -9.776  17.790   2.939  1.00  0.00     0.119 A 
ATOM     10  C   UNL     1      -8.537  17.679   3.578  1.00  0.00     0.047 A 
ATOM     11  C   UNL     1      -7.464  17.055   2.936  1.00  0.00     0.020 A 
ENDROOT
BRANCH   1  12
ATOM     12  C   UNL     1      -8.392  15.072  -2.280  1.00  0.00     0.025 A 
ATOM     13  C   UNL     1      -9.123  13.887  -2.438  1.00  0.00     0.016 A 
ATOM     14  C   UNL     1      -9.446  13.421  -3.714  1.00  0.00     0.051 A 
ATOM     15  C   UNL     1      -9.061  14.134  -4.854  1.00  0.00     0.157 A 
ATOM     16  C   UNL     1      -8.023  15.803  -3.422  1.00  0.00     0.062 A 
ATOM     17  C   UNL     1      -8.345  15.345  -4.706  1.00  0.00     0.158 A 
BRANCH  15  18
ATOM     18  O   UNL     1      -9.409  13.610  -6.101  1.00  0.00    -0.504 OA
ATOM     19  H   UNL     1      -8.738  13.315  -6.796  1.00  0.00     0.293 HD
ENDBRANCH  15  18
BRANCH  17  20
ATOM     20  O   UNL     1      -7.944  16.123  -5.794  1.00  0.00    -0.504 OA
ATOM     21  H   UNL     1      -7.011  16.115  -6.181  1.00  0.00     0.293 HD
ENDBRANCH  17  20
ENDBRANCH   1  12
BRANCH   2  22
ATOM     22  O   UNL     1      -5.803  14.696  -1.018  1.00  0.00    -0.502 OA
ATOM     23  H   UNL     1      -5.539  13.747  -0.782  1.00  0.00     0.293 HD
ENDBRANCH   2  22
BRANCH   9  24
ATOM     24  O   UNL     1     -10.834  18.415   3.595  1.00  0.00    -0.508 OA
ATOM     25  H   UNL     1     -11.278  19.243   3.216  1.00  0.00     0.293 HD
ENDBRANCH   9  24
TORSDOF 5
ENDMDL
MODEL 8
REMARK VINA RESULT:    -5.827      2.556      4.610
REMARK INTER + INTRA:          -6.974
REMARK INTER:                  -6.674
REMARK INTRA:                  -0.300
REMARK UNBOUND:                -0.125
REMARK SMILES O=c1c(O)c(-c2ccc(O)c(O)c2)oc2cc(O)ccc12
REMARK SMILES IDX 5 1 3 2 2 3 1 4 21 5 15 6 14 7 16 8 17 9 19 10 20 11 6 12
REMARK SMILES IDX 7 13 8 14 9 15 13 16 11 17 10 18 12 20 4 22 18 24
REMARK H PARENT 10 19 12 21 4 23 18 25
REMARK Flexibility Score: inf
ROOT
ATOM      1  C   UNL     1      -7.935  16.317   0.669  1.00  0.00     0.180 A 
ATOM      2  C   UNL     1      -9.167  16.874   0.266  1.00  0.00     0.208 A 
ATOM      3  C   UNL     1      -9.545  16.775  -1.083  1.00  0.00     0.235 A 
ATOM      4  O   UNL     1     -10.636  17.275  -1.469  1.00  0.00    -0.285 OA
ATOM      5  C   UNL     1      -8.704  16.109  -1.988  1.00  0.00     0.069 A 
ATOM      6  C   UNL     1      -7.500  15.556  -1.501  1.00  0.00     0.142 A 
ATOM      7  O   UNL     1      -7.174  15.680  -0.219  1.00  0.00    -0.452 OA
ATOM      8  C   UNL     1      -6.640  14.875  -2.370  1.00  0.00     0.094 A 
ATOM      9  C   UNL     1      -6.968  14.742  -3.726  1.00  0.00     0.119 A 
ATOM     10  C   UNL     1      -8.161  15.289  -4.211  1.00  0.00     0.047 A 
ATOM     11  C   UNL     1      -9.027  15.970  -3.350  1.00  0.00     0.020 A 
ENDROOT
BRANCH   1  12
ATOM     12  C   UNL     1      -7.457  16.396   2.068  1.00  0.00     0.025 A 
ATOM     13  C   UNL     1      -6.827  17.564   2.517  1.00  0.00     0.016 A 
ATOM     14  C   UNL     1      -6.388  17.667   3.837  1.00  0.00     0.051 A 
ATOM     15  C   UNL     1      -6.580  16.615   4.739  1.00  0.00     0.157 A 
ATOM     16  C   UNL     1      -7.673  15.345   2.976  1.00  0.00     0.062 A 
ATOM     17  C   UNL     1      -7.238  15.440   4.304  1.00  0.00     0.158 A 
BRANCH  15  18
ATOM     18  O   UNL     1      -6.110  16.778   6.044  1.00  0.00    -0.504 OA
ATOM     19  H   UNL     1      -5.817  17.663   6.432  1.00  0.00     0.293 HD
ENDBRANCH  15  18
BRANCH  17  20
ATOM     20  O   UNL     1      -7.486  14.357   5.150  1.00  0.00    -0.504 OA
ATOM     21  H   UNL     1      -8.062  13.566   4.899  1.00  0.00     0.293 HD
ENDBRANCH  17  20
ENDBRANCH   1  12
BRANCH   2  22
ATOM     22  O   UNL     1     -10.005  17.488   1.199  1.00  0.00    -0.502 OA
ATOM     23  H   UNL     1      -9.651  17.910   2.050  1.00  0.00     0.293 HD
ENDBRANCH   2  22
BRANCH   9  24
ATOM     24  O   UNL     1      -6.118  14.066  -4.598  1.00  0.00    -0.508 OA
ATOM     25  H   UNL     1      -6.440  13.730  -5.498  1.00  0.00     0.293 HD
ENDBRANCH   9  24
TORSDOF 5
ENDMDL
MODEL 9
REMARK VINA RESULT:    -5.814      3.527      5.717
REMARK INTER + INTRA:          -6.959
REMARK INTER:                  -6.682
REMARK INTRA:                  -0.276
REMARK UNBOUND:                -0.125
REMARK SMILES O=c1c(O)c(-c2ccc(O)c(O)c2)oc2cc(O)ccc12
REMARK SMILES IDX 5 1 3 2 2 3 1 4 21 5 15 6 14 7 16 8 17 9 19 10 20 11 6 12
REMARK SMILES IDX 7 13 8 14 9 15 13 16 11 17 10 18 12 20 4 22 18 24
REMARK H PARENT 10 19 12 21 4 23 18 25
REMARK Flexibility Score: inf
ROOT
ATOM      1  C   UNL     1      -8.662  16.825   1.899  1.00  0.00     0.180 A 
ATOM      2  C   UNL     1      -9.778  16.010   2.185  1.00  0.00     0.208 A 
ATOM      3  C   UNL     1     -10.424  15.354   1.126  1.00  0.00     0.235 A 
ATOM      4  O   UNL     1     -11.431  14.629   1.355  1.00  0.00    -0.285 OA
ATOM      5  C   UNL     1      -9.935  15.504  -0.182  1.00  0.00     0.069 A 
ATOM      6  C   UNL     1      -8.798  16.316  -0.381  1.00  0.00     0.142 A 
ATOM      7  O   UNL     1      -8.220  16.929   0.647  1.00  0.00    -0.452 OA
ATOM      8  C   UNL     1      -8.274  16.483  -1.668  1.00  0.00     0.094 A 
ATOM      9  C   UNL     1      -8.875  15.848  -2.762  1.00  0.00     0.119 A 
ATOM     10  C   UNL     1     -10.003  15.042  -2.567  1.00  0.00     0.047 A 
ATOM     11  C   UNL     1     -10.533  14.869  -1.285  1.00  0.00     0.020 A 
ENDROOT
BRANCH   1  12
ATOM     12  C   UNL     1      -7.937  17.565   2.957  1.00  0.00     0.025 A 
ATOM     13  C   UNL     1      -7.017  16.886   3.767  1.00  0.00     0.016 A 
ATOM     14  C   UNL     1      -6.308  17.569   4.757  1.00  0.00     0.051 A 
ATOM     15  C   UNL     1      -6.492  18.942   4.949  1.00  0.00     0.157 A 
ATOM     16  C   UNL     1      -8.109  18.948   3.132  1.00  0.00     0.062 A 
ATOM     17  C   UNL     1      -7.400  19.643   4.121  1.00  0.00     0.158 A 
BRANCH  15  18
ATOM     18  O   UNL     1      -5.759  19.564   5.961  1.00  0.00    -0.504 OA
ATOM     19  H   UNL     1      -5.056  19.099   6.518  1.00  0.00     0.293 HD
ENDBRANCH  15  18
BRANCH  17  20
ATOM     20  O   UNL     1      -7.623  21.017   4.237  1.00  0.00    -0.504 OA
ATOM     21  H   UNL     1      -8.113  21.445   5.010  1.00  0.00     0.293 HD
ENDBRANCH  17  20
ENDBRANCH   1  12
BRANCH   2  22
ATOM     22  O   UNL     1     -10.212  15.841   3.501  1.00  0.00    -0.502 OA
ATOM     23  H   UNL     1      -9.581  15.579   4.250  1.00  0.00     0.293 HD
ENDBRANCH   2  22
BRANCH   9  24
ATOM     24  O   UNL     1      -8.361  16.008  -4.047  1.00  0.00    -0.508 OA
ATOM     25  H   UNL     1      -8.805  15.584  -4.852  1.00  0.00     0.293 HD
ENDBRANCH   9  24
TORSDOF 5
ENDMDL
