MODEL 1
REMARK VINA RESULT:    -2.526      0.000      0.000
REMARK INTER + INTRA:          -2.669
REMARK INTER:                  -2.748
REMARK INTRA:                   0.079
REMARK UNBOUND:                 0.079
REMARK SMILES CC1=C[C@H]2[C@@H](C(C)C)CC[C@](C)(O)[C@@H]2CC1
REMARK SMILES IDX 1 1 2 2 3 3 4 4 5 5 9 6 10 7 11 8 14 9 15 10 16 11 12 12
REMARK SMILES IDX 6 13 7 14 8 15 13 16
REMARK H PARENT 13 17
REMARK Flexibility Score: inf
ROOT
ATOM      1  C   UNL     1       4.977  47.577  47.149  1.00  0.00     0.039 C 
ATOM      2  C   UNL     1       3.544  47.156  47.333  1.00  0.00    -0.077 C 
ATOM      3  C   UNL     1       3.229  45.919  47.748  1.00  0.00    -0.024 C 
ATOM      4  C   UNL     1       1.779  45.566  47.983  1.00  0.00     0.021 C 
ATOM      5  C   UNL     1       1.551  44.144  48.596  1.00  0.00    -0.001 C 
ATOM      6  C   UNL     1       0.033  43.911  48.766  1.00  0.00     0.007 C 
ATOM      7  C   UNL     1      -0.636  45.018  49.589  1.00  0.00     0.035 C 
ATOM      8  C   UNL     1      -0.464  46.412  48.940  1.00  0.00     0.065 C 
ATOM      9  C   UNL     1       1.060  46.718  48.751  1.00  0.00     0.028 C 
ATOM     10  C   UNL     1       1.344  48.122  48.111  1.00  0.00     0.011 C 
ATOM     11  C   UNL     1       2.432  48.125  47.019  1.00  0.00     0.031 C 
ATOM     12  C   UNL     1      -1.124  47.453  49.880  1.00  0.00     0.042 C 
ENDROOT
BRANCH   5  13
ATOM     13  C   UNL     1       2.362  43.687  49.879  1.00  0.00    -0.014 C 
ATOM     14  C   UNL     1       2.329  44.750  50.994  1.00  0.00     0.007 C 
ATOM     15  C   UNL     1       2.027  42.305  50.461  1.00  0.00     0.007 C 
ENDBRANCH   5  13
BRANCH   8  16
ATOM     16  O   UNL     1      -1.119  46.384  47.689  1.00  0.00    -0.390 OA
ATOM     17  H   UNL     1      -0.565  45.886  47.035  1.00  0.00     0.211 HD
ENDBRANCH   8  16
TORSDOF 2
ENDMDL
MODEL 2
REMARK VINA RESULT:    -0.965      1.384      1.648
REMARK INTER + INTRA:          -0.971
REMARK INTER:                  -1.287
REMARK INTRA:                   0.317
REMARK UNBOUND:                 0.079
REMARK SMILES CC1=C[C@H]2[C@@H](C(C)C)CC[C@](C)(O)[C@@H]2CC1
REMARK SMILES IDX 1 1 2 2 3 3 4 4 5 5 9 6 10 7 11 8 14 9 15 10 16 11 12 12
REMARK SMILES IDX 6 13 7 14 8 15 13 16
REMARK H PARENT 13 17
REMARK Flexibility Score: inf
ROOT
ATOM      1  C   UNL     1       3.868  46.362  46.411  1.00  0.00     0.039 C 
ATOM      2  C   UNL     1       2.644  46.575  47.259  1.00  0.00    -0.077 C 
ATOM      3  C   UNL     1       1.924  45.537  47.717  1.00  0.00    -0.024 C 
ATOM      4  C   UNL     1       0.744  45.800  48.621  1.00  0.00     0.021 C 
ATOM      5  C   UNL     1       0.072  44.510  49.198  1.00  0.00    -0.001 C 
ATOM      6  C   UNL     1      -1.124  44.924  50.086  1.00  0.00     0.007 C 
ATOM      7  C   UNL     1      -0.718  45.913  51.184  1.00  0.00     0.035 C 
ATOM      8  C   UNL     1      -0.117  47.215  50.602  1.00  0.00     0.065 C 
ATOM      9  C   UNL     1       1.114  46.867  49.698  1.00  0.00     0.028 C 
ATOM     10  C   UNL     1       1.807  48.125  49.069  1.00  0.00     0.011 C 
ATOM     11  C   UNL     1       2.191  47.975  47.584  1.00  0.00     0.031 C 
ATOM     12  C   UNL     1       0.308  48.110  51.794  1.00  0.00     0.042 C 
ENDROOT
BRANCH   5  13
ATOM     13  C   UNL     1       0.955  43.389  49.890  1.00  0.00    -0.014 C 
ATOM     14  C   UNL     1       2.347  43.913  50.288  1.00  0.00     0.007 C 
ATOM     15  C   UNL     1       0.323  42.629  51.066  1.00  0.00     0.007 C 
ENDBRANCH   5  13
BRANCH   8  16
ATOM     16  O   UNL     1      -1.125  47.846  49.838  1.00  0.00    -0.390 OA
ATOM     17  H   UNL     1      -0.960  48.823  49.815  1.00  0.00     0.211 HD
ENDBRANCH   8  16
TORSDOF 2
ENDMDL
MODEL 3
REMARK VINA RESULT:     0.211      1.282      4.209
REMARK INTER + INTRA:           0.309
REMARK INTER:                   0.177
REMARK INTRA:                   0.132
REMARK UNBOUND:                 0.079
REMARK SMILES CC1=C[C@H]2[C@@H](C(C)C)CC[C@](C)(O)[C@@H]2CC1
REMARK SMILES IDX 1 1 2 2 3 3 4 4 5 5 9 6 10 7 11 8 14 9 15 10 16 11 12 12
REMARK SMILES IDX 6 13 7 14 8 15 13 16
REMARK H PARENT 13 17
REMARK Flexibility Score: inf
ROOT
ATOM      1  C   UNL     1       2.631  42.115  50.969  1.00  0.00     0.039 C 
ATOM      2  C   UNL     1       1.891  43.372  50.601  1.00  0.00    -0.077 C 
ATOM      3  C   UNL     1       2.546  44.513  50.333  1.00  0.00    -0.024 C 
ATOM      4  C   UNL     1       1.762  45.730  49.901  1.00  0.00     0.021 C 
ATOM      5  C   UNL     1       2.645  46.953  49.486  1.00  0.00    -0.001 C 
ATOM      6  C   UNL     1       1.719  48.125  49.087  1.00  0.00     0.007 C 
ATOM      7  C   UNL     1       0.717  47.728  47.997  1.00  0.00     0.035 C 
ATOM      8  C   UNL     1      -0.198  46.563  48.443  1.00  0.00     0.065 C 
ATOM      9  C   UNL     1       0.680  45.332  48.850  1.00  0.00     0.028 C 
ATOM     10  C   UNL     1      -0.156  44.086  49.305  1.00  0.00     0.011 C 
ATOM     11  C   UNL     1       0.384  43.370  50.558  1.00  0.00     0.031 C 
ATOM     12  C   UNL     1      -1.124  46.210  47.251  1.00  0.00     0.042 C 
ENDROOT
BRANCH   5  13
ATOM     13  C   UNL     1       3.833  46.767  48.452  1.00  0.00    -0.014 C 
ATOM     14  C   UNL     1       3.338  46.257  47.086  1.00  0.00     0.007 C 
ATOM     15  C   UNL     1       4.780  47.961  48.255  1.00  0.00     0.007 C 
ENDBRANCH   5  13
BRANCH   8  16
ATOM     16  O   UNL     1      -0.956  47.013  49.547  1.00  0.00    -0.390 OA
ATOM     17  H   UNL     1      -1.582  47.723  49.252  1.00  0.00     0.211 HD
ENDBRANCH   8  16
TORSDOF 2
ENDMDL
