MODEL 1
REMARK VINA RESULT:    -2.621      0.000      0.000
REMARK INTER + INTRA:          -2.621
REMARK INTER:                  -2.621
REMARK INTRA:                   0.000
REMARK UNBOUND:                 0.000
REMARK SMILES CC(=O)[O-]
REMARK SMILES IDX 1 1 2 2 3 3 4 4
REMARK H PARENT
REMARK Flexibility Score: inf
ROOT
ATOM      1  C   UNL     1       4.798 -10.792   3.581  1.00  0.00     0.063 C 
ATOM      2  C   UNL     1       5.359 -10.381   2.262  1.00  0.00     0.038 C 
ATOM      3  O   UNL     1       4.750 -10.670   1.198  1.00  0.00    -0.550 OA
ATOM      4  O   UNL     1       6.526  -9.631   2.205  1.00  0.00    -0.550 OA
ENDROOT
TORSDOF 0
ENDMDL
MODEL 2
REMARK VINA RESULT:    -2.580      0.868      1.437
REMARK INTER + INTRA:          -2.580
REMARK INTER:                  -2.580
REMARK INTRA:                   0.000
REMARK UNBOUND:                 0.000
REMARK SMILES CC(=O)[O-]
REMARK SMILES IDX 1 1 2 2 3 3 4 4
REMARK H PARENT
REMARK Flexibility Score: inf
ROOT
ATOM      1  C   UNL     1       4.642 -10.666   3.445  1.00  0.00     0.063 C 
ATOM      2  C   UNL     1       5.438 -10.558   2.189  1.00  0.00     0.038 C 
ATOM      3  O   UNL     1       6.559 -11.125   2.099  1.00  0.00    -0.550 OA
ATOM      4  O   UNL     1       4.921  -9.877   1.094  1.00  0.00    -0.550 OA
ENDROOT
TORSDOF 0
ENDMDL
MODEL 3
REMARK VINA RESULT:    -2.546      2.314      2.557
REMARK INTER + INTRA:          -2.546
REMARK INTER:                  -2.546
REMARK INTRA:                   0.000
REMARK UNBOUND:                 0.000
REMARK SMILES CC(=O)[O-]
REMARK SMILES IDX 1 1 2 2 3 3 4 4
REMARK H PARENT
REMARK Flexibility Score: inf
ROOT
ATOM      1  C   UNL     1       5.069 -10.618   2.346  1.00  0.00     0.063 C 
ATOM      2  C   UNL     1       4.932 -10.343   3.806  1.00  0.00     0.038 C 
ATOM      3  O   UNL     1       5.448 -11.125   4.648  1.00  0.00    -0.550 OA
ATOM      4  O   UNL     1       4.281  -9.196   4.240  1.00  0.00    -0.550 OA
ENDROOT
TORSDOF 0
ENDMDL
MODEL 4
REMARK VINA RESULT:    -2.508      1.355      2.002
REMARK INTER + INTRA:          -2.508
REMARK INTER:                  -2.508
REMARK INTRA:                   0.000
REMARK UNBOUND:                 0.000
REMARK SMILES CC(=O)[O-]
REMARK SMILES IDX 1 1 2 2 3 3 4 4
REMARK H PARENT
REMARK Flexibility Score: inf
ROOT
ATOM      1  C   UNL     1       4.448 -10.444   3.756  1.00  0.00     0.063 C 
ATOM      2  C   UNL     1       5.896 -10.202   3.492  1.00  0.00     0.038 C 
ATOM      3  O   UNL     1       6.762 -10.572   4.328  1.00  0.00    -0.550 OA
ATOM      4  O   UNL     1       6.297  -9.618   2.298  1.00  0.00    -0.550 OA
ENDROOT
TORSDOF 0
ENDMDL
MODEL 5
REMARK VINA RESULT:    -2.487      1.459      1.806
REMARK INTER + INTRA:          -2.487
REMARK INTER:                  -2.487
REMARK INTRA:                   0.000
REMARK UNBOUND:                 0.000
REMARK SMILES CC(=O)[O-]
REMARK SMILES IDX 1 1 2 2 3 3 4 4
REMARK H PARENT
REMARK Flexibility Score: inf
ROOT
ATOM      1  C   UNL     1       6.288 -11.107   3.404  1.00  0.00     0.063 C 
ATOM      2  C   UNL     1       5.082 -10.534   2.739  1.00  0.00     0.038 C 
ATOM      3  O   UNL     1       4.270  -9.833   3.399  1.00  0.00    -0.550 OA
ATOM      4  O   UNL     1       4.881 -10.725   1.379  1.00  0.00    -0.550 OA
ENDROOT
TORSDOF 0
ENDMDL
MODEL 6
REMARK VINA RESULT:    -2.412     20.177     20.493
REMARK INTER + INTRA:          -2.412
REMARK INTER:                  -2.412
REMARK INTRA:                   0.000
REMARK UNBOUND:                 0.000
REMARK SMILES CC(=O)[O-]
REMARK SMILES IDX 1 1 2 2 3 3 4 4
REMARK H PARENT
REMARK Flexibility Score: inf
ROOT
ATOM      1  C   UNL     1       8.001   8.376  -6.106  1.00  0.00     0.063 C 
ATOM      2  C   UNL     1       7.359   8.586  -4.776  1.00  0.00     0.038 C 
ATOM      3  O   UNL     1       8.027   8.429  -3.720  1.00  0.00    -0.550 OA
ATOM      4  O   UNL     1       6.039   9.008  -4.699  1.00  0.00    -0.550 OA
ENDROOT
TORSDOF 0
ENDMDL
MODEL 7
REMARK VINA RESULT:    -2.292      9.719     10.163
REMARK INTER + INTRA:          -2.292
REMARK INTER:                  -2.292
REMARK INTRA:                   0.000
REMARK UNBOUND:                 0.000
REMARK SMILES CC(=O)[O-]
REMARK SMILES IDX 1 1 2 2 3 3 4 4
REMARK H PARENT
REMARK Flexibility Score: inf
ROOT
ATOM      1  C   UNL     1       7.956  -3.618  -6.375  1.00  0.00     0.063 C 
ATOM      2  C   UNL     1       7.707  -3.940  -4.940  1.00  0.00     0.038 C 
ATOM      3  O   UNL     1       6.565  -4.317  -4.566  1.00  0.00    -0.550 OA
ATOM      4  O   UNL     1       8.747  -3.876  -4.022  1.00  0.00    -0.550 OA
ENDROOT
TORSDOF 0
ENDMDL
MODEL 8
REMARK VINA RESULT:    -2.266      9.745     10.139
REMARK INTER + INTRA:          -2.266
REMARK INTER:                  -2.266
REMARK INTRA:                   0.000
REMARK UNBOUND:                 0.000
REMARK SMILES CC(=O)[O-]
REMARK SMILES IDX 1 1 2 2 3 3 4 4
REMARK H PARENT
REMARK Flexibility Score: inf
ROOT
ATOM      1  C   UNL     1       8.864  -3.988  -4.279  1.00  0.00     0.063 C 
ATOM      2  C   UNL     1       7.592  -3.996  -5.058  1.00  0.00     0.038 C 
ATOM      3  O   UNL     1       6.513  -4.336  -4.504  1.00  0.00    -0.550 OA
ATOM      4  O   UNL     1       7.585  -3.576  -6.381  1.00  0.00    -0.550 OA
ENDROOT
TORSDOF 0
ENDMDL
MODEL 9
REMARK VINA RESULT:    -2.255      1.801      2.158
REMARK INTER + INTRA:          -2.255
REMARK INTER:                  -2.255
REMARK INTRA:                   0.000
REMARK UNBOUND:                 0.000
REMARK SMILES CC(=O)[O-]
REMARK SMILES IDX 1 1 2 2 3 3 4 4
REMARK H PARENT
REMARK Flexibility Score: inf
ROOT
ATOM      1  C   UNL     1       6.871  -9.987   1.865  1.00  0.00     0.063 C 
ATOM      2  C   UNL     1       6.095 -10.143   3.129  1.00  0.00     0.038 C 
ATOM      3  O   UNL     1       4.844  -9.998   3.126  1.00  0.00    -0.550 OA
ATOM      4  O   UNL     1       6.744 -10.502   4.303  1.00  0.00    -0.550 OA
ENDROOT
TORSDOF 0
ENDMDL
