MODEL 1
REMARK VINA RESULT:    -2.467      0.000      0.000
REMARK INTER + INTRA:          -2.467
REMARK INTER:                  -2.467
REMARK INTRA:                   0.000
REMARK UNBOUND:                 0.000
REMARK SMILES CC(=O)[O-]
REMARK SMILES IDX 1 1 2 2 3 3 4 4
REMARK H PARENT
REMARK Flexibility Score: inf
ROOT
ATOM      1  C   UNL     1     -14.157  20.796 -21.279  1.00  0.00     0.063 C 
ATOM      2  C   UNL     1     -13.555  20.343 -22.566  1.00  0.00     0.038 C 
ATOM      3  O   UNL     1     -13.973  19.294 -23.123  1.00  0.00    -0.550 OA
ATOM      4  O   UNL     1     -12.495  21.046 -23.125  1.00  0.00    -0.550 OA
ENDROOT
TORSDOF 0
ENDMDL
MODEL 2
REMARK VINA RESULT:    -2.376     17.275     17.674
REMARK INTER + INTRA:          -2.376
REMARK INTER:                  -2.376
REMARK INTRA:                   0.000
REMARK UNBOUND:                 0.000
REMARK SMILES CC(=O)[O-]
REMARK SMILES IDX 1 1 2 2 3 3 4 4
REMARK H PARENT
REMARK Flexibility Score: inf
ROOT
ATOM      1  C   UNL     1      -8.624   4.366 -21.315  1.00  0.00     0.063 C 
ATOM      2  C   UNL     1      -7.350   3.807 -21.854  1.00  0.00     0.038 C 
ATOM      3  O   UNL     1      -6.763   2.875 -21.245  1.00  0.00    -0.550 OA
ATOM      4  O   UNL     1      -6.781   4.350 -22.998  1.00  0.00    -0.550 OA
ENDROOT
TORSDOF 0
ENDMDL
MODEL 3
REMARK VINA RESULT:    -2.332     17.259     17.697
REMARK INTER + INTRA:          -2.332
REMARK INTER:                  -2.332
REMARK INTRA:                   0.000
REMARK UNBOUND:                 0.000
REMARK SMILES CC(=O)[O-]
REMARK SMILES IDX 1 1 2 2 3 3 4 4
REMARK H PARENT
REMARK Flexibility Score: inf
ROOT
ATOM      1  C   UNL     1      -8.633   4.373 -21.594  1.00  0.00     0.063 C 
ATOM      2  C   UNL     1      -7.290   3.893 -22.028  1.00  0.00     0.038 C 
ATOM      3  O   UNL     1      -6.751   4.375 -23.059  1.00  0.00    -0.550 OA
ATOM      4  O   UNL     1      -6.654   2.876 -21.328  1.00  0.00    -0.550 OA
ENDROOT
TORSDOF 0
ENDMDL
MODEL 4
REMARK VINA RESULT:    -2.235     17.153     17.546
REMARK INTER + INTRA:          -2.235
REMARK INTER:                  -2.235
REMARK INTRA:                   0.000
REMARK UNBOUND:                 0.000
REMARK SMILES CC(=O)[O-]
REMARK SMILES IDX 1 1 2 2 3 3 4 4
REMARK H PARENT
REMARK Flexibility Score: inf
ROOT
ATOM      1  C   UNL     1      -6.748   2.916 -21.629  1.00  0.00     0.063 C 
ATOM      2  C   UNL     1      -7.802   3.970 -21.670  1.00  0.00     0.038 C 
ATOM      3  O   UNL     1      -8.213   4.492 -20.600  1.00  0.00    -0.550 OA
ATOM      4  O   UNL     1      -8.372   4.339 -22.881  1.00  0.00    -0.550 OA
ENDROOT
TORSDOF 0
ENDMDL
MODEL 5
REMARK VINA RESULT:    -2.154     16.432     16.872
REMARK INTER + INTRA:          -2.154
REMARK INTER:                  -2.154
REMARK INTRA:                   0.000
REMARK UNBOUND:                 0.000
REMARK SMILES CC(=O)[O-]
REMARK SMILES IDX 1 1 2 2 3 3 4 4
REMARK H PARENT
REMARK Flexibility Score: inf
ROOT
ATOM      1  C   UNL     1      -9.528   5.121 -23.125  1.00  0.00     0.063 C 
ATOM      2  C   UNL     1      -8.542   4.318 -22.347  1.00  0.00     0.038 C 
ATOM      3  O   UNL     1      -7.650   3.662 -22.946  1.00  0.00    -0.550 OA
ATOM      4  O   UNL     1      -8.638   4.248 -20.963  1.00  0.00    -0.550 OA
ENDROOT
TORSDOF 0
ENDMDL
MODEL 6
REMARK VINA RESULT:    -2.049      1.367      2.033
REMARK INTER + INTRA:          -2.049
REMARK INTER:                  -2.049
REMARK INTRA:                   0.000
REMARK UNBOUND:                 0.000
REMARK SMILES CC(=O)[O-]
REMARK SMILES IDX 1 1 2 2 3 3 4 4
REMARK H PARENT
REMARK Flexibility Score: inf
ROOT
ATOM      1  C   UNL     1     -13.977  19.138 -23.124  1.00  0.00     0.063 C 
ATOM      2  C   UNL     1     -13.445  20.415 -22.568  1.00  0.00     0.038 C 
ATOM      3  O   UNL     1     -12.442  20.963 -23.095  1.00  0.00    -0.550 OA
ATOM      4  O   UNL     1     -14.022  20.975 -21.435  1.00  0.00    -0.550 OA
ENDROOT
TORSDOF 0
ENDMDL
MODEL 7
REMARK VINA RESULT:    -1.858     24.077     24.528
REMARK INTER + INTRA:          -1.858
REMARK INTER:                  -1.858
REMARK INTRA:                   0.000
REMARK UNBOUND:                 0.000
REMARK SMILES CC(=O)[O-]
REMARK SMILES IDX 1 1 2 2 3 3 4 4
REMARK H PARENT
REMARK Flexibility Score: inf
ROOT
ATOM      1  C   UNL     1     -19.334   6.970  -2.878  1.00  0.00     0.063 C 
ATOM      2  C   UNL     1     -18.038   6.257  -3.067  1.00  0.00     0.038 C 
ATOM      3  O   UNL     1     -17.001   6.904  -3.369  1.00  0.00    -0.550 OA
ATOM      4  O   UNL     1     -17.982   4.873  -2.962  1.00  0.00    -0.550 OA
ENDROOT
TORSDOF 0
ENDMDL
MODEL 8
REMARK VINA RESULT:    -1.759     13.477     13.813
REMARK INTER + INTRA:          -1.759
REMARK INTER:                  -1.759
REMARK INTRA:                   0.000
REMARK UNBOUND:                 0.000
REMARK SMILES CC(=O)[O-]
REMARK SMILES IDX 1 1 2 2 3 3 4 4
REMARK H PARENT
REMARK Flexibility Score: inf
ROOT
ATOM      1  C   UNL     1     -12.697  20.234  -7.810  1.00  0.00     0.063 C 
ATOM      2  C   UNL     1     -12.998  19.248  -8.887  1.00  0.00     0.038 C 
ATOM      3  O   UNL     1     -13.789  19.553  -9.818  1.00  0.00    -0.550 OA
ATOM      4  O   UNL     1     -12.448  17.973  -8.837  1.00  0.00    -0.550 OA
ENDROOT
TORSDOF 0
ENDMDL
