MODEL 1
REMARK VINA RESULT:    -5.132      0.000      0.000
REMARK INTER + INTRA:          -6.754
REMARK INTER:                  -6.332
REMARK INTRA:                  -0.422
REMARK UNBOUND:                -0.422
REMARK SMILES C=CC[C@H](C)C(=O)CC
REMARK SMILES IDX 4 1 5 2 6 3 7 4 8 5 9 6 3 7 2 8 1 9
REMARK H PARENT
REMARK Flexibility Score: inf
ROOT
ATOM      1  C   UNL     1      32.711  21.706   6.742  1.00  0.00     0.057 C 
ATOM      2  C   UNL     1      34.069  21.612   7.449  1.00  0.00     0.016 C 
ENDROOT
BRANCH   1   3
ATOM      3  C   UNL     1      31.781  22.605   7.528  1.00  0.00     0.135 C 
ATOM      4  O   UNL     1      31.537  23.731   7.117  1.00  0.00    -0.299 OA
BRANCH   3   5
ATOM      5  C   UNL     1      31.143  22.139   8.811  1.00  0.00     0.072 C 
ATOM      6  C   UNL     1      29.622  22.151   8.693  1.00  0.00     0.012 C 
ENDBRANCH   3   5
ENDBRANCH   1   3
BRANCH   1   7
ATOM      7  C   UNL     1      32.065  20.317   6.557  1.00  0.00     0.038 C 
BRANCH   7   8
ATOM      8  C   UNL     1      31.222  20.237   5.311  1.00  0.00    -0.034 C 
ATOM      9  C   UNL     1      29.887  20.249   5.362  1.00  0.00     0.004 C 
ENDBRANCH   7   8
ENDBRANCH   1   7
TORSDOF 4
ENDMDL
MODEL 2
REMARK VINA RESULT:    -4.922      1.742      3.852
REMARK INTER + INTRA:          -6.496
REMARK INTER:                  -6.230
REMARK INTRA:                  -0.266
REMARK UNBOUND:                -0.422
REMARK SMILES C=CC[C@H](C)C(=O)CC
REMARK SMILES IDX 4 1 5 2 6 3 7 4 8 5 9 6 3 7 2 8 1 9
REMARK H PARENT
REMARK Flexibility Score: inf
ROOT
ATOM      1  C   UNL     1      31.307  22.250   7.569  1.00  0.00     0.057 C 
ATOM      2  C   UNL     1      31.441  22.173   9.095  1.00  0.00     0.016 C 
ENDROOT
BRANCH   1   3
ATOM      3  C   UNL     1      32.438  21.488   6.912  1.00  0.00     0.135 C 
ATOM      4  O   UNL     1      33.595  21.837   7.103  1.00  0.00    -0.299 OA
BRANCH   3   5
ATOM      5  C   UNL     1      32.168  20.300   6.026  1.00  0.00     0.072 C 
ATOM      6  C   UNL     1      30.755  20.363   5.455  1.00  0.00     0.012 C 
ENDBRANCH   3   5
ENDBRANCH   1   3
BRANCH   1   7
ATOM      7  C   UNL     1      31.297  23.710   7.069  1.00  0.00     0.038 C 
BRANCH   7   8
ATOM      8  C   UNL     1      31.511  24.700   8.184  1.00  0.00    -0.034 C 
ATOM      9  C   UNL     1      31.696  26.001   7.944  1.00  0.00     0.004 C 
ENDBRANCH   7   8
ENDBRANCH   1   7
TORSDOF 4
ENDMDL
MODEL 3
REMARK VINA RESULT:    -4.673      1.312      2.120
REMARK INTER + INTRA:          -6.189
REMARK INTER:                  -5.692
REMARK INTRA:                  -0.497
REMARK UNBOUND:                -0.422
REMARK SMILES C=CC[C@H](C)C(=O)CC
REMARK SMILES IDX 4 1 5 2 6 3 7 4 8 5 9 6 3 7 2 8 1 9
REMARK H PARENT
REMARK Flexibility Score: inf
ROOT
ATOM      1  C   UNL     1      31.287  22.649   7.116  1.00  0.00     0.057 C 
ATOM      2  C   UNL     1      31.608  24.145   7.236  1.00  0.00     0.016 C 
ENDROOT
BRANCH   1   3
ATOM      3  C   UNL     1      30.659  22.152   8.400  1.00  0.00     0.135 C 
ATOM      4  O   UNL     1      31.322  22.125   9.428  1.00  0.00    -0.299 OA
BRANCH   3   5
ATOM      5  C   UNL     1      29.225  21.691   8.440  1.00  0.00     0.072 C 
ATOM      6  C   UNL     1      28.496  22.083   7.159  1.00  0.00     0.012 C 
ENDBRANCH   3   5
ENDBRANCH   1   3
BRANCH   1   7
ATOM      7  C   UNL     1      32.546  21.819   6.791  1.00  0.00     0.038 C 
BRANCH   7   8
ATOM      8  C   UNL     1      32.214  20.408   6.381  1.00  0.00    -0.034 C 
ATOM      9  C   UNL     1      31.417  20.147   5.340  1.00  0.00     0.004 C 
ENDBRANCH   7   8
ENDBRANCH   1   7
TORSDOF 4
ENDMDL
MODEL 4
REMARK VINA RESULT:    -4.529      1.308      3.107
REMARK INTER + INTRA:          -6.010
REMARK INTER:                  -5.543
REMARK INTRA:                  -0.467
REMARK UNBOUND:                -0.422
REMARK SMILES C=CC[C@H](C)C(=O)CC
REMARK SMILES IDX 4 1 5 2 6 3 7 4 8 5 9 6 3 7 2 8 1 9
REMARK H PARENT
REMARK Flexibility Score: inf
ROOT
ATOM      1  C   UNL     1      31.738  22.389   8.179  1.00  0.00     0.057 C 
ATOM      2  C   UNL     1      31.719  23.845   7.695  1.00  0.00     0.016 C 
ENDROOT
BRANCH   1   3
ATOM      3  C   UNL     1      32.254  21.487   7.078  1.00  0.00     0.135 C 
ATOM      4  O   UNL     1      33.281  21.783   6.484  1.00  0.00    -0.299 OA
BRANCH   3   5
ATOM      5  C   UNL     1      31.526  20.223   6.699  1.00  0.00     0.072 C 
ATOM      6  C   UNL     1      30.962  20.328   5.285  1.00  0.00     0.012 C 
ENDBRANCH   3   5
ENDBRANCH   1   3
BRANCH   1   7
ATOM      7  C   UNL     1      30.341  21.918   8.632  1.00  0.00     0.038 C 
BRANCH   7   8
ATOM      8  C   UNL     1      29.243  22.828   8.146  1.00  0.00    -0.034 C 
ATOM      9  C   UNL     1      28.391  22.453   7.187  1.00  0.00     0.004 C 
ENDBRANCH   7   8
ENDBRANCH   1   7
TORSDOF 4
ENDMDL
MODEL 5
REMARK VINA RESULT:    -4.514      1.623      2.730
REMARK INTER + INTRA:          -5.992
REMARK INTER:                  -5.535
REMARK INTRA:                  -0.457
REMARK UNBOUND:                -0.422
REMARK SMILES C=CC[C@H](C)C(=O)CC
REMARK SMILES IDX 4 1 5 2 6 3 7 4 8 5 9 6 3 7 2 8 1 9
REMARK H PARENT
REMARK Flexibility Score: inf
ROOT
ATOM      1  C   UNL     1      30.942  23.082   8.196  1.00  0.00     0.057 C 
ATOM      2  C   UNL     1      31.299  22.096   9.317  1.00  0.00     0.016 C 
ENDROOT
BRANCH   1   3
ATOM      3  C   UNL     1      29.461  23.000   7.890  1.00  0.00     0.135 C 
ATOM      4  O   UNL     1      28.665  23.620   8.581  1.00  0.00    -0.299 OA
BRANCH   3   5
ATOM      5  C   UNL     1      28.946  22.170   6.743  1.00  0.00     0.072 C 
ATOM      6  C   UNL     1      28.581  20.765   7.214  1.00  0.00     0.012 C 
ENDBRANCH   3   5
ENDBRANCH   1   3
BRANCH   1   7
ATOM      7  C   UNL     1      31.759  22.811   6.915  1.00  0.00     0.038 C 
BRANCH   7   8
ATOM      8  C   UNL     1      32.463  21.481   6.954  1.00  0.00    -0.034 C 
ATOM      9  C   UNL     1      32.202  20.519   6.064  1.00  0.00     0.004 C 
ENDBRANCH   7   8
ENDBRANCH   1   7
TORSDOF 4
ENDMDL
MODEL 6
REMARK VINA RESULT:    -4.480      1.651      2.408
REMARK INTER + INTRA:          -5.950
REMARK INTER:                  -5.485
REMARK INTRA:                  -0.465
REMARK UNBOUND:                -0.422
REMARK SMILES C=CC[C@H](C)C(=O)CC
REMARK SMILES IDX 4 1 5 2 6 3 7 4 8 5 9 6 3 7 2 8 1 9
REMARK H PARENT
REMARK Flexibility Score: inf
ROOT
ATOM      1  C   UNL     1      31.056  20.916   6.141  1.00  0.00     0.057 C 
ATOM      2  C   UNL     1      31.718  19.875   5.228  1.00  0.00     0.016 C 
ENDROOT
BRANCH   1   3
ATOM      3  C   UNL     1      32.085  21.503   7.084  1.00  0.00     0.135 C 
ATOM      4  O   UNL     1      33.268  21.492   6.773  1.00  0.00    -0.299 OA
BRANCH   3   5
ATOM      5  C   UNL     1      31.680  22.107   8.403  1.00  0.00     0.072 C 
ATOM      6  C   UNL     1      31.262  23.564   8.224  1.00  0.00     0.012 C 
ENDBRANCH   3   5
ENDBRANCH   1   3
BRANCH   1   7
ATOM      7  C   UNL     1      29.889  20.309   6.948  1.00  0.00     0.038 C 
BRANCH   7   8
ATOM      8  C   UNL     1      28.563  20.929   6.595  1.00  0.00    -0.034 C 
ATOM      9  C   UNL     1      28.480  22.124   6.002  1.00  0.00     0.004 C 
ENDBRANCH   7   8
ENDBRANCH   1   7
TORSDOF 4
ENDMDL
MODEL 7
REMARK VINA RESULT:    -4.370      1.716      3.117
REMARK INTER + INTRA:          -5.814
REMARK INTER:                  -5.573
REMARK INTRA:                  -0.240
REMARK UNBOUND:                -0.422
REMARK SMILES C=CC[C@H](C)C(=O)CC
REMARK SMILES IDX 4 1 5 2 6 3 7 4 8 5 9 6 3 7 2 8 1 9
REMARK H PARENT
REMARK Flexibility Score: inf
ROOT
ATOM      1  C   UNL     1      30.924  20.789   6.783  1.00  0.00     0.057 C 
ATOM      2  C   UNL     1      30.484  20.317   5.390  1.00  0.00     0.016 C 
ENDROOT
BRANCH   1   3
ATOM      3  C   UNL     1      29.708  21.096   7.631  1.00  0.00     0.135 C 
ATOM      4  O   UNL     1      28.669  20.478   7.446  1.00  0.00    -0.299 OA
BRANCH   3   5
ATOM      5  C   UNL     1      29.753  22.148   8.708  1.00  0.00     0.072 C 
ATOM      6  C   UNL     1      28.851  23.326   8.349  1.00  0.00     0.012 C 
ENDBRANCH   3   5
ENDBRANCH   1   3
BRANCH   1   7
ATOM      7  C   UNL     1      31.836  22.031   6.704  1.00  0.00     0.038 C 
BRANCH   7   8
ATOM      8  C   UNL     1      33.288  21.667   6.536  1.00  0.00    -0.034 C 
ATOM      9  C   UNL     1      34.101  21.512   7.585  1.00  0.00     0.004 C 
ENDBRANCH   7   8
ENDBRANCH   1   7
TORSDOF 4
ENDMDL
MODEL 8
REMARK VINA RESULT:    -4.285      1.028      2.944
REMARK INTER + INTRA:          -5.709
REMARK INTER:                  -5.246
REMARK INTRA:                  -0.463
REMARK UNBOUND:                -0.422
REMARK SMILES C=CC[C@H](C)C(=O)CC
REMARK SMILES IDX 4 1 5 2 6 3 7 4 8 5 9 6 3 7 2 8 1 9
REMARK H PARENT
REMARK Flexibility Score: inf
ROOT
ATOM      1  C   UNL     1      29.799  22.345   8.470  1.00  0.00     0.057 C 
ATOM      2  C   UNL     1      28.803  23.501   8.304  1.00  0.00     0.016 C 
ENDROOT
BRANCH   1   3
ATOM      3  C   UNL     1      31.170  22.773   7.991  1.00  0.00     0.135 C 
ATOM      4  O   UNL     1      31.326  23.893   7.525  1.00  0.00    -0.299 OA
BRANCH   3   5
ATOM      5  C   UNL     1      32.353  21.846   8.082  1.00  0.00     0.072 C 
ATOM      6  C   UNL     1      33.096  21.786   6.751  1.00  0.00     0.012 C 
ENDBRANCH   3   5
ENDBRANCH   1   3
BRANCH   1   7
ATOM      7  C   UNL     1      29.345  21.085   7.704  1.00  0.00     0.038 C 
BRANCH   7   8
ATOM      8  C   UNL     1      29.257  21.316   6.219  1.00  0.00    -0.034 C 
ATOM      9  C   UNL     1      29.837  20.492   5.342  1.00  0.00     0.004 C 
ENDBRANCH   7   8
ENDBRANCH   1   7
TORSDOF 4
ENDMDL
