MODEL 1
REMARK VINA RESULT:    -5.611      0.000      0.000
REMARK INTER + INTRA:         -11.445
REMARK INTER:                  -9.876
REMARK INTRA:                  -1.569
REMARK UNBOUND:                -1.569
REMARK SMILES CCCCCCC=CCCCCCCCC(=O)[O-]
REMARK SMILES IDX 10 1 11 2 12 3 13 4 14 5 15 6 16 7 17 8 18 9 9 10 8 11 7 12
REMARK SMILES IDX 6 13 5 14 4 15 3 16 2 17 1 18
REMARK H PARENT
REMARK Flexibility Score: inf
ROOT
ATOM      1  C   UNL     1      41.376  42.138  15.309  1.00  0.00     0.004 C 
ENDROOT
BRANCH   1   2
ATOM      2  C   UNL     1      40.762  42.975  16.441  1.00  0.00     0.000 C 
BRANCH   2   3
ATOM      3  C   UNL     1      40.284  42.121  17.629  1.00  0.00     0.000 C 
BRANCH   3   4
ATOM      4  C   UNL     1      40.891  40.707  17.699  1.00  0.00     0.000 C 
BRANCH   4   5
ATOM      5  C   UNL     1      41.807  40.509  18.918  1.00  0.00     0.006 C 
BRANCH   5   6
ATOM      6  C   UNL     1      42.788  41.675  19.100  1.00  0.00     0.053 C 
BRANCH   6   7
ATOM      7  C   UNL     1      42.606  42.352  20.424  1.00  0.00     0.041 C 
ATOM      8  O   UNL     1      41.469  42.388  20.965  1.00  0.00    -0.550 OA
ATOM      9  O   UNL     1      43.698  42.908  21.078  1.00  0.00    -0.550 OA
ENDBRANCH   6   7
ENDBRANCH   5   6
ENDBRANCH   4   5
ENDBRANCH   3   4
ENDBRANCH   2   3
ENDBRANCH   1   2
BRANCH   1  10
ATOM     10  C   UNL     1      42.848  42.502  15.092  1.00  0.00     0.027 C 
BRANCH  10  11
ATOM     11  C   UNL     1      43.637  41.314  14.613  1.00  0.00    -0.031 C 
ATOM     12  C   UNL     1      43.348  40.080  15.051  1.00  0.00    -0.031 C 
BRANCH  12  13
ATOM     13  C   UNL     1      44.133  38.879  14.598  1.00  0.00     0.027 C 
BRANCH  13  14
ATOM     14  C   UNL     1      43.408  38.139  13.464  1.00  0.00     0.004 C 
BRANCH  14  15
ATOM     15  C   UNL     1      42.485  37.018  13.976  1.00  0.00     0.000 C 
BRANCH  15  16
ATOM     16  C   UNL     1      41.033  37.077  13.459  1.00  0.00    -0.000 C 
BRANCH  16  17
ATOM     17  C   UNL     1      40.400  38.480  13.461  1.00  0.00    -0.003 C 
ATOM     18  C   UNL     1      39.378  38.673  12.341  1.00  0.00     0.004 C 
ENDBRANCH  16  17
ENDBRANCH  15  16
ENDBRANCH  14  15
ENDBRANCH  13  14
ENDBRANCH  12  13
ENDBRANCH  10  11
ENDBRANCH   1  10
TORSDOF 13
ENDMDL
MODEL 2
REMARK VINA RESULT:    -5.523      2.244      3.193
REMARK INTER + INTRA:         -11.289
REMARK INTER:                  -9.378
REMARK INTRA:                  -1.911
REMARK UNBOUND:                -1.569
REMARK SMILES CCCCCCC=CCCCCCCCC(=O)[O-]
REMARK SMILES IDX 10 1 11 2 12 3 13 4 14 5 15 6 16 7 17 8 18 9 9 10 8 11 7 12
REMARK SMILES IDX 6 13 5 14 4 15 3 16 2 17 1 18
REMARK H PARENT
REMARK Flexibility Score: inf
ROOT
ATOM      1  C   UNL     1      40.502  41.125  17.610  1.00  0.00     0.004 C 
ENDROOT
BRANCH   1   2
ATOM      2  C   UNL     1      41.696  40.622  18.433  1.00  0.00     0.000 C 
BRANCH   2   3
ATOM      3  C   UNL     1      42.420  41.747  19.193  1.00  0.00     0.000 C 
BRANCH   3   4
ATOM      4  C   UNL     1      43.555  42.433  18.411  1.00  0.00     0.000 C 
BRANCH   4   5
ATOM      5  C   UNL     1      43.216  43.879  18.010  1.00  0.00     0.006 C 
BRANCH   5   6
ATOM      6  C   UNL     1      42.874  44.001  16.519  1.00  0.00     0.053 C 
BRANCH   6   7
ATOM      7  C   UNL     1      41.718  44.925  16.289  1.00  0.00     0.041 C 
ATOM      8  O   UNL     1      41.842  46.160  16.499  1.00  0.00    -0.550 OA
ATOM      9  O   UNL     1      40.514  44.427  15.807  1.00  0.00    -0.550 OA
ENDBRANCH   6   7
ENDBRANCH   5   6
ENDBRANCH   4   5
ENDBRANCH   3   4
ENDBRANCH   2   3
ENDBRANCH   1   2
BRANCH   1  10
ATOM     10  C   UNL     1      40.779  41.003  16.108  1.00  0.00     0.027 C 
BRANCH  10  11
ATOM     11  C   UNL     1      42.038  40.220  15.849  1.00  0.00    -0.031 C 
ATOM     12  C   UNL     1      42.973  40.688  15.009  1.00  0.00    -0.031 C 
BRANCH  12  13
ATOM     13  C   UNL     1      44.231  39.916  14.722  1.00  0.00     0.027 C 
BRANCH  13  14
ATOM     14  C   UNL     1      43.947  38.410  14.620  1.00  0.00     0.004 C 
BRANCH  14  15
ATOM     15  C   UNL     1      43.100  38.044  13.387  1.00  0.00     0.000 C 
BRANCH  15  16
ATOM     16  C   UNL     1      42.211  36.794  13.549  1.00  0.00    -0.000 C 
BRANCH  16  17
ATOM     17  C   UNL     1      40.697  37.059  13.474  1.00  0.00    -0.003 C 
ATOM     18  C   UNL     1      40.363  38.500  13.095  1.00  0.00     0.004 C 
ENDBRANCH  16  17
ENDBRANCH  15  16
ENDBRANCH  14  15
ENDBRANCH  13  14
ENDBRANCH  12  13
ENDBRANCH  10  11
ENDBRANCH   1  10
TORSDOF 13
ENDMDL
MODEL 3
REMARK VINA RESULT:    -5.464      2.256      2.867
REMARK INTER + INTRA:         -11.185
REMARK INTER:                  -9.160
REMARK INTRA:                  -2.025
REMARK UNBOUND:                -1.569
REMARK SMILES CCCCCCC=CCCCCCCCC(=O)[O-]
REMARK SMILES IDX 10 1 11 2 12 3 13 4 14 5 15 6 16 7 17 8 18 9 9 10 8 11 7 12
REMARK SMILES IDX 6 13 5 14 4 15 3 16 2 17 1 18
REMARK H PARENT
REMARK Flexibility Score: inf
ROOT
ATOM      1  C   UNL     1      40.690  40.699  16.786  1.00  0.00     0.004 C 
ENDROOT
BRANCH   1   2
ATOM      2  C   UNL     1      40.730  41.669  17.975  1.00  0.00     0.000 C 
BRANCH   2   3
ATOM      3  C   UNL     1      42.010  41.536  18.818  1.00  0.00     0.000 C 
BRANCH   3   4
ATOM      4  C   UNL     1      43.273  42.143  18.180  1.00  0.00     0.000 C 
BRANCH   4   5
ATOM      5  C   UNL     1      43.186  43.670  18.016  1.00  0.00     0.006 C 
BRANCH   5   6
ATOM      6  C   UNL     1      43.172  44.094  16.541  1.00  0.00     0.053 C 
BRANCH   6   7
ATOM      7  C   UNL     1      42.114  45.118  16.268  1.00  0.00     0.041 C 
ATOM      8  O   UNL     1      40.907  44.772  16.176  1.00  0.00    -0.550 OA
ATOM      9  O   UNL     1      42.457  46.459  16.154  1.00  0.00    -0.550 OA
ENDBRANCH   6   7
ENDBRANCH   5   6
ENDBRANCH   4   5
ENDBRANCH   3   4
ENDBRANCH   2   3
ENDBRANCH   1   2
BRANCH   1  10
ATOM     10  C   UNL     1      40.916  41.440  15.464  1.00  0.00     0.027 C 
BRANCH  10  11
ATOM     11  C   UNL     1      42.149  40.938  14.763  1.00  0.00    -0.031 C 
ATOM     12  C   UNL     1      42.863  39.926  15.277  1.00  0.00    -0.031 C 
BRANCH  12  13
ATOM     13  C   UNL     1      44.107  39.417  14.603  1.00  0.00     0.027 C 
BRANCH  13  14
ATOM     14  C   UNL     1      43.779  38.290  13.611  1.00  0.00     0.004 C 
BRANCH  14  15
ATOM     15  C   UNL     1      42.705  37.323  14.141  1.00  0.00     0.000 C 
BRANCH  15  16
ATOM     16  C   UNL     1      41.452  37.185  13.253  1.00  0.00    -0.000 C 
BRANCH  16  17
ATOM     17  C   UNL     1      40.283  38.112  13.632  1.00  0.00    -0.003 C 
ATOM     18  C   UNL     1      39.552  38.676  12.415  1.00  0.00     0.004 C 
ENDBRANCH  16  17
ENDBRANCH  15  16
ENDBRANCH  14  15
ENDBRANCH  13  14
ENDBRANCH  12  13
ENDBRANCH  10  11
ENDBRANCH   1  10
TORSDOF 13
ENDMDL
MODEL 4
REMARK VINA RESULT:    -5.460      2.680      3.765
REMARK INTER + INTRA:         -11.178
REMARK INTER:                  -9.119
REMARK INTRA:                  -2.059
REMARK UNBOUND:                -1.569
REMARK SMILES CCCCCCC=CCCCCCCCC(=O)[O-]
REMARK SMILES IDX 10 1 11 2 12 3 13 4 14 5 15 6 16 7 17 8 18 9 9 10 8 11 7 12
REMARK SMILES IDX 6 13 5 14 4 15 3 16 2 17 1 18
REMARK H PARENT
REMARK Flexibility Score: inf
ROOT
ATOM      1  C   UNL     1      41.381  40.699  18.347  1.00  0.00     0.004 C 
ENDROOT
BRANCH   1   2
ATOM      2  C   UNL     1      41.564  42.143  18.834  1.00  0.00     0.000 C 
BRANCH   2   3
ATOM      3  C   UNL     1      43.003  42.660  18.660  1.00  0.00     0.000 C 
BRANCH   3   4
ATOM      4  C   UNL     1      43.226  43.556  17.427  1.00  0.00     0.000 C 
BRANCH   4   5
ATOM      5  C   UNL     1      41.918  44.145  16.872  1.00  0.00     0.006 C 
BRANCH   5   6
ATOM      6  C   UNL     1      41.728  43.830  15.381  1.00  0.00     0.053 C 
BRANCH   6   7
ATOM      7  C   UNL     1      42.865  44.350  14.556  1.00  0.00     0.041 C 
ATOM      8  O   UNL     1      43.471  43.585  13.760  1.00  0.00    -0.550 OA
ATOM      9  O   UNL     1      43.229  45.687  14.637  1.00  0.00    -0.550 OA
ENDBRANCH   6   7
ENDBRANCH   5   6
ENDBRANCH   4   5
ENDBRANCH   3   4
ENDBRANCH   2   3
ENDBRANCH   1   2
BRANCH   1  10
ATOM     10  C   UNL     1      40.458  40.643  17.125  1.00  0.00     0.027 C 
BRANCH  10  11
ATOM     11  C   UNL     1      41.247  40.488  15.854  1.00  0.00    -0.031 C 
ATOM     12  C   UNL     1      42.568  40.263  15.892  1.00  0.00    -0.031 C 
BRANCH  12  13
ATOM     13  C   UNL     1      43.381  40.121  14.635  1.00  0.00     0.027 C 
BRANCH  13  14
ATOM     14  C   UNL     1      43.779  38.656  14.395  1.00  0.00     0.004 C 
BRANCH  14  15
ATOM     15  C   UNL     1      43.021  38.016  13.218  1.00  0.00     0.000 C 
BRANCH  15  16
ATOM     16  C   UNL     1      42.105  36.834  13.594  1.00  0.00    -0.000 C 
BRANCH  16  17
ATOM     17  C   UNL     1      40.597  37.117  13.477  1.00  0.00    -0.003 C 
ATOM     18  C   UNL     1      40.294  38.511  12.930  1.00  0.00     0.004 C 
ENDBRANCH  16  17
ENDBRANCH  15  16
ENDBRANCH  14  15
ENDBRANCH  13  14
ENDBRANCH  12  13
ENDBRANCH  10  11
ENDBRANCH   1  10
TORSDOF 13
ENDMDL
MODEL 5
REMARK VINA RESULT:    -5.364      1.408      1.987
REMARK INTER + INTRA:         -11.010
REMARK INTER:                  -9.622
REMARK INTRA:                  -1.388
REMARK UNBOUND:                -1.569
REMARK SMILES CCCCCCC=CCCCCCCCC(=O)[O-]
REMARK SMILES IDX 10 1 11 2 12 3 13 4 14 5 15 6 16 7 17 8 18 9 9 10 8 11 7 12
REMARK SMILES IDX 6 13 5 14 4 15 3 16 2 17 1 18
REMARK H PARENT
REMARK Flexibility Score: inf
ROOT
ATOM      1  C   UNL     1      41.209  42.505  15.527  1.00  0.00     0.004 C 
ENDROOT
BRANCH   1   2
ATOM      2  C   UNL     1      41.286  43.693  16.498  1.00  0.00     0.000 C 
BRANCH   2   3
ATOM      3  C   UNL     1      42.727  44.168  16.755  1.00  0.00     0.000 C 
BRANCH   3   4
ATOM      4  C   UNL     1      43.278  43.842  18.155  1.00  0.00     0.000 C 
BRANCH   4   5
ATOM      5  C   UNL     1      43.336  42.331  18.438  1.00  0.00     0.006 C 
BRANCH   5   6
ATOM      6  C   UNL     1      42.410  41.923  19.592  1.00  0.00     0.053 C 
BRANCH   6   7
ATOM      7  C   UNL     1      41.766  40.594  19.344  1.00  0.00     0.041 C 
ATOM      8  O   UNL     1      41.832  39.686  20.214  1.00  0.00    -0.550 OA
ATOM      9  O   UNL     1      41.063  40.370  18.168  1.00  0.00    -0.550 OA
ENDBRANCH   6   7
ENDBRANCH   5   6
ENDBRANCH   4   5
ENDBRANCH   3   4
ENDBRANCH   2   3
ENDBRANCH   1   2
BRANCH   1  10
ATOM     10  C   UNL     1      42.601  42.126  15.012  1.00  0.00     0.027 C 
BRANCH  10  11
ATOM     11  C   UNL     1      42.764  40.632  14.934  1.00  0.00    -0.031 C 
ATOM     12  C   UNL     1      43.960  40.088  14.667  1.00  0.00    -0.031 C 
BRANCH  12  13
ATOM     13  C   UNL     1      44.144  38.598  14.568  1.00  0.00     0.027 C 
BRANCH  13  14
ATOM     14  C   UNL     1      43.332  38.016  13.401  1.00  0.00     0.004 C 
BRANCH  14  15
ATOM     15  C   UNL     1      42.409  36.862  13.833  1.00  0.00     0.000 C 
BRANCH  15  16
ATOM     16  C   UNL     1      40.934  37.009  13.406  1.00  0.00    -0.000 C 
BRANCH  16  17
ATOM     17  C   UNL     1      40.375  38.440  13.484  1.00  0.00    -0.003 C 
ATOM     18  C   UNL     1      39.438  38.777  12.326  1.00  0.00     0.004 C 
ENDBRANCH  16  17
ENDBRANCH  15  16
ENDBRANCH  14  15
ENDBRANCH  13  14
ENDBRANCH  12  13
ENDBRANCH  10  11
ENDBRANCH   1  10
TORSDOF 13
ENDMDL
MODEL 6
REMARK VINA RESULT:    -5.277      1.591      2.651
REMARK INTER + INTRA:         -10.857
REMARK INTER:                  -9.584
REMARK INTRA:                  -1.273
REMARK UNBOUND:                -1.569
REMARK SMILES CCCCCCC=CCCCCCCCC(=O)[O-]
REMARK SMILES IDX 10 1 11 2 12 3 13 4 14 5 15 6 16 7 17 8 18 9 9 10 8 11 7 12
REMARK SMILES IDX 6 13 5 14 4 15 3 16 2 17 1 18
REMARK H PARENT
REMARK Flexibility Score: inf
ROOT
ATOM      1  C   UNL     1      40.665  41.124  17.987  1.00  0.00     0.004 C 
ENDROOT
BRANCH   1   2
ATOM      2  C   UNL     1      41.737  40.274  18.685  1.00  0.00     0.000 C 
BRANCH   2   3
ATOM      3  C   UNL     1      41.998  40.710  20.138  1.00  0.00     0.000 C 
BRANCH   3   4
ATOM      4  C   UNL     1      42.039  42.233  20.362  1.00  0.00     0.000 C 
BRANCH   4   5
ATOM      5  C   UNL     1      43.414  42.847  20.050  1.00  0.00     0.006 C 
BRANCH   5   6
ATOM      6  C   UNL     1      44.153  43.287  21.321  1.00  0.00     0.053 C 
BRANCH   6   7
ATOM      7  C   UNL     1      44.414  44.762  21.328  1.00  0.00     0.041 C 
ATOM      8  O   UNL     1      44.839  45.334  20.290  1.00  0.00    -0.550 OA
ATOM      9  O   UNL     1      44.153  45.510  22.469  1.00  0.00    -0.550 OA
ENDBRANCH   6   7
ENDBRANCH   5   6
ENDBRANCH   4   5
ENDBRANCH   3   4
ENDBRANCH   2   3
ENDBRANCH   1   2
BRANCH   1  10
ATOM     10  C   UNL     1      40.805  41.042  16.463  1.00  0.00     0.027 C 
BRANCH  10  11
ATOM     11  C   UNL     1      42.054  40.300  16.071  1.00  0.00    -0.031 C 
ATOM     12  C   UNL     1      42.840  40.759  15.086  1.00  0.00    -0.031 C 
BRANCH  12  13
ATOM     13  C   UNL     1      44.084  40.026  14.666  1.00  0.00     0.027 C 
BRANCH  13  14
ATOM     14  C   UNL     1      43.859  38.507  14.664  1.00  0.00     0.004 C 
BRANCH  14  15
ATOM     15  C   UNL     1      43.112  38.016  13.410  1.00  0.00     0.000 C 
BRANCH  15  16
ATOM     16  C   UNL     1      42.183  36.805  13.633  1.00  0.00    -0.000 C 
BRANCH  16  17
ATOM     17  C   UNL     1      40.680  37.107  13.504  1.00  0.00    -0.003 C 
ATOM     18  C   UNL     1      40.391  38.578  13.210  1.00  0.00     0.004 C 
ENDBRANCH  16  17
ENDBRANCH  15  16
ENDBRANCH  14  15
ENDBRANCH  13  14
ENDBRANCH  12  13
ENDBRANCH  10  11
ENDBRANCH   1  10
TORSDOF 13
ENDMDL
MODEL 7
REMARK VINA RESULT:    -5.132      2.841      4.226
REMARK INTER + INTRA:         -10.602
REMARK INTER:                  -9.181
REMARK INTRA:                  -1.421
REMARK UNBOUND:                -1.569
REMARK SMILES CCCCCCC=CCCCCCCCC(=O)[O-]
REMARK SMILES IDX 10 1 11 2 12 3 13 4 14 5 15 6 16 7 17 8 18 9 9 10 8 11 7 12
REMARK SMILES IDX 6 13 5 14 4 15 3 16 2 17 1 18
REMARK H PARENT
REMARK Flexibility Score: inf
ROOT
ATOM      1  C   UNL     1      42.201  41.867  19.468  1.00  0.00     0.004 C 
ENDROOT
BRANCH   1   2
ATOM      2  C   UNL     1      43.321  42.323  18.521  1.00  0.00     0.000 C 
BRANCH   2   3
ATOM      3  C   UNL     1      43.175  43.791  18.081  1.00  0.00     0.000 C 
BRANCH   3   4
ATOM      4  C   UNL     1      42.792  43.990  16.603  1.00  0.00     0.000 C 
BRANCH   4   5
ATOM      5  C   UNL     1      41.342  44.468  16.419  1.00  0.00     0.006 C 
BRANCH   5   6
ATOM      6  C   UNL     1      41.239  45.638  15.432  1.00  0.00     0.053 C 
BRANCH   6   7
ATOM      7  C   UNL     1      42.023  46.826  15.897  1.00  0.00     0.041 C 
ATOM      8  O   UNL     1      43.046  47.196  15.263  1.00  0.00    -0.550 OA
ATOM      9  O   UNL     1      41.603  47.547  17.007  1.00  0.00    -0.550 OA
ENDBRANCH   6   7
ENDBRANCH   5   6
ENDBRANCH   4   5
ENDBRANCH   3   4
ENDBRANCH   2   3
ENDBRANCH   1   2
BRANCH   1  10
ATOM     10  C   UNL     1      41.454  40.659  18.893  1.00  0.00     0.027 C 
BRANCH  10  11
ATOM     11  C   UNL     1      41.720  40.505  17.420  1.00  0.00    -0.031 C 
ATOM     12  C   UNL     1      40.757  40.754  16.521  1.00  0.00    -0.031 C 
BRANCH  12  13
ATOM     13  C   UNL     1      40.995  40.592  15.045  1.00  0.00     0.027 C 
BRANCH  13  14
ATOM     14  C   UNL     1      42.031  39.491  14.769  1.00  0.00     0.004 C 
BRANCH  14  15
ATOM     15  C   UNL     1      41.618  38.558  13.616  1.00  0.00     0.000 C 
BRANCH  15  16
ATOM     16  C   UNL     1      40.105  38.279  13.510  1.00  0.00    -0.000 C 
BRANCH  16  17
ATOM     17  C   UNL     1      39.447  38.751  12.202  1.00  0.00    -0.003 C 
ATOM     18  C   UNL     1      38.373  37.791  11.694  1.00  0.00     0.004 C 
ENDBRANCH  16  17
ENDBRANCH  15  16
ENDBRANCH  14  15
ENDBRANCH  13  14
ENDBRANCH  12  13
ENDBRANCH  10  11
ENDBRANCH   1  10
TORSDOF 13
ENDMDL
MODEL 8
REMARK VINA RESULT:    -4.858      2.492      4.562
REMARK INTER + INTRA:         -10.120
REMARK INTER:                  -8.675
REMARK INTRA:                  -1.445
REMARK UNBOUND:                -1.569
REMARK SMILES CCCCCCC=CCCCCCCCC(=O)[O-]
REMARK SMILES IDX 10 1 11 2 12 3 13 4 14 5 15 6 16 7 17 8 18 9 9 10 8 11 7 12
REMARK SMILES IDX 6 13 5 14 4 15 3 16 2 17 1 18
REMARK H PARENT
REMARK Flexibility Score: inf
ROOT
ATOM      1  C   UNL     1      41.801  41.890  20.566  1.00  0.00     0.004 C 
ENDROOT
BRANCH   1   2
ATOM      2  C   UNL     1      43.056  42.774  20.590  1.00  0.00     0.000 C 
BRANCH   2   3
ATOM      3  C   UNL     1      43.751  42.868  19.220  1.00  0.00     0.000 C 
BRANCH   3   4
ATOM      4  C   UNL     1      43.448  44.152  18.425  1.00  0.00     0.000 C 
BRANCH   4   5
ATOM      5  C   UNL     1      43.105  43.877  16.951  1.00  0.00     0.006 C 
BRANCH   5   6
ATOM      6  C   UNL     1      42.681  45.151  16.208  1.00  0.00     0.053 C 
BRANCH   6   7
ATOM      7  C   UNL     1      41.219  45.141  15.882  1.00  0.00     0.041 C 
ATOM      8  O   UNL     1      40.684  46.147  15.346  1.00  0.00    -0.550 OA
ATOM      9  O   UNL     1      40.456  44.009  16.136  1.00  0.00    -0.550 OA
ENDBRANCH   6   7
ENDBRANCH   5   6
ENDBRANCH   4   5
ENDBRANCH   3   4
ENDBRANCH   2   3
ENDBRANCH   1   2
BRANCH   1  10
ATOM     10  C   UNL     1      42.120  40.494  20.022  1.00  0.00     0.027 C 
BRANCH  10  11
ATOM     11  C   UNL     1      41.263  40.166  18.830  1.00  0.00    -0.031 C 
ATOM     12  C   UNL     1      41.346  40.894  17.707  1.00  0.00    -0.031 C 
BRANCH  12  13
ATOM     13  C   UNL     1      40.489  40.595  16.508  1.00  0.00     0.027 C 
BRANCH  13  14
ATOM     14  C   UNL     1      41.308  40.664  15.210  1.00  0.00     0.004 C 
BRANCH  14  15
ATOM     15  C   UNL     1      42.789  40.298  15.418  1.00  0.00     0.000 C 
BRANCH  15  16
ATOM     16  C   UNL     1      43.259  39.027  14.681  1.00  0.00    -0.000 C 
BRANCH  16  17
ATOM     17  C   UNL     1      42.178  38.329  13.836  1.00  0.00    -0.003 C 
ATOM     18  C   UNL     1      42.479  36.852  13.587  1.00  0.00     0.004 C 
ENDBRANCH  16  17
ENDBRANCH  15  16
ENDBRANCH  14  15
ENDBRANCH  13  14
ENDBRANCH  12  13
ENDBRANCH  10  11
ENDBRANCH   1  10
TORSDOF 13
ENDMDL
MODEL 9
REMARK VINA RESULT:    -4.851     10.879     12.959
REMARK INTER + INTRA:         -10.106
REMARK INTER:                  -9.437
REMARK INTRA:                  -0.669
REMARK UNBOUND:                -1.569
REMARK SMILES CCCCCCC=CCCCCCCCC(=O)[O-]
REMARK SMILES IDX 10 1 11 2 12 3 13 4 14 5 15 6 16 7 17 8 18 9 9 10 8 11 7 12
REMARK SMILES IDX 6 13 5 14 4 15 3 16 2 17 1 18
REMARK H PARENT
REMARK Flexibility Score: inf
ROOT
ATOM      1  C   UNL     1      40.918  29.938  15.386  1.00  0.00     0.004 C 
ENDROOT
BRANCH   1   2
ATOM      2  C   UNL     1      40.828  29.518  13.912  1.00  0.00     0.000 C 
BRANCH   2   3
ATOM      3  C   UNL     1      39.379  29.403  13.406  1.00  0.00     0.000 C 
BRANCH   3   4
ATOM      4  C   UNL     1      38.327  30.109  14.282  1.00  0.00     0.000 C 
BRANCH   4   5
ATOM      5  C   UNL     1      37.468  31.112  13.494  1.00  0.00     0.006 C 
BRANCH   5   6
ATOM      6  C   UNL     1      36.258  31.599  14.304  1.00  0.00     0.053 C 
BRANCH   6   7
ATOM      7  C   UNL     1      34.984  31.476  13.526  1.00  0.00     0.041 C 
ATOM      8  O   UNL     1      34.517  30.339  13.252  1.00  0.00    -0.550 OA
ATOM      9  O   UNL     1      34.294  32.616  13.136  1.00  0.00    -0.550 OA
ENDBRANCH   6   7
ENDBRANCH   5   6
ENDBRANCH   4   5
ENDBRANCH   3   4
ENDBRANCH   2   3
ENDBRANCH   1   2
BRANCH   1  10
ATOM     10  C   UNL     1      42.312  30.479  15.720  1.00  0.00     0.027 C 
BRANCH  10  11
ATOM     11  C   UNL     1      42.985  29.637  16.769  1.00  0.00    -0.031 C 
ATOM     12  C   UNL     1      42.368  29.367  17.928  1.00  0.00    -0.031 C 
BRANCH  12  13
ATOM     13  C   UNL     1      43.027  28.541  18.998  1.00  0.00     0.027 C 
BRANCH  13  14
ATOM     14  C   UNL     1      44.434  29.069  19.318  1.00  0.00     0.004 C 
BRANCH  14  15
ATOM     15  C   UNL     1      44.648  29.325  20.821  1.00  0.00     0.000 C 
BRANCH  15  16
ATOM     16  C   UNL     1      43.986  28.297  21.761  1.00  0.00    -0.000 C 
BRANCH  16  17
ATOM     17  C   UNL     1      43.930  28.712  23.242  1.00  0.00    -0.003 C 
ATOM     18  C   UNL     1      43.506  30.167  23.437  1.00  0.00     0.004 C 
ENDBRANCH  16  17
ENDBRANCH  15  16
ENDBRANCH  14  15
ENDBRANCH  13  14
ENDBRANCH  12  13
ENDBRANCH  10  11
ENDBRANCH   1  10
TORSDOF 13
ENDMDL
