MODEL 1
REMARK VINA RESULT:    -4.285      0.000      0.000
REMARK INTER + INTRA:          -5.870
REMARK INTER:                  -5.663
REMARK INTRA:                  -0.207
REMARK UNBOUND:                -0.207
REMARK SMILES CCCCCCCO
REMARK SMILES IDX 5 1 4 2 3 3 2 4 1 5 6 6 7 7 8 8
REMARK H PARENT 8 9
REMARK Flexibility Score: inf
ROOT
ATOM      1  C   UNL     1       1.617  -6.299  -0.727  1.00  0.00     0.002 C 
ENDROOT
BRANCH   1   2
ATOM      2  C   UNL     1       2.047  -7.774  -0.804  1.00  0.00     0.000 C 
BRANCH   2   3
ATOM      3  C   UNL     1       1.108  -8.704  -0.019  1.00  0.00    -0.000 C 
BRANCH   3   4
ATOM      4  C   UNL     1      -0.362  -8.553  -0.436  1.00  0.00    -0.003 C 
ATOM      5  C   UNL     1      -1.277  -8.509   0.785  1.00  0.00     0.004 C 
ENDBRANCH   3   4
ENDBRANCH   2   3
ENDBRANCH   1   2
BRANCH   1   6
ATOM      6  C   UNL     1       1.811  -5.559  -2.060  1.00  0.00     0.028 C 
BRANCH   6   7
ATOM      7  C   UNL     1       3.052  -6.030  -2.829  1.00  0.00     0.156 C 
BRANCH   7   8
ATOM      8  O   UNL     1       2.698  -6.403  -4.133  1.00  0.00    -0.396 OA
ATOM      9  H   UNL     1       2.414  -7.354  -4.089  1.00  0.00     0.210 HD
ENDBRANCH   7   8
ENDBRANCH   6   7
ENDBRANCH   1   6
TORSDOF 6
ENDMDL
MODEL 2
REMARK VINA RESULT:    -4.221      2.283      4.374
REMARK INTER + INTRA:          -5.785
REMARK INTER:                  -5.567
REMARK INTRA:                  -0.218
REMARK UNBOUND:                -0.207
REMARK SMILES CCCCCCCO
REMARK SMILES IDX 5 1 4 2 3 3 2 4 1 5 6 6 7 7 8 8
REMARK H PARENT 8 9
REMARK Flexibility Score: inf
ROOT
ATOM      1  C   UNL     1       1.691  -8.613  -0.331  1.00  0.00     0.002 C 
ENDROOT
BRANCH   1   2
ATOM      2  C   UNL     1       2.744  -7.562  -0.723  1.00  0.00     0.000 C 
BRANCH   2   3
ATOM      3  C   UNL     1       2.182  -6.131  -0.715  1.00  0.00    -0.000 C 
BRANCH   3   4
ATOM      4  C   UNL     1       2.165  -5.492  -2.111  1.00  0.00    -0.003 C 
ATOM      5  C   UNL     1       3.215  -6.127  -3.019  1.00  0.00     0.004 C 
ENDBRANCH   3   4
ENDBRANCH   2   3
ENDBRANCH   1   2
BRANCH   1   6
ATOM      6  C   UNL     1       0.311  -7.993  -0.061  1.00  0.00     0.028 C 
BRANCH   6   7
ATOM      7  C   UNL     1      -0.845  -8.949  -0.382  1.00  0.00     0.156 C 
BRANCH   7   8
ATOM      8  O   UNL     1      -0.376 -10.269  -0.441  1.00  0.00    -0.396 OA
ATOM      9  H   UNL     1      -0.227 -10.475  -1.401  1.00  0.00     0.210 HD
ENDBRANCH   7   8
ENDBRANCH   6   7
ENDBRANCH   1   6
TORSDOF 6
ENDMDL
MODEL 3
REMARK VINA RESULT:    -4.218      2.882      4.586
REMARK INTER + INTRA:          -5.782
REMARK INTER:                  -5.511
REMARK INTRA:                  -0.271
REMARK UNBOUND:                -0.207
REMARK SMILES CCCCCCCO
REMARK SMILES IDX 5 1 4 2 3 3 2 4 1 5 6 6 7 7 8 8
REMARK H PARENT 8 9
REMARK Flexibility Score: inf
ROOT
ATOM      1  C   UNL     1       1.828  -8.981  -0.376  1.00  0.00     0.002 C 
ENDROOT
BRANCH   1   2
ATOM      2  C   UNL     1       1.004  -7.690  -0.516  1.00  0.00     0.000 C 
BRANCH   2   3
ATOM      3  C   UNL     1       1.883  -6.430  -0.560  1.00  0.00    -0.000 C 
BRANCH   3   4
ATOM      4  C   UNL     1       1.730  -5.646  -1.872  1.00  0.00    -0.003 C 
ATOM      5  C   UNL     1       2.853  -5.984  -2.848  1.00  0.00     0.004 C 
ENDBRANCH   3   4
ENDBRANCH   2   3
ENDBRANCH   1   2
BRANCH   1   6
ATOM      6  C   UNL     1       3.187  -8.743   0.301  1.00  0.00     0.028 C 
BRANCH   6   7
ATOM      7  C   UNL     1       3.376  -9.582   1.571  1.00  0.00     0.156 C 
BRANCH   7   8
ATOM      8  O   UNL     1       2.386  -9.265   2.511  1.00  0.00    -0.396 OA
ATOM      9  H   UNL     1       1.679  -8.767   2.021  1.00  0.00     0.210 HD
ENDBRANCH   7   8
ENDBRANCH   6   7
ENDBRANCH   1   6
TORSDOF 6
ENDMDL
MODEL 4
REMARK VINA RESULT:    -4.215      7.180      8.266
REMARK INTER + INTRA:          -5.777
REMARK INTER:                  -5.510
REMARK INTRA:                  -0.267
REMARK UNBOUND:                -0.207
REMARK SMILES CCCCCCCO
REMARK SMILES IDX 5 1 4 2 3 3 2 4 1 5 6 6 7 7 8 8
REMARK H PARENT 8 9
REMARK Flexibility Score: inf
ROOT
ATOM      1  C   UNL     1      -3.603  -5.027   3.461  1.00  0.00     0.002 C 
ENDROOT
BRANCH   1   2
ATOM      2  C   UNL     1      -3.887  -6.068   2.365  1.00  0.00     0.000 C 
BRANCH   2   3
ATOM      3  C   UNL     1      -3.165  -7.402   2.616  1.00  0.00    -0.000 C 
BRANCH   3   4
ATOM      4  C   UNL     1      -4.040  -8.621   2.292  1.00  0.00    -0.003 C 
ATOM      5  C   UNL     1      -5.503  -8.219   2.127  1.00  0.00     0.004 C 
ENDBRANCH   3   4
ENDBRANCH   2   3
ENDBRANCH   1   2
BRANCH   1   6
ATOM      6  C   UNL     1      -4.888  -4.491   4.112  1.00  0.00     0.028 C 
BRANCH   6   7
ATOM      7  C   UNL     1      -5.625  -5.553   4.938  1.00  0.00     0.156 C 
BRANCH   7   8
ATOM      8  O   UNL     1      -4.947  -5.783   6.143  1.00  0.00    -0.396 OA
ATOM      9  H   UNL     1      -4.480  -4.937   6.372  1.00  0.00     0.210 HD
ENDBRANCH   7   8
ENDBRANCH   6   7
ENDBRANCH   1   6
TORSDOF 6
ENDMDL
MODEL 5
REMARK VINA RESULT:    -4.207      5.963      7.925
REMARK INTER + INTRA:          -5.767
REMARK INTER:                  -5.573
REMARK INTRA:                  -0.195
REMARK UNBOUND:                -0.207
REMARK SMILES CCCCCCCO
REMARK SMILES IDX 5 1 4 2 3 3 2 4 1 5 6 6 7 7 8 8
REMARK H PARENT 8 9
REMARK Flexibility Score: inf
ROOT
ATOM      1  C   UNL     1      -3.873  -5.732   2.691  1.00  0.00     0.002 C 
ENDROOT
BRANCH   1   2
ATOM      2  C   UNL     1      -4.650  -7.054   2.814  1.00  0.00     0.000 C 
BRANCH   2   3
ATOM      3  C   UNL     1      -3.971  -8.209   2.060  1.00  0.00    -0.000 C 
BRANCH   3   4
ATOM      4  C   UNL     1      -2.462  -8.291   2.333  1.00  0.00    -0.003 C 
ATOM      5  C   UNL     1      -1.681  -8.500   1.039  1.00  0.00     0.004 C 
ENDBRANCH   3   4
ENDBRANCH   2   3
ENDBRANCH   1   2
BRANCH   1   6
ATOM      6  C   UNL     1      -4.048  -4.830   3.923  1.00  0.00     0.028 C 
BRANCH   6   7
ATOM      7  C   UNL     1      -5.271  -5.206   4.769  1.00  0.00     0.156 C 
BRANCH   7   8
ATOM      8  O   UNL     1      -4.862  -5.679   6.024  1.00  0.00    -0.396 OA
ATOM      9  H   UNL     1      -5.257  -6.584   6.129  1.00  0.00     0.210 HD
ENDBRANCH   7   8
ENDBRANCH   6   7
ENDBRANCH   1   6
TORSDOF 6
ENDMDL
MODEL 6
REMARK VINA RESULT:    -4.144      6.536      7.878
REMARK INTER + INTRA:          -5.683
REMARK INTER:                  -5.561
REMARK INTRA:                  -0.123
REMARK UNBOUND:                -0.207
REMARK SMILES CCCCCCCO
REMARK SMILES IDX 5 1 4 2 3 3 2 4 1 5 6 6 7 7 8 8
REMARK H PARENT 8 9
REMARK Flexibility Score: inf
ROOT
ATOM      1  C   UNL     1      -3.151  -7.242   2.435  1.00  0.00     0.002 C 
ENDROOT
BRANCH   1   2
ATOM      2  C   UNL     1      -3.891  -5.895   2.504  1.00  0.00     0.000 C 
BRANCH   2   3
ATOM      3  C   UNL     1      -3.745  -5.211   3.873  1.00  0.00    -0.000 C 
BRANCH   3   4
ATOM      4  C   UNL     1      -5.072  -4.644   4.398  1.00  0.00    -0.003 C 
ATOM      5  C   UNL     1      -5.860  -5.706   5.160  1.00  0.00     0.004 C 
ENDBRANCH   3   4
ENDBRANCH   2   3
ENDBRANCH   1   2
BRANCH   1   6
ATOM      6  C   UNL     1      -3.814  -8.228   1.460  1.00  0.00     0.028 C 
BRANCH   6   7
ATOM      7  C   UNL     1      -4.768  -9.205   2.159  1.00  0.00     0.156 C 
BRANCH   7   8
ATOM      8  O   UNL     1      -4.077 -10.363   2.542  1.00  0.00    -0.396 OA
ATOM      9  H   UNL     1      -3.210 -10.349   2.059  1.00  0.00     0.210 HD
ENDBRANCH   7   8
ENDBRANCH   6   7
ENDBRANCH   1   6
TORSDOF 6
ENDMDL
MODEL 7
REMARK VINA RESULT:    -4.091      1.237      2.026
REMARK INTER + INTRA:          -5.613
REMARK INTER:                  -5.375
REMARK INTRA:                  -0.238
REMARK UNBOUND:                -0.207
REMARK SMILES CCCCCCCO
REMARK SMILES IDX 5 1 4 2 3 3 2 4 1 5 6 6 7 7 8 8
REMARK H PARENT 8 9
REMARK Flexibility Score: inf
ROOT
ATOM      1  C   UNL     1       2.020  -6.246  -0.492  1.00  0.00     0.002 C 
ENDROOT
BRANCH   1   2
ATOM      2  C   UNL     1       1.059  -7.401  -0.824  1.00  0.00     0.000 C 
BRANCH   2   3
ATOM      3  C   UNL     1       1.295  -8.637   0.059  1.00  0.00    -0.000 C 
BRANCH   3   4
ATOM      4  C   UNL     1       2.785  -8.917   0.303  1.00  0.00    -0.003 C 
ATOM      5  C   UNL     1       3.034  -9.345   1.747  1.00  0.00     0.004 C 
ENDBRANCH   3   4
ENDBRANCH   2   3
ENDBRANCH   1   2
BRANCH   1   6
ATOM      6  C   UNL     1       2.438  -5.452  -1.740  1.00  0.00     0.028 C 
BRANCH   6   7
ATOM      7  C   UNL     1       3.262  -6.286  -2.729  1.00  0.00     0.156 C 
BRANCH   7   8
ATOM      8  O   UNL     1       2.604  -6.356  -3.965  1.00  0.00    -0.396 OA
ATOM      9  H   UNL     1       1.773  -5.818  -3.876  1.00  0.00     0.210 HD
ENDBRANCH   7   8
ENDBRANCH   6   7
ENDBRANCH   1   6
TORSDOF 6
ENDMDL
MODEL 8
REMARK VINA RESULT:    -4.083      6.363      7.606
REMARK INTER + INTRA:          -5.603
REMARK INTER:                  -5.381
REMARK INTRA:                  -0.221
REMARK UNBOUND:                -0.207
REMARK SMILES CCCCCCCO
REMARK SMILES IDX 5 1 4 2 3 3 2 4 1 5 6 6 7 7 8 8
REMARK H PARENT 8 9
REMARK Flexibility Score: inf
ROOT
ATOM      1  C   UNL     1      -4.339  -8.767   2.141  1.00  0.00     0.002 C 
ENDROOT
BRANCH   1   2
ATOM      2  C   UNL     1      -3.307  -7.641   2.323  1.00  0.00     0.000 C 
BRANCH   2   3
ATOM      3  C   UNL     1      -3.956  -6.249   2.380  1.00  0.00    -0.000 C 
BRANCH   3   4
ATOM      4  C   UNL     1      -3.549  -5.455   3.630  1.00  0.00    -0.003 C 
ATOM      5  C   UNL     1      -4.547  -4.338   3.922  1.00  0.00     0.004 C 
ENDBRANCH   3   4
ENDBRANCH   2   3
ENDBRANCH   1   2
BRANCH   1   6
ATOM      6  C   UNL     1      -5.730  -8.236   1.761  1.00  0.00     0.028 C 
BRANCH   6   7
ATOM      7  C   UNL     1      -6.219  -8.763   0.406  1.00  0.00     0.156 C 
BRANCH   7   8
ATOM      8  O   UNL     1      -5.186  -8.695  -0.539  1.00  0.00    -0.396 OA
ATOM      9  H   UNL     1      -5.608  -8.454  -1.405  1.00  0.00     0.210 HD
ENDBRANCH   7   8
ENDBRANCH   6   7
ENDBRANCH   1   6
TORSDOF 6
ENDMDL
MODEL 9
REMARK VINA RESULT:    -3.850      5.470      7.342
REMARK INTER + INTRA:          -5.295
REMARK INTER:                  -5.085
REMARK INTRA:                  -0.210
REMARK UNBOUND:                -0.207
REMARK SMILES CCCCCCCO
REMARK SMILES IDX 5 1 4 2 3 3 2 4 1 5 6 6 7 7 8 8
REMARK H PARENT 8 9
REMARK Flexibility Score: inf
ROOT
ATOM      1  C   UNL     1      -4.583  -8.258   2.472  1.00  0.00     0.002 C 
ENDROOT
BRANCH   1   2
ATOM      2  C   UNL     1      -5.690  -7.191   2.533  1.00  0.00     0.000 C 
BRANCH   2   3
ATOM      3  C   UNL     1      -5.536  -6.248   3.738  1.00  0.00    -0.000 C 
BRANCH   3   4
ATOM      4  C   UNL     1      -5.191  -4.810   3.326  1.00  0.00    -0.003 C 
ATOM      5  C   UNL     1      -3.770  -4.444   3.746  1.00  0.00     0.004 C 
ENDBRANCH   3   4
ENDBRANCH   2   3
ENDBRANCH   1   2
BRANCH   1   6
ATOM      6  C   UNL     1      -3.227  -7.676   2.042  1.00  0.00     0.028 C 
BRANCH   6   7
ATOM      7  C   UNL     1      -2.068  -8.662   2.235  1.00  0.00     0.156 C 
BRANCH   7   8
ATOM      8  O   UNL     1      -1.753  -9.279   1.016  1.00  0.00    -0.396 OA
ATOM      9  H   UNL     1      -1.426  -8.562   0.411  1.00  0.00     0.210 HD
ENDBRANCH   7   8
ENDBRANCH   6   7
ENDBRANCH   1   6
TORSDOF 6
ENDMDL
