MODEL 1
REMARK VINA RESULT:    -5.864      0.000      0.000
REMARK INTER + INTRA:          -6.773
REMARK INTER:                  -6.720
REMARK INTRA:                  -0.052
REMARK UNBOUND:                -0.052
REMARK SMILES O=C([O-])c1cc(O)c(O)c(O)c1
REMARK SMILES IDX 4 1 5 2 12 3 6 4 10 5 8 6 2 7 1 8 3 9 7 10 11 12 9 14
REMARK H PARENT 7 11 11 13 9 15
REMARK Flexibility Score: inf
ROOT
ATOM      1  C   UNL     1       4.488  -2.156 -21.476  1.00  0.00     0.005 A 
ATOM      2  C   UNL     1       3.312  -2.768 -21.016  1.00  0.00     0.060 A 
ATOM      3  C   UNL     1       5.303  -2.846 -22.387  1.00  0.00     0.060 A 
ATOM      4  C   UNL     1       2.954  -4.048 -21.459  1.00  0.00     0.162 A 
ATOM      5  C   UNL     1       4.958  -4.125 -22.838  1.00  0.00     0.162 A 
ATOM      6  C   UNL     1       3.770  -4.735 -22.369  1.00  0.00     0.200 A 
ENDROOT
BRANCH   1   7
ATOM      7  C   UNL     1       4.868  -0.804 -21.009  1.00  0.00     0.072 C 
ATOM      8  O   UNL     1       4.021  -0.056 -20.452  1.00  0.00    -0.545 OA
ATOM      9  O   UNL     1       6.168  -0.340 -21.178  1.00  0.00    -0.545 OA
ENDBRANCH   1   7
BRANCH   4  10
ATOM     10  O   UNL     1       1.784  -4.648 -20.997  1.00  0.00    -0.504 OA
ATOM     11  H   UNL     1       0.908  -4.140 -20.952  1.00  0.00     0.293 HD
ENDBRANCH   4  10
BRANCH   5  12
ATOM     12  O   UNL     1       5.819  -4.749 -23.745  1.00  0.00    -0.504 OA
ATOM     13  H   UNL     1       6.761  -4.439 -23.935  1.00  0.00     0.293 HD
ENDBRANCH   5  12
BRANCH   6  14
ATOM     14  O   UNL     1       3.368  -6.009 -22.779  1.00  0.00    -0.502 OA
ATOM     15  H   UNL     1       3.976  -6.678 -23.229  1.00  0.00     0.293 HD
ENDBRANCH   6  14
TORSDOF 4
ENDMDL
MODEL 2
REMARK VINA RESULT:    -5.742      0.147      2.436
REMARK INTER + INTRA:          -6.633
REMARK INTER:                  -6.581
REMARK INTRA:                  -0.052
REMARK UNBOUND:                -0.052
REMARK SMILES O=C([O-])c1cc(O)c(O)c(O)c1
REMARK SMILES IDX 4 1 5 2 12 3 6 4 10 5 8 6 2 7 1 8 3 9 7 10 11 12 9 14
REMARK H PARENT 7 11 11 13 9 15
REMARK Flexibility Score: inf
ROOT
ATOM      1  C   UNL     1       4.413  -2.162 -21.478  1.00  0.00     0.005 A 
ATOM      2  C   UNL     1       5.162  -2.817 -22.469  1.00  0.00     0.060 A 
ATOM      3  C   UNL     1       3.286  -2.804 -20.942  1.00  0.00     0.060 A 
ATOM      4  C   UNL     1       4.791  -4.091 -22.916  1.00  0.00     0.162 A 
ATOM      5  C   UNL     1       2.904  -4.077 -21.379  1.00  0.00     0.162 A 
ATOM      6  C   UNL     1       3.665  -4.730 -22.378  1.00  0.00     0.200 A 
ENDROOT
BRANCH   1   7
ATOM      7  C   UNL     1       4.802  -0.815 -21.005  1.00  0.00     0.072 C 
ATOM      8  O   UNL     1       3.964  -0.071 -20.430  1.00  0.00    -0.545 OA
ATOM      9  O   UNL     1       6.100  -0.351 -21.188  1.00  0.00    -0.545 OA
ENDBRANCH   1   7
BRANCH   4  10
ATOM     10  O   UNL     1       5.540  -4.734 -23.900  1.00  0.00    -0.504 OA
ATOM     11  H   UNL     1       5.402  -5.714 -24.118  1.00  0.00     0.293 HD
ENDBRANCH   4  10
BRANCH   5  12
ATOM     12  O   UNL     1       1.771  -4.651 -20.798  1.00  0.00    -0.504 OA
ATOM     13  H   UNL     1       0.940  -4.135 -20.548  1.00  0.00     0.293 HD
ENDBRANCH   5  12
BRANCH   6  14
ATOM     14  O   UNL     1       3.339  -6.001 -22.859  1.00  0.00    -0.502 OA
ATOM     15  H   UNL     1       2.398  -6.365 -22.906  1.00  0.00     0.293 HD
ENDBRANCH   6  14
TORSDOF 4
ENDMDL
MODEL 3
REMARK VINA RESULT:    -5.386     11.397     14.355
REMARK INTER + INTRA:          -6.226
REMARK INTER:                  -6.173
REMARK INTRA:                  -0.053
REMARK UNBOUND:                -0.052
REMARK SMILES O=C([O-])c1cc(O)c(O)c(O)c1
REMARK SMILES IDX 4 1 5 2 12 3 6 4 10 5 8 6 2 7 1 8 3 9 7 10 11 12 9 14
REMARK H PARENT 7 11 11 13 9 15
REMARK Flexibility Score: inf
ROOT
ATOM      1  C   UNL     1       5.683   9.488 -22.537  1.00  0.00     0.005 A 
ATOM      2  C   UNL     1       6.804  10.117 -23.100  1.00  0.00     0.060 A 
ATOM      3  C   UNL     1       4.432  10.120 -22.626  1.00  0.00     0.060 A 
ATOM      4  C   UNL     1       6.679  11.356 -23.741  1.00  0.00     0.162 A 
ATOM      5  C   UNL     1       4.293  11.358 -23.264  1.00  0.00     0.162 A 
ATOM      6  C   UNL     1       5.429  11.984 -23.828  1.00  0.00     0.200 A 
ENDROOT
BRANCH   1   7
ATOM      7  C   UNL     1       5.812   8.179 -21.858  1.00  0.00     0.072 C 
ATOM      8  O   UNL     1       6.888   7.527 -21.923  1.00  0.00    -0.545 OA
ATOM      9  O   UNL     1       4.746   7.650 -21.139  1.00  0.00    -0.545 OA
ENDBRANCH   1   7
BRANCH   4  10
ATOM     10  O   UNL     1       7.799  11.973 -24.296  1.00  0.00    -0.504 OA
ATOM     11  H   UNL     1       7.859  12.171 -25.289  1.00  0.00     0.293 HD
ENDBRANCH   4  10
BRANCH   5  12
ATOM     12  O   UNL     1       3.017  11.924 -23.313  1.00  0.00    -0.504 OA
ATOM     13  H   UNL     1       2.782  12.743 -23.855  1.00  0.00     0.293 HD
ENDBRANCH   5  12
BRANCH   6  14
ATOM     14  O   UNL     1       5.360  13.220 -24.479  1.00  0.00    -0.502 OA
ATOM     15  H   UNL     1       5.940  13.479 -25.263  1.00  0.00     0.293 HD
ENDBRANCH   6  14
TORSDOF 4
ENDMDL
MODEL 4
REMARK VINA RESULT:    -5.344     11.382     14.150
REMARK INTER + INTRA:          -6.177
REMARK INTER:                  -6.124
REMARK INTRA:                  -0.053
REMARK UNBOUND:                -0.052
REMARK SMILES O=C([O-])c1cc(O)c(O)c(O)c1
REMARK SMILES IDX 4 1 5 2 12 3 6 4 10 5 8 6 2 7 1 8 3 9 7 10 11 12 9 14
REMARK H PARENT 7 11 11 13 9 15
REMARK Flexibility Score: inf
ROOT
ATOM      1  C   UNL     1       5.657   9.475 -22.529  1.00  0.00     0.005 A 
ATOM      2  C   UNL     1       4.403  10.098 -22.635  1.00  0.00     0.060 A 
ATOM      3  C   UNL     1       6.782  10.116 -23.072  1.00  0.00     0.060 A 
ATOM      4  C   UNL     1       4.275  11.338 -23.272  1.00  0.00     0.162 A 
ATOM      5  C   UNL     1       6.669  11.355 -23.711  1.00  0.00     0.162 A 
ATOM      6  C   UNL     1       5.401  11.975 -23.813  1.00  0.00     0.200 A 
ENDROOT
BRANCH   1   7
ATOM      7  C   UNL     1       5.794   8.164 -21.858  1.00  0.00     0.072 C 
ATOM      8  O   UNL     1       6.882   7.530 -21.906  1.00  0.00    -0.545 OA
ATOM      9  O   UNL     1       4.724   7.612 -21.162  1.00  0.00    -0.545 OA
ENDBRANCH   1   7
BRANCH   4  10
ATOM     10  O   UNL     1       3.026  11.949 -23.373  1.00  0.00    -0.504 OA
ATOM     11  H   UNL     1       2.924  12.957 -23.363  1.00  0.00     0.293 HD
ENDBRANCH   4  10
BRANCH   5  12
ATOM     12  O   UNL     1       7.833  11.930 -24.225  1.00  0.00    -0.504 OA
ATOM     13  H   UNL     1       7.909  12.896 -24.512  1.00  0.00     0.293 HD
ENDBRANCH   5  12
BRANCH   6  14
ATOM     14  O   UNL     1       5.218  13.212 -24.438  1.00  0.00    -0.502 OA
ATOM     15  H   UNL     1       4.648  13.353 -25.260  1.00  0.00     0.293 HD
ENDBRANCH   6  14
TORSDOF 4
ENDMDL
MODEL 5
REMARK VINA RESULT:    -5.244     12.292     14.064
REMARK INTER + INTRA:          -6.062
REMARK INTER:                  -6.013
REMARK INTRA:                  -0.049
REMARK UNBOUND:                -0.052
REMARK SMILES O=C([O-])c1cc(O)c(O)c(O)c1
REMARK SMILES IDX 4 1 5 2 12 3 6 4 10 5 8 6 2 7 1 8 3 9 7 10 11 12 9 14
REMARK H PARENT 7 11 11 13 9 15
REMARK Flexibility Score: inf
ROOT
ATOM      1  C   UNL     1       6.223  11.393 -23.742  1.00  0.00     0.005 A 
ATOM      2  C   UNL     1       4.851  11.514 -23.470  1.00  0.00     0.060 A 
ATOM      3  C   UNL     1       6.911  10.262 -23.274  1.00  0.00     0.060 A 
ATOM      4  C   UNL     1       4.178  10.524 -22.743  1.00  0.00     0.162 A 
ATOM      5  C   UNL     1       6.252   9.266 -22.546  1.00  0.00     0.162 A 
ATOM      6  C   UNL     1       4.869   9.397 -22.277  1.00  0.00     0.200 A 
ENDROOT
BRANCH   1   7
ATOM      7  C   UNL     1       6.937  12.438 -24.509  1.00  0.00     0.072 C 
ATOM      8  O   UNL     1       6.681  13.657 -24.322  1.00  0.00    -0.545 OA
ATOM      9  O   UNL     1       7.900  12.088 -25.448  1.00  0.00    -0.545 OA
ENDBRANCH   1   7
BRANCH   4  10
ATOM     10  O   UNL     1       2.816  10.654 -22.478  1.00  0.00    -0.504 OA
ATOM     11  H   UNL     1       2.236  11.312 -22.985  1.00  0.00     0.293 HD
ENDBRANCH   4  10
BRANCH   5  12
ATOM     12  O   UNL     1       7.004   8.171 -22.114  1.00  0.00    -0.504 OA
ATOM     13  H   UNL     1       6.728   7.208 -22.245  1.00  0.00     0.293 HD
ENDBRANCH   5  12
BRANCH   6  14
ATOM     14  O   UNL     1       4.150   8.438 -21.557  1.00  0.00    -0.502 OA
ATOM     15  H   UNL     1       3.613   8.640 -20.726  1.00  0.00     0.293 HD
ENDBRANCH   6  14
TORSDOF 4
ENDMDL
MODEL 6
REMARK VINA RESULT:    -5.237      0.901      4.056
REMARK INTER + INTRA:          -6.054
REMARK INTER:                  -6.003
REMARK INTRA:                  -0.052
REMARK UNBOUND:                -0.052
REMARK SMILES O=C([O-])c1cc(O)c(O)c(O)c1
REMARK SMILES IDX 4 1 5 2 12 3 6 4 10 5 8 6 2 7 1 8 3 9 7 10 11 12 9 14
REMARK H PARENT 7 11 11 13 9 15
REMARK Flexibility Score: inf
ROOT
ATOM      1  C   UNL     1       3.214  -3.933 -21.873  1.00  0.00     0.005 A 
ATOM      2  C   UNL     1       3.095  -2.751 -21.125  1.00  0.00     0.060 A 
ATOM      3  C   UNL     1       4.383  -4.151 -22.619  1.00  0.00     0.060 A 
ATOM      4  C   UNL     1       4.127  -1.803 -21.122  1.00  0.00     0.162 A 
ATOM      5  C   UNL     1       5.421  -3.213 -22.625  1.00  0.00     0.162 A 
ATOM      6  C   UNL     1       5.293  -2.024 -21.868  1.00  0.00     0.200 A 
ENDROOT
BRANCH   1   7
ATOM      7  C   UNL     1       2.126  -4.936 -21.879  1.00  0.00     0.072 C 
ATOM      8  O   UNL     1       2.352  -6.125 -22.227  1.00  0.00    -0.545 OA
ATOM      9  O   UNL     1       0.836  -4.578 -21.500  1.00  0.00    -0.545 OA
ENDBRANCH   1   7
BRANCH   4  10
ATOM     10  O   UNL     1       3.999  -0.632 -20.377  1.00  0.00    -0.504 OA
ATOM     11  H   UNL     1       4.276   0.269 -20.750  1.00  0.00     0.293 HD
ENDBRANCH   4  10
BRANCH   5  12
ATOM     12  O   UNL     1       6.553  -3.501 -23.392  1.00  0.00    -0.504 OA
ATOM     13  H   UNL     1       7.421  -3.849 -23.010  1.00  0.00     0.293 HD
ENDBRANCH   5  12
BRANCH   6  14
ATOM     14  O   UNL     1       6.291  -1.046 -21.830  1.00  0.00    -0.502 OA
ATOM     15  H   UNL     1       7.279  -1.248 -21.774  1.00  0.00     0.293 HD
ENDBRANCH   6  14
TORSDOF 4
ENDMDL
MODEL 7
REMARK VINA RESULT:    -5.201     12.317     14.226
REMARK INTER + INTRA:          -6.013
REMARK INTER:                  -5.962
REMARK INTRA:                  -0.051
REMARK UNBOUND:                -0.052
REMARK SMILES O=C([O-])c1cc(O)c(O)c(O)c1
REMARK SMILES IDX 4 1 5 2 12 3 6 4 10 5 8 6 2 7 1 8 3 9 7 10 11 12 9 14
REMARK H PARENT 7 11 11 13 9 15
REMARK Flexibility Score: inf
ROOT
ATOM      1  C   UNL     1       6.048  11.406 -23.753  1.00  0.00     0.005 A 
ATOM      2  C   UNL     1       6.748  10.279 -23.293  1.00  0.00     0.060 A 
ATOM      3  C   UNL     1       4.692  11.546 -23.419  1.00  0.00     0.060 A 
ATOM      4  C   UNL     1       6.105   9.310 -22.514  1.00  0.00     0.162 A 
ATOM      5  C   UNL     1       4.037  10.585 -22.641  1.00  0.00     0.162 A 
ATOM      6  C   UNL     1       4.751   9.453 -22.182  1.00  0.00     0.200 A 
ENDROOT
BRANCH   1   7
ATOM      7  C   UNL     1       6.725  12.431 -24.577  1.00  0.00     0.072 C 
ATOM      8  O   UNL     1       6.321  13.625 -24.574  1.00  0.00    -0.545 OA
ATOM      9  O   UNL     1       7.817  12.092 -25.367  1.00  0.00    -0.545 OA
ENDBRANCH   1   7
BRANCH   4  10
ATOM     10  O   UNL     1       6.809   8.194 -22.062  1.00  0.00    -0.504 OA
ATOM     11  H   UNL     1       6.347   7.439 -21.568  1.00  0.00     0.293 HD
ENDBRANCH   4  10
BRANCH   5  12
ATOM     12  O   UNL     1       2.687  10.795 -22.350  1.00  0.00    -0.504 OA
ATOM     13  H   UNL     1       1.943  10.174 -22.636  1.00  0.00     0.293 HD
ENDBRANCH   5  12
BRANCH   6  14
ATOM     14  O   UNL     1       4.157   8.456 -21.402  1.00  0.00    -0.502 OA
ATOM     15  H   UNL     1       3.997   8.536 -20.408  1.00  0.00     0.293 HD
ENDBRANCH   6  14
TORSDOF 4
ENDMDL
MODEL 8
REMARK VINA RESULT:    -4.961      2.527      4.068
REMARK INTER + INTRA:          -5.738
REMARK INTER:                  -5.693
REMARK INTRA:                  -0.045
REMARK UNBOUND:                -0.052
REMARK SMILES O=C([O-])c1cc(O)c(O)c(O)c1
REMARK SMILES IDX 4 1 5 2 12 3 6 4 10 5 8 6 2 7 1 8 3 9 7 10 11 12 9 14
REMARK H PARENT 7 11 11 13 9 15
REMARK Flexibility Score: inf
ROOT
ATOM      1  C   UNL     1       3.356  -4.209 -22.804  1.00  0.00     0.005 A 
ATOM      2  C   UNL     1       2.837  -3.490 -23.893  1.00  0.00     0.060 A 
ATOM      3  C   UNL     1       4.748  -4.354 -22.688  1.00  0.00     0.060 A 
ATOM      4  C   UNL     1       3.692  -2.927 -24.848  1.00  0.00     0.162 A 
ATOM      5  C   UNL     1       5.614  -3.798 -23.635  1.00  0.00     0.162 A 
ATOM      6  C   UNL     1       5.081  -3.075 -24.729  1.00  0.00     0.200 A 
ENDROOT
BRANCH   1   7
ATOM      7  C   UNL     1       2.455  -4.805 -21.793  1.00  0.00     0.072 C 
ATOM      8  O   UNL     1       1.768  -5.824 -22.069  1.00  0.00    -0.545 OA
ATOM      9  O   UNL     1       2.353  -4.247 -20.524  1.00  0.00    -0.545 OA
ENDBRANCH   1   7
BRANCH   4  10
ATOM     10  O   UNL     1       3.167  -2.216 -25.926  1.00  0.00    -0.504 OA
ATOM     11  H   UNL     1       2.298  -2.491 -26.372  1.00  0.00     0.293 HD
ENDBRANCH   4  10
BRANCH   5  12
ATOM     12  O   UNL     1       6.986  -3.985 -23.451  1.00  0.00    -0.504 OA
ATOM     13  H   UNL     1       7.386  -4.729 -22.898  1.00  0.00     0.293 HD
ENDBRANCH   5  12
BRANCH   6  14
ATOM     14  O   UNL     1       5.889  -2.494 -25.711  1.00  0.00    -0.502 OA
ATOM     15  H   UNL     1       6.348  -1.600 -25.609  1.00  0.00     0.293 HD
ENDBRANCH   6  14
TORSDOF 4
ENDMDL
MODEL 9
REMARK VINA RESULT:    -4.935      2.527      4.304
REMARK INTER + INTRA:          -5.708
REMARK INTER:                  -5.663
REMARK INTRA:                  -0.045
REMARK UNBOUND:                -0.052
REMARK SMILES O=C([O-])c1cc(O)c(O)c(O)c1
REMARK SMILES IDX 4 1 5 2 12 3 6 4 10 5 8 6 2 7 1 8 3 9 7 10 11 12 9 14
REMARK H PARENT 7 11 11 13 9 15
REMARK Flexibility Score: inf
ROOT
ATOM      1  C   UNL     1       3.352  -4.202 -22.773  1.00  0.00     0.005 A 
ATOM      2  C   UNL     1       4.741  -4.363 -22.656  1.00  0.00     0.060 A 
ATOM      3  C   UNL     1       2.839  -3.504 -23.878  1.00  0.00     0.060 A 
ATOM      4  C   UNL     1       5.604  -3.836 -23.625  1.00  0.00     0.162 A 
ATOM      5  C   UNL     1       3.690  -2.971 -24.853  1.00  0.00     0.162 A 
ATOM      6  C   UNL     1       5.089  -3.138 -24.727  1.00  0.00     0.200 A 
ENDROOT
BRANCH   1   7
ATOM      7  C   UNL     1       2.438  -4.758 -21.751  1.00  0.00     0.072 C 
ATOM      8  O   UNL     1       1.698  -5.742 -22.019  1.00  0.00    -0.545 OA
ATOM      9  O   UNL     1       2.383  -4.202 -20.478  1.00  0.00    -0.545 OA
ENDBRANCH   1   7
BRANCH   4  10
ATOM     10  O   UNL     1       6.983  -4.000 -23.500  1.00  0.00    -0.504 OA
ATOM     11  H   UNL     1       7.466  -3.793 -22.633  1.00  0.00     0.293 HD
ENDBRANCH   4  10
BRANCH   5  12
ATOM     12  O   UNL     1       3.105  -2.290 -25.923  1.00  0.00    -0.504 OA
ATOM     13  H   UNL     1       2.148  -2.417 -26.221  1.00  0.00     0.293 HD
ENDBRANCH   5  12
BRANCH   6  14
ATOM     14  O   UNL     1       5.994  -2.633 -25.664  1.00  0.00    -0.502 OA
ATOM     15  H   UNL     1       6.136  -1.649 -25.840  1.00  0.00     0.293 HD
ENDBRANCH   6  14
TORSDOF 4
ENDMDL
