MODEL 1
REMARK VINA RESULT:    80.991      0.000      0.000
REMARK INTER + INTRA:         114.621
REMARK INTER:                 114.134
REMARK INTRA:                   0.486
REMARK UNBOUND:                 0.486
REMARK SMILES COc1c(O[C@@H]2O[C@@H](C(=O)[O-])[C@@H](O)[C@@H](O)[C@@H]2O)cc(O)c2c(=O)cc(-c3ccccc3)oc12
REMARK SMILES IDX 5 1 6 2 8 3 12 4 7 5 14 6 16 7 9 8 10 9 11 10 13 11 15 13
REMARK SMILES IDX 17 15 4 17 3 18 18 19 33 20 19 21 21 22 32 23 22 24 25 25
REMARK SMILES IDX 24 26 23 27 2 28 1 29 20 30 26 32 27 33 31 34 28 35 30 36
REMARK SMILES IDX 29 37
REMARK H PARENT 13 12 15 14 17 16 20 31
REMARK Flexibility Score: inf
ROOT
ATOM      1  O   UNL     1      14.489  -0.818  35.634  1.00  0.00    -0.458 OA
ENDROOT
BRANCH   1   2
ATOM      2  C   UNL     1      13.387  -1.690  35.926  1.00  0.00     0.339 C 
ATOM      3  C   UNL     1      14.756  -3.594  35.783  1.00  0.00     0.199 C 
ATOM      4  C   UNL     1      14.056  -4.124  34.513  1.00  0.00     0.180 C 
ATOM      5  O   UNL     1      13.853  -2.855  36.592  1.00  0.00    -0.328 OA
ATOM      6  C   UNL     1      13.478  -2.938  33.725  1.00  0.00     0.181 C 
ATOM      7  C   UNL     1      12.602  -2.072  34.647  1.00  0.00     0.214 C 
BRANCH   3   8
ATOM      8  C   UNL     1      15.317  -4.731  36.587  1.00  0.00     0.073 C 
ATOM      9  O   UNL     1      14.679  -5.813  36.683  1.00  0.00    -0.547 OA
ATOM     10  O   UNL     1      16.515  -4.579  37.276  1.00  0.00    -0.547 OA
ENDBRANCH   3   8
BRANCH   4  11
ATOM     11  O   UNL     1      13.018  -5.010  34.858  1.00  0.00    -0.387 OA
ATOM     12  H   UNL     1      13.444  -5.827  35.229  1.00  0.00     0.211 HD
ENDBRANCH   4  11
BRANCH   6  13
ATOM     13  O   UNL     1      12.721  -3.421  32.645  1.00  0.00    -0.387 OA
ATOM     14  H   UNL     1      13.353  -3.887  32.036  1.00  0.00     0.211 HD
ENDBRANCH   6  13
BRANCH   7  15
ATOM     15  O   UNL     1      12.186  -0.925  33.954  1.00  0.00    -0.384 OA
ATOM     16  H   UNL     1      12.960  -0.304  33.937  1.00  0.00     0.211 HD
ENDBRANCH   7  15
ENDBRANCH   1   2
BRANCH   1  17
ATOM     17  C   UNL     1      14.736   0.452  36.187  1.00  0.00     0.172 A 
ATOM     18  C   UNL     1      13.735   1.421  36.054  1.00  0.00     0.205 A 
ATOM     19  C   UNL     1      15.933   0.768  36.844  1.00  0.00     0.097 A 
ATOM     20  C   UNL     1      13.941   2.722  36.578  1.00  0.00     0.188 A 
ATOM     21  C   UNL     1      16.144   2.030  37.399  1.00  0.00     0.134 A 
ATOM     22  C   UNL     1      15.163   3.047  37.233  1.00  0.00     0.111 A 
ATOM     23  O   UNL     1      12.987   3.643  36.462  1.00  0.00    -0.452 OA
ATOM     24  C   UNL     1      15.336   4.388  37.652  1.00  0.00     0.197 A 
ATOM     25  C   UNL     1      13.097   4.888  36.914  1.00  0.00     0.138 A 
ATOM     26  C   UNL     1      14.294   5.298  37.511  1.00  0.00     0.100 A 
ATOM     27  O   UNL     1      16.426   4.805  38.125  1.00  0.00    -0.289 OA
BRANCH  18  28
ATOM     28  O   UNL     1      12.558   1.020  35.393  1.00  0.00    -0.490 OA
ATOM     29  C   UNL     1      11.718   1.834  34.583  1.00  0.00     0.278 C 
ENDBRANCH  18  28
BRANCH  21  30
ATOM     30  O   UNL     1      17.327   2.199  38.125  1.00  0.00    -0.507 OA
ATOM     31  H   UNL     1      18.255   2.148  37.731  1.00  0.00     0.293 HD
ENDBRANCH  21  30
BRANCH  25  32
ATOM     32  C   UNL     1      11.953   5.818  36.757  1.00  0.00     0.017 A 
ATOM     33  C   UNL     1      11.650   6.346  35.490  1.00  0.00     0.012 A 
ATOM     34  C   UNL     1      11.135   6.166  37.851  1.00  0.00     0.012 A 
ATOM     35  C   UNL     1      10.566   7.213  35.322  1.00  0.00     0.001 A 
ATOM     36  C   UNL     1      10.052   7.033  37.679  1.00  0.00     0.001 A 
ATOM     37  C   UNL     1       9.768   7.558  36.416  1.00  0.00     0.000 A 
ENDBRANCH  25  32
ENDBRANCH   1  17
TORSDOF 9
ENDMDL
MODEL 2
REMARK VINA RESULT:    81.254      7.901     10.550
REMARK INTER + INTRA:         114.991
REMARK INTER:                 114.611
REMARK INTRA:                   0.380
REMARK UNBOUND:                 0.486
REMARK SMILES COc1c(O[C@@H]2O[C@@H](C(=O)[O-])[C@@H](O)[C@@H](O)[C@@H]2O)cc(O)c2c(=O)cc(-c3ccccc3)oc12
REMARK SMILES IDX 5 1 6 2 8 3 12 4 7 5 14 6 16 7 9 8 10 9 11 10 13 11 15 13
REMARK SMILES IDX 17 15 4 17 3 18 18 19 33 20 19 21 21 22 32 23 22 24 25 25
REMARK SMILES IDX 24 26 23 27 2 28 1 29 20 30 26 32 27 33 31 34 28 35 30 36
REMARK SMILES IDX 29 37
REMARK H PARENT 13 12 15 14 17 16 20 31
REMARK Flexibility Score: inf
ROOT
ATOM      1  O   UNL     1      11.302   1.753  28.651  1.00  0.00    -0.458 OA
ENDROOT
BRANCH   1   2
ATOM      2  C   UNL     1      12.416   2.088  29.492  1.00  0.00     0.339 C 
ATOM      3  C   UNL     1      12.500   4.276  28.642  1.00  0.00     0.199 C 
ATOM      4  C   UNL     1      13.862   4.060  27.949  1.00  0.00     0.180 C 
ATOM      5  O   UNL     1      12.388   3.472  29.807  1.00  0.00    -0.328 OA
ATOM      6  C   UNL     1      14.016   2.574  27.592  1.00  0.00     0.181 C 
ATOM      7  C   UNL     1      13.766   1.705  28.838  1.00  0.00     0.214 C 
BRANCH   3   8
ATOM      8  C   UNL     1      12.326   5.718  29.022  1.00  0.00     0.073 C 
ATOM      9  O   UNL     1      11.249   6.109  29.543  1.00  0.00    -0.547 OA
ATOM     10  O   UNL     1      13.331   6.640  28.751  1.00  0.00    -0.547 OA
ENDBRANCH   3   8
BRANCH   4  11
ATOM     11  O   UNL     1      14.914   4.450  28.800  1.00  0.00    -0.387 OA
ATOM     12  H   UNL     1      14.594   5.235  29.318  1.00  0.00     0.211 HD
ENDBRANCH   4  11
BRANCH   6  13
ATOM     13  O   UNL     1      15.308   2.346  27.090  1.00  0.00    -0.387 OA
ATOM     14  H   UNL     1      15.921   2.950  27.585  1.00  0.00     0.211 HD
ENDBRANCH   6  13
BRANCH   7  15
ATOM     15  O   UNL     1      13.780   0.350  28.474  1.00  0.00    -0.384 OA
ATOM     16  H   UNL     1      12.906  -0.030  28.751  1.00  0.00     0.211 HD
ENDBRANCH   7  15
ENDBRANCH   1   2
BRANCH   1  17
ATOM     17  C   UNL     1      10.014   1.365  29.063  1.00  0.00     0.172 A 
ATOM     18  C   UNL     1       8.974   2.285  28.889  1.00  0.00     0.205 A 
ATOM     19  C   UNL     1       9.752   0.114  29.638  1.00  0.00     0.097 A 
ATOM     20  C   UNL     1       7.660   1.950  29.303  1.00  0.00     0.188 A 
ATOM     21  C   UNL     1       8.462  -0.252  30.021  1.00  0.00     0.134 A 
ATOM     22  C   UNL     1       7.397   0.685  29.901  1.00  0.00     0.111 A 
ATOM     23  O   UNL     1       6.667   2.819  29.129  1.00  0.00    -0.452 OA
ATOM     24  C   UNL     1       6.083   0.452  30.372  1.00  0.00     0.197 A 
ATOM     25  C   UNL     1       5.410   2.594  29.495  1.00  0.00     0.138 A 
ATOM     26  C   UNL     1       5.088   1.399  30.147  1.00  0.00     0.100 A 
ATOM     27  O   UNL     1       5.780  -0.580  31.026  1.00  0.00    -0.289 OA
BRANCH  18  28
ATOM     28  O   UNL     1       9.317   3.513  28.291  1.00  0.00    -0.490 OA
ATOM     29  C   UNL     1      10.216   3.708  27.205  1.00  0.00     0.278 C 
ENDBRANCH  18  28
BRANCH  21  30
ATOM     30  O   UNL     1       8.299  -1.562  30.482  1.00  0.00    -0.507 OA
ATOM     31  H   UNL     1       7.435  -2.082  30.440  1.00  0.00     0.293 HD
ENDBRANCH  21  30
BRANCH  25  32
ATOM     32  C   UNL     1       4.380   3.625  29.219  1.00  0.00     0.017 A 
ATOM     33  C   UNL     1       3.061   3.431  29.663  1.00  0.00     0.012 A 
ATOM     34  C   UNL     1       4.701   4.819  28.542  1.00  0.00     0.012 A 
ATOM     35  C   UNL     1       2.081   4.399  29.424  1.00  0.00     0.001 A 
ATOM     36  C   UNL     1       3.718   5.784  28.305  1.00  0.00     0.001 A 
ATOM     37  C   UNL     1       2.408   5.575  28.743  1.00  0.00     0.000 A 
ENDBRANCH  25  32
ENDBRANCH   1  17
TORSDOF 9
ENDMDL
MODEL 3
REMARK VINA RESULT:    81.584      8.277     12.000
REMARK INTER + INTRA:         115.456
REMARK INTER:                 114.515
REMARK INTRA:                   0.941
REMARK UNBOUND:                 0.486
REMARK SMILES COc1c(O[C@@H]2O[C@@H](C(=O)[O-])[C@@H](O)[C@@H](O)[C@@H]2O)cc(O)c2c(=O)cc(-c3ccccc3)oc12
REMARK SMILES IDX 5 1 6 2 8 3 12 4 7 5 14 6 16 7 9 8 10 9 11 10 13 11 15 13
REMARK SMILES IDX 17 15 4 17 3 18 18 19 33 20 19 21 21 22 32 23 22 24 25 25
REMARK SMILES IDX 24 26 23 27 2 28 1 29 20 30 26 32 27 33 31 34 28 35 30 36
REMARK SMILES IDX 29 37
REMARK H PARENT 13 12 15 14 17 16 20 31
REMARK Flexibility Score: inf
ROOT
ATOM      1  O   UNL     1      13.891   3.774  27.770  1.00  0.00    -0.458 OA
ENDROOT
BRANCH   1   2
ATOM      2  C   UNL     1      13.514   4.090  29.119  1.00  0.00     0.339 C 
ATOM      3  C   UNL     1      11.319   3.332  28.765  1.00  0.00     0.199 C 
ATOM      4  C   UNL     1      10.705   4.742  28.902  1.00  0.00     0.180 C 
ATOM      5  O   UNL     1      12.491   3.208  29.557  1.00  0.00    -0.328 OA
ATOM      6  C   UNL     1      11.748   5.789  28.484  1.00  0.00     0.181 C 
ATOM      7  C   UNL     1      13.060   5.564  29.258  1.00  0.00     0.214 C 
BRANCH   3   8
ATOM      8  C   UNL     1      10.330   2.285  29.185  1.00  0.00     0.073 C 
ATOM      9  O   UNL     1       9.094   2.530  29.148  1.00  0.00    -0.547 OA
ATOM     10  O   UNL     1      10.770   1.059  29.670  1.00  0.00    -0.547 OA
ENDBRANCH   3   8
BRANCH   4  11
ATOM     11  O   UNL     1      10.310   4.978  30.233  1.00  0.00    -0.387 OA
ATOM     12  H   UNL     1       9.798   4.181  30.531  1.00  0.00     0.211 HD
ENDBRANCH   4  11
BRANCH   6  13
ATOM     13  O   UNL     1      11.246   7.076  28.738  1.00  0.00    -0.387 OA
ATOM     14  H   UNL     1      11.950   7.720  28.461  1.00  0.00     0.211 HD
ENDBRANCH   6  13
BRANCH   7  15
ATOM     15  O   UNL     1      14.044   6.439  28.775  1.00  0.00    -0.384 OA
ATOM     16  H   UNL     1      14.210   7.107  29.491  1.00  0.00     0.211 HD
ENDBRANCH   7  15
ENDBRANCH   1   2
BRANCH   1  17
ATOM     17  C   UNL     1      14.806   2.790  27.353  1.00  0.00     0.172 A 
ATOM     18  C   UNL     1      14.285   1.574  26.894  1.00  0.00     0.205 A 
ATOM     19  C   UNL     1      16.193   2.985  27.393  1.00  0.00     0.097 A 
ATOM     20  C   UNL     1      15.165   0.543  26.479  1.00  0.00     0.188 A 
ATOM     21  C   UNL     1      17.077   1.999  26.956  1.00  0.00     0.134 A 
ATOM     22  C   UNL     1      16.575   0.737  26.533  1.00  0.00     0.111 A 
ATOM     23  O   UNL     1      14.672  -0.610  26.031  1.00  0.00    -0.452 OA
ATOM     24  C   UNL     1      17.393  -0.364  26.188  1.00  0.00     0.197 A 
ATOM     25  C   UNL     1      15.421  -1.632  25.631  1.00  0.00     0.138 A 
ATOM     26  C   UNL     1      16.814  -1.538  25.717  1.00  0.00     0.100 A 
ATOM     27  O   UNL     1      18.645  -0.336  26.324  1.00  0.00    -0.289 OA
BRANCH  18  28
ATOM     28  O   UNL     1      12.882   1.462  26.872  1.00  0.00    -0.490 OA
ATOM     29  C   UNL     1      11.958   2.437  26.400  1.00  0.00     0.278 C 
ENDBRANCH  18  28
BRANCH  21  30
ATOM     30  O   UNL     1      18.433   2.343  26.939  1.00  0.00    -0.507 OA
ATOM     31  H   UNL     1      18.892   2.905  27.641  1.00  0.00     0.293 HD
ENDBRANCH  21  30
BRANCH  25  32
ATOM     32  C   UNL     1      14.759  -2.857  25.120  1.00  0.00     0.017 A 
ATOM     33  C   UNL     1      15.537  -3.953  24.711  1.00  0.00     0.012 A 
ATOM     34  C   UNL     1      13.354  -2.962  25.062  1.00  0.00     0.012 A 
ATOM     35  C   UNL     1      14.929  -5.120  24.239  1.00  0.00     0.001 A 
ATOM     36  C   UNL     1      12.751  -4.131  24.590  1.00  0.00     0.001 A 
ATOM     37  C   UNL     1      13.536  -5.209  24.177  1.00  0.00     0.000 A 
ENDBRANCH  25  32
ENDBRANCH   1  17
TORSDOF 9
ENDMDL
MODEL 4
REMARK VINA RESULT:    81.828      8.250     12.255
REMARK INTER + INTRA:         115.800
REMARK INTER:                 113.584
REMARK INTRA:                   2.216
REMARK UNBOUND:                 0.486
REMARK SMILES COc1c(O[C@@H]2O[C@@H](C(=O)[O-])[C@@H](O)[C@@H](O)[C@@H]2O)cc(O)c2c(=O)cc(-c3ccccc3)oc12
REMARK SMILES IDX 5 1 6 2 8 3 12 4 7 5 14 6 16 7 9 8 10 9 11 10 13 11 15 13
REMARK SMILES IDX 17 15 4 17 3 18 18 19 33 20 19 21 21 22 32 23 22 24 25 25
REMARK SMILES IDX 24 26 23 27 2 28 1 29 20 30 26 32 27 33 31 34 28 35 30 36
REMARK SMILES IDX 29 37
REMARK H PARENT 13 12 15 14 17 16 20 31
REMARK Flexibility Score: inf
ROOT
ATOM      1  O   UNL     1      13.345   3.516  28.478  1.00  0.00    -0.458 OA
ENDROOT
BRANCH   1   2
ATOM      2  C   UNL     1      12.305   4.254  27.820  1.00  0.00     0.339 C 
ATOM      3  C   UNL     1      12.666   6.129  29.187  1.00  0.00     0.199 C 
ATOM      4  C   UNL     1      11.298   6.001  29.892  1.00  0.00     0.180 C 
ATOM      5  O   UNL     1      12.599   5.643  27.855  1.00  0.00    -0.328 OA
ATOM      6  C   UNL     1      10.862   4.528  29.881  1.00  0.00     0.181 C 
ATOM      7  C   UNL     1      10.917   3.974  28.446  1.00  0.00     0.214 C 
BRANCH   3   8
ATOM      8  C   UNL     1      13.112   7.562  29.164  1.00  0.00     0.073 C 
ATOM      9  O   UNL     1      13.978   7.969  29.983  1.00  0.00    -0.547 OA
ATOM     10  O   UNL     1      12.534   8.462  28.276  1.00  0.00    -0.547 OA
ENDBRANCH   3   8
BRANCH   4  11
ATOM     11  O   UNL     1      10.330   6.783  29.234  1.00  0.00    -0.387 OA
ATOM     12  H   UNL     1      10.124   6.328  28.375  1.00  0.00     0.211 HD
ENDBRANCH   4  11
BRANCH   6  13
ATOM     13  O   UNL     1       9.559   4.423  30.395  1.00  0.00    -0.387 OA
ATOM     14  H   UNL     1       9.630   4.511  31.382  1.00  0.00     0.211 HD
ENDBRANCH   6  13
BRANCH   7  15
ATOM     15  O   UNL     1      10.644   2.598  28.465  1.00  0.00    -0.384 OA
ATOM     16  H   UNL     1      10.793   2.263  27.543  1.00  0.00     0.211 HD
ENDBRANCH   7  15
ENDBRANCH   1   2
BRANCH   1  17
ATOM     17  C   UNL     1      14.310   2.687  27.876  1.00  0.00     0.172 A 
ATOM     18  C   UNL     1      13.892   1.430  27.424  1.00  0.00     0.205 A 
ATOM     19  C   UNL     1      15.649   3.073  27.728  1.00  0.00     0.097 A 
ATOM     20  C   UNL     1      14.828   0.549  26.826  1.00  0.00     0.188 A 
ATOM     21  C   UNL     1      16.580   2.239  27.111  1.00  0.00     0.134 A 
ATOM     22  C   UNL     1      16.191   0.937  26.689  1.00  0.00     0.111 A 
ATOM     23  O   UNL     1      14.431  -0.642  26.386  1.00  0.00    -0.452 OA
ATOM     24  C   UNL     1      17.088  -0.025  26.165  1.00  0.00     0.197 A 
ATOM     25  C   UNL     1      15.240  -1.534  25.822  1.00  0.00     0.138 A 
ATOM     26  C   UNL     1      16.605  -1.249  25.713  1.00  0.00     0.100 A 
ATOM     27  O   UNL     1      18.330   0.173  26.122  1.00  0.00    -0.289 OA
BRANCH  18  28
ATOM     28  O   UNL     1      12.528   1.123  27.597  1.00  0.00    -0.490 OA
ATOM     29  C   UNL     1      11.816   1.080  28.828  1.00  0.00     0.278 C 
ENDBRANCH  18  28
BRANCH  21  30
ATOM     30  O   UNL     1      17.860   2.770  26.920  1.00  0.00    -0.507 OA
ATOM     31  H   UNL     1      18.337   3.368  27.578  1.00  0.00     0.293 HD
ENDBRANCH  21  30
BRANCH  25  32
ATOM     32  C   UNL     1      14.677  -2.818  25.338  1.00  0.00     0.017 A 
ATOM     33  C   UNL     1      13.285  -2.969  25.219  1.00  0.00     0.012 A 
ATOM     34  C   UNL     1      15.512  -3.889  24.962  1.00  0.00     0.012 A 
ATOM     35  C   UNL     1      12.738  -4.168  24.751  1.00  0.00     0.001 A 
ATOM     36  C   UNL     1      14.960  -5.086  24.496  1.00  0.00     0.001 A 
ATOM     37  C   UNL     1      13.575  -5.227  24.391  1.00  0.00     0.000 A 
ENDBRANCH  25  32
ENDBRANCH   1  17
TORSDOF 9
ENDMDL
MODEL 5
REMARK VINA RESULT:    82.705      2.486      8.600
REMARK INTER + INTRA:         117.035
REMARK INTER:                 117.797
REMARK INTRA:                  -0.762
REMARK UNBOUND:                 0.486
REMARK SMILES COc1c(O[C@@H]2O[C@@H](C(=O)[O-])[C@@H](O)[C@@H](O)[C@@H]2O)cc(O)c2c(=O)cc(-c3ccccc3)oc12
REMARK SMILES IDX 5 1 6 2 8 3 12 4 7 5 14 6 16 7 9 8 10 9 11 10 13 11 15 13
REMARK SMILES IDX 17 15 4 17 3 18 18 19 33 20 19 21 21 22 32 23 22 24 25 25
REMARK SMILES IDX 24 26 23 27 2 28 1 29 20 30 26 32 27 33 31 34 28 35 30 36
REMARK SMILES IDX 29 37
REMARK H PARENT 13 12 15 14 17 16 20 31
REMARK Flexibility Score: inf
ROOT
ATOM      1  O   UNL     1      12.208   5.261  36.968  1.00  0.00    -0.458 OA
ENDROOT
BRANCH   1   2
ATOM      2  C   UNL     1      12.270   6.600  36.456  1.00  0.00     0.339 C 
ATOM      3  C   UNL     1       9.961   6.907  36.764  1.00  0.00     0.199 C 
ATOM      4  C   UNL     1       9.669   6.985  35.250  1.00  0.00     0.180 C 
ATOM      5  O   UNL     1      11.261   7.398  37.058  1.00  0.00    -0.328 OA
ATOM      6  C   UNL     1      10.732   6.177  34.490  1.00  0.00     0.181 C 
ATOM      7  C   UNL     1      12.141   6.631  34.913  1.00  0.00     0.214 C 
BRANCH   3   8
ATOM      8  C   UNL     1       8.950   7.703  37.536  1.00  0.00     0.073 C 
ATOM      9  O   UNL     1       9.257   8.832  38.004  1.00  0.00    -0.547 OA
ATOM     10  O   UNL     1       7.687   7.179  37.785  1.00  0.00    -0.547 OA
ENDBRANCH   3   8
BRANCH   4  11
ATOM     11  O   UNL     1       9.695   8.323  34.813  1.00  0.00    -0.387 OA
ATOM     12  H   UNL     1       8.857   8.750  35.134  1.00  0.00     0.211 HD
ENDBRANCH   4  11
BRANCH   6  13
ATOM     13  O   UNL     1      10.556   6.358  33.108  1.00  0.00    -0.387 OA
ATOM     14  H   UNL     1       9.898   7.093  32.995  1.00  0.00     0.211 HD
ENDBRANCH   6  13
BRANCH   7  15
ATOM     15  O   UNL     1      13.100   5.802  34.313  1.00  0.00    -0.384 OA
ATOM     16  H   UNL     1      13.053   5.968  33.336  1.00  0.00     0.211 HD
ENDBRANCH   7  15
ENDBRANCH   1   2
BRANCH   1  17
ATOM     17  C   UNL     1      13.274   4.352  37.099  1.00  0.00     0.172 A 
ATOM     18  C   UNL     1      13.047   3.028  36.708  1.00  0.00     0.205 A 
ATOM     19  C   UNL     1      14.526   4.727  37.606  1.00  0.00     0.097 A 
ATOM     20  C   UNL     1      14.083   2.068  36.835  1.00  0.00     0.188 A 
ATOM     21  C   UNL     1      15.571   3.809  37.708  1.00  0.00     0.134 A 
ATOM     22  C   UNL     1      15.350   2.446  37.364  1.00  0.00     0.111 A 
ATOM     23  O   UNL     1      13.873   0.811  36.454  1.00  0.00    -0.452 OA
ATOM     24  C   UNL     1      16.307   1.420  37.547  1.00  0.00     0.197 A 
ATOM     25  C   UNL     1      14.781  -0.155  36.546  1.00  0.00     0.138 A 
ATOM     26  C   UNL     1      16.027   0.126  37.116  1.00  0.00     0.100 A 
ATOM     27  O   UNL     1      17.407   1.626  38.123  1.00  0.00    -0.289 OA
BRANCH  18  28
ATOM     28  O   UNL     1      11.768   2.736  36.195  1.00  0.00    -0.490 OA
ATOM     29  C   UNL     1      11.455   1.796  35.175  1.00  0.00     0.278 C 
ENDBRANCH  18  28
BRANCH  21  30
ATOM     30  O   UNL     1      16.805   4.316  38.125  1.00  0.00    -0.507 OA
ATOM     31  H   UNL     1      17.428   3.854  38.771  1.00  0.00     0.293 HD
ENDBRANCH  21  30
BRANCH  25  32
ATOM     32  C   UNL     1      14.444  -1.514  36.057  1.00  0.00     0.017 A 
ATOM     33  C   UNL     1      13.309  -1.705  35.250  1.00  0.00     0.012 A 
ATOM     34  C   UNL     1      15.258  -2.625  36.359  1.00  0.00     0.012 A 
ATOM     35  C   UNL     1      12.985  -2.977  34.770  1.00  0.00     0.001 A 
ATOM     36  C   UNL     1      14.930  -3.895  35.876  1.00  0.00     0.001 A 
ATOM     37  C   UNL     1      13.794  -4.073  35.083  1.00  0.00     0.000 A 
ENDBRANCH  25  32
ENDBRANCH   1  17
TORSDOF 9
ENDMDL
MODEL 6
REMARK VINA RESULT:    83.771      1.186      2.084
REMARK INTER + INTRA:         118.539
REMARK INTER:                 118.950
REMARK INTRA:                  -0.411
REMARK UNBOUND:                 0.486
REMARK SMILES COc1c(O[C@@H]2O[C@@H](C(=O)[O-])[C@@H](O)[C@@H](O)[C@@H]2O)cc(O)c2c(=O)cc(-c3ccccc3)oc12
REMARK SMILES IDX 5 1 6 2 8 3 12 4 7 5 14 6 16 7 9 8 10 9 11 10 13 11 15 13
REMARK SMILES IDX 17 15 4 17 3 18 18 19 33 20 19 21 21 22 32 23 22 24 25 25
REMARK SMILES IDX 24 26 23 27 2 28 1 29 20 30 26 32 27 33 31 34 28 35 30 36
REMARK SMILES IDX 29 37
REMARK H PARENT 13 12 15 14 17 16 20 31
REMARK Flexibility Score: inf
ROOT
ATOM      1  O   UNL     1      14.364  -0.763  35.608  1.00  0.00    -0.458 OA
ENDROOT
BRANCH   1   2
ATOM      2  C   UNL     1      14.878  -2.029  36.048  1.00  0.00     0.339 C 
ATOM      3  C   UNL     1      13.989  -3.129  34.173  1.00  0.00     0.199 C 
ATOM      4  C   UNL     1      12.970  -3.935  35.006  1.00  0.00     0.180 C 
ATOM      5  O   UNL     1      15.160  -2.855  34.929  1.00  0.00    -0.328 OA
ATOM      6  C   UNL     1      12.616  -3.143  36.274  1.00  0.00     0.181 C 
ATOM      7  C   UNL     1      13.902  -2.739  37.018  1.00  0.00     0.214 C 
BRANCH   3   8
ATOM      8  C   UNL     1      14.371  -3.887  32.935  1.00  0.00     0.073 C 
ATOM      9  O   UNL     1      15.335  -3.494  32.224  1.00  0.00    -0.547 OA
ATOM     10  O   UNL     1      13.632  -4.993  32.534  1.00  0.00    -0.547 OA
ENDBRANCH   3   8
BRANCH   4  11
ATOM     11  O   UNL     1      13.509  -5.185  35.369  1.00  0.00    -0.387 OA
ATOM     12  H   UNL     1      13.920  -5.075  36.266  1.00  0.00     0.211 HD
ENDBRANCH   4  11
BRANCH   6  13
ATOM     13  O   UNL     1      11.799  -3.929  37.103  1.00  0.00    -0.387 OA
ATOM     14  H   UNL     1      11.134  -3.317  37.516  1.00  0.00     0.211 HD
ENDBRANCH   6  13
BRANCH   7  15
ATOM     15  O   UNL     1      13.575  -1.907  38.099  1.00  0.00    -0.384 OA
ATOM     16  H   UNL     1      12.652  -2.144  38.375  1.00  0.00     0.211 HD
ENDBRANCH   7  15
ENDBRANCH   1   2
BRANCH   1  17
ATOM     17  C   UNL     1      14.624   0.501  36.168  1.00  0.00     0.172 A 
ATOM     18  C   UNL     1      13.629   1.478  36.054  1.00  0.00     0.205 A 
ATOM     19  C   UNL     1      15.830   0.804  36.816  1.00  0.00     0.097 A 
ATOM     20  C   UNL     1      13.848   2.773  36.586  1.00  0.00     0.188 A 
ATOM     21  C   UNL     1      16.054   2.060  37.379  1.00  0.00     0.134 A 
ATOM     22  C   UNL     1      15.079   3.084  37.232  1.00  0.00     0.111 A 
ATOM     23  O   UNL     1      12.899   3.701  36.488  1.00  0.00    -0.452 OA
ATOM     24  C   UNL     1      15.265   4.421  37.660  1.00  0.00     0.197 A 
ATOM     25  C   UNL     1      13.021   4.941  36.949  1.00  0.00     0.138 A 
ATOM     26  C   UNL     1      14.226   5.339  37.537  1.00  0.00     0.100 A 
ATOM     27  O   UNL     1      16.362   4.827  38.125  1.00  0.00    -0.289 OA
BRANCH  18  28
ATOM     28  O   UNL     1      12.443   1.089  35.402  1.00  0.00    -0.490 OA
ATOM     29  C   UNL     1      12.331   0.198  34.299  1.00  0.00     0.278 C 
ENDBRANCH  18  28
BRANCH  21  30
ATOM     30  O   UNL     1      17.246   2.216  38.094  1.00  0.00    -0.507 OA
ATOM     31  H   UNL     1      18.156   1.929  37.764  1.00  0.00     0.293 HD
ENDBRANCH  21  30
BRANCH  25  32
ATOM     32  C   UNL     1      11.881   5.880  36.812  1.00  0.00     0.017 A 
ATOM     33  C   UNL     1      11.546   6.392  35.546  1.00  0.00     0.012 A 
ATOM     34  C   UNL     1      11.099   6.251  37.924  1.00  0.00     0.012 A 
ATOM     35  C   UNL     1      10.465   7.266  35.397  1.00  0.00     0.001 A 
ATOM     36  C   UNL     1      10.020   7.126  37.770  1.00  0.00     0.001 A 
ATOM     37  C   UNL     1       9.703   7.635  36.508  1.00  0.00     0.000 A 
ENDBRANCH  25  32
ENDBRANCH   1  17
TORSDOF 9
ENDMDL
