MODEL 1
REMARK VINA RESULT:    -4.757      0.000      0.000
REMARK INTER + INTRA:          -9.931
REMARK INTER:                  -8.650
REMARK INTRA:                  -1.282
REMARK UNBOUND:                -1.282
REMARK SMILES CCCCCC=CCC=CCCCCCCCC(=O)[O-]
REMARK SMILES IDX 11 1 12 2 13 3 14 4 15 5 16 6 17 7 18 8 19 9 20 10 10 11
REMARK SMILES IDX 9 12 8 13 7 14 6 15 5 16 4 17 3 18 2 19 1 20
REMARK H PARENT
REMARK Flexibility Score: inf
ROOT
ATOM      1  C   UNL     1     -43.827  27.453   0.256  1.00  0.00     0.027 C 
ENDROOT
BRANCH   1   2
ATOM      2  C   UNL     1     -42.478  28.112  -0.064  1.00  0.00     0.004 C 
BRANCH   2   3
ATOM      3  C   UNL     1     -42.400  29.558   0.457  1.00  0.00     0.000 C 
BRANCH   3   4
ATOM      4  C   UNL     1     -43.417  29.844   1.575  1.00  0.00     0.000 C 
BRANCH   4   5
ATOM      5  C   UNL     1     -42.811  30.006   2.982  1.00  0.00     0.000 C 
BRANCH   5   6
ATOM      6  C   UNL     1     -43.002  28.758   3.862  1.00  0.00     0.006 C 
BRANCH   6   7
ATOM      7  C   UNL     1     -44.427  28.658   4.422  1.00  0.00     0.053 C 
BRANCH   7   8
ATOM      8  C   UNL     1     -45.108  27.395   3.989  1.00  0.00     0.041 C 
ATOM      9  O   UNL     1     -46.352  27.264   4.132  1.00  0.00    -0.550 OA
ATOM     10  O   UNL     1     -44.362  26.352   3.457  1.00  0.00    -0.550 OA
ENDBRANCH   7   8
ENDBRANCH   6   7
ENDBRANCH   5   6
ENDBRANCH   4   5
ENDBRANCH   3   4
ENDBRANCH   2   3
ENDBRANCH   1   2
BRANCH   1  11
ATOM     11  C   UNL     1     -44.667  27.235  -0.976  1.00  0.00    -0.031 C 
ATOM     12  C   UNL     1     -45.073  26.012  -1.345  1.00  0.00    -0.027 C 
BRANCH  12  13
ATOM     13  C   UNL     1     -45.906  25.828  -2.585  1.00  0.00     0.054 C 
BRANCH  13  14
ATOM     14  C   UNL     1     -46.466  27.138  -3.086  1.00  0.00    -0.027 C 
ATOM     15  C   UNL     1     -46.805  27.354  -4.369  1.00  0.00    -0.031 C 
BRANCH  15  16
ATOM     16  C   UNL     1     -46.743  26.306  -5.453  1.00  0.00     0.027 C 
BRANCH  16  17
ATOM     17  C   UNL     1     -45.625  26.625  -6.451  1.00  0.00     0.004 C 
BRANCH  17  18
ATOM     18  C   UNL     1     -46.203  27.068  -7.801  1.00  0.00     0.000 C 
BRANCH  18  19
ATOM     19  C   UNL     1     -46.317  28.596  -7.874  1.00  0.00    -0.003 C 
ATOM     20  C   UNL     1     -45.163  29.271  -7.138  1.00  0.00     0.004 C 
ENDBRANCH  18  19
ENDBRANCH  17  18
ENDBRANCH  16  17
ENDBRANCH  15  16
ENDBRANCH  13  14
ENDBRANCH  12  13
ENDBRANCH   1  11
TORSDOF 14
ENDMDL
MODEL 2
REMARK VINA RESULT:    -4.543      1.784      2.297
REMARK INTER + INTRA:          -9.542
REMARK INTER:                  -8.308
REMARK INTRA:                  -1.234
REMARK UNBOUND:                -1.282
REMARK SMILES CCCCCC=CCC=CCCCCCCCC(=O)[O-]
REMARK SMILES IDX 11 1 12 2 13 3 14 4 15 5 16 6 17 7 18 8 19 9 20 10 10 11
REMARK SMILES IDX 9 12 8 13 7 14 6 15 5 16 4 17 3 18 2 19 1 20
REMARK H PARENT
REMARK Flexibility Score: inf
ROOT
ATOM      1  C   UNL     1     -42.784  28.220   0.411  1.00  0.00     0.027 C 
ENDROOT
BRANCH   1   2
ATOM      2  C   UNL     1     -43.043  29.506   1.211  1.00  0.00     0.004 C 
BRANCH   2   3
ATOM      3  C   UNL     1     -42.952  29.274   2.729  1.00  0.00     0.000 C 
BRANCH   3   4
ATOM      4  C   UNL     1     -43.675  27.993   3.181  1.00  0.00     0.000 C 
BRANCH   4   5
ATOM      5  C   UNL     1     -45.087  28.212   3.757  1.00  0.00     0.000 C 
BRANCH   5   6
ATOM      6  C   UNL     1     -45.215  27.745   5.218  1.00  0.00     0.006 C 
BRANCH   6   7
ATOM      7  C   UNL     1     -44.011  26.905   5.665  1.00  0.00     0.053 C 
BRANCH   7   8
ATOM      8  C   UNL     1     -43.317  27.511   6.847  1.00  0.00     0.041 C 
ATOM      9  O   UNL     1     -43.835  27.440   7.992  1.00  0.00    -0.550 OA
ATOM     10  O   UNL     1     -42.113  28.182   6.676  1.00  0.00    -0.550 OA
ENDBRANCH   7   8
ENDBRANCH   6   7
ENDBRANCH   5   6
ENDBRANCH   4   5
ENDBRANCH   3   4
ENDBRANCH   2   3
ENDBRANCH   1   2
BRANCH   1  11
ATOM     11  C   UNL     1     -43.908  27.897  -0.537  1.00  0.00    -0.031 C 
ATOM     12  C   UNL     1     -44.426  26.664  -0.623  1.00  0.00    -0.027 C 
BRANCH  12  13
ATOM     13  C   UNL     1     -45.546  26.372  -1.584  1.00  0.00     0.054 C 
BRANCH  13  14
ATOM     14  C   UNL     1     -45.901  27.581  -2.417  1.00  0.00    -0.027 C 
ATOM     15  C   UNL     1     -46.574  27.506  -3.580  1.00  0.00    -0.031 C 
BRANCH  15  16
ATOM     16  C   UNL     1     -47.123  26.228  -4.163  1.00  0.00     0.027 C 
BRANCH  16  17
ATOM     17  C   UNL     1     -47.100  26.278  -5.694  1.00  0.00     0.004 C 
BRANCH  17  18
ATOM     18  C   UNL     1     -45.680  26.532  -6.215  1.00  0.00     0.000 C 
BRANCH  18  19
ATOM     19  C   UNL     1     -45.685  27.582  -7.333  1.00  0.00    -0.003 C 
ATOM     20  C   UNL     1     -45.332  28.965  -6.792  1.00  0.00     0.004 C 
ENDBRANCH  18  19
ENDBRANCH  17  18
ENDBRANCH  16  17
ENDBRANCH  15  16
ENDBRANCH  13  14
ENDBRANCH  12  13
ENDBRANCH   1  11
TORSDOF 14
ENDMDL
MODEL 3
REMARK VINA RESULT:    -4.510      3.394      5.557
REMARK INTER + INTRA:          -9.483
REMARK INTER:                  -7.625
REMARK INTRA:                  -1.858
REMARK UNBOUND:                -1.282
REMARK SMILES CCCCCC=CCC=CCCCCCCCC(=O)[O-]
REMARK SMILES IDX 11 1 12 2 13 3 14 4 15 5 16 6 17 7 18 8 19 9 20 10 10 11
REMARK SMILES IDX 9 12 8 13 7 14 6 15 5 16 4 17 3 18 2 19 1 20
REMARK H PARENT
REMARK Flexibility Score: inf
ROOT
ATOM      1  C   UNL     1     -44.518  27.117   3.760  1.00  0.00     0.027 C 
ENDROOT
BRANCH   1   2
ATOM      2  C   UNL     1     -45.416  28.068   4.565  1.00  0.00     0.004 C 
BRANCH   2   3
ATOM      3  C   UNL     1     -46.534  27.319   5.311  1.00  0.00     0.000 C 
BRANCH   3   4
ATOM      4  C   UNL     1     -46.256  27.181   6.818  1.00  0.00     0.000 C 
BRANCH   4   5
ATOM      5  C   UNL     1     -46.008  28.510   7.558  1.00  0.00     0.000 C 
BRANCH   5   6
ATOM      6  C   UNL     1     -44.796  28.449   8.504  1.00  0.00     0.006 C 
BRANCH   6   7
ATOM      7  C   UNL     1     -43.678  27.553   7.956  1.00  0.00     0.053 C 
BRANCH   7   8
ATOM      8  C   UNL     1     -42.524  28.357   7.436  1.00  0.00     0.041 C 
ATOM      9  O   UNL     1     -41.830  29.052   8.223  1.00  0.00    -0.550 OA
ATOM     10  O   UNL     1     -42.238  28.360   6.077  1.00  0.00    -0.550 OA
ENDBRANCH   7   8
ENDBRANCH   6   7
ENDBRANCH   5   6
ENDBRANCH   4   5
ENDBRANCH   3   4
ENDBRANCH   2   3
ENDBRANCH   1   2
BRANCH   1  11
ATOM     11  C   UNL     1     -43.849  27.804   2.598  1.00  0.00    -0.031 C 
ATOM     12  C   UNL     1     -43.128  27.124   1.696  1.00  0.00    -0.027 C 
BRANCH  12  13
ATOM     13  C   UNL     1     -42.467  27.842   0.550  1.00  0.00     0.054 C 
BRANCH  13  14
ATOM     14  C   UNL     1     -42.773  29.321   0.562  1.00  0.00    -0.027 C 
ATOM     15  C   UNL     1     -43.751  29.878  -0.175  1.00  0.00    -0.031 C 
BRANCH  15  16
ATOM     16  C   UNL     1     -44.709  29.102  -1.043  1.00  0.00     0.027 C 
BRANCH  16  17
ATOM     17  C   UNL     1     -45.955  28.698  -0.247  1.00  0.00     0.004 C 
BRANCH  17  18
ATOM     18  C   UNL     1     -46.294  27.218  -0.469  1.00  0.00     0.000 C 
BRANCH  18  19
ATOM     19  C   UNL     1     -45.239  26.541  -1.353  1.00  0.00    -0.003 C 
ATOM     20  C   UNL     1     -45.767  25.233  -1.937  1.00  0.00     0.004 C 
ENDBRANCH  18  19
ENDBRANCH  17  18
ENDBRANCH  16  17
ENDBRANCH  15  16
ENDBRANCH  13  14
ENDBRANCH  12  13
ENDBRANCH   1  11
TORSDOF 14
ENDMDL
MODEL 4
REMARK VINA RESULT:    -4.306      3.471      8.742
REMARK INTER + INTRA:          -9.112
REMARK INTER:                  -6.700
REMARK INTRA:                  -2.412
REMARK UNBOUND:                -1.282
REMARK SMILES CCCCCC=CCC=CCCCCCCCC(=O)[O-]
REMARK SMILES IDX 11 1 12 2 13 3 14 4 15 5 16 6 17 7 18 8 19 9 20 10 10 11
REMARK SMILES IDX 9 12 8 13 7 14 6 15 5 16 4 17 3 18 2 19 1 20
REMARK H PARENT
REMARK Flexibility Score: inf
ROOT
ATOM      1  C   UNL     1     -43.005  29.070   3.026  1.00  0.00     0.027 C 
ENDROOT
BRANCH   1   2
ATOM      2  C   UNL     1     -42.857  30.091   1.888  1.00  0.00     0.004 C 
BRANCH   2   3
ATOM      3  C   UNL     1     -42.659  29.412   0.521  1.00  0.00     0.000 C 
BRANCH   3   4
ATOM      4  C   UNL     1     -42.598  27.878   0.621  1.00  0.00     0.000 C 
BRANCH   4   5
ATOM      5  C   UNL     1     -43.682  27.130  -0.179  1.00  0.00     0.000 C 
BRANCH   5   6
ATOM      6  C   UNL     1     -44.968  27.955  -0.358  1.00  0.00     0.006 C 
BRANCH   6   7
ATOM      7  C   UNL     1     -46.193  27.070  -0.623  1.00  0.00     0.053 C 
BRANCH   7   8
ATOM      8  C   UNL     1     -46.006  26.210  -1.837  1.00  0.00     0.041 C 
ATOM      9  O   UNL     1     -46.125  26.704  -2.989  1.00  0.00    -0.550 OA
ATOM     10  O   UNL     1     -45.732  24.856  -1.692  1.00  0.00    -0.550 OA
ENDBRANCH   7   8
ENDBRANCH   6   7
ENDBRANCH   5   6
ENDBRANCH   4   5
ENDBRANCH   3   4
ENDBRANCH   2   3
ENDBRANCH   1   2
BRANCH   1  11
ATOM     11  C   UNL     1     -44.419  28.980   3.537  1.00  0.00    -0.031 C 
ATOM     12  C   UNL     1     -45.065  27.808   3.622  1.00  0.00    -0.027 C 
BRANCH  12  13
ATOM     13  C   UNL     1     -46.479  27.753   4.132  1.00  0.00     0.054 C 
BRANCH  13  14
ATOM     14  C   UNL     1     -46.730  28.783   5.208  1.00  0.00    -0.027 C 
ATOM     15  C   UNL     1     -46.582  28.529   6.521  1.00  0.00    -0.031 C 
BRANCH  15  16
ATOM     16  C   UNL     1     -46.081  27.223   7.084  1.00  0.00     0.027 C 
BRANCH  16  17
ATOM     17  C   UNL     1     -44.709  27.408   7.742  1.00  0.00     0.004 C 
BRANCH  17  18
ATOM     18  C   UNL     1     -43.579  27.067   6.763  1.00  0.00     0.000 C 
BRANCH  18  19
ATOM     19  C   UNL     1     -42.570  28.219   6.667  1.00  0.00    -0.003 C 
ATOM     20  C   UNL     1     -43.075  29.456   7.404  1.00  0.00     0.004 C 
ENDBRANCH  18  19
ENDBRANCH  17  18
ENDBRANCH  16  17
ENDBRANCH  15  16
ENDBRANCH  13  14
ENDBRANCH  12  13
ENDBRANCH   1  11
TORSDOF 14
ENDMDL
MODEL 5
REMARK VINA RESULT:    -4.304      2.625      4.528
REMARK INTER + INTRA:          -9.108
REMARK INTER:                  -7.963
REMARK INTRA:                  -1.145
REMARK UNBOUND:                -1.282
REMARK SMILES CCCCCC=CCC=CCCCCCCCC(=O)[O-]
REMARK SMILES IDX 11 1 12 2 13 3 14 4 15 5 16 6 17 7 18 8 19 9 20 10 10 11
REMARK SMILES IDX 9 12 8 13 7 14 6 15 5 16 4 17 3 18 2 19 1 20
REMARK H PARENT
REMARK Flexibility Score: inf
ROOT
ATOM      1  C   UNL     1     -43.686  28.259   3.601  1.00  0.00     0.027 C 
ENDROOT
BRANCH   1   2
ATOM      2  C   UNL     1     -44.957  28.779   4.287  1.00  0.00     0.004 C 
BRANCH   2   3
ATOM      3  C   UNL     1     -45.627  27.705   5.161  1.00  0.00     0.000 C 
BRANCH   3   4
ATOM      4  C   UNL     1     -46.126  28.258   6.508  1.00  0.00     0.000 C 
BRANCH   4   5
ATOM      5  C   UNL     1     -45.908  27.326   7.715  1.00  0.00     0.000 C 
BRANCH   5   6
ATOM      6  C   UNL     1     -44.616  27.644   8.489  1.00  0.00     0.006 C 
BRANCH   6   7
ATOM      7  C   UNL     1     -44.010  28.991   8.076  1.00  0.00     0.053 C 
BRANCH   7   8
ATOM      8  C   UNL     1     -42.561  28.862   7.712  1.00  0.00     0.041 C 
ATOM      9  O   UNL     1     -41.699  29.588   8.273  1.00  0.00    -0.550 OA
ATOM     10  O   UNL     1     -42.170  27.961   6.731  1.00  0.00    -0.550 OA
ENDBRANCH   7   8
ENDBRANCH   6   7
ENDBRANCH   5   6
ENDBRANCH   4   5
ENDBRANCH   3   4
ENDBRANCH   2   3
ENDBRANCH   1   2
BRANCH   1  11
ATOM     11  C   UNL     1     -43.805  28.250   2.100  1.00  0.00    -0.031 C 
ATOM     12  C   UNL     1     -42.890  27.652   1.323  1.00  0.00    -0.027 C 
BRANCH  12  13
ATOM     13  C   UNL     1     -43.036  27.666  -0.174  1.00  0.00     0.054 C 
BRANCH  13  14
ATOM     14  C   UNL     1     -44.357  28.257  -0.605  1.00  0.00    -0.027 C 
ATOM     15  C   UNL     1     -45.321  27.545  -1.215  1.00  0.00    -0.031 C 
BRANCH  15  16
ATOM     16  C   UNL     1     -45.244  26.062  -1.480  1.00  0.00     0.027 C 
BRANCH  16  17
ATOM     17  C   UNL     1     -45.803  25.730  -2.868  1.00  0.00     0.004 C 
BRANCH  17  18
ATOM     18  C   UNL     1     -46.386  26.979  -3.539  1.00  0.00     0.000 C 
BRANCH  18  19
ATOM     19  C   UNL     1     -47.025  26.630  -4.889  1.00  0.00    -0.003 C 
ATOM     20  C   UNL     1     -45.982  26.603  -6.002  1.00  0.00     0.004 C 
ENDBRANCH  18  19
ENDBRANCH  17  18
ENDBRANCH  16  17
ENDBRANCH  15  16
ENDBRANCH  13  14
ENDBRANCH  12  13
ENDBRANCH   1  11
TORSDOF 14
ENDMDL
MODEL 6
REMARK VINA RESULT:    -4.280      3.902      9.824
REMARK INTER + INTRA:          -9.064
REMARK INTER:                  -7.862
REMARK INTRA:                  -1.201
REMARK UNBOUND:                -1.282
REMARK SMILES CCCCCC=CCC=CCCCCCCCC(=O)[O-]
REMARK SMILES IDX 11 1 12 2 13 3 14 4 15 5 16 6 17 7 18 8 19 9 20 10 10 11
REMARK SMILES IDX 9 12 8 13 7 14 6 15 5 16 4 17 3 18 2 19 1 20
REMARK H PARENT
REMARK Flexibility Score: inf
ROOT
ATOM      1  C   UNL     1     -43.524  27.206  -0.274  1.00  0.00     0.027 C 
ENDROOT
BRANCH   1   2
ATOM      2  C   UNL     1     -44.902  27.291  -0.946  1.00  0.00     0.004 C 
BRANCH   2   3
ATOM      3  C   UNL     1     -45.306  25.965  -1.613  1.00  0.00     0.000 C 
BRANCH   3   4
ATOM      4  C   UNL     1     -46.316  26.157  -2.758  1.00  0.00     0.000 C 
BRANCH   4   5
ATOM      5  C   UNL     1     -46.420  27.596  -3.300  1.00  0.00     0.000 C 
BRANCH   5   6
ATOM      6  C   UNL     1     -46.621  27.647  -4.824  1.00  0.00     0.006 C 
BRANCH   6   7
ATOM      7  C   UNL     1     -46.038  26.414  -5.527  1.00  0.00     0.053 C 
BRANCH   7   8
ATOM      8  C   UNL     1     -45.763  26.677  -6.977  1.00  0.00     0.041 C 
ATOM      9  O   UNL     1     -45.174  27.733  -7.330  1.00  0.00    -0.550 OA
ATOM     10  O   UNL     1     -46.187  25.770  -7.939  1.00  0.00    -0.550 OA
ENDBRANCH   7   8
ENDBRANCH   6   7
ENDBRANCH   5   6
ENDBRANCH   4   5
ENDBRANCH   3   4
ENDBRANCH   2   3
ENDBRANCH   1   2
BRANCH   1  11
ATOM     11  C   UNL     1     -43.476  27.949   1.035  1.00  0.00    -0.031 C 
ATOM     12  C   UNL     1     -44.480  27.884   1.920  1.00  0.00    -0.027 C 
BRANCH  12  13
ATOM     13  C   UNL     1     -44.404  28.642   3.217  1.00  0.00     0.054 C 
BRANCH  13  14
ATOM     14  C   UNL     1     -43.015  29.177   3.474  1.00  0.00    -0.027 C 
ATOM     15  C   UNL     1     -42.576  29.538   4.694  1.00  0.00    -0.031 C 
BRANCH  15  16
ATOM     16  C   UNL     1     -43.376  29.388   5.963  1.00  0.00     0.027 C 
BRANCH  16  17
ATOM     17  C   UNL     1     -42.936  28.140   6.737  1.00  0.00     0.004 C 
BRANCH  17  18
ATOM     18  C   UNL     1     -43.898  26.971   6.487  1.00  0.00     0.000 C 
BRANCH  18  19
ATOM     19  C   UNL     1     -45.357  27.442   6.530  1.00  0.00    -0.003 C 
ATOM     20  C   UNL     1     -45.920  27.365   7.947  1.00  0.00     0.004 C 
ENDBRANCH  18  19
ENDBRANCH  17  18
ENDBRANCH  16  17
ENDBRANCH  15  16
ENDBRANCH  13  14
ENDBRANCH  12  13
ENDBRANCH   1  11
TORSDOF 14
ENDMDL
MODEL 7
REMARK VINA RESULT:    -4.216      1.408      2.470
REMARK INTER + INTRA:          -8.949
REMARK INTER:                  -7.106
REMARK INTRA:                  -1.843
REMARK UNBOUND:                -1.282
REMARK SMILES CCCCCC=CCC=CCCCCCCCC(=O)[O-]
REMARK SMILES IDX 11 1 12 2 13 3 14 4 15 5 16 6 17 7 18 8 19 9 20 10 10 11
REMARK SMILES IDX 9 12 8 13 7 14 6 15 5 16 4 17 3 18 2 19 1 20
REMARK H PARENT
REMARK Flexibility Score: inf
ROOT
ATOM      1  C   UNL     1     -42.970  28.154   1.424  1.00  0.00     0.027 C 
ENDROOT
BRANCH   1   2
ATOM      2  C   UNL     1     -43.465  29.548   1.836  1.00  0.00     0.004 C 
BRANCH   2   3
ATOM      3  C   UNL     1     -44.908  29.813   1.373  1.00  0.00     0.000 C 
BRANCH   3   4
ATOM      4  C   UNL     1     -45.910  29.854   2.539  1.00  0.00     0.000 C 
BRANCH   4   5
ATOM      5  C   UNL     1     -46.790  28.598   2.686  1.00  0.00     0.000 C 
BRANCH   5   6
ATOM      6  C   UNL     1     -46.717  27.979   4.093  1.00  0.00     0.006 C 
BRANCH   6   7
ATOM      7  C   UNL     1     -45.373  28.255   4.778  1.00  0.00     0.053 C 
BRANCH   7   8
ATOM      8  C   UNL     1     -44.509  27.030   4.823  1.00  0.00     0.041 C 
ATOM      9  O   UNL     1     -43.765  26.814   5.816  1.00  0.00    -0.550 OA
ATOM     10  O   UNL     1     -44.504  26.146   3.752  1.00  0.00    -0.550 OA
ENDBRANCH   7   8
ENDBRANCH   6   7
ENDBRANCH   5   6
ENDBRANCH   4   5
ENDBRANCH   3   4
ENDBRANCH   2   3
ENDBRANCH   1   2
BRANCH   1  11
ATOM     11  C   UNL     1     -44.013  27.375   0.666  1.00  0.00    -0.031 C 
ATOM     12  C   UNL     1     -43.893  27.125  -0.645  1.00  0.00    -0.027 C 
BRANCH  12  13
ATOM     13  C   UNL     1     -44.956  26.348  -1.374  1.00  0.00     0.054 C 
BRANCH  13  14
ATOM     14  C   UNL     1     -46.336  26.903  -1.112  1.00  0.00    -0.027 C 
ATOM     15  C   UNL     1     -46.911  27.846  -1.881  1.00  0.00    -0.031 C 
BRANCH  15  16
ATOM     16  C   UNL     1     -46.292  28.415  -3.134  1.00  0.00     0.027 C 
BRANCH  16  17
ATOM     17  C   UNL     1     -46.983  27.852  -4.381  1.00  0.00     0.004 C 
BRANCH  17  18
ATOM     18  C   UNL     1     -46.295  26.567  -4.858  1.00  0.00     0.000 C 
BRANCH  18  19
ATOM     19  C   UNL     1     -45.924  26.662  -6.343  1.00  0.00    -0.003 C 
ATOM     20  C   UNL     1     -45.565  28.094  -6.732  1.00  0.00     0.004 C 
ENDBRANCH  18  19
ENDBRANCH  17  18
ENDBRANCH  16  17
ENDBRANCH  15  16
ENDBRANCH  13  14
ENDBRANCH  12  13
ENDBRANCH   1  11
TORSDOF 14
ENDMDL
MODEL 8
REMARK VINA RESULT:    -4.216      3.869      9.837
REMARK INTER + INTRA:          -8.947
REMARK INTER:                  -7.653
REMARK INTRA:                  -1.295
REMARK UNBOUND:                -1.282
REMARK SMILES CCCCCC=CCC=CCCCCCCCC(=O)[O-]
REMARK SMILES IDX 11 1 12 2 13 3 14 4 15 5 16 6 17 7 18 8 19 9 20 10 10 11
REMARK SMILES IDX 9 12 8 13 7 14 6 15 5 16 4 17 3 18 2 19 1 20
REMARK H PARENT
REMARK Flexibility Score: inf
ROOT
ATOM      1  C   UNL     1     -43.252  27.832   0.737  1.00  0.00     0.027 C 
ENDROOT
BRANCH   1   2
ATOM      2  C   UNL     1     -43.629  27.194  -0.608  1.00  0.00     0.004 C 
BRANCH   2   3
ATOM      3  C   UNL     1     -45.135  27.302  -0.900  1.00  0.00     0.000 C 
BRANCH   3   4
ATOM      4  C   UNL     1     -45.632  26.223  -1.878  1.00  0.00     0.000 C 
BRANCH   4   5
ATOM      5  C   UNL     1     -46.808  26.651  -2.777  1.00  0.00     0.000 C 
BRANCH   5   6
ATOM      6  C   UNL     1     -46.349  27.360  -4.063  1.00  0.00     0.006 C 
BRANCH   6   7
ATOM      7  C   UNL     1     -46.216  26.390  -5.244  1.00  0.00     0.053 C 
BRANCH   7   8
ATOM      8  C   UNL     1     -45.710  27.078  -6.476  1.00  0.00     0.041 C 
ATOM      9  O   UNL     1     -45.385  28.294  -6.436  1.00  0.00    -0.550 OA
ATOM     10  O   UNL     1     -45.628  26.382  -7.675  1.00  0.00    -0.550 OA
ENDBRANCH   7   8
ENDBRANCH   6   7
ENDBRANCH   5   6
ENDBRANCH   4   5
ENDBRANCH   3   4
ENDBRANCH   2   3
ENDBRANCH   1   2
BRANCH   1  11
ATOM     11  C   UNL     1     -44.032  27.253   1.888  1.00  0.00    -0.031 C 
ATOM     12  C   UNL     1     -43.826  27.650   3.151  1.00  0.00    -0.027 C 
BRANCH  12  13
ATOM     13  C   UNL     1     -44.619  27.047   4.279  1.00  0.00     0.054 C 
BRANCH  13  14
ATOM     14  C   UNL     1     -45.877  27.833   4.565  1.00  0.00    -0.027 C 
ATOM     15  C   UNL     1     -46.487  27.839   5.764  1.00  0.00    -0.031 C 
BRANCH  15  16
ATOM     16  C   UNL     1     -45.964  27.131   6.988  1.00  0.00     0.027 C 
BRANCH  16  17
ATOM     17  C   UNL     1     -45.099  28.074   7.831  1.00  0.00     0.004 C 
BRANCH  17  18
ATOM     18  C   UNL     1     -43.689  27.503   8.025  1.00  0.00     0.000 C 
BRANCH  18  19
ATOM     19  C   UNL     1     -42.663  28.275   7.187  1.00  0.00    -0.003 C 
ATOM     20  C   UNL     1     -43.239  29.600   6.695  1.00  0.00     0.004 C 
ENDBRANCH  18  19
ENDBRANCH  17  18
ENDBRANCH  16  17
ENDBRANCH  15  16
ENDBRANCH  13  14
ENDBRANCH  12  13
ENDBRANCH   1  11
TORSDOF 14
ENDMDL
MODEL 9
REMARK VINA RESULT:    -4.194      3.359      8.849
REMARK INTER + INTRA:          -8.909
REMARK INTER:                  -6.965
REMARK INTRA:                  -1.944
REMARK UNBOUND:                -1.282
REMARK SMILES CCCCCC=CCC=CCCCCCCCC(=O)[O-]
REMARK SMILES IDX 11 1 12 2 13 3 14 4 15 5 16 6 17 7 18 8 19 9 20 10 10 11
REMARK SMILES IDX 9 12 8 13 7 14 6 15 5 16 4 17 3 18 2 19 1 20
REMARK H PARENT
REMARK Flexibility Score: inf
ROOT
ATOM      1  C   UNL     1     -42.964  27.091   1.548  1.00  0.00     0.027 C 
ENDROOT
BRANCH   1   2
ATOM      2  C   UNL     1     -42.545  27.946   0.343  1.00  0.00     0.004 C 
BRANCH   2   3
ATOM      3  C   UNL     1     -42.851  29.439   0.555  1.00  0.00     0.000 C 
BRANCH   3   4
ATOM      4  C   UNL     1     -43.879  29.986  -0.450  1.00  0.00     0.000 C 
BRANCH   4   5
ATOM      5  C   UNL     1     -45.326  30.059   0.073  1.00  0.00     0.000 C 
BRANCH   5   6
ATOM      6  C   UNL     1     -46.324  29.307  -0.825  1.00  0.00     0.006 C 
BRANCH   6   7
ATOM      7  C   UNL     1     -45.674  28.120  -1.547  1.00  0.00     0.053 C 
BRANCH   7   8
ATOM      8  C   UNL     1     -45.851  26.841  -0.787  1.00  0.00     0.041 C 
ATOM      9  O   UNL     1     -46.556  26.815   0.257  1.00  0.00    -0.550 OA
ATOM     10  O   UNL     1     -45.212  25.685  -1.215  1.00  0.00    -0.550 OA
ENDBRANCH   7   8
ENDBRANCH   6   7
ENDBRANCH   5   6
ENDBRANCH   4   5
ENDBRANCH   3   4
ENDBRANCH   2   3
ENDBRANCH   1   2
BRANCH   1  11
ATOM     11  C   UNL     1     -43.726  27.884   2.577  1.00  0.00    -0.031 C 
ATOM     12  C   UNL     1     -44.477  27.287   3.513  1.00  0.00    -0.027 C 
BRANCH  12  13
ATOM     13  C   UNL     1     -45.231  28.108   4.524  1.00  0.00     0.054 C 
BRANCH  13  14
ATOM     14  C   UNL     1     -46.479  27.405   5.001  1.00  0.00    -0.027 C 
ATOM     15  C   UNL     1     -46.933  27.481   6.266  1.00  0.00    -0.031 C 
BRANCH  15  16
ATOM     16  C   UNL     1     -46.305  28.329   7.344  1.00  0.00     0.027 C 
BRANCH  16  17
ATOM     17  C   UNL     1     -45.877  27.462   8.533  1.00  0.00     0.004 C 
BRANCH  17  18
ATOM     18  C   UNL     1     -44.361  27.542   8.755  1.00  0.00     0.000 C 
BRANCH  18  19
ATOM     19  C   UNL     1     -43.741  28.658   7.906  1.00  0.00    -0.003 C 
ATOM     20  C   UNL     1     -42.561  28.138   7.089  1.00  0.00     0.004 C 
ENDBRANCH  18  19
ENDBRANCH  17  18
ENDBRANCH  16  17
ENDBRANCH  15  16
ENDBRANCH  13  14
ENDBRANCH  12  13
ENDBRANCH   1  11
TORSDOF 14
ENDMDL
