MODEL 1
REMARK VINA RESULT:    -1.534      0.000      0.000
REMARK INTER + INTRA:          -0.661
REMARK INTER:                  -2.071
REMARK INTRA:                   1.410
REMARK UNBOUND:                 1.410
REMARK SMILES O=c1c(-c2ccc(O)cc2)coc2c([C@@H]3O[C@@H](CO)[C@H](O)[C@@H](O)[C@@H]3O)c(O)ccc12
REMARK SMILES IDX 3 1 11 2 12 3 13 4 30 5 2 6 1 7 29 8 28 9 26 10 14 11 4 12
REMARK SMILES IDX 5 13 6 14 7 15 10 16 9 17 8 18 15 20 24 21 16 22 22 23 17 24
REMARK SMILES IDX 20 25 25 26 23 28 18 30 19 31 21 33 27 35
REMARK H PARENT 8 19 25 27 23 29 19 32 21 34 27 36
REMARK Flexibility Score: inf
ROOT
ATOM      1  C   UNL     1       3.387  10.621  12.724  1.00  0.00     0.065 A 
ATOM      2  C   UNL     1       2.085  10.802  13.210  1.00  0.00     0.208 A 
ATOM      3  O   UNL     1       1.543  12.014  13.278  1.00  0.00    -0.463 OA
ATOM      4  C   UNL     1       2.179  13.122  12.902  1.00  0.00     0.147 A 
ATOM      5  C   UNL     1       3.489  13.024  12.375  1.00  0.00     0.066 A 
ATOM      6  C   UNL     1       4.099  11.756  12.300  1.00  0.00     0.200 A 
ATOM      7  O   UNL     1       5.284  11.641  11.877  1.00  0.00    -0.288 OA
ATOM      8  C   UNL     1       4.147  14.182  11.944  1.00  0.00     0.020 A 
ATOM      9  C   UNL     1       3.511  15.416  12.021  1.00  0.00     0.047 A 
ATOM     10  C   UNL     1       2.223  15.531  12.557  1.00  0.00     0.125 A 
ATOM     11  C   UNL     1       1.543  14.383  13.041  1.00  0.00     0.069 A 
ENDROOT
BRANCH   1  12
ATOM     12  C   UNL     1       3.982   9.261  12.693  1.00  0.00    -0.011 A 
ATOM     13  C   UNL     1       3.401   8.220  13.438  1.00  0.00     0.013 A 
ATOM     14  C   UNL     1       3.951   6.935  13.407  1.00  0.00     0.047 A 
ATOM     15  C   UNL     1       5.080   6.672  12.625  1.00  0.00     0.115 A 
ATOM     16  C   UNL     1       5.115   8.989  11.906  1.00  0.00     0.013 A 
ATOM     17  C   UNL     1       5.662   7.702  11.875  1.00  0.00     0.047 A 
BRANCH  15  18
ATOM     18  O   UNL     1       5.616   5.385  12.597  1.00  0.00    -0.508 OA
ATOM     19  H   UNL     1       5.590   4.782  13.412  1.00  0.00     0.293 HD
ENDBRANCH  15  18
ENDBRANCH   1  12
BRANCH  11  20
ATOM     20  C   UNL     1       0.125  14.415  13.645  1.00  0.00     0.188 C 
ATOM     21  C   UNL     1      -0.080  14.254  15.188  1.00  0.00     0.179 C 
ATOM     22  O   UNL     1      -0.659  15.447  13.068  1.00  0.00    -0.362 OA
ATOM     23  C   UNL     1      -0.257  15.586  15.968  1.00  0.00     0.177 C 
ATOM     24  C   UNL     1      -0.451  16.691  13.707  1.00  0.00     0.176 C 
ATOM     25  C   UNL     1      -1.021  16.638  15.142  1.00  0.00     0.177 C 
BRANCH  21  26
ATOM     26  O   UNL     1       0.961  13.486  15.739  1.00  0.00    -0.387 OA
ATOM     27  H   UNL     1       0.548  12.668  16.124  1.00  0.00     0.211 HD
ENDBRANCH  21  26
BRANCH  23  28
ATOM     28  O   UNL     1      -0.902  15.354  17.198  1.00  0.00    -0.387 OA
ATOM     29  H   UNL     1      -1.860  15.177  17.015  1.00  0.00     0.211 HD
ENDBRANCH  23  28
BRANCH  24  30
ATOM     30  C   UNL     1      -1.125  17.790  12.867  1.00  0.00     0.191 C 
BRANCH  30  31
ATOM     31  O   UNL     1      -0.694  19.068  13.252  1.00  0.00    -0.394 OA
ATOM     32  H   UNL     1      -0.889  19.155  14.220  1.00  0.00     0.210 HD
ENDBRANCH  30  31
ENDBRANCH  24  30
BRANCH  25  33
ATOM     33  O   UNL     1      -0.960  17.893  15.774  1.00  0.00    -0.388 OA
ATOM     34  H   UNL     1      -1.631  18.484  15.338  1.00  0.00     0.211 HD
ENDBRANCH  25  33
ENDBRANCH  11  20
BRANCH  10  35
ATOM     35  O   UNL     1       1.636  16.788  12.598  1.00  0.00    -0.507 OA
ATOM     36  H   UNL     1       0.637  16.911  12.719  1.00  0.00     0.293 HD
ENDBRANCH  10  35
TORSDOF 9
ENDMDL
MODEL 2
REMARK VINA RESULT:    -0.540      3.089      6.826
REMARK INTER + INTRA:           0.681
REMARK INTER:                  -1.463
REMARK INTRA:                   2.143
REMARK UNBOUND:                 1.410
REMARK SMILES O=c1c(-c2ccc(O)cc2)coc2c([C@@H]3O[C@@H](CO)[C@H](O)[C@@H](O)[C@@H]3O)c(O)ccc12
REMARK SMILES IDX 3 1 11 2 12 3 13 4 30 5 2 6 1 7 29 8 28 9 26 10 14 11 4 12
REMARK SMILES IDX 5 13 6 14 7 15 10 16 9 17 8 18 15 20 24 21 16 22 22 23 17 24
REMARK SMILES IDX 20 25 25 26 23 28 18 30 19 31 21 33 27 35
REMARK H PARENT 8 19 25 27 23 29 19 32 21 34 27 36
REMARK Flexibility Score: inf
ROOT
ATOM      1  C   UNL     1       0.633  14.404  16.930  1.00  0.00     0.065 A 
ATOM      2  C   UNL     1       0.933  13.675  15.772  1.00  0.00     0.208 A 
ATOM      3  O   UNL     1       1.326  14.288  14.661  1.00  0.00    -0.463 OA
ATOM      4  C   UNL     1       1.459  15.610  14.563  1.00  0.00     0.147 A 
ATOM      5  C   UNL     1       1.201  16.418  15.695  1.00  0.00     0.066 A 
ATOM      6  C   UNL     1       0.771  15.802  16.886  1.00  0.00     0.200 A 
ATOM      7  O   UNL     1       0.488  16.500  17.901  1.00  0.00    -0.288 OA
ATOM      8  C   UNL     1       1.376  17.805  15.607  1.00  0.00     0.020 A 
ATOM      9  C   UNL     1       1.814  18.379  14.419  1.00  0.00     0.047 A 
ATOM     10  C   UNL     1       2.056  17.594  13.285  1.00  0.00     0.125 A 
ATOM     11  C   UNL     1       1.850  16.191  13.327  1.00  0.00     0.069 A 
ENDROOT
BRANCH   1  12
ATOM     12  C   UNL     1       0.161  13.697  18.147  1.00  0.00    -0.011 A 
ATOM     13  C   UNL     1       0.583  12.381  18.407  1.00  0.00     0.013 A 
ATOM     14  C   UNL     1       0.149  11.712  19.556  1.00  0.00     0.047 A 
ATOM     15  C   UNL     1      -0.704  12.351  20.461  1.00  0.00     0.115 A 
ATOM     16  C   UNL     1      -0.694  14.335  19.064  1.00  0.00     0.013 A 
ATOM     17  C   UNL     1      -1.125  13.664  20.214  1.00  0.00     0.047 A 
BRANCH  15  18
ATOM     18  O   UNL     1      -1.125  11.676  21.606  1.00  0.00    -0.508 OA
ATOM     19  H   UNL     1      -0.594  10.902  21.991  1.00  0.00     0.293 HD
ENDBRANCH  15  18
ENDBRANCH   1  12
BRANCH  11  20
ATOM     20  C   UNL     1       2.091  15.250  12.130  1.00  0.00     0.188 C 
ATOM     21  C   UNL     1       3.455  14.496  11.980  1.00  0.00     0.179 C 
ATOM     22  O   UNL     1       0.957  14.438  11.875  1.00  0.00    -0.362 OA
ATOM     23  C   UNL     1       3.452  13.030  12.493  1.00  0.00     0.177 C 
ATOM     24  C   UNL     1       0.946  13.275  12.677  1.00  0.00     0.176 C 
ATOM     25  C   UNL     1       2.098  12.338  12.248  1.00  0.00     0.177 C 
BRANCH  21  26
ATOM     26  O   UNL     1       4.488  15.235  12.583  1.00  0.00    -0.387 OA
ATOM     27  H   UNL     1       4.424  16.163  12.233  1.00  0.00     0.211 HD
ENDBRANCH  21  26
BRANCH  23  28
ATOM     28  O   UNL     1       4.499  12.300  11.899  1.00  0.00    -0.387 OA
ATOM     29  H   UNL     1       4.099  11.581  11.346  1.00  0.00     0.211 HD
ENDBRANCH  23  28
BRANCH  24  30
ATOM     30  C   UNL     1      -0.425  12.594  12.532  1.00  0.00     0.191 C 
BRANCH  30  31
ATOM     31  O   UNL     1      -0.650  11.666  13.560  1.00  0.00    -0.394 OA
ATOM     32  H   UNL     1      -1.592  11.369  13.474  1.00  0.00     0.210 HD
ENDBRANCH  30  31
ENDBRANCH  24  30
BRANCH  25  33
ATOM     33  O   UNL     1       2.049  11.107  12.926  1.00  0.00    -0.388 OA
ATOM     34  H   UNL     1       2.420  10.412  12.319  1.00  0.00     0.211 HD
ENDBRANCH  25  33
ENDBRANCH  11  20
BRANCH  10  35
ATOM     35  O   UNL     1       2.502  18.223  12.131  1.00  0.00    -0.507 OA
ATOM     36  H   UNL     1       1.862  18.546  11.414  1.00  0.00     0.293 HD
ENDBRANCH  10  35
TORSDOF 9
ENDMDL
MODEL 3
REMARK VINA RESULT:    -0.403      2.277      4.083
REMARK INTER + INTRA:           0.866
REMARK INTER:                  -0.436
REMARK INTRA:                   1.302
REMARK UNBOUND:                 1.410
REMARK SMILES O=c1c(-c2ccc(O)cc2)coc2c([C@@H]3O[C@@H](CO)[C@H](O)[C@@H](O)[C@@H]3O)c(O)ccc12
REMARK SMILES IDX 3 1 11 2 12 3 13 4 30 5 2 6 1 7 29 8 28 9 26 10 14 11 4 12
REMARK SMILES IDX 5 13 6 14 7 15 10 16 9 17 8 18 15 20 24 21 16 22 22 23 17 24
REMARK SMILES IDX 20 25 25 26 23 28 18 30 19 31 21 33 27 35
REMARK H PARENT 8 19 25 27 23 29 19 32 21 34 27 36
REMARK Flexibility Score: inf
ROOT
ATOM      1  C   UNL     1       1.674  12.455  13.964  1.00  0.00     0.065 A 
ATOM      2  C   UNL     1       1.521  12.607  15.349  1.00  0.00     0.208 A 
ATOM      3  O   UNL     1       0.973  13.705  15.860  1.00  0.00    -0.463 OA
ATOM      4  C   UNL     1       0.540  14.721  15.115  1.00  0.00     0.147 A 
ATOM      5  C   UNL     1       0.634  14.636  13.705  1.00  0.00     0.066 A 
ATOM      6  C   UNL     1       1.220  13.492  13.130  1.00  0.00     0.200 A 
ATOM      7  O   UNL     1       1.360  13.406  11.877  1.00  0.00    -0.288 OA
ATOM      8  C   UNL     1       0.146  15.686  12.917  1.00  0.00     0.020 A 
ATOM      9  C   UNL     1      -0.438  16.795  13.517  1.00  0.00     0.047 A 
ATOM     10  C   UNL     1      -0.522  16.902  14.911  1.00  0.00     0.125 A 
ATOM     11  C   UNL     1      -0.001  15.875  15.741  1.00  0.00     0.069 A 
ENDROOT
BRANCH   1  12
ATOM     12  C   UNL     1       2.322  11.235  13.422  1.00  0.00    -0.011 A 
ATOM     13  C   UNL     1       3.306  11.343  12.423  1.00  0.00     0.013 A 
ATOM     14  C   UNL     1       3.927  10.198  11.914  1.00  0.00     0.047 A 
ATOM     15  C   UNL     1       3.580   8.934  12.402  1.00  0.00     0.115 A 
ATOM     16  C   UNL     1       1.981   9.961  13.911  1.00  0.00     0.013 A 
ATOM     17  C   UNL     1       2.605   8.818  13.401  1.00  0.00     0.047 A 
BRANCH  15  18
ATOM     18  O   UNL     1       4.210   7.800  11.891  1.00  0.00    -0.508 OA
ATOM     19  H   UNL     1       3.905   6.866  12.141  1.00  0.00     0.293 HD
ENDBRANCH  15  18
ENDBRANCH   1  12
BRANCH  11  20
ATOM     20  C   UNL     1      -0.049  15.907  17.281  1.00  0.00     0.188 C 
ATOM     21  C   UNL     1      -0.238  14.583  18.094  1.00  0.00     0.179 C 
ATOM     22  O   UNL     1       0.948  16.766  17.811  1.00  0.00    -0.362 OA
ATOM     23  C   UNL     1       1.073  13.959  18.644  1.00  0.00     0.177 C 
ATOM     24  C   UNL     1       2.193  16.112  17.949  1.00  0.00     0.176 C 
ATOM     25  C   UNL     1       2.094  15.037  19.054  1.00  0.00     0.177 C 
BRANCH  21  26
ATOM     26  O   UNL     1      -0.958  13.645  17.332  1.00  0.00    -0.387 OA
ATOM     27  H   UNL     1      -1.082  14.037  16.427  1.00  0.00     0.211 HD
ENDBRANCH  21  26
BRANCH  23  28
ATOM     28  O   UNL     1       0.794  13.100  19.724  1.00  0.00    -0.387 OA
ATOM     29  H   UNL     1       1.395  13.342  20.474  1.00  0.00     0.211 HD
ENDBRANCH  23  28
BRANCH  24  30
ATOM     30  C   UNL     1       3.265  17.165  18.274  1.00  0.00     0.191 C 
BRANCH  30  31
ATOM     31  O   UNL     1       2.775  18.468  18.102  1.00  0.00    -0.394 OA
ATOM     32  H   UNL     1       2.469  18.778  18.992  1.00  0.00     0.210 HD
ENDBRANCH  30  31
ENDBRANCH  24  30
BRANCH  25  33
ATOM     33  O   UNL     1       3.343  14.449  19.323  1.00  0.00    -0.388 OA
ATOM     34  H   UNL     1       3.549  14.602  20.284  1.00  0.00     0.211 HD
ENDBRANCH  25  33
ENDBRANCH  11  20
BRANCH  10  35
ATOM     35  O   UNL     1      -1.125  18.029  15.452  1.00  0.00    -0.507 OA
ATOM     36  H   UNL     1      -1.497  18.039  16.394  1.00  0.00     0.293 HD
ENDBRANCH  10  35
TORSDOF 9
ENDMDL
MODEL 4
REMARK VINA RESULT:     0.835      1.961      3.809
REMARK INTER + INTRA:           2.539
REMARK INTER:                   0.366
REMARK INTRA:                   2.173
REMARK UNBOUND:                 1.410
REMARK SMILES O=c1c(-c2ccc(O)cc2)coc2c([C@@H]3O[C@@H](CO)[C@H](O)[C@@H](O)[C@@H]3O)c(O)ccc12
REMARK SMILES IDX 3 1 11 2 12 3 13 4 30 5 2 6 1 7 29 8 28 9 26 10 14 11 4 12
REMARK SMILES IDX 5 13 6 14 7 15 10 16 9 17 8 18 15 20 24 21 16 22 22 23 17 24
REMARK SMILES IDX 20 25 25 26 23 28 18 30 19 31 21 33 27 35
REMARK H PARENT 8 19 25 27 23 29 19 32 21 34 27 36
REMARK Flexibility Score: inf
ROOT
ATOM      1  C   UNL     1       3.693   9.348  12.659  1.00  0.00     0.065 A 
ATOM      2  C   UNL     1       3.791  10.512  11.884  1.00  0.00     0.208 A 
ATOM      3  O   UNL     1       2.899  11.489  12.001  1.00  0.00    -0.463 OA
ATOM      4  C   UNL     1       1.867  11.440  12.841  1.00  0.00     0.147 A 
ATOM      5  C   UNL     1       1.709  10.311  13.680  1.00  0.00     0.066 A 
ATOM      6  C   UNL     1       2.629   9.250  13.573  1.00  0.00     0.200 A 
ATOM      7  O   UNL     1       2.490   8.209  14.275  1.00  0.00    -0.288 OA
ATOM      8  C   UNL     1       0.646  10.272  14.591  1.00  0.00     0.020 A 
ATOM      9  C   UNL     1      -0.237  11.341  14.679  1.00  0.00     0.047 A 
ATOM     10  C   UNL     1      -0.104  12.457  13.843  1.00  0.00     0.125 A 
ATOM     11  C   UNL     1       0.937  12.512  12.881  1.00  0.00     0.069 A 
ENDROOT
BRANCH   1  12
ATOM     12  C   UNL     1       4.682   8.256  12.481  1.00  0.00    -0.011 A 
ATOM     13  C   UNL     1       6.047   8.494  12.722  1.00  0.00     0.013 A 
ATOM     14  C   UNL     1       6.983   7.467  12.565  1.00  0.00     0.047 A 
ATOM     15  C   UNL     1       6.567   6.190  12.175  1.00  0.00     0.115 A 
ATOM     16  C   UNL     1       4.270   6.968  12.093  1.00  0.00     0.013 A 
ATOM     17  C   UNL     1       5.209   5.943  11.939  1.00  0.00     0.047 A 
BRANCH  15  18
ATOM     18  O   UNL     1       7.509   5.173  12.028  1.00  0.00    -0.508 OA
ATOM     19  H   UNL     1       8.281   5.067  12.677  1.00  0.00     0.293 HD
ENDBRANCH  15  18
ENDBRANCH   1  12
BRANCH  11  20
ATOM     20  C   UNL     1       1.159  13.698  11.922  1.00  0.00     0.188 C 
ATOM     21  C   UNL     1       0.156  14.900  11.905  1.00  0.00     0.179 C 
ATOM     22  O   UNL     1       2.522  14.090  11.893  1.00  0.00    -0.362 OA
ATOM     23  C   UNL     1       0.599  16.135  12.737  1.00  0.00     0.177 C 
ATOM     24  C   UNL     1       2.838  14.987  12.938  1.00  0.00     0.176 C 
ATOM     25  C   UNL     1       2.125  16.336  12.698  1.00  0.00     0.177 C 
BRANCH  21  26
ATOM     26  O   UNL     1      -1.125  14.469  12.292  1.00  0.00    -0.387 OA
ATOM     27  H   UNL     1      -1.771  15.158  11.982  1.00  0.00     0.211 HD
ENDBRANCH  21  26
BRANCH  23  28
ATOM     28  O   UNL     1      -0.069  17.292  12.293  1.00  0.00    -0.387 OA
ATOM     29  H   UNL     1       0.548  17.796  11.703  1.00  0.00     0.211 HD
ENDBRANCH  23  28
BRANCH  24  30
ATOM     30  C   UNL     1       4.366  15.153  12.994  1.00  0.00     0.191 C 
BRANCH  30  31
ATOM     31  O   UNL     1       4.976  14.079  13.660  1.00  0.00    -0.394 OA
ATOM     32  H   UNL     1       5.019  14.326  14.619  1.00  0.00     0.210 HD
ENDBRANCH  30  31
ENDBRANCH  24  30
BRANCH  25  33
ATOM     33  O   UNL     1       2.514  17.307  13.638  1.00  0.00    -0.388 OA
ATOM     34  H   UNL     1       2.666  18.159  13.149  1.00  0.00     0.211 HD
ENDBRANCH  25  33
ENDBRANCH  11  20
BRANCH  10  35
ATOM     35  O   UNL     1      -1.011  13.499  13.985  1.00  0.00    -0.507 OA
ATOM     36  H   UNL     1      -0.712  14.456  14.128  1.00  0.00     0.293 HD
ENDBRANCH  10  35
TORSDOF 9
ENDMDL
