MODEL 1
REMARK VINA RESULT:    -2.725      0.000      0.000
REMARK INTER + INTRA:          -3.510
REMARK INTER:                  -3.521
REMARK INTRA:                   0.011
REMARK UNBOUND:                 0.011
REMARK SMILES C=CC(=O)CCCCC
REMARK SMILES IDX 6 1 7 2 8 3 9 4 5 5 3 6 4 7 2 8 1 9
REMARK H PARENT
REMARK Flexibility Score: inf
ROOT
ATOM      1  C   UNL     1      11.538  15.391   1.068  1.00  0.00     0.008 C 
ENDROOT
BRANCH   1   2
ATOM      2  C   UNL     1      11.562  13.888   1.398  1.00  0.00     0.000 C 
BRANCH   2   3
ATOM      3  C   UNL     1      11.420  13.007   0.147  1.00  0.00    -0.003 C 
ATOM      4  C   UNL     1      10.511  13.628  -0.914  1.00  0.00     0.004 C 
ENDBRANCH   2   3
ENDBRANCH   1   2
BRANCH   1   5
ATOM      5  C   UNL     1      10.747  16.199   2.110  1.00  0.00     0.080 C 
BRANCH   5   6
ATOM      6  C   UNL     1       9.250  15.990   2.036  1.00  0.00     0.155 C 
ATOM      7  O   UNL     1       8.477  16.986   2.028  1.00  0.00    -0.295 OA
BRANCH   6   8
ATOM      8  C   UNL     1       8.644  14.643   2.030  1.00  0.00     0.039 C 
ATOM      9  C   UNL     1       7.332  14.422   2.125  1.00  0.00     0.012 C 
ENDBRANCH   6   8
ENDBRANCH   5   6
ENDBRANCH   1   5
TORSDOF 5
ENDMDL
MODEL 2
REMARK VINA RESULT:    -2.521      1.582      1.946
REMARK INTER + INTRA:          -3.247
REMARK INTER:                  -2.798
REMARK INTRA:                  -0.450
REMARK UNBOUND:                 0.011
REMARK SMILES C=CC(=O)CCCCC
REMARK SMILES IDX 6 1 7 2 8 3 9 4 5 5 3 6 4 7 2 8 1 9
REMARK H PARENT
REMARK Flexibility Score: inf
ROOT
ATOM      1  C   UNL     1      11.406  13.586   1.848  1.00  0.00     0.008 C 
ENDROOT
BRANCH   1   2
ATOM      2  C   UNL     1      12.060  12.875   0.649  1.00  0.00     0.000 C 
BRANCH   2   3
ATOM      3  C   UNL     1      11.880  13.651  -0.665  1.00  0.00    -0.003 C 
ATOM      4  C   UNL     1      10.411  13.825  -1.053  1.00  0.00     0.004 C 
ENDBRANCH   2   3
ENDBRANCH   1   2
BRANCH   1   5
ATOM      5  C   UNL     1      12.046  14.957   2.125  1.00  0.00     0.080 C 
BRANCH   5   6
ATOM      6  C   UNL     1      11.086  16.118   1.977  1.00  0.00     0.155 C 
ATOM      7  O   UNL     1      11.531  17.298   1.934  1.00  0.00    -0.295 OA
BRANCH   6   8
ATOM      8  C   UNL     1       9.622  15.928   1.938  1.00  0.00     0.039 C 
ATOM      9  C   UNL     1       8.769  16.849   1.490  1.00  0.00     0.012 C 
ENDBRANCH   6   8
ENDBRANCH   5   6
ENDBRANCH   1   5
TORSDOF 5
ENDMDL
MODEL 3
REMARK VINA RESULT:    -1.971      2.187      3.863
REMARK INTER + INTRA:          -2.536
REMARK INTER:                  -2.122
REMARK INTRA:                  -0.414
REMARK UNBOUND:                 0.011
REMARK SMILES C=CC(=O)CCCCC
REMARK SMILES IDX 6 1 7 2 8 3 9 4 5 5 3 6 4 7 2 8 1 9
REMARK H PARENT
REMARK Flexibility Score: inf
ROOT
ATOM      1  C   UNL     1      11.432  16.187   1.304  1.00  0.00     0.008 C 
ENDROOT
BRANCH   1   2
ATOM      2  C   UNL     1      10.285  16.822   2.110  1.00  0.00     0.000 C 
BRANCH   2   3
ATOM      3  C   UNL     1       8.902  16.496   1.524  1.00  0.00    -0.003 C 
ATOM      4  C   UNL     1       8.294  15.224   2.114  1.00  0.00     0.004 C 
ENDBRANCH   2   3
ENDBRANCH   1   2
BRANCH   1   5
ATOM      5  C   UNL     1      12.183  15.116   2.112  1.00  0.00     0.080 C 
BRANCH   5   6
ATOM      6  C   UNL     1      12.114  13.733   1.503  1.00  0.00     0.155 C 
ATOM      7  O   UNL     1      13.079  12.934   1.649  1.00  0.00    -0.295 OA
BRANCH   6   8
ATOM      8  C   UNL     1      10.967  13.291   0.684  1.00  0.00     0.039 C 
ATOM      9  C   UNL     1      10.970  13.286  -0.649  1.00  0.00     0.012 C 
ENDBRANCH   6   8
ENDBRANCH   5   6
ENDBRANCH   1   5
TORSDOF 5
ENDMDL
MODEL 4
REMARK VINA RESULT:    -1.967      1.469      2.158
REMARK INTER + INTRA:          -2.531
REMARK INTER:                  -2.470
REMARK INTRA:                  -0.061
REMARK UNBOUND:                 0.011
REMARK SMILES C=CC(=O)CCCCC
REMARK SMILES IDX 6 1 7 2 8 3 9 4 5 5 3 6 4 7 2 8 1 9
REMARK H PARENT
REMARK Flexibility Score: inf
ROOT
ATOM      1  C   UNL     1      10.518  14.743   0.707  1.00  0.00     0.008 C 
ENDROOT
BRANCH   1   2
ATOM      2  C   UNL     1      10.652  13.645  -0.363  1.00  0.00     0.000 C 
BRANCH   2   3
ATOM      3  C   UNL     1      11.981  12.880  -0.257  1.00  0.00    -0.003 C 
ATOM      4  C   UNL     1      12.710  13.139   1.062  1.00  0.00     0.004 C 
ENDBRANCH   2   3
ENDBRANCH   1   2
BRANCH   1   5
ATOM      5  C   UNL     1       9.605  14.311   1.867  1.00  0.00     0.080 C 
BRANCH   5   6
ATOM      6  C   UNL     1       8.372  15.172   2.027  1.00  0.00     0.155 C 
ATOM      7  O   UNL     1       7.230  14.638   2.029  1.00  0.00    -0.295 OA
BRANCH   6   8
ATOM      8  C   UNL     1       8.448  16.644   2.125  1.00  0.00     0.039 C 
ATOM      9  C   UNL     1       7.455  17.461   1.772  1.00  0.00     0.012 C 
ENDBRANCH   6   8
ENDBRANCH   5   6
ENDBRANCH   1   5
TORSDOF 5
ENDMDL
MODEL 5
REMARK VINA RESULT:    -1.725      1.156      2.513
REMARK INTER + INTRA:          -2.218
REMARK INTER:                  -2.606
REMARK INTRA:                   0.388
REMARK UNBOUND:                 0.011
REMARK SMILES C=CC(=O)CCCCC
REMARK SMILES IDX 6 1 7 2 8 3 9 4 5 5 3 6 4 7 2 8 1 9
REMARK H PARENT
REMARK Flexibility Score: inf
ROOT
ATOM      1  C   UNL     1      10.643  14.001   1.224  1.00  0.00     0.008 C 
ENDROOT
BRANCH   1   2
ATOM      2  C   UNL     1      10.708  13.908  -0.311  1.00  0.00     0.000 C 
BRANCH   2   3
ATOM      3  C   UNL     1      12.046  13.341  -0.811  1.00  0.00    -0.003 C 
ATOM      4  C   UNL     1      12.954  12.875   0.328  1.00  0.00     0.004 C 
ENDBRANCH   2   3
ENDBRANCH   1   2
BRANCH   1   5
ATOM      5  C   UNL     1       9.421  14.802   1.703  1.00  0.00     0.080 C 
BRANCH   5   6
ATOM      6  C   UNL     1       9.611  16.302   1.637  1.00  0.00     0.155 C 
ATOM      7  O   UNL     1       8.670  17.036   1.230  1.00  0.00    -0.295 OA
BRANCH   6   8
ATOM      8  C   UNL     1      10.894  16.947   1.982  1.00  0.00     0.039 C 
ATOM      9  C   UNL     1      12.042  16.283   2.122  1.00  0.00     0.012 C 
ENDBRANCH   6   8
ENDBRANCH   5   6
ENDBRANCH   1   5
TORSDOF 5
ENDMDL
MODEL 6
REMARK VINA RESULT:    -1.679      2.164      4.214
REMARK INTER + INTRA:          -2.159
REMARK INTER:                  -1.910
REMARK INTRA:                  -0.249
REMARK UNBOUND:                 0.011
REMARK SMILES C=CC(=O)CCCCC
REMARK SMILES IDX 6 1 7 2 8 3 9 4 5 5 3 6 4 7 2 8 1 9
REMARK H PARENT
REMARK Flexibility Score: inf
ROOT
ATOM      1  C   UNL     1       9.030  14.358   0.051  1.00  0.00     0.008 C 
ENDROOT
BRANCH   1   2
ATOM      2  C   UNL     1       8.688  14.373   1.552  1.00  0.00     0.000 C 
BRANCH   2   3
ATOM      3  C   UNL     1       8.616  15.797   2.125  1.00  0.00    -0.003 C 
ATOM      4  C   UNL     1       9.761  16.688   1.643  1.00  0.00     0.004 C 
ENDBRANCH   2   3
ENDBRANCH   1   2
BRANCH   1   5
ATOM      5  C   UNL     1      10.076  13.285  -0.292  1.00  0.00     0.080 C 
BRANCH   5   6
ATOM      6  C   UNL     1      11.495  13.686   0.049  1.00  0.00     0.155 C 
ATOM      7  O   UNL     1      12.313  13.944  -0.876  1.00  0.00    -0.295 OA
BRANCH   6   8
ATOM      8  C   UNL     1      11.986  13.734   1.441  1.00  0.00     0.039 C 
ATOM      9  C   UNL     1      12.876  12.877   1.941  1.00  0.00     0.012 C 
ENDBRANCH   6   8
ENDBRANCH   5   6
ENDBRANCH   1   5
TORSDOF 5
ENDMDL
