MODEL 1
REMARK VINA RESULT:    -4.670      0.000      0.000
REMARK INTER + INTRA:          -6.439
REMARK INTER:                  -6.035
REMARK INTRA:                  -0.404
REMARK UNBOUND:                -0.404
REMARK SMILES C=CC(=O)CCCCC
REMARK SMILES IDX 6 1 7 2 8 3 9 4 5 5 3 6 4 7 2 8 1 9
REMARK H PARENT
REMARK Flexibility Score: inf
ROOT
ATOM      1  C   UNL     1       9.091  32.436  27.446  1.00  0.00     0.008 C 
ENDROOT
BRANCH   1   2
ATOM      2  C   UNL     1      10.125  33.301  28.190  1.00  0.00     0.000 C 
BRANCH   2   3
ATOM      3  C   UNL     1       9.868  33.357  29.703  1.00  0.00    -0.003 C 
ATOM      4  C   UNL     1       8.414  33.683  30.043  1.00  0.00     0.004 C 
ENDBRANCH   2   3
ENDBRANCH   1   2
BRANCH   1   5
ATOM      5  C   UNL     1       9.129  30.969  27.904  1.00  0.00     0.080 C 
BRANCH   5   6
ATOM      6  C   UNL     1       7.766  30.397  28.225  1.00  0.00     0.155 C 
ATOM      7  O   UNL     1       7.669  29.394  28.984  1.00  0.00    -0.295 OA
BRANCH   6   8
ATOM      8  C   UNL     1       6.519  31.010  27.725  1.00  0.00     0.039 C 
ATOM      9  C   UNL     1       5.614  31.593  28.511  1.00  0.00     0.012 C 
ENDBRANCH   6   8
ENDBRANCH   5   6
ENDBRANCH   1   5
TORSDOF 5
ENDMDL
MODEL 2
REMARK VINA RESULT:    -4.557      1.892      3.700
REMARK INTER + INTRA:          -6.294
REMARK INTER:                  -5.715
REMARK INTRA:                  -0.578
REMARK UNBOUND:                -0.404
REMARK SMILES C=CC(=O)CCCCC
REMARK SMILES IDX 6 1 7 2 8 3 9 4 5 5 3 6 4 7 2 8 1 9
REMARK H PARENT
REMARK Flexibility Score: inf
ROOT
ATOM      1  C   UNL     1       8.693  30.748  27.560  1.00  0.00     0.008 C 
ENDROOT
BRANCH   1   2
ATOM      2  C   UNL     1       7.882  29.868  28.528  1.00  0.00     0.000 C 
BRANCH   2   3
ATOM      3  C   UNL     1       6.434  30.354  28.692  1.00  0.00    -0.003 C 
ATOM      4  C   UNL     1       6.037  31.393  27.644  1.00  0.00     0.004 C 
ENDBRANCH   2   3
ENDBRANCH   1   2
BRANCH   1   5
ATOM      5  C   UNL     1       9.904  31.401  28.249  1.00  0.00     0.080 C 
BRANCH   5   6
ATOM      6  C   UNL     1       9.702  32.864  28.574  1.00  0.00     0.155 C 
ATOM      7  O   UNL     1      10.125  33.748  27.778  1.00  0.00    -0.295 OA
BRANCH   6   8
ATOM      8  C   UNL     1       8.967  33.309  29.775  1.00  0.00     0.039 C 
ATOM      9  C   UNL     1       7.815  33.978  29.732  1.00  0.00     0.012 C 
ENDBRANCH   6   8
ENDBRANCH   5   6
ENDBRANCH   1   5
TORSDOF 5
ENDMDL
MODEL 3
REMARK VINA RESULT:    -4.398      2.021      4.157
REMARK INTER + INTRA:          -6.087
REMARK INTER:                  -6.147
REMARK INTRA:                   0.060
REMARK UNBOUND:                -0.404
REMARK SMILES C=CC(=O)CCCCC
REMARK SMILES IDX 6 1 7 2 8 3 9 4 5 5 3 6 4 7 2 8 1 9
REMARK H PARENT
REMARK Flexibility Score: inf
ROOT
ATOM      1  C   UNL     1       7.218  32.064  27.972  1.00  0.00     0.008 C 
ENDROOT
BRANCH   1   2
ATOM      2  C   UNL     1       6.002  31.191  28.328  1.00  0.00     0.000 C 
BRANCH   2   3
ATOM      3  C   UNL     1       6.400  29.882  29.024  1.00  0.00    -0.003 C 
ATOM      4  C   UNL     1       7.134  28.918  28.093  1.00  0.00     0.004 C 
ENDBRANCH   2   3
ENDBRANCH   1   2
BRANCH   1   5
ATOM      5  C   UNL     1       7.881  32.670  29.221  1.00  0.00     0.080 C 
BRANCH   5   6
ATOM      6  C   UNL     1       9.343  33.006  29.030  1.00  0.00     0.155 C 
ATOM      7  O   UNL     1       9.945  33.704  29.893  1.00  0.00    -0.295 OA
BRANCH   6   8
ATOM      8  C   UNL     1      10.125  32.495  27.886  1.00  0.00     0.039 C 
ATOM      9  C   UNL     1      10.117  31.220  27.495  1.00  0.00     0.012 C 
ENDBRANCH   6   8
ENDBRANCH   5   6
ENDBRANCH   1   5
TORSDOF 5
ENDMDL
MODEL 4
REMARK VINA RESULT:    -4.356     16.755     17.723
REMARK INTER + INTRA:          -6.034
REMARK INTER:                  -5.690
REMARK INTRA:                  -0.345
REMARK UNBOUND:                -0.404
REMARK SMILES C=CC(=O)CCCCC
REMARK SMILES IDX 6 1 7 2 8 3 9 4 5 5 3 6 4 7 2 8 1 9
REMARK H PARENT
REMARK Flexibility Score: inf
ROOT
ATOM      1  C   UNL     1      -7.976  33.460  21.043  1.00  0.00     0.008 C 
ENDROOT
BRANCH   1   2
ATOM      2  C   UNL     1      -7.874  34.794  21.805  1.00  0.00     0.000 C 
BRANCH   2   3
ATOM      3  C   UNL     1      -7.436  34.607  23.265  1.00  0.00    -0.003 C 
ATOM      4  C   UNL     1      -8.477  35.114  24.263  1.00  0.00     0.004 C 
ENDBRANCH   2   3
ENDBRANCH   1   2
BRANCH   1   5
ATOM      5  C   UNL     1      -9.229  32.662  21.441  1.00  0.00     0.080 C 
BRANCH   5   6
ATOM      6  C   UNL     1      -8.955  31.559  22.440  1.00  0.00     0.155 C 
ATOM      7  O   UNL     1      -9.603  31.518  23.522  1.00  0.00    -0.295 OA
BRANCH   6   8
ATOM      8  C   UNL     1      -7.986  30.478  22.171  1.00  0.00     0.039 C 
ATOM      9  C   UNL     1      -7.076  30.064  23.052  1.00  0.00     0.012 C 
ENDBRANCH   6   8
ENDBRANCH   5   6
ENDBRANCH   1   5
TORSDOF 5
ENDMDL
MODEL 5
REMARK VINA RESULT:    -4.352     16.515     17.877
REMARK INTER + INTRA:          -6.028
REMARK INTER:                  -5.593
REMARK INTRA:                  -0.435
REMARK UNBOUND:                -0.404
REMARK SMILES C=CC(=O)CCCCC
REMARK SMILES IDX 6 1 7 2 8 3 9 4 5 5 3 6 4 7 2 8 1 9
REMARK H PARENT
REMARK Flexibility Score: inf
ROOT
ATOM      1  C   UNL     1      -8.879  31.055  21.803  1.00  0.00     0.008 C 
ENDROOT
BRANCH   1   2
ATOM      2  C   UNL     1      -8.993  31.196  23.331  1.00  0.00     0.000 C 
BRANCH   2   3
ATOM      3  C   UNL     1      -7.798  30.576  24.071  1.00  0.00    -0.003 C 
ATOM      4  C   UNL     1      -6.835  29.850  23.132  1.00  0.00     0.004 C 
ENDBRANCH   2   3
ENDBRANCH   1   2
BRANCH   1   5
ATOM      5  C   UNL     1      -9.225  32.364  21.073  1.00  0.00     0.080 C 
BRANCH   5   6
ATOM      6  C   UNL     1      -8.039  33.280  20.874  1.00  0.00     0.155 C 
ATOM      7  O   UNL     1      -7.189  33.021  19.978  1.00  0.00    -0.295 OA
BRANCH   6   8
ATOM      8  C   UNL     1      -7.862  34.519  21.659  1.00  0.00     0.039 C 
ATOM      9  C   UNL     1      -7.478  34.537  22.936  1.00  0.00     0.012 C 
ENDBRANCH   6   8
ENDBRANCH   5   6
ENDBRANCH   1   5
TORSDOF 5
ENDMDL
MODEL 6
REMARK VINA RESULT:    -4.275     16.760     17.455
REMARK INTER + INTRA:          -5.929
REMARK INTER:                  -5.402
REMARK INTRA:                  -0.527
REMARK UNBOUND:                -0.404
REMARK SMILES C=CC(=O)CCCCC
REMARK SMILES IDX 6 1 7 2 8 3 9 4 5 5 3 6 4 7 2 8 1 9
REMARK H PARENT
REMARK Flexibility Score: inf
ROOT
ATOM      1  C   UNL     1      -7.796  34.293  23.519  1.00  0.00     0.008 C 
ENDROOT
BRANCH   1   2
ATOM      2  C   UNL     1      -7.616  34.725  22.053  1.00  0.00     0.000 C 
BRANCH   2   3
ATOM      3  C   UNL     1      -8.297  33.764  21.068  1.00  0.00    -0.003 C 
ATOM      4  C   UNL     1      -7.326  33.187  20.038  1.00  0.00     0.004 C 
ENDBRANCH   2   3
ENDBRANCH   1   2
BRANCH   1   5
ATOM      5  C   UNL     1      -8.789  33.128  23.661  1.00  0.00     0.080 C 
BRANCH   5   6
ATOM      6  C   UNL     1      -8.164  31.858  24.194  1.00  0.00     0.155 C 
ATOM      7  O   UNL     1      -8.257  31.579  25.421  1.00  0.00    -0.295 OA
BRANCH   6   8
ATOM      8  C   UNL     1      -7.486  30.885  23.313  1.00  0.00     0.039 C 
ATOM      9  C   UNL     1      -8.096  30.238  22.320  1.00  0.00     0.012 C 
ENDBRANCH   6   8
ENDBRANCH   5   6
ENDBRANCH   1   5
TORSDOF 5
ENDMDL
MODEL 7
REMARK VINA RESULT:    -4.245     17.060     17.707
REMARK INTER + INTRA:          -5.890
REMARK INTER:                  -5.334
REMARK INTRA:                  -0.556
REMARK UNBOUND:                -0.404
REMARK SMILES C=CC(=O)CCCCC
REMARK SMILES IDX 6 1 7 2 8 3 9 4 5 5 3 6 4 7 2 8 1 9
REMARK H PARENT
REMARK Flexibility Score: inf
ROOT
ATOM      1  C   UNL     1      -7.882  34.845  21.888  1.00  0.00     0.008 C 
ENDROOT
BRANCH   1   2
ATOM      2  C   UNL     1      -7.310  34.519  23.279  1.00  0.00     0.000 C 
BRANCH   2   3
ATOM      3  C   UNL     1      -8.328  34.750  24.405  1.00  0.00    -0.003 C 
ATOM      4  C   UNL     1      -8.653  33.472  25.178  1.00  0.00     0.004 C 
ENDBRANCH   2   3
ENDBRANCH   1   2
BRANCH   1   5
ATOM      5  C   UNL     1      -7.870  33.622  20.956  1.00  0.00     0.080 C 
BRANCH   5   6
ATOM      6  C   UNL     1      -8.580  32.415  21.528  1.00  0.00     0.155 C 
ATOM      7  O   UNL     1      -9.830  32.444  21.697  1.00  0.00    -0.295 OA
BRANCH   6   8
ATOM      8  C   UNL     1      -7.867  31.162  21.848  1.00  0.00     0.039 C 
ATOM      9  C   UNL     1      -8.111  30.427  22.933  1.00  0.00     0.012 C 
ENDBRANCH   6   8
ENDBRANCH   5   6
ENDBRANCH   1   5
TORSDOF 5
ENDMDL
MODEL 8
REMARK VINA RESULT:    -4.179     16.713     17.372
REMARK INTER + INTRA:          -5.805
REMARK INTER:                  -5.261
REMARK INTRA:                  -0.544
REMARK UNBOUND:                -0.404
REMARK SMILES C=CC(=O)CCCCC
REMARK SMILES IDX 6 1 7 2 8 3 9 4 5 5 3 6 4 7 2 8 1 9
REMARK H PARENT
REMARK Flexibility Score: inf
ROOT
ATOM      1  C   UNL     1      -7.831  32.084  21.150  1.00  0.00     0.008 C 
ENDROOT
BRANCH   1   2
ATOM      2  C   UNL     1      -8.688  33.332  21.429  1.00  0.00     0.000 C 
BRANCH   2   3
ATOM      3  C   UNL     1      -7.842  34.557  21.806  1.00  0.00    -0.003 C 
ATOM      4  C   UNL     1      -7.481  34.591  23.290  1.00  0.00     0.004 C 
ENDBRANCH   2   3
ENDBRANCH   1   2
BRANCH   1   5
ATOM      5  C   UNL     1      -8.382  30.834  21.855  1.00  0.00     0.080 C 
BRANCH   5   6
ATOM      6  C   UNL     1      -7.696  30.524  23.167  1.00  0.00     0.155 C 
ATOM      7  O   UNL     1      -6.661  29.802  23.179  1.00  0.00    -0.295 OA
BRANCH   6   8
ATOM      8  C   UNL     1      -8.161  31.088  24.450  1.00  0.00     0.039 C 
ATOM      9  C   UNL     1      -9.405  31.518  24.661  1.00  0.00     0.012 C 
ENDBRANCH   6   8
ENDBRANCH   5   6
ENDBRANCH   1   5
TORSDOF 5
ENDMDL
MODEL 9
REMARK VINA RESULT:    -4.171     16.944     17.752
REMARK INTER + INTRA:          -5.794
REMARK INTER:                  -5.260
REMARK INTRA:                  -0.534
REMARK UNBOUND:                -0.404
REMARK SMILES C=CC(=O)CCCCC
REMARK SMILES IDX 6 1 7 2 8 3 9 4 5 5 3 6 4 7 2 8 1 9
REMARK H PARENT
REMARK Flexibility Score: inf
ROOT
ATOM      1  C   UNL     1      -8.716  32.079  23.768  1.00  0.00     0.008 C 
ENDROOT
BRANCH   1   2
ATOM      2  C   UNL     1      -7.847  30.892  24.221  1.00  0.00     0.000 C 
BRANCH   2   3
ATOM      3  C   UNL     1      -7.372  30.027  23.044  1.00  0.00    -0.003 C 
ATOM      4  C   UNL     1      -8.529  29.471  22.215  1.00  0.00     0.004 C 
ENDBRANCH   2   3
ENDBRANCH   1   2
BRANCH   1   5
ATOM      5  C   UNL     1      -7.884  33.354  23.548  1.00  0.00     0.080 C 
BRANCH   5   6
ATOM      6  C   UNL     1      -7.971  33.902  22.141  1.00  0.00     0.155 C 
ATOM      7  O   UNL     1      -7.722  35.120  21.925  1.00  0.00    -0.295 OA
BRANCH   6   8
ATOM      8  C   UNL     1      -8.285  33.043  20.981  1.00  0.00     0.039 C 
ATOM      9  C   UNL     1      -7.404  32.736  20.029  1.00  0.00     0.012 C 
ENDBRANCH   6   8
ENDBRANCH   5   6
ENDBRANCH   1   5
TORSDOF 5
ENDMDL
