MODEL 1
REMARK VINA RESULT:    -4.683      0.000      0.000
REMARK INTER + INTRA:          -4.683
REMARK INTER:                  -4.683
REMARK INTRA:                   0.000
REMARK UNBOUND:                 0.000
REMARK SMILES CC1=CC(=O)[C@H]2C[C@@H]1C2(C)C
REMARK SMILES IDX 1 1 2 2 3 3 4 4 5 5 6 6 7 7 8 8 9 9 10 10 11 11
REMARK H PARENT
REMARK Flexibility Score: inf
ROOT
ATOM      1  C   UNL     1      -6.167  20.800  68.503  1.00  0.00     0.040 C 
ATOM      2  C   UNL     1      -7.039  20.277  67.405  1.00  0.00    -0.066 C 
ATOM      3  C   UNL     1      -7.350  18.955  67.315  1.00  0.00     0.047 C 
ATOM      4  C   UNL     1      -8.205  18.552  66.152  1.00  0.00     0.159 C 
ATOM      5  O   UNL     1      -8.527  17.353  65.938  1.00  0.00    -0.295 OA
ATOM      6  C   UNL     1      -8.656  19.696  65.243  1.00  0.00     0.067 C 
ATOM      7  C   UNL     1      -9.125  20.793  66.224  1.00  0.00     0.021 C 
ATOM      8  C   UNL     1      -7.642  21.210  66.332  1.00  0.00     0.022 C 
ATOM      9  C   UNL     1      -7.423  20.587  64.923  1.00  0.00    -0.019 C 
ATOM     10  C   UNL     1      -7.707  21.598  63.781  1.00  0.00     0.012 C 
ATOM     11  C   UNL     1      -6.064  19.892  64.629  1.00  0.00     0.012 C 
ENDROOT
TORSDOF 0
ENDMDL
MODEL 2
REMARK VINA RESULT:    -4.663     12.432     13.936
REMARK INTER + INTRA:          -4.663
REMARK INTER:                  -4.663
REMARK INTRA:                   0.000
REMARK UNBOUND:                 0.000
REMARK SMILES CC1=CC(=O)[C@H]2C[C@@H]1C2(C)C
REMARK SMILES IDX 1 1 2 2 3 3 4 4 5 5 6 6 7 7 8 8 9 9 10 10 11 11
REMARK H PARENT
REMARK Flexibility Score: inf
ROOT
ATOM      1  C   UNL     1      -7.302  30.771  74.428  1.00  0.00     0.040 C 
ATOM      2  C   UNL     1      -6.973  29.667  75.382  1.00  0.00    -0.066 C 
ATOM      3  C   UNL     1      -6.464  28.481  74.946  1.00  0.00     0.047 C 
ATOM      4  C   UNL     1      -6.206  27.444  75.996  1.00  0.00     0.159 C 
ATOM      5  O   UNL     1      -5.775  26.295  75.715  1.00  0.00    -0.295 OA
ATOM      6  C   UNL     1      -6.508  27.876  77.432  1.00  0.00     0.067 C 
ATOM      7  C   UNL     1      -5.877  29.282  77.542  1.00  0.00     0.021 C 
ATOM      8  C   UNL     1      -7.178  29.820  76.905  1.00  0.00     0.022 C 
ATOM      9  C   UNL     1      -7.904  28.560  77.459  1.00  0.00    -0.019 C 
ATOM     10  C   UNL     1      -8.429  28.770  78.903  1.00  0.00     0.012 C 
ATOM     11  C   UNL     1      -9.049  27.938  76.611  1.00  0.00     0.012 C 
ENDROOT
TORSDOF 0
ENDMDL
MODEL 3
REMARK VINA RESULT:    -4.482      4.939      6.359
REMARK INTER + INTRA:          -4.482
REMARK INTER:                  -4.482
REMARK INTRA:                   0.000
REMARK UNBOUND:                 0.000
REMARK SMILES CC1=CC(=O)[C@H]2C[C@@H]1C2(C)C
REMARK SMILES IDX 1 1 2 2 3 3 4 4 5 5 6 6 7 7 8 8 9 9 10 10 11 11
REMARK H PARENT
REMARK Flexibility Score: inf
ROOT
ATOM      1  C   UNL     1      -3.843  24.265  60.331  1.00  0.00     0.040 C 
ATOM      2  C   UNL     1      -4.628  23.069  60.769  1.00  0.00    -0.066 C 
ATOM      3  C   UNL     1      -5.705  23.192  61.593  1.00  0.00     0.047 C 
ATOM      4  C   UNL     1      -6.388  21.918  61.986  1.00  0.00     0.159 C 
ATOM      5  O   UNL     1      -7.370  21.896  62.774  1.00  0.00    -0.295 OA
ATOM      6  C   UNL     1      -5.808  20.646  61.365  1.00  0.00     0.067 C 
ATOM      7  C   UNL     1      -5.612  21.009  59.877  1.00  0.00     0.021 C 
ATOM      8  C   UNL     1      -4.268  21.644  60.298  1.00  0.00     0.022 C 
ATOM      9  C   UNL     1      -4.261  20.681  61.521  1.00  0.00    -0.019 C 
ATOM     10  C   UNL     1      -3.604  19.316  61.192  1.00  0.00     0.012 C 
ATOM     11  C   UNL     1      -3.664  21.197  62.860  1.00  0.00     0.012 C 
ENDROOT
TORSDOF 0
ENDMDL
MODEL 4
REMARK VINA RESULT:    -4.313     12.586     13.938
REMARK INTER + INTRA:          -4.313
REMARK INTER:                  -4.313
REMARK INTRA:                   0.000
REMARK UNBOUND:                 0.000
REMARK SMILES CC1=CC(=O)[C@H]2C[C@@H]1C2(C)C
REMARK SMILES IDX 1 1 2 2 3 3 4 4 5 5 6 6 7 7 8 8 9 9 10 10 11 11
REMARK H PARENT
REMARK Flexibility Score: inf
ROOT
ATOM      1  C   UNL     1      -3.609  32.807  70.756  1.00  0.00     0.040 C 
ATOM      2  C   UNL     1      -4.918  32.699  71.473  1.00  0.00    -0.066 C 
ATOM      3  C   UNL     1      -5.025  32.984  72.800  1.00  0.00     0.047 C 
ATOM      4  C   UNL     1      -6.383  32.807  73.409  1.00  0.00     0.159 C 
ATOM      5  O   UNL     1      -6.601  33.000  74.634  1.00  0.00    -0.295 OA
ATOM      6  C   UNL     1      -7.484  32.373  72.439  1.00  0.00     0.067 C 
ATOM      7  C   UNL     1      -7.284  33.286  71.210  1.00  0.00     0.021 C 
ATOM      8  C   UNL     1      -6.212  32.278  70.743  1.00  0.00     0.022 C 
ATOM      9  C   UNL     1      -6.948  31.193  71.581  1.00  0.00    -0.019 C 
ATOM     10  C   UNL     1      -8.073  30.491  70.777  1.00  0.00     0.012 C 
ATOM     11  C   UNL     1      -6.095  30.097  72.280  1.00  0.00     0.012 C 
ENDROOT
TORSDOF 0
ENDMDL
MODEL 5
REMARK VINA RESULT:    -4.090     11.861     13.452
REMARK INTER + INTRA:          -4.090
REMARK INTER:                  -4.090
REMARK INTRA:                   0.000
REMARK UNBOUND:                 0.000
REMARK SMILES CC1=CC(=O)[C@H]2C[C@@H]1C2(C)C
REMARK SMILES IDX 1 1 2 2 3 3 4 4 5 5 6 6 7 7 8 8 9 9 10 10 11 11
REMARK H PARENT
REMARK Flexibility Score: inf
ROOT
ATOM      1  C   UNL     1      -4.159  32.971  71.865  1.00  0.00     0.040 C 
ATOM      2  C   UNL     1      -5.428  32.180  71.814  1.00  0.00    -0.066 C 
ATOM      3  C   UNL     1      -6.416  32.481  70.926  1.00  0.00     0.047 C 
ATOM      4  C   UNL     1      -7.651  31.635  70.996  1.00  0.00     0.159 C 
ATOM      5  O   UNL     1      -8.648  31.839  70.256  1.00  0.00    -0.295 OA
ATOM      6  C   UNL     1      -7.616  30.510  72.031  1.00  0.00     0.067 C 
ATOM      7  C   UNL     1      -6.227  29.862  71.837  1.00  0.00     0.021 C 
ATOM      8  C   UNL     1      -5.675  30.978  72.751  1.00  0.00     0.022 C 
ATOM      9  C   UNL     1      -7.095  31.092  73.376  1.00  0.00    -0.019 C 
ATOM     10  C   UNL     1      -7.298  30.111  74.560  1.00  0.00     0.012 C 
ATOM     11  C   UNL     1      -7.595  32.496  73.817  1.00  0.00     0.012 C 
ENDROOT
TORSDOF 0
ENDMDL
MODEL 6
REMARK VINA RESULT:    -4.047     12.295     13.801
REMARK INTER + INTRA:          -4.047
REMARK INTER:                  -4.047
REMARK INTRA:                   0.000
REMARK UNBOUND:                 0.000
REMARK SMILES CC1=CC(=O)[C@H]2C[C@@H]1C2(C)C
REMARK SMILES IDX 1 1 2 2 3 3 4 4 5 5 6 6 7 7 8 8 9 9 10 10 11 11
REMARK H PARENT
REMARK Flexibility Score: inf
ROOT
ATOM      1  C   UNL     1      -6.542  29.078  74.272  1.00  0.00     0.040 C 
ATOM      2  C   UNL     1      -6.768  30.345  73.510  1.00  0.00    -0.066 C 
ATOM      3  C   UNL     1      -7.300  30.333  72.257  1.00  0.00     0.047 C 
ATOM      4  C   UNL     1      -7.447  31.665  71.586  1.00  0.00     0.159 C 
ATOM      5  O   UNL     1      -7.888  31.782  70.413  1.00  0.00    -0.295 OA
ATOM      6  C   UNL     1      -7.021  32.871  72.425  1.00  0.00     0.067 C 
ATOM      7  C   UNL     1      -7.656  32.611  73.808  1.00  0.00     0.021 C 
ATOM      8  C   UNL     1      -6.427  31.726  74.110  1.00  0.00     0.022 C 
ATOM      9  C   UNL     1      -5.637  32.564  73.064  1.00  0.00    -0.019 C 
ATOM     10  C   UNL     1      -4.985  33.824  73.689  1.00  0.00     0.012 C 
ATOM     11  C   UNL     1      -4.567  31.842  72.199  1.00  0.00     0.012 C 
ENDROOT
TORSDOF 0
ENDMDL
MODEL 7
REMARK VINA RESULT:    -4.047     10.823     12.532
REMARK INTER + INTRA:          -4.047
REMARK INTER:                  -4.047
REMARK INTRA:                   0.000
REMARK UNBOUND:                 0.000
REMARK SMILES CC1=CC(=O)[C@H]2C[C@@H]1C2(C)C
REMARK SMILES IDX 1 1 2 2 3 3 4 4 5 5 6 6 7 7 8 8 9 9 10 10 11 11
REMARK H PARENT
REMARK Flexibility Score: inf
ROOT
ATOM      1  C   UNL     1      -0.174  25.470  68.520  1.00  0.00     0.040 C 
ATOM      2  C   UNL     1       0.234  26.707  69.256  1.00  0.00    -0.066 C 
ATOM      3  C   UNL     1      -0.562  27.255  70.215  1.00  0.00     0.047 C 
ATOM      4  C   UNL     1      -0.056  28.511  70.857  1.00  0.00     0.159 C 
ATOM      5  O   UNL     1      -0.718  29.135  71.729  1.00  0.00    -0.295 OA
ATOM      6  C   UNL     1       1.317  28.985  70.378  1.00  0.00     0.067 C 
ATOM      7  C   UNL     1       2.177  27.702  70.372  1.00  0.00     0.021 C 
ATOM      8  C   UNL     1       1.579  27.412  68.978  1.00  0.00     0.022 C 
ATOM      9  C   UNL     1       1.340  28.942  68.824  1.00  0.00    -0.019 C 
ATOM     10  C   UNL     1       2.571  29.674  68.232  1.00  0.00     0.012 C 
ATOM     11  C   UNL     1       0.076  29.415  68.052  1.00  0.00     0.012 C 
ENDROOT
TORSDOF 0
ENDMDL
MODEL 8
REMARK VINA RESULT:    -3.940     18.110     19.331
REMARK INTER + INTRA:          -3.940
REMARK INTER:                  -3.940
REMARK INTRA:                   0.000
REMARK UNBOUND:                 0.000
REMARK SMILES CC1=CC(=O)[C@H]2C[C@@H]1C2(C)C
REMARK SMILES IDX 1 1 2 2 3 3 4 4 5 5 6 6 7 7 8 8 9 9 10 10 11 11
REMARK H PARENT
REMARK Flexibility Score: inf
ROOT
ATOM      1  C   UNL     1       2.645  33.003  60.530  1.00  0.00     0.040 C 
ATOM      2  C   UNL     1       4.034  33.070  61.083  1.00  0.00    -0.066 C 
ATOM      3  C   UNL     1       4.693  31.947  61.481  1.00  0.00     0.047 C 
ATOM      4  C   UNL     1       6.066  32.149  62.046  1.00  0.00     0.159 C 
ATOM      5  O   UNL     1       6.760  31.194  62.485  1.00  0.00    -0.295 OA
ATOM      6  C   UNL     1       6.563  33.595  62.057  1.00  0.00     0.067 C 
ATOM      7  C   UNL     1       6.203  34.127  60.652  1.00  0.00     0.021 C 
ATOM      8  C   UNL     1       4.793  34.408  61.215  1.00  0.00     0.022 C 
ATOM      9  C   UNL     1       5.436  34.501  62.628  1.00  0.00    -0.019 C 
ATOM     10  C   UNL     1       5.938  35.931  62.954  1.00  0.00     0.012 C 
ATOM     11  C   UNL     1       4.618  33.985  63.845  1.00  0.00     0.012 C 
ENDROOT
TORSDOF 0
ENDMDL
MODEL 9
REMARK VINA RESULT:    -3.707      2.504      3.488
REMARK INTER + INTRA:          -3.707
REMARK INTER:                  -3.707
REMARK INTRA:                   0.000
REMARK UNBOUND:                 0.000
REMARK SMILES CC1=CC(=O)[C@H]2C[C@@H]1C2(C)C
REMARK SMILES IDX 1 1 2 2 3 3 4 4 5 5 6 6 7 7 8 8 9 9 10 10 11 11
REMARK H PARENT
REMARK Flexibility Score: inf
ROOT
ATOM      1  C   UNL     1      -7.012  23.989  68.482  1.00  0.00     0.040 C 
ATOM      2  C   UNL     1      -7.434  22.567  68.676  1.00  0.00    -0.066 C 
ATOM      3  C   UNL     1      -7.513  22.015  69.918  1.00  0.00     0.047 C 
ATOM      4  C   UNL     1      -7.917  20.573  69.979  1.00  0.00     0.159 C 
ATOM      5  O   UNL     1      -7.988  19.939  71.064  1.00  0.00    -0.295 OA
ATOM      6  C   UNL     1      -8.235  19.925  68.630  1.00  0.00     0.067 C 
ATOM      7  C   UNL     1      -9.125  20.965  67.914  1.00  0.00     0.021 C 
ATOM      8  C   UNL     1      -7.816  21.663  67.485  1.00  0.00     0.022 C 
ATOM      9  C   UNL     1      -7.101  20.288  67.629  1.00  0.00    -0.019 C 
ATOM     10  C   UNL     1      -7.173  19.448  66.328  1.00  0.00     0.012 C 
ATOM     11  C   UNL     1      -5.633  20.272  68.137  1.00  0.00     0.012 C 
ENDROOT
TORSDOF 0
ENDMDL
