MODEL 1
REMARK VINA RESULT:    -1.885      0.000      0.000
REMARK INTER + INTRA:          -7.409
REMARK INTER:                  -4.971
REMARK INTRA:                  -2.438
REMARK UNBOUND:                -2.438
REMARK SMILES CCCCCCCCCCCCCCCCCCCCCCCCCCCCCC(=O)[O-]
REMARK SMILES IDX 16 1 17 2 18 3 19 4 20 5 21 6 22 7 23 8 24 9 25 10 26 11
REMARK SMILES IDX 27 12 28 13 29 14 30 15 31 16 32 17 15 18 14 19 13 20 12 21
REMARK SMILES IDX 11 22 10 23 9 24 8 25 7 26 6 27 5 28 4 29 3 30 2 31 1 32
REMARK H PARENT
REMARK Flexibility Score: inf
ROOT
ATOM      1  C   UNL     1     -23.136  -8.367 -16.007  1.00  0.00     0.000 C 
ENDROOT
BRANCH   1   2
ATOM      2  C   UNL     1     -24.159  -9.484 -16.264  1.00  0.00     0.000 C 
BRANCH   2   3
ATOM      3  C   UNL     1     -23.587 -10.857 -15.880  1.00  0.00     0.000 C 
BRANCH   3   4
ATOM      4  C   UNL     1     -23.491 -11.807 -17.084  1.00  0.00     0.000 C 
BRANCH   4   5
ATOM      5  C   UNL     1     -22.228 -12.684 -17.044  1.00  0.00     0.000 C 
BRANCH   5   6
ATOM      6  C   UNL     1     -22.455 -14.033 -16.336  1.00  0.00     0.000 C 
BRANCH   6   7
ATOM      7  C   UNL     1     -21.993 -15.274 -17.123  1.00  0.00     0.000 C 
BRANCH   7   8
ATOM      8  C   UNL     1     -20.577 -15.741 -16.742  1.00  0.00     0.000 C 
BRANCH   8   9
ATOM      9  C   UNL     1     -20.312 -17.213 -17.104  1.00  0.00     0.000 C 
BRANCH   9  10
ATOM     10  C   UNL     1     -21.555 -18.123 -17.121  1.00  0.00     0.000 C 
BRANCH  10  11
ATOM     11  C   UNL     1     -21.619 -19.075 -15.914  1.00  0.00     0.000 C 
BRANCH  11  12
ATOM     12  C   UNL     1     -21.101 -20.492 -16.253  1.00  0.00     0.000 C 
BRANCH  12  13
ATOM     13  C   UNL     1     -19.680 -20.781 -15.734  1.00  0.00     0.006 C 
BRANCH  13  14
ATOM     14  C   UNL     1     -18.964 -19.547 -15.154  1.00  0.00     0.053 C 
BRANCH  14  15
ATOM     15  C   UNL     1     -17.471 -19.684 -15.129  1.00  0.00     0.041 C 
ATOM     16  O   UNL     1     -16.796 -19.183 -14.189  1.00  0.00    -0.550 OA
ATOM     17  O   UNL     1     -16.817 -20.287 -16.197  1.00  0.00    -0.550 OA
ENDBRANCH  14  15
ENDBRANCH  13  14
ENDBRANCH  12  13
ENDBRANCH  11  12
ENDBRANCH  10  11
ENDBRANCH   9  10
ENDBRANCH   8   9
ENDBRANCH   7   8
ENDBRANCH   6   7
ENDBRANCH   5   6
ENDBRANCH   4   5
ENDBRANCH   3   4
ENDBRANCH   2   3
ENDBRANCH   1   2
BRANCH   1  18
ATOM     18  C   UNL     1     -23.624  -6.990 -16.497  1.00  0.00     0.000 C 
BRANCH  18  19
ATOM     19  C   UNL     1     -24.012  -6.000 -15.382  1.00  0.00     0.000 C 
BRANCH  19  20
ATOM     20  C   UNL     1     -23.555  -4.544 -15.610  1.00  0.00     0.000 C 
BRANCH  20  21
ATOM     21  C   UNL     1     -24.613  -3.475 -15.278  1.00  0.00     0.000 C 
BRANCH  21  22
ATOM     22  C   UNL     1     -24.826  -3.305 -13.766  1.00  0.00     0.000 C 
BRANCH  22  23
ATOM     23  C   UNL     1     -23.501  -2.979 -13.059  1.00  0.00     0.000 C 
BRANCH  23  24
ATOM     24  C   UNL     1     -22.974  -1.574 -13.408  1.00  0.00    -0.000 C 
BRANCH  24  25
ATOM     25  C   UNL     1     -21.592  -1.577 -14.088  1.00  0.00    -0.000 C 
BRANCH  25  26
ATOM     26  C   UNL     1     -20.700  -2.734 -13.603  1.00  0.00    -0.000 C 
BRANCH  26  27
ATOM     27  C   UNL     1     -19.849  -3.335 -14.732  1.00  0.00    -0.000 C 
BRANCH  27  28
ATOM     28  C   UNL     1     -20.130  -4.831 -14.962  1.00  0.00    -0.000 C 
BRANCH  28  29
ATOM     29  C   UNL     1     -20.555  -5.548 -13.663  1.00  0.00    -0.000 C 
BRANCH  29  30
ATOM     30  C   UNL     1     -20.871  -7.045 -13.858  1.00  0.00    -0.000 C 
BRANCH  30  31
ATOM     31  C   UNL     1     -20.411  -7.954 -12.706  1.00  0.00    -0.003 C 
ATOM     32  C   UNL     1     -20.261  -9.415 -13.127  1.00  0.00     0.004 C 
ENDBRANCH  30  31
ENDBRANCH  29  30
ENDBRANCH  28  29
ENDBRANCH  27  28
ENDBRANCH  26  27
ENDBRANCH  25  26
ENDBRANCH  24  25
ENDBRANCH  23  24
ENDBRANCH  22  23
ENDBRANCH  21  22
ENDBRANCH  20  21
ENDBRANCH  19  20
ENDBRANCH  18  19
ENDBRANCH   1  18
TORSDOF 28
ENDMDL
MODEL 2
REMARK VINA RESULT:    -0.725      4.403     13.039
REMARK INTER + INTRA:          -4.351
REMARK INTER:                  -3.951
REMARK INTRA:                  -0.400
REMARK UNBOUND:                -2.438
REMARK SMILES CCCCCCCCCCCCCCCCCCCCCCCCCCCCCC(=O)[O-]
REMARK SMILES IDX 16 1 17 2 18 3 19 4 20 5 21 6 22 7 23 8 24 9 25 10 26 11
REMARK SMILES IDX 27 12 28 13 29 14 30 15 31 16 32 17 15 18 14 19 13 20 12 21
REMARK SMILES IDX 11 22 10 23 9 24 8 25 7 26 6 27 5 28 4 29 3 30 2 31 1 32
REMARK H PARENT
REMARK Flexibility Score: inf
ROOT
ATOM      1  C   UNL     1     -22.315  -8.021 -15.715  1.00  0.00     0.000 C 
ENDROOT
BRANCH   1   2
ATOM      2  C   UNL     1     -21.659  -6.760 -16.296  1.00  0.00     0.000 C 
BRANCH   2   3
ATOM      3  C   UNL     1     -20.390  -6.385 -15.513  1.00  0.00     0.000 C 
BRANCH   3   4
ATOM      4  C   UNL     1     -20.309  -7.102 -14.157  1.00  0.00     0.000 C 
BRANCH   4   5
ATOM      5  C   UNL     1     -21.364  -6.594 -13.158  1.00  0.00     0.000 C 
BRANCH   5   6
ATOM      6  C   UNL     1     -21.749  -5.121 -13.388  1.00  0.00     0.000 C 
BRANCH   6   7
ATOM      7  C   UNL     1     -20.915  -4.093 -12.600  1.00  0.00     0.000 C 
BRANCH   7   8
ATOM      8  C   UNL     1     -21.775  -3.117 -11.778  1.00  0.00     0.000 C 
BRANCH   8   9
ATOM      9  C   UNL     1     -23.206  -2.971 -12.325  1.00  0.00     0.000 C 
BRANCH   9  10
ATOM     10  C   UNL     1     -23.435  -1.775 -13.268  1.00  0.00     0.000 C 
BRANCH  10  11
ATOM     11  C   UNL     1     -22.633  -1.879 -14.577  1.00  0.00     0.000 C 
BRANCH  11  12
ATOM     12  C   UNL     1     -23.119  -0.875 -15.647  1.00  0.00     0.000 C 
BRANCH  12  13
ATOM     13  C   UNL     1     -24.117  -1.471 -16.659  1.00  0.00     0.006 C 
BRANCH  13  14
ATOM     14  C   UNL     1     -24.905  -2.679 -16.120  1.00  0.00     0.053 C 
BRANCH  14  15
ATOM     15  C   UNL     1     -24.258  -3.996 -16.429  1.00  0.00     0.041 C 
ATOM     16  O   UNL     1     -23.062  -4.048 -16.822  1.00  0.00    -0.550 OA
ATOM     17  O   UNL     1     -25.011  -5.163 -16.370  1.00  0.00    -0.550 OA
ENDBRANCH  14  15
ENDBRANCH  13  14
ENDBRANCH  12  13
ENDBRANCH  11  12
ENDBRANCH  10  11
ENDBRANCH   9  10
ENDBRANCH   8   9
ENDBRANCH   7   8
ENDBRANCH   6   7
ENDBRANCH   5   6
ENDBRANCH   4   5
ENDBRANCH   3   4
ENDBRANCH   2   3
ENDBRANCH   1   2
BRANCH   1  18
ATOM     18  C   UNL     1     -23.822  -8.102 -16.022  1.00  0.00     0.000 C 
BRANCH  18  19
ATOM     19  C   UNL     1     -24.213  -9.123 -17.110  1.00  0.00     0.000 C 
BRANCH  19  20
ATOM     20  C   UNL     1     -24.288 -10.589 -16.636  1.00  0.00     0.000 C 
BRANCH  20  21
ATOM     21  C   UNL     1     -22.930 -11.224 -16.283  1.00  0.00     0.000 C 
BRANCH  21  22
ATOM     22  C   UNL     1     -22.995 -12.758 -16.215  1.00  0.00     0.000 C 
BRANCH  22  23
ATOM     23  C   UNL     1     -21.930 -13.391 -17.124  1.00  0.00     0.000 C 
BRANCH  23  24
ATOM     24  C   UNL     1     -21.990 -14.931 -17.123  1.00  0.00    -0.000 C 
BRANCH  24  25
ATOM     25  C   UNL     1     -20.639 -15.609 -16.827  1.00  0.00    -0.000 C 
BRANCH  25  26
ATOM     26  C   UNL     1     -20.720 -17.144 -16.912  1.00  0.00    -0.000 C 
BRANCH  26  27
ATOM     27  C   UNL     1     -19.347 -17.816 -16.762  1.00  0.00    -0.000 C 
BRANCH  27  28
ATOM     28  C   UNL     1     -19.429 -19.353 -16.758  1.00  0.00    -0.000 C 
BRANCH  28  29
ATOM     29  C   UNL     1     -19.351 -19.934 -15.330  1.00  0.00    -0.000 C 
BRANCH  29  30
ATOM     30  C   UNL     1     -20.557 -20.822 -14.959  1.00  0.00    -0.000 C 
BRANCH  30  31
ATOM     31  C   UNL     1     -21.924 -20.127 -15.072  1.00  0.00    -0.003 C 
ATOM     32  C   UNL     1     -22.955 -20.966 -15.827  1.00  0.00     0.004 C 
ENDBRANCH  30  31
ENDBRANCH  29  30
ENDBRANCH  28  29
ENDBRANCH  27  28
ENDBRANCH  26  27
ENDBRANCH  25  26
ENDBRANCH  24  25
ENDBRANCH  23  24
ENDBRANCH  22  23
ENDBRANCH  21  22
ENDBRANCH  20  21
ENDBRANCH  19  20
ENDBRANCH  18  19
ENDBRANCH   1  18
TORSDOF 28
ENDMDL
MODEL 3
REMARK VINA RESULT:    -0.719      4.565     13.012
REMARK INTER + INTRA:          -4.335
REMARK INTER:                  -3.597
REMARK INTRA:                  -0.738
REMARK UNBOUND:                -2.438
REMARK SMILES CCCCCCCCCCCCCCCCCCCCCCCCCCCCCC(=O)[O-]
REMARK SMILES IDX 16 1 17 2 18 3 19 4 20 5 21 6 22 7 23 8 24 9 25 10 26 11
REMARK SMILES IDX 27 12 28 13 29 14 30 15 31 16 32 17 15 18 14 19 13 20 12 21
REMARK SMILES IDX 11 22 10 23 9 24 8 25 7 26 6 27 5 28 4 29 3 30 2 31 1 32
REMARK H PARENT
REMARK Flexibility Score: inf
ROOT
ATOM      1  C   UNL     1     -22.350  -8.016 -15.749  1.00  0.00     0.000 C 
ENDROOT
BRANCH   1   2
ATOM      2  C   UNL     1     -21.756  -6.753 -16.391  1.00  0.00     0.000 C 
BRANCH   2   3
ATOM      3  C   UNL     1     -20.344  -6.471 -15.855  1.00  0.00     0.000 C 
BRANCH   3   4
ATOM      4  C   UNL     1     -20.056  -7.220 -14.545  1.00  0.00     0.000 C 
BRANCH   4   5
ATOM      5  C   UNL     1     -20.938  -6.734 -13.382  1.00  0.00     0.000 C 
BRANCH   5   6
ATOM      6  C   UNL     1     -21.342  -5.253 -13.513  1.00  0.00     0.000 C 
BRANCH   6   7
ATOM      7  C   UNL     1     -20.524  -4.270 -12.654  1.00  0.00     0.000 C 
BRANCH   7   8
ATOM      8  C   UNL     1     -21.393  -3.434 -11.698  1.00  0.00     0.000 C 
BRANCH   8   9
ATOM      9  C   UNL     1     -22.872  -3.386 -12.117  1.00  0.00     0.000 C 
BRANCH   9  10
ATOM     10  C   UNL     1     -23.277  -2.175 -12.978  1.00  0.00     0.000 C 
BRANCH  10  11
ATOM     11  C   UNL     1     -22.561  -2.138 -14.339  1.00  0.00     0.000 C 
BRANCH  11  12
ATOM     12  C   UNL     1     -23.252  -1.185 -15.342  1.00  0.00     0.000 C 
BRANCH  12  13
ATOM     13  C   UNL     1     -22.482  -1.002 -16.664  1.00  0.00     0.006 C 
BRANCH  13  14
ATOM     14  C   UNL     1     -21.663  -2.236 -17.085  1.00  0.00     0.053 C 
BRANCH  14  15
ATOM     15  C   UNL     1     -20.225  -2.166 -16.667  1.00  0.00     0.041 C 
ATOM     16  O   UNL     1     -19.507  -1.185 -16.998  1.00  0.00    -0.550 OA
ATOM     17  O   UNL     1     -19.654  -3.235 -15.986  1.00  0.00    -0.550 OA
ENDBRANCH  14  15
ENDBRANCH  13  14
ENDBRANCH  12  13
ENDBRANCH  11  12
ENDBRANCH  10  11
ENDBRANCH   9  10
ENDBRANCH   8   9
ENDBRANCH   7   8
ENDBRANCH   6   7
ENDBRANCH   5   6
ENDBRANCH   4   5
ENDBRANCH   3   4
ENDBRANCH   2   3
ENDBRANCH   1   2
BRANCH   1  18
ATOM     18  C   UNL     1     -23.860  -8.164 -16.012  1.00  0.00     0.000 C 
BRANCH  18  19
ATOM     19  C   UNL     1     -24.235  -9.162 -17.125  1.00  0.00     0.000 C 
BRANCH  19  20
ATOM     20  C   UNL     1     -24.301 -10.639 -16.685  1.00  0.00     0.000 C 
BRANCH  20  21
ATOM     21  C   UNL     1     -22.935 -11.294 -16.410  1.00  0.00     0.000 C 
BRANCH  21  22
ATOM     22  C   UNL     1     -23.021 -12.825 -16.319  1.00  0.00     0.000 C 
BRANCH  22  23
ATOM     23  C   UNL     1     -21.883 -13.485 -17.115  1.00  0.00     0.000 C 
BRANCH  23  24
ATOM     24  C   UNL     1     -21.855 -15.016 -16.948  1.00  0.00    -0.000 C 
BRANCH  24  25
ATOM     25  C   UNL     1     -23.229 -15.689 -17.125  1.00  0.00    -0.000 C 
BRANCH  25  26
ATOM     26  C   UNL     1     -23.159 -17.220 -16.973  1.00  0.00    -0.000 C 
BRANCH  26  27
ATOM     27  C   UNL     1     -21.740 -17.716 -16.660  1.00  0.00    -0.000 C 
BRANCH  27  28
ATOM     28  C   UNL     1     -21.684 -19.227 -16.371  1.00  0.00    -0.000 C 
BRANCH  28  29
ATOM     29  C   UNL     1     -20.233 -19.743 -16.259  1.00  0.00    -0.000 C 
BRANCH  29  30
ATOM     30  C   UNL     1     -19.892 -20.331 -14.875  1.00  0.00    -0.000 C 
BRANCH  30  31
ATOM     31  C   UNL     1     -18.716 -19.646 -14.158  1.00  0.00    -0.003 C 
ATOM     32  C   UNL     1     -17.531 -19.379 -15.085  1.00  0.00     0.004 C 
ENDBRANCH  30  31
ENDBRANCH  29  30
ENDBRANCH  28  29
ENDBRANCH  27  28
ENDBRANCH  26  27
ENDBRANCH  25  26
ENDBRANCH  24  25
ENDBRANCH  23  24
ENDBRANCH  22  23
ENDBRANCH  21  22
ENDBRANCH  20  21
ENDBRANCH  19  20
ENDBRANCH  18  19
ENDBRANCH   1  18
TORSDOF 28
ENDMDL
MODEL 4
REMARK VINA RESULT:    -0.682      1.269      3.485
REMARK INTER + INTRA:          -4.237
REMARK INTER:                  -1.143
REMARK INTRA:                  -3.094
REMARK UNBOUND:                -2.438
REMARK SMILES CCCCCCCCCCCCCCCCCCCCCCCCCCCCCC(=O)[O-]
REMARK SMILES IDX 16 1 17 2 18 3 19 4 20 5 21 6 22 7 23 8 24 9 25 10 26 11
REMARK SMILES IDX 27 12 28 13 29 14 30 15 31 16 32 17 15 18 14 19 13 20 12 21
REMARK SMILES IDX 11 22 10 23 9 24 8 25 7 26 6 27 5 28 4 29 3 30 2 31 1 32
REMARK H PARENT
REMARK Flexibility Score: inf
ROOT
ATOM      1  C   UNL     1     -20.775  -7.750 -12.405  1.00  0.00     0.000 C 
ENDROOT
BRANCH   1   2
ATOM      2  C   UNL     1     -20.641  -8.842 -13.477  1.00  0.00     0.000 C 
BRANCH   2   3
ATOM      3  C   UNL     1     -21.766  -8.737 -14.518  1.00  0.00     0.000 C 
BRANCH   3   4
ATOM      4  C   UNL     1     -21.718  -9.878 -15.546  1.00  0.00     0.000 C 
BRANCH   4   5
ATOM      5  C   UNL     1     -22.577 -11.085 -15.128  1.00  0.00     0.000 C 
BRANCH   5   6
ATOM      6  C   UNL     1     -23.567 -11.525 -16.222  1.00  0.00     0.000 C 
BRANCH   6   7
ATOM      7  C   UNL     1     -23.533 -13.025 -16.574  1.00  0.00     0.000 C 
BRANCH   7   8
ATOM      8  C   UNL     1     -22.157 -13.498 -17.076  1.00  0.00     0.000 C 
BRANCH   8   9
ATOM      9  C   UNL     1     -22.030 -15.031 -17.124  1.00  0.00     0.000 C 
BRANCH   9  10
ATOM     10  C   UNL     1     -20.936 -15.633 -16.222  1.00  0.00     0.000 C 
BRANCH  10  11
ATOM     11  C   UNL     1     -20.467 -17.021 -16.690  1.00  0.00     0.000 C 
BRANCH  11  12
ATOM     12  C   UNL     1     -19.264 -17.543 -15.873  1.00  0.00     0.000 C 
BRANCH  12  13
ATOM     13  C   UNL     1     -19.339 -19.044 -15.533  1.00  0.00     0.006 C 
BRANCH  13  14
ATOM     14  C   UNL     1     -18.547 -19.943 -16.500  1.00  0.00     0.053 C 
BRANCH  14  15
ATOM     15  C   UNL     1     -17.190 -20.318 -15.985  1.00  0.00     0.041 C 
ATOM     16  O   UNL     1     -17.057 -20.845 -14.847  1.00  0.00    -0.550 OA
ATOM     17  O   UNL     1     -16.059 -19.999 -16.728  1.00  0.00    -0.550 OA
ENDBRANCH  14  15
ENDBRANCH  13  14
ENDBRANCH  12  13
ENDBRANCH  11  12
ENDBRANCH  10  11
ENDBRANCH   9  10
ENDBRANCH   8   9
ENDBRANCH   7   8
ENDBRANCH   6   7
ENDBRANCH   5   6
ENDBRANCH   4   5
ENDBRANCH   3   4
ENDBRANCH   2   3
ENDBRANCH   1   2
BRANCH   1  18
ATOM     18  C   UNL     1     -20.823  -6.332 -13.004  1.00  0.00     0.000 C 
BRANCH  18  19
ATOM     19  C   UNL     1     -22.103  -5.532 -12.688  1.00  0.00     0.000 C 
BRANCH  19  20
ATOM     20  C   UNL     1     -21.869  -4.094 -12.183  1.00  0.00     0.000 C 
BRANCH  20  21
ATOM     21  C   UNL     1     -22.941  -3.075 -12.612  1.00  0.00     0.000 C 
BRANCH  21  22
ATOM     22  C   UNL     1     -22.430  -2.091 -13.675  1.00  0.00     0.000 C 
BRANCH  22  23
ATOM     23  C   UNL     1     -23.249  -2.211 -14.970  1.00  0.00     0.000 C 
BRANCH  23  24
ATOM     24  C   UNL     1     -24.532  -3.045 -14.784  1.00  0.00    -0.000 C 
BRANCH  24  25
ATOM     25  C   UNL     1     -24.800  -4.041 -15.928  1.00  0.00    -0.000 C 
BRANCH  25  26
ATOM     26  C   UNL     1     -24.326  -5.466 -15.591  1.00  0.00    -0.000 C 
BRANCH  26  27
ATOM     27  C   UNL     1     -23.830  -6.231 -16.828  1.00  0.00    -0.000 C 
BRANCH  27  28
ATOM     28  C   UNL     1     -22.301  -6.176 -16.993  1.00  0.00    -0.000 C 
BRANCH  28  29
ATOM     29  C   UNL     1     -21.677  -4.990 -16.226  1.00  0.00    -0.000 C 
BRANCH  29  30
ATOM     30  C   UNL     1     -20.138  -4.942 -16.309  1.00  0.00    -0.000 C 
BRANCH  30  31
ATOM     31  C   UNL     1     -19.474  -3.933 -15.356  1.00  0.00    -0.003 C 
ATOM     32  C   UNL     1     -19.621  -2.487 -15.827  1.00  0.00     0.004 C 
ENDBRANCH  30  31
ENDBRANCH  29  30
ENDBRANCH  28  29
ENDBRANCH  27  28
ENDBRANCH  26  27
ENDBRANCH  25  26
ENDBRANCH  24  25
ENDBRANCH  23  24
ENDBRANCH  22  23
ENDBRANCH  21  22
ENDBRANCH  20  21
ENDBRANCH  19  20
ENDBRANCH  18  19
ENDBRANCH   1  18
TORSDOF 28
ENDMDL
MODEL 5
REMARK VINA RESULT:    -0.474     19.890     24.868
REMARK INTER + INTRA:          -3.689
REMARK INTER:                  -2.814
REMARK INTRA:                  -0.875
REMARK UNBOUND:                -2.438
REMARK SMILES CCCCCCCCCCCCCCCCCCCCCCCCCCCCCC(=O)[O-]
REMARK SMILES IDX 16 1 17 2 18 3 19 4 20 5 21 6 22 7 23 8 24 9 25 10 26 11
REMARK SMILES IDX 27 12 28 13 29 14 30 15 31 16 32 17 15 18 14 19 13 20 12 21
REMARK SMILES IDX 11 22 10 23 9 24 8 25 7 26 6 27 5 28 4 29 3 30 2 31 1 32
REMARK H PARENT
REMARK Flexibility Score: inf
ROOT
ATOM      1  C   UNL     1     -10.418  -6.876  -0.458  1.00  0.00     0.000 C 
ENDROOT
BRANCH   1   2
ATOM      2  C   UNL     1     -11.728  -6.111  -0.219  1.00  0.00     0.000 C 
BRANCH   2   3
ATOM      3  C   UNL     1     -11.457  -4.625   0.065  1.00  0.00     0.000 C 
BRANCH   3   4
ATOM      4  C   UNL     1     -11.441  -4.312   1.569  1.00  0.00     0.000 C 
BRANCH   4   5
ATOM      5  C   UNL     1     -10.642  -3.038   1.897  1.00  0.00     0.000 C 
BRANCH   5   6
ATOM      6  C   UNL     1      -9.726  -3.203   3.124  1.00  0.00     0.000 C 
BRANCH   6   7
ATOM      7  C   UNL     1      -8.216  -3.231   2.818  1.00  0.00     0.000 C 
BRANCH   7   8
ATOM      8  C   UNL     1      -7.651  -4.656   2.686  1.00  0.00     0.000 C 
BRANCH   8   9
ATOM      9  C   UNL     1      -6.140  -4.731   2.966  1.00  0.00     0.000 C 
BRANCH   9  10
ATOM     10  C   UNL     1      -5.229  -4.317   1.795  1.00  0.00     0.000 C 
BRANCH  10  11
ATOM     11  C   UNL     1      -5.904  -4.479   0.422  1.00  0.00     0.000 C 
BRANCH  11  12
ATOM     12  C   UNL     1      -5.141  -3.740  -0.700  1.00  0.00     0.000 C 
BRANCH  12  13
ATOM     13  C   UNL     1      -4.875  -2.252  -0.403  1.00  0.00     0.006 C 
BRANCH  13  14
ATOM     14  C   UNL     1      -6.118  -1.480   0.077  1.00  0.00     0.053 C 
BRANCH  14  15
ATOM     15  C   UNL     1      -6.053  -1.090   1.524  1.00  0.00     0.041 C 
ATOM     16  O   UNL     1      -4.946  -1.036   2.125  1.00  0.00    -0.550 OA
ATOM     17  O   UNL     1      -7.229  -0.875   2.232  1.00  0.00    -0.550 OA
ENDBRANCH  14  15
ENDBRANCH  13  14
ENDBRANCH  12  13
ENDBRANCH  11  12
ENDBRANCH  10  11
ENDBRANCH   9  10
ENDBRANCH   8   9
ENDBRANCH   7   8
ENDBRANCH   6   7
ENDBRANCH   5   6
ENDBRANCH   4   5
ENDBRANCH   3   4
ENDBRANCH   2   3
ENDBRANCH   1   2
BRANCH   1  18
ATOM     18  C   UNL     1      -9.197  -6.174   0.164  1.00  0.00     0.000 C 
BRANCH  18  19
ATOM     19  C   UNL     1      -7.864  -6.938   0.030  1.00  0.00     0.000 C 
BRANCH  19  20
ATOM     20  C   UNL     1      -7.623  -8.027   1.095  1.00  0.00     0.000 C 
BRANCH  20  21
ATOM     21  C   UNL     1      -6.249  -8.717   1.015  1.00  0.00     0.000 C 
BRANCH  21  22
ATOM     22  C   UNL     1      -6.332 -10.230   1.270  1.00  0.00     0.000 C 
BRANCH  22  23
ATOM     23  C   UNL     1      -6.074 -11.018  -0.025  1.00  0.00     0.000 C 
BRANCH  23  24
ATOM     24  C   UNL     1      -5.864 -12.523   0.230  1.00  0.00    -0.000 C 
BRANCH  24  25
ATOM     25  C   UNL     1      -6.213 -12.968   1.663  1.00  0.00    -0.000 C 
BRANCH  25  26
ATOM     26  C   UNL     1      -5.601 -14.336   2.020  1.00  0.00    -0.000 C 
BRANCH  26  27
ATOM     27  C   UNL     1      -5.651 -15.327   0.848  1.00  0.00    -0.000 C 
BRANCH  27  28
ATOM     28  C   UNL     1      -5.394 -16.781   1.282  1.00  0.00    -0.000 C 
BRANCH  28  29
ATOM     29  C   UNL     1      -6.392 -17.765   0.635  1.00  0.00    -0.000 C 
BRANCH  29  30
ATOM     30  C   UNL     1      -5.725 -19.027   0.052  1.00  0.00    -0.000 C 
BRANCH  30  31
ATOM     31  C   UNL     1      -6.688 -19.991  -0.662  1.00  0.00    -0.003 C 
ATOM     32  C   UNL     1      -7.269 -21.050   0.273  1.00  0.00     0.004 C 
ENDBRANCH  30  31
ENDBRANCH  29  30
ENDBRANCH  28  29
ENDBRANCH  27  28
ENDBRANCH  26  27
ENDBRANCH  25  26
ENDBRANCH  24  25
ENDBRANCH  23  24
ENDBRANCH  22  23
ENDBRANCH  21  22
ENDBRANCH  20  21
ENDBRANCH  19  20
ENDBRANCH  18  19
ENDBRANCH   1  18
TORSDOF 28
ENDMDL
MODEL 6
REMARK VINA RESULT:    -0.418      4.588     13.303
REMARK INTER + INTRA:          -3.541
REMARK INTER:                  -3.273
REMARK INTRA:                  -0.268
REMARK UNBOUND:                -2.438
REMARK SMILES CCCCCCCCCCCCCCCCCCCCCCCCCCCCCC(=O)[O-]
REMARK SMILES IDX 16 1 17 2 18 3 19 4 20 5 21 6 22 7 23 8 24 9 25 10 26 11
REMARK SMILES IDX 27 12 28 13 29 14 30 15 31 16 32 17 15 18 14 19 13 20 12 21
REMARK SMILES IDX 11 22 10 23 9 24 8 25 7 26 6 27 5 28 4 29 3 30 2 31 1 32
REMARK H PARENT
REMARK Flexibility Score: inf
ROOT
ATOM      1  C   UNL     1     -23.600 -16.648 -16.942  1.00  0.00     0.000 C 
ENDROOT
BRANCH   1   2
ATOM      2  C   UNL     1     -24.226 -15.261 -16.731  1.00  0.00     0.000 C 
BRANCH   2   3
ATOM      3  C   UNL     1     -23.245 -14.145 -17.122  1.00  0.00     0.000 C 
BRANCH   3   4
ATOM      4  C   UNL     1     -23.895 -12.754 -17.075  1.00  0.00     0.000 C 
BRANCH   4   5
ATOM      5  C   UNL     1     -23.344 -11.885 -15.930  1.00  0.00     0.000 C 
BRANCH   5   6
ATOM      6  C   UNL     1     -24.007 -10.497 -15.857  1.00  0.00     0.000 C 
BRANCH   6   7
ATOM      7  C   UNL     1     -23.380  -9.421 -16.765  1.00  0.00     0.000 C 
BRANCH   7   8
ATOM      8  C   UNL     1     -24.039  -8.039 -16.609  1.00  0.00     0.000 C 
BRANCH   8   9
ATOM      9  C   UNL     1     -23.106  -6.998 -15.965  1.00  0.00     0.000 C 
BRANCH   9  10
ATOM     10  C   UNL     1     -21.637  -7.436 -15.806  1.00  0.00     0.000 C 
BRANCH  10  11
ATOM     11  C   UNL     1     -21.179  -7.479 -14.338  1.00  0.00     0.000 C 
BRANCH  11  12
ATOM     12  C   UNL     1     -20.494  -6.166 -13.896  1.00  0.00     0.000 C 
BRANCH  12  13
ATOM     13  C   UNL     1     -21.292  -5.364 -12.848  1.00  0.00     0.006 C 
BRANCH  13  14
ATOM     14  C   UNL     1     -21.716  -3.963 -13.326  1.00  0.00     0.053 C 
BRANCH  14  15
ATOM     15  C   UNL     1     -23.185  -3.849 -13.602  1.00  0.00     0.041 C 
ATOM     16  O   UNL     1     -23.633  -3.999 -14.771  1.00  0.00    -0.550 OA
ATOM     17  O   UNL     1     -24.051  -3.483 -12.578  1.00  0.00    -0.550 OA
ENDBRANCH  14  15
ENDBRANCH  13  14
ENDBRANCH  12  13
ENDBRANCH  11  12
ENDBRANCH  10  11
ENDBRANCH   9  10
ENDBRANCH   8   9
ENDBRANCH   7   8
ENDBRANCH   6   7
ENDBRANCH   5   6
ENDBRANCH   4   5
ENDBRANCH   3   4
ENDBRANCH   2   3
ENDBRANCH   1   2
BRANCH   1  18
ATOM     18  C   UNL     1     -23.691 -17.538 -15.688  1.00  0.00     0.000 C 
BRANCH  18  19
ATOM     19  C   UNL     1     -25.051 -18.233 -15.477  1.00  0.00     0.000 C 
BRANCH  19  20
ATOM     20  C   UNL     1     -25.121 -19.696 -15.960  1.00  0.00     0.000 C 
BRANCH  20  21
ATOM     21  C   UNL     1     -23.757 -20.343 -16.265  1.00  0.00     0.000 C 
BRANCH  21  22
ATOM     22  C   UNL     1     -22.630 -19.792 -15.378  1.00  0.00     0.000 C 
BRANCH  22  23
ATOM     23  C   UNL     1     -22.372 -20.721 -14.181  1.00  0.00     0.000 C 
BRANCH  23  24
ATOM     24  C   UNL     1     -20.870 -20.926 -13.903  1.00  0.00    -0.000 C 
BRANCH  24  25
ATOM     25  C   UNL     1     -19.977 -19.788 -14.432  1.00  0.00    -0.000 C 
BRANCH  25  26
ATOM     26  C   UNL     1     -18.476 -20.087 -14.254  1.00  0.00    -0.000 C 
BRANCH  26  27
ATOM     27  C   UNL     1     -17.862 -20.773 -15.484  1.00  0.00    -0.000 C 
BRANCH  27  28
ATOM     28  C   UNL     1     -17.241 -19.776 -16.478  1.00  0.00    -0.000 C 
BRANCH  28  29
ATOM     29  C   UNL     1     -17.320 -18.321 -15.967  1.00  0.00    -0.000 C 
BRANCH  29  30
ATOM     30  C   UNL     1     -17.626 -17.293 -17.075  1.00  0.00    -0.000 C 
BRANCH  30  31
ATOM     31  C   UNL     1     -19.085 -16.808 -17.116  1.00  0.00    -0.003 C 
ATOM     32  C   UNL     1     -20.082 -17.890 -16.700  1.00  0.00     0.004 C 
ENDBRANCH  30  31
ENDBRANCH  29  30
ENDBRANCH  28  29
ENDBRANCH  27  28
ENDBRANCH  26  27
ENDBRANCH  25  26
ENDBRANCH  24  25
ENDBRANCH  23  24
ENDBRANCH  22  23
ENDBRANCH  21  22
ENDBRANCH  20  21
ENDBRANCH  19  20
ENDBRANCH  18  19
ENDBRANCH   1  18
TORSDOF 28
ENDMDL
MODEL 7
REMARK VINA RESULT:    -0.236      3.035      4.319
REMARK INTER + INTRA:          -3.061
REMARK INTER:                  -2.411
REMARK INTRA:                  -0.650
REMARK UNBOUND:                -2.438
REMARK SMILES CCCCCCCCCCCCCCCCCCCCCCCCCCCCCC(=O)[O-]
REMARK SMILES IDX 16 1 17 2 18 3 19 4 20 5 21 6 22 7 23 8 24 9 25 10 26 11
REMARK SMILES IDX 27 12 28 13 29 14 30 15 31 16 32 17 15 18 14 19 13 20 12 21
REMARK SMILES IDX 11 22 10 23 9 24 8 25 7 26 6 27 5 28 4 29 3 30 2 31 1 32
REMARK H PARENT
REMARK Flexibility Score: inf
ROOT
ATOM      1  C   UNL     1     -22.740  -8.115 -15.524  1.00  0.00     0.000 C 
ENDROOT
BRANCH   1   2
ATOM      2  C   UNL     1     -22.557  -9.340 -16.432  1.00  0.00     0.000 C 
BRANCH   2   3
ATOM      3  C   UNL     1     -23.291 -10.565 -15.865  1.00  0.00     0.000 C 
BRANCH   3   4
ATOM      4  C   UNL     1     -23.273 -11.756 -16.836  1.00  0.00     0.000 C 
BRANCH   4   5
ATOM      5  C   UNL     1     -22.487 -12.957 -16.280  1.00  0.00     0.000 C 
BRANCH   5   6
ATOM      6  C   UNL     1     -22.662 -14.233 -17.125  1.00  0.00     0.000 C 
BRANCH   6   7
ATOM      7  C   UNL     1     -21.721 -15.397 -16.760  1.00  0.00     0.000 C 
BRANCH   7   8
ATOM      8  C   UNL     1     -22.351 -16.781 -16.996  1.00  0.00     0.000 C 
BRANCH   8   9
ATOM      9  C   UNL     1     -21.850 -17.846 -16.005  1.00  0.00     0.000 C 
BRANCH   9  10
ATOM     10  C   UNL     1     -20.669 -18.704 -16.496  1.00  0.00     0.000 C 
BRANCH  10  11
ATOM     11  C   UNL     1     -20.442 -19.961 -15.640  1.00  0.00     0.000 C 
BRANCH  11  12
ATOM     12  C   UNL     1     -21.692 -20.346 -14.816  1.00  0.00     0.000 C 
BRANCH  12  13
ATOM     13  C   UNL     1     -22.854 -20.903 -15.661  1.00  0.00     0.006 C 
BRANCH  13  14
ATOM     14  C   UNL     1     -24.190 -20.168 -15.446  1.00  0.00     0.053 C 
BRANCH  14  15
ATOM     15  C   UNL     1     -24.464 -19.842 -14.008  1.00  0.00     0.041 C 
ATOM     16  O   UNL     1     -24.944 -18.722 -13.683  1.00  0.00    -0.550 OA
ATOM     17  O   UNL     1     -24.101 -20.746 -13.017  1.00  0.00    -0.550 OA
ENDBRANCH  14  15
ENDBRANCH  13  14
ENDBRANCH  12  13
ENDBRANCH  11  12
ENDBRANCH  10  11
ENDBRANCH   9  10
ENDBRANCH   8   9
ENDBRANCH   7   8
ENDBRANCH   6   7
ENDBRANCH   5   6
ENDBRANCH   4   5
ENDBRANCH   3   4
ENDBRANCH   2   3
ENDBRANCH   1   2
BRANCH   1  18
ATOM     18  C   UNL     1     -22.500  -6.785 -16.263  1.00  0.00     0.000 C 
BRANCH  18  19
ATOM     19  C   UNL     1     -23.322  -5.590 -15.741  1.00  0.00     0.000 C 
BRANCH  19  20
ATOM     20  C   UNL     1     -22.565  -4.638 -14.793  1.00  0.00     0.000 C 
BRANCH  20  21
ATOM     21  C   UNL     1     -21.525  -3.734 -15.479  1.00  0.00     0.000 C 
BRANCH  21  22
ATOM     22  C   UNL     1     -22.051  -3.110 -16.781  1.00  0.00     0.000 C 
BRANCH  22  23
ATOM     23  C   UNL     1     -23.181  -2.110 -16.491  1.00  0.00     0.000 C 
BRANCH  23  24
ATOM     24  C   UNL     1     -22.973  -1.349 -15.167  1.00  0.00    -0.000 C 
BRANCH  24  25
ATOM     25  C   UNL     1     -24.170  -1.439 -14.202  1.00  0.00    -0.000 C 
BRANCH  25  26
ATOM     26  C   UNL     1     -23.842  -2.242 -12.929  1.00  0.00    -0.000 C 
BRANCH  26  27
ATOM     27  C   UNL     1     -23.516  -1.339 -11.730  1.00  0.00    -0.000 C 
BRANCH  27  28
ATOM     28  C   UNL     1     -22.007  -1.250 -11.439  1.00  0.00    -0.000 C 
BRANCH  28  29
ATOM     29  C   UNL     1     -21.709  -1.220  -9.925  1.00  0.00    -0.000 C 
BRANCH  29  30
ATOM     30  C   UNL     1     -20.394  -1.927  -9.540  1.00  0.00    -0.000 C 
BRANCH  30  31
ATOM     31  C   UNL     1     -19.931  -1.679  -8.094  1.00  0.00    -0.003 C 
ATOM     32  C   UNL     1     -18.599  -0.934  -8.017  1.00  0.00     0.004 C 
ENDBRANCH  30  31
ENDBRANCH  29  30
ENDBRANCH  28  29
ENDBRANCH  27  28
ENDBRANCH  26  27
ENDBRANCH  25  26
ENDBRANCH  24  25
ENDBRANCH  23  24
ENDBRANCH  22  23
ENDBRANCH  21  22
ENDBRANCH  20  21
ENDBRANCH  19  20
ENDBRANCH  18  19
ENDBRANCH   1  18
TORSDOF 28
ENDMDL
MODEL 8
REMARK VINA RESULT:     0.546      2.130      5.222
REMARK INTER + INTRA:          -0.999
REMARK INTER:                   0.976
REMARK INTRA:                  -1.975
REMARK UNBOUND:                -2.438
REMARK SMILES CCCCCCCCCCCCCCCCCCCCCCCCCCCCCC(=O)[O-]
REMARK SMILES IDX 16 1 17 2 18 3 19 4 20 5 21 6 22 7 23 8 24 9 25 10 26 11
REMARK SMILES IDX 27 12 28 13 29 14 30 15 31 16 32 17 15 18 14 19 13 20 12 21
REMARK SMILES IDX 11 22 10 23 9 24 8 25 7 26 6 27 5 28 4 29 3 30 2 31 1 32
REMARK H PARENT
REMARK Flexibility Score: inf
ROOT
ATOM      1  C   UNL     1     -20.068  -6.887 -14.081  1.00  0.00     0.000 C 
ENDROOT
BRANCH   1   2
ATOM      2  C   UNL     1     -21.458  -6.902 -14.735  1.00  0.00     0.000 C 
BRANCH   2   3
ATOM      3  C   UNL     1     -21.351  -6.795 -16.265  1.00  0.00     0.000 C 
BRANCH   3   4
ATOM      4  C   UNL     1     -22.542  -7.453 -16.980  1.00  0.00     0.000 C 
BRANCH   4   5
ATOM      5  C   UNL     1     -23.896  -6.906 -16.493  1.00  0.00     0.000 C 
BRANCH   5   6
ATOM      6  C   UNL     1     -24.972  -8.001 -16.359  1.00  0.00     0.000 C 
BRANCH   6   7
ATOM      7  C   UNL     1     -24.616  -9.354 -17.004  1.00  0.00     0.000 C 
BRANCH   7   8
ATOM      8  C   UNL     1     -25.124 -10.562 -16.196  1.00  0.00     0.000 C 
BRANCH   8   9
ATOM      9  C   UNL     1     -24.277 -11.828 -16.413  1.00  0.00     0.000 C 
BRANCH   9  10
ATOM     10  C   UNL     1     -22.790 -11.582 -16.730  1.00  0.00     0.000 C 
BRANCH  10  11
ATOM     11  C   UNL     1     -21.961 -12.877 -16.763  1.00  0.00     0.000 C 
BRANCH  11  12
ATOM     12  C   UNL     1     -22.820 -14.118 -17.097  1.00  0.00     0.000 C 
BRANCH  12  13
ATOM     13  C   UNL     1     -22.160 -15.458 -16.717  1.00  0.00     0.006 C 
BRANCH  13  14
ATOM     14  C   UNL     1     -20.627 -15.387 -16.596  1.00  0.00     0.053 C 
BRANCH  14  15
ATOM     15  C   UNL     1     -19.983 -16.726 -16.395  1.00  0.00     0.041 C 
ATOM     16  O   UNL     1     -18.902 -16.830 -15.755  1.00  0.00    -0.550 OA
ATOM     17  O   UNL     1     -20.534 -17.851 -16.997  1.00  0.00    -0.550 OA
ENDBRANCH  14  15
ENDBRANCH  13  14
ENDBRANCH  12  13
ENDBRANCH  11  12
ENDBRANCH  10  11
ENDBRANCH   9  10
ENDBRANCH   8   9
ENDBRANCH   7   8
ENDBRANCH   6   7
ENDBRANCH   5   6
ENDBRANCH   4   5
ENDBRANCH   3   4
ENDBRANCH   2   3
ENDBRANCH   1   2
BRANCH   1  18
ATOM     18  C   UNL     1     -19.243  -5.645 -14.465  1.00  0.00     0.000 C 
BRANCH  18  19
ATOM     19  C   UNL     1     -20.067  -4.366 -14.718  1.00  0.00     0.000 C 
BRANCH  19  20
ATOM     20  C   UNL     1     -19.674  -3.572 -15.980  1.00  0.00     0.000 C 
BRANCH  20  21
ATOM     21  C   UNL     1     -20.351  -2.196 -16.116  1.00  0.00     0.000 C 
BRANCH  21  22
ATOM     22  C   UNL     1     -21.556  -2.221 -17.068  1.00  0.00     0.000 C 
BRANCH  22  23
ATOM     23  C   UNL     1     -22.276  -3.577 -17.003  1.00  0.00     0.000 C 
BRANCH  23  24
ATOM     24  C   UNL     1     -23.721  -3.456 -16.481  1.00  0.00    -0.000 C 
BRANCH  24  25
ATOM     25  C   UNL     1     -24.154  -2.010 -16.171  1.00  0.00    -0.000 C 
BRANCH  25  26
ATOM     26  C   UNL     1     -24.058  -1.676 -14.671  1.00  0.00    -0.000 C 
BRANCH  26  27
ATOM     27  C   UNL     1     -24.228  -2.915 -13.779  1.00  0.00    -0.000 C 
BRANCH  27  28
ATOM     28  C   UNL     1     -22.923  -3.715 -13.612  1.00  0.00    -0.000 C 
BRANCH  28  29
ATOM     29  C   UNL     1     -22.659  -4.091 -12.138  1.00  0.00    -0.000 C 
BRANCH  29  30
ATOM     30  C   UNL     1     -21.724  -3.105 -11.408  1.00  0.00    -0.000 C 
BRANCH  30  31
ATOM     31  C   UNL     1     -22.122  -1.625 -11.542  1.00  0.00    -0.003 C 
ATOM     32  C   UNL     1     -22.076  -0.875 -10.211  1.00  0.00     0.004 C 
ENDBRANCH  30  31
ENDBRANCH  29  30
ENDBRANCH  28  29
ENDBRANCH  27  28
ENDBRANCH  26  27
ENDBRANCH  25  26
ENDBRANCH  24  25
ENDBRANCH  23  24
ENDBRANCH  22  23
ENDBRANCH  21  22
ENDBRANCH  20  21
ENDBRANCH  19  20
ENDBRANCH  18  19
ENDBRANCH   1  18
TORSDOF 28
ENDMDL
MODEL 9
REMARK VINA RESULT:     0.931      4.965     12.682
REMARK INTER + INTRA:           0.016
REMARK INTER:                   1.440
REMARK INTRA:                  -1.424
REMARK UNBOUND:                -2.438
REMARK SMILES CCCCCCCCCCCCCCCCCCCCCCCCCCCCCC(=O)[O-]
REMARK SMILES IDX 16 1 17 2 18 3 19 4 20 5 21 6 22 7 23 8 24 9 25 10 26 11
REMARK SMILES IDX 27 12 28 13 29 14 30 15 31 16 32 17 15 18 14 19 13 20 12 21
REMARK SMILES IDX 11 22 10 23 9 24 8 25 7 26 6 27 5 28 4 29 3 30 2 31 1 32
REMARK H PARENT
REMARK Flexibility Score: inf
ROOT
ATOM      1  C   UNL     1     -19.878  -7.496 -13.616  1.00  0.00     0.000 C 
ENDROOT
BRANCH   1   2
ATOM      2  C   UNL     1     -20.398  -7.329 -15.052  1.00  0.00     0.000 C 
BRANCH   2   3
ATOM      3  C   UNL     1     -21.904  -7.025 -15.065  1.00  0.00     0.000 C 
BRANCH   3   4
ATOM      4  C   UNL     1     -22.428  -6.731 -16.479  1.00  0.00     0.000 C 
BRANCH   4   5
ATOM      5  C   UNL     1     -23.965  -6.684 -16.540  1.00  0.00     0.000 C 
BRANCH   5   6
ATOM      6  C   UNL     1     -24.508  -5.297 -16.936  1.00  0.00     0.000 C 
BRANCH   6   7
ATOM      7  C   UNL     1     -23.937  -4.114 -16.131  1.00  0.00     0.000 C 
BRANCH   7   8
ATOM      8  C   UNL     1     -24.680  -2.791 -16.389  1.00  0.00     0.000 C 
BRANCH   8   9
ATOM      9  C   UNL     1     -23.737  -1.579 -16.474  1.00  0.00     0.000 C 
BRANCH   9  10
ATOM     10  C   UNL     1     -22.278  -1.901 -16.847  1.00  0.00     0.000 C 
BRANCH  10  11
ATOM     11  C   UNL     1     -21.265  -1.400 -15.803  1.00  0.00     0.000 C 
BRANCH  11  12
ATOM     12  C   UNL     1     -21.694  -1.737 -14.357  1.00  0.00     0.000 C 
BRANCH  12  13
ATOM     13  C   UNL     1     -21.192  -3.105 -13.856  1.00  0.00     0.006 C 
BRANCH  13  14
ATOM     14  C   UNL     1     -21.944  -3.631 -12.619  1.00  0.00     0.053 C 
BRANCH  14  15
ATOM     15  C   UNL     1     -22.715  -2.567 -11.897  1.00  0.00     0.041 C 
ATOM     16  O   UNL     1     -22.166  -1.872 -11.000  1.00  0.00    -0.550 OA
ATOM     17  O   UNL     1     -24.072  -2.408 -12.152  1.00  0.00    -0.550 OA
ENDBRANCH  14  15
ENDBRANCH  13  14
ENDBRANCH  12  13
ENDBRANCH  11  12
ENDBRANCH  10  11
ENDBRANCH   9  10
ENDBRANCH   8   9
ENDBRANCH   7   8
ENDBRANCH   6   7
ENDBRANCH   5   6
ENDBRANCH   4   5
ENDBRANCH   3   4
ENDBRANCH   2   3
ENDBRANCH   1   2
BRANCH   1  18
ATOM     18  C   UNL     1     -19.203  -8.861 -13.383  1.00  0.00     0.000 C 
BRANCH  18  19
ATOM     19  C   UNL     1     -20.163 -10.067 -13.354  1.00  0.00     0.000 C 
BRANCH  19  20
ATOM     20  C   UNL     1     -21.455  -9.897 -14.179  1.00  0.00     0.000 C 
BRANCH  20  21
ATOM     21  C   UNL     1     -22.023 -11.202 -14.767  1.00  0.00     0.000 C 
BRANCH  21  22
ATOM     22  C   UNL     1     -23.156 -10.952 -15.774  1.00  0.00     0.000 C 
BRANCH  22  23
ATOM     23  C   UNL     1     -22.910 -11.729 -17.077  1.00  0.00     0.000 C 
BRANCH  23  24
ATOM     24  C   UNL     1     -23.117 -13.246 -16.910  1.00  0.00    -0.000 C 
BRANCH  24  25
ATOM     25  C   UNL     1     -21.839 -14.078 -17.125  1.00  0.00    -0.000 C 
BRANCH  25  26
ATOM     26  C   UNL     1     -22.100 -15.593 -17.032  1.00  0.00    -0.000 C 
BRANCH  26  27
ATOM     27  C   UNL     1     -20.870 -16.374 -16.545  1.00  0.00    -0.000 C 
BRANCH  27  28
ATOM     28  C   UNL     1     -20.798 -17.799 -17.124  1.00  0.00    -0.000 C 
BRANCH  28  29
ATOM     29  C   UNL     1     -20.417 -18.842 -16.051  1.00  0.00    -0.000 C 
BRANCH  29  30
ATOM     30  C   UNL     1     -21.393 -20.033 -15.973  1.00  0.00    -0.000 C 
BRANCH  30  31
ATOM     31  C   UNL     1     -22.854 -19.648 -15.685  1.00  0.00    -0.003 C 
ATOM     32  C   UNL     1     -23.254 -19.884 -14.229  1.00  0.00     0.004 C 
ENDBRANCH  30  31
ENDBRANCH  29  30
ENDBRANCH  28  29
ENDBRANCH  27  28
ENDBRANCH  26  27
ENDBRANCH  25  26
ENDBRANCH  24  25
ENDBRANCH  23  24
ENDBRANCH  22  23
ENDBRANCH  21  22
ENDBRANCH  20  21
ENDBRANCH  19  20
ENDBRANCH  18  19
ENDBRANCH   1  18
TORSDOF 28
ENDMDL
