MODEL 1
REMARK VINA RESULT:    -5.952      0.000      0.000
REMARK INTER + INTRA:          -7.585
REMARK INTER:                  -7.170
REMARK INTRA:                  -0.415
REMARK UNBOUND:                -0.415
REMARK SMILES O=c1c(O)c(-c2ccc(O)cc2O)oc2cc(O)cc(O)c12
REMARK SMILES IDX 5 1 3 2 2 3 1 4 22 5 20 6 19 7 17 8 16 9 15 10 14 11 6 12
REMARK SMILES IDX 8 13 7 14 9 15 11 16 12 17 10 18 13 20 4 22 21 24 18 26
REMARK H PARENT 10 19 13 21 4 23 21 25 18 27
REMARK Flexibility Score: inf
ROOT
ATOM      1  C   UNL     1      27.938  38.541  21.115  1.00  0.00     0.184 A 
ATOM      2  C   UNL     1      28.396  38.050  19.878  1.00  0.00     0.208 A 
ATOM      3  C   UNL     1      28.648  36.676  19.747  1.00  0.00     0.238 A 
ATOM      4  O   UNL     1      29.070  36.225  18.648  1.00  0.00    -0.285 OA
ATOM      5  C   UNL     1      28.421  35.818  20.844  1.00  0.00     0.111 A 
ATOM      6  C   UNL     1      28.647  34.422  20.794  1.00  0.00     0.134 A 
ATOM      7  C   UNL     1      28.388  33.634  21.925  1.00  0.00     0.093 A 
ATOM      8  C   UNL     1      27.907  34.216  23.104  1.00  0.00     0.123 A 
ATOM      9  C   UNL     1      27.682  35.593  23.158  1.00  0.00     0.094 A 
ATOM     10  C   UNL     1      27.936  36.395  22.042  1.00  0.00     0.146 A 
ATOM     11  O   UNL     1      27.719  37.703  22.122  1.00  0.00    -0.451 OA
ENDROOT
BRANCH   1  12
ATOM     12  C   UNL     1      27.664  39.978  21.324  1.00  0.00     0.063 A 
ATOM     13  C   UNL     1      28.521  42.222  21.697  1.00  0.00     0.047 A 
ATOM     14  C   UNL     1      28.744  40.857  21.503  1.00  0.00     0.020 A 
ATOM     15  C   UNL     1      27.215  42.728  21.699  1.00  0.00     0.119 A 
ATOM     16  C   UNL     1      26.136  41.864  21.497  1.00  0.00     0.093 A 
ATOM     17  C   UNL     1      26.351  40.492  21.296  1.00  0.00     0.130 A 
BRANCH  15  18
ATOM     18  O   UNL     1      26.980  44.088  21.896  1.00  0.00    -0.508 OA
ATOM     19  H   UNL     1      26.662  44.684  21.140  1.00  0.00     0.293 HD
ENDBRANCH  15  18
BRANCH  17  20
ATOM     20  O   UNL     1      25.268  39.649  21.048  1.00  0.00    -0.507 OA
ATOM     21  H   UNL     1      24.971  38.953  21.722  1.00  0.00     0.293 HD
ENDBRANCH  17  20
ENDBRANCH   1  12
BRANCH   2  22
ATOM     22  O   UNL     1      28.569  38.919  18.798  1.00  0.00    -0.502 OA
ATOM     23  H   UNL     1      29.477  39.281  18.535  1.00  0.00     0.293 HD
ENDBRANCH   2  22
BRANCH   6  24
ATOM     24  O   UNL     1      29.125  33.812  19.633  1.00  0.00    -0.507 OA
ATOM     25  H   UNL     1      28.513  33.589  18.857  1.00  0.00     0.293 HD
ENDBRANCH   6  24
BRANCH   8  26
ATOM     26  O   UNL     1      27.648  33.435  24.227  1.00  0.00    -0.508 OA
ATOM     27  H   UNL     1      28.031  32.501  24.323  1.00  0.00     0.293 HD
ENDBRANCH   8  26
TORSDOF 6
ENDMDL
MODEL 2
REMARK VINA RESULT:    -5.427      1.783      6.577
REMARK INTER + INTRA:          -6.953
REMARK INTER:                  -6.829
REMARK INTRA:                  -0.124
REMARK UNBOUND:                -0.415
REMARK SMILES O=c1c(O)c(-c2ccc(O)cc2O)oc2cc(O)cc(O)c12
REMARK SMILES IDX 5 1 3 2 2 3 1 4 22 5 20 6 19 7 17 8 16 9 15 10 14 11 6 12
REMARK SMILES IDX 8 13 7 14 9 15 11 16 12 17 10 18 13 20 4 22 21 24 18 26
REMARK H PARENT 10 19 13 21 4 23 21 25 18 27
REMARK Flexibility Score: inf
ROOT
ATOM      1  C   UNL     1      28.182  38.889  20.548  1.00  0.00     0.184 A 
ATOM      2  C   UNL     1      27.759  39.661  19.451  1.00  0.00     0.208 A 
ATOM      3  C   UNL     1      27.644  41.051  19.606  1.00  0.00     0.238 A 
ATOM      4  O   UNL     1      27.255  41.753  18.634  1.00  0.00    -0.285 OA
ATOM      5  C   UNL     1      27.970  41.643  20.845  1.00  0.00     0.111 A 
ATOM      6  C   UNL     1      27.883  43.035  21.083  1.00  0.00     0.134 A 
ATOM      7  C   UNL     1      28.234  43.549  22.340  1.00  0.00     0.093 A 
ATOM      8  C   UNL     1      28.670  42.697  23.362  1.00  0.00     0.123 A 
ATOM      9  C   UNL     1      28.757  41.323  23.131  1.00  0.00     0.094 A 
ATOM     10  C   UNL     1      28.410  40.792  21.886  1.00  0.00     0.146 A 
ATOM     11  O   UNL     1      28.497  39.480  21.695  1.00  0.00    -0.451 OA
ENDROOT
BRANCH   1  12
ATOM     12  C   UNL     1      28.315  37.419  20.455  1.00  0.00     0.063 A 
ATOM     13  C   UNL     1      29.125  35.481  19.232  1.00  0.00     0.047 A 
ATOM     14  C   UNL     1      28.976  36.866  19.348  1.00  0.00     0.020 A 
ATOM     15  C   UNL     1      28.626  34.634  20.229  1.00  0.00     0.119 A 
ATOM     16  C   UNL     1      27.987  35.178  21.346  1.00  0.00     0.093 A 
ATOM     17  C   UNL     1      27.838  36.567  21.474  1.00  0.00     0.130 A 
BRANCH  15  18
ATOM     18  O   UNL     1      28.765  33.252  20.122  1.00  0.00    -0.508 OA
ATOM     19  H   UNL     1      29.034  32.684  20.918  1.00  0.00     0.293 HD
ENDBRANCH  15  18
BRANCH  17  20
ATOM     20  O   UNL     1      27.241  37.100  22.617  1.00  0.00    -0.507 OA
ATOM     21  H   UNL     1      26.240  37.053  22.764  1.00  0.00     0.293 HD
ENDBRANCH  17  20
ENDBRANCH   1  12
BRANCH   2  22
ATOM     22  O   UNL     1      27.487  39.050  18.225  1.00  0.00    -0.502 OA
ATOM     23  H   UNL     1      27.629  38.059  18.071  1.00  0.00     0.293 HD
ENDBRANCH   2  22
BRANCH   6  24
ATOM     24  O   UNL     1      27.453  43.911  20.084  1.00  0.00    -0.507 OA
ATOM     25  H   UNL     1      26.779  44.643  20.271  1.00  0.00     0.293 HD
ENDBRANCH   6  24
BRANCH   8  26
ATOM     26  O   UNL     1      29.019  43.206  24.610  1.00  0.00    -0.508 OA
ATOM     27  H   UNL     1      29.978  43.191  24.939  1.00  0.00     0.293 HD
ENDBRANCH   8  26
TORSDOF 6
ENDMDL
MODEL 3
REMARK VINA RESULT:    -5.286      1.381      6.332
REMARK INTER + INTRA:          -6.783
REMARK INTER:                  -7.365
REMARK INTRA:                   0.581
REMARK UNBOUND:                -0.415
REMARK SMILES O=c1c(O)c(-c2ccc(O)cc2O)oc2cc(O)cc(O)c12
REMARK SMILES IDX 5 1 3 2 2 3 1 4 22 5 20 6 19 7 17 8 16 9 15 10 14 11 6 12
REMARK SMILES IDX 8 13 7 14 9 15 11 16 12 17 10 18 13 20 4 22 21 24 18 26
REMARK H PARENT 10 19 13 21 4 23 21 25 18 27
REMARK Flexibility Score: inf
ROOT
ATOM      1  C   UNL     1      28.055  36.621  21.055  1.00  0.00     0.184 A 
ATOM      2  C   UNL     1      28.488  36.662  19.717  1.00  0.00     0.208 A 
ATOM      3  C   UNL     1      28.334  37.853  18.992  1.00  0.00     0.238 A 
ATOM      4  O   UNL     1      28.708  37.899  17.789  1.00  0.00    -0.285 OA
ATOM      5  C   UNL     1      27.770  38.983  19.620  1.00  0.00     0.111 A 
ATOM      6  C   UNL     1      27.582  40.221  18.962  1.00  0.00     0.134 A 
ATOM      7  C   UNL     1      27.022  41.303  19.659  1.00  0.00     0.093 A 
ATOM      8  C   UNL     1      26.647  41.168  21.001  1.00  0.00     0.123 A 
ATOM      9  C   UNL     1      26.830  39.948  21.654  1.00  0.00     0.094 A 
ATOM     10  C   UNL     1      27.385  38.859  20.977  1.00  0.00     0.146 A 
ATOM     11  O   UNL     1      27.543  37.708  21.621  1.00  0.00    -0.451 OA
ENDROOT
BRANCH   1  12
ATOM     12  C   UNL     1      28.178  35.395  21.872  1.00  0.00     0.063 A 
ATOM     13  C   UNL     1      29.022  33.126  22.096  1.00  0.00     0.047 A 
ATOM     14  C   UNL     1      28.881  34.298  21.349  1.00  0.00     0.020 A 
ATOM     15  C   UNL     1      28.474  33.042  23.382  1.00  0.00     0.119 A 
ATOM     16  C   UNL     1      27.793  34.137  23.920  1.00  0.00     0.093 A 
ATOM     17  C   UNL     1      27.652  35.320  23.178  1.00  0.00     0.130 A 
BRANCH  15  18
ATOM     18  O   UNL     1      28.605  31.877  24.135  1.00  0.00    -0.508 OA
ATOM     19  H   UNL     1      27.847  31.534  24.716  1.00  0.00     0.293 HD
ENDBRANCH  15  18
BRANCH  17  20
ATOM     20  O   UNL     1      27.012  36.422  23.745  1.00  0.00    -0.507 OA
ATOM     21  H   UNL     1      26.184  36.319  24.319  1.00  0.00     0.293 HD
ENDBRANCH  17  20
ENDBRANCH   1  12
BRANCH   2  22
ATOM     22  O   UNL     1      29.084  35.539  19.137  1.00  0.00    -0.502 OA
ATOM     23  H   UNL     1      29.039  35.356  18.142  1.00  0.00     0.293 HD
ENDBRANCH   2  22
BRANCH   6  24
ATOM     24  O   UNL     1      27.947  40.387  17.625  1.00  0.00    -0.507 OA
ATOM     25  H   UNL     1      28.917  40.440  17.340  1.00  0.00     0.293 HD
ENDBRANCH   6  24
BRANCH   8  26
ATOM     26  O   UNL     1      26.092  42.241  21.694  1.00  0.00    -0.508 OA
ATOM     27  H   UNL     1      25.189  42.168  22.147  1.00  0.00     0.293 HD
ENDBRANCH   8  26
TORSDOF 6
ENDMDL
MODEL 4
REMARK VINA RESULT:    -4.977      7.763     11.962
REMARK INTER + INTRA:          -6.411
REMARK INTER:                  -6.362
REMARK INTRA:                  -0.049
REMARK UNBOUND:                -0.415
REMARK SMILES O=c1c(O)c(-c2ccc(O)cc2O)oc2cc(O)cc(O)c12
REMARK SMILES IDX 5 1 3 2 2 3 1 4 22 5 20 6 19 7 17 8 16 9 15 10 14 11 6 12
REMARK SMILES IDX 8 13 7 14 9 15 11 16 12 17 10 18 13 20 4 22 21 24 18 26
REMARK H PARENT 10 19 13 21 4 23 21 25 18 27
REMARK Flexibility Score: inf
ROOT
ATOM      1  C   UNL     1      28.177  28.282  26.564  1.00  0.00     0.184 A 
ATOM      2  C   UNL     1      28.533  26.929  26.412  1.00  0.00     0.208 A 
ATOM      3  C   UNL     1      28.269  26.038  27.463  1.00  0.00     0.238 A 
ATOM      4  O   UNL     1      28.593  24.825  27.343  1.00  0.00    -0.285 OA
ATOM      5  C   UNL     1      27.639  26.509  28.634  1.00  0.00     0.111 A 
ATOM      6  C   UNL     1      27.336  25.676  29.737  1.00  0.00     0.134 A 
ATOM      7  C   UNL     1      26.700  26.218  30.864  1.00  0.00     0.093 A 
ATOM      8  C   UNL     1      26.362  27.576  30.907  1.00  0.00     0.123 A 
ATOM      9  C   UNL     1      26.660  28.401  29.821  1.00  0.00     0.094 A 
ATOM     10  C   UNL     1      27.295  27.880  28.691  1.00  0.00     0.146 A 
ATOM     11  O   UNL     1      27.571  28.689  27.674  1.00  0.00    -0.451 OA
ENDROOT
BRANCH   1  12
ATOM     12  C   UNL     1      28.437  29.275  25.500  1.00  0.00     0.063 A 
ATOM     13  C   UNL     1      28.401  29.843  23.137  1.00  0.00     0.047 A 
ATOM     14  C   UNL     1      28.173  28.927  24.166  1.00  0.00     0.020 A 
ATOM     15  C   UNL     1      28.883  31.125  23.430  1.00  0.00     0.119 A 
ATOM     16  C   UNL     1      29.125  31.488  24.757  1.00  0.00     0.093 A 
ATOM     17  C   UNL     1      28.894  30.576  25.798  1.00  0.00     0.130 A 
BRANCH  15  18
ATOM     18  O   UNL     1      29.117  32.046  22.411  1.00  0.00    -0.508 OA
ATOM     19  H   UNL     1      30.003  32.075  21.918  1.00  0.00     0.293 HD
ENDBRANCH  15  18
BRANCH  17  20
ATOM     20  O   UNL     1      29.094  30.967  27.122  1.00  0.00    -0.507 OA
ATOM     21  H   UNL     1      29.488  30.336  27.809  1.00  0.00     0.293 HD
ENDBRANCH  17  20
ENDBRANCH   1  12
BRANCH   2  22
ATOM     22  O   UNL     1      29.114  26.485  25.221  1.00  0.00    -0.502 OA
ATOM     23  H   UNL     1      30.104  26.289  25.143  1.00  0.00     0.293 HD
ENDBRANCH   2  22
BRANCH   6  24
ATOM     24  O   UNL     1      27.659  24.318  29.724  1.00  0.00    -0.507 OA
ATOM     25  H   UNL     1      28.620  23.998  29.717  1.00  0.00     0.293 HD
ENDBRANCH   6  24
BRANCH   8  26
ATOM     26  O   UNL     1      25.730  28.115  32.025  1.00  0.00    -0.508 OA
ATOM     27  H   UNL     1      26.188  28.149  32.928  1.00  0.00     0.293 HD
ENDBRANCH   8  26
TORSDOF 6
ENDMDL
MODEL 5
REMARK VINA RESULT:    -4.633      1.541      6.533
REMARK INTER + INTRA:          -5.996
REMARK INTER:                  -5.900
REMARK INTRA:                  -0.096
REMARK UNBOUND:                -0.415
REMARK SMILES O=c1c(O)c(-c2ccc(O)cc2O)oc2cc(O)cc(O)c12
REMARK SMILES IDX 5 1 3 2 2 3 1 4 22 5 20 6 19 7 17 8 16 9 15 10 14 11 6 12
REMARK SMILES IDX 8 13 7 14 9 15 11 16 12 17 10 18 13 20 4 22 21 24 18 26
REMARK H PARENT 10 19 13 21 4 23 21 25 18 27
REMARK Flexibility Score: inf
ROOT
ATOM      1  C   UNL     1      27.695  37.931  21.482  1.00  0.00     0.184 A 
ATOM      2  C   UNL     1      27.136  38.130  20.206  1.00  0.00     0.208 A 
ATOM      3  C   UNL     1      27.058  39.435  19.697  1.00  0.00     0.238 A 
ATOM      4  O   UNL     1      26.550  39.627  18.559  1.00  0.00    -0.285 OA
ATOM      5  C   UNL     1      27.556  40.512  20.461  1.00  0.00     0.111 A 
ATOM      6  C   UNL     1      27.518  41.856  20.019  1.00  0.00     0.134 A 
ATOM      7  C   UNL     1      28.042  42.871  20.834  1.00  0.00     0.093 A 
ATOM      8  C   UNL     1      28.602  42.566  22.080  1.00  0.00     0.123 A 
ATOM      9  C   UNL     1      28.641  41.242  22.519  1.00  0.00     0.094 A 
ATOM     10  C   UNL     1      28.123  40.217  21.723  1.00  0.00     0.146 A 
ATOM     11  O   UNL     1      28.169  38.966  22.168  1.00  0.00    -0.451 OA
ENDROOT
BRANCH   1  12
ATOM     12  C   UNL     1      27.797  36.584  22.082  1.00  0.00     0.063 A 
ATOM     13  C   UNL     1      27.210  35.066  23.888  1.00  0.00     0.047 A 
ATOM     14  C   UNL     1      27.139  36.330  23.296  1.00  0.00     0.020 A 
ATOM     15  C   UNL     1      27.927  34.037  23.265  1.00  0.00     0.119 A 
ATOM     16  C   UNL     1      28.564  34.275  22.045  1.00  0.00     0.093 A 
ATOM     17  C   UNL     1      28.494  35.539  21.441  1.00  0.00     0.130 A 
BRANCH  15  18
ATOM     18  O   UNL     1      28.007  32.774  23.848  1.00  0.00    -0.508 OA
ATOM     19  H   UNL     1      27.538  31.972  23.441  1.00  0.00     0.293 HD
ENDBRANCH  15  18
BRANCH  17  20
ATOM     20  O   UNL     1      29.094  35.750  20.199  1.00  0.00    -0.507 OA
ATOM     21  H   UNL     1      29.649  36.576  20.011  1.00  0.00     0.293 HD
ENDBRANCH  17  20
ENDBRANCH   1  12
BRANCH   2  22
ATOM     22  O   UNL     1      26.694  37.037  19.456  1.00  0.00    -0.502 OA
ATOM     23  H   UNL     1      25.720  36.910  19.208  1.00  0.00     0.293 HD
ENDBRANCH   2  22
BRANCH   6  24
ATOM     24  O   UNL     1      26.967  42.191  18.781  1.00  0.00    -0.507 OA
ATOM     25  H   UNL     1      26.154  42.788  18.704  1.00  0.00     0.293 HD
ENDBRANCH   6  24
BRANCH   8  26
ATOM     26  O   UNL     1      29.124  43.573  22.889  1.00  0.00    -0.508 OA
ATOM     27  H   UNL     1      30.077  43.897  22.783  1.00  0.00     0.293 HD
ENDBRANCH   8  26
TORSDOF 6
ENDMDL
MODEL 6
REMARK VINA RESULT:    -3.590      1.746      2.984
REMARK INTER + INTRA:          -4.740
REMARK INTER:                  -4.435
REMARK INTRA:                  -0.305
REMARK UNBOUND:                -0.415
REMARK SMILES O=c1c(O)c(-c2ccc(O)cc2O)oc2cc(O)cc(O)c12
REMARK SMILES IDX 5 1 3 2 2 3 1 4 22 5 20 6 19 7 17 8 16 9 15 10 14 11 6 12
REMARK SMILES IDX 8 13 7 14 9 15 11 16 12 17 10 18 13 20 4 22 21 24 18 26
REMARK H PARENT 10 19 13 21 4 23 21 25 18 27
REMARK Flexibility Score: inf
ROOT
ATOM      1  C   UNL     1      28.167  38.485  20.797  1.00  0.00     0.184 A 
ATOM      2  C   UNL     1      27.881  38.265  22.157  1.00  0.00     0.208 A 
ATOM      3  C   UNL     1      27.877  36.950  22.644  1.00  0.00     0.238 A 
ATOM      4  O   UNL     1      27.611  36.740  23.859  1.00  0.00    -0.285 OA
ATOM      5  C   UNL     1      28.177  35.882  21.771  1.00  0.00     0.111 A 
ATOM      6  C   UNL     1      28.196  34.529  22.183  1.00  0.00     0.134 A 
ATOM      7  C   UNL     1      28.513  33.524  21.257  1.00  0.00     0.093 A 
ATOM      8  C   UNL     1      28.810  33.849  19.928  1.00  0.00     0.123 A 
ATOM      9  C   UNL     1      28.791  35.183  19.517  1.00  0.00     0.094 A 
ATOM     10  C   UNL     1      28.476  36.197  20.425  1.00  0.00     0.146 A 
ATOM     11  O   UNL     1      28.461  37.458  20.006  1.00  0.00    -0.451 OA
ENDROOT
BRANCH   1  12
ATOM     12  C   UNL     1      28.177  39.844  20.217  1.00  0.00     0.063 A 
ATOM     13  C   UNL     1      29.100  42.093  20.214  1.00  0.00     0.047 A 
ATOM     14  C   UNL     1      29.060  40.800  20.742  1.00  0.00     0.020 A 
ATOM     15  C   UNL     1      28.268  42.441  19.143  1.00  0.00     0.119 A 
ATOM     16  C   UNL     1      27.403  41.488  18.598  1.00  0.00     0.093 A 
ATOM     17  C   UNL     1      27.360  40.186  19.119  1.00  0.00     0.130 A 
BRANCH  15  18
ATOM     18  O   UNL     1      28.296  43.728  18.610  1.00  0.00    -0.508 OA
ATOM     19  H   UNL     1      28.848  43.949  17.788  1.00  0.00     0.293 HD
ENDBRANCH  15  18
BRANCH  17  20
ATOM     20  O   UNL     1      26.528  39.232  18.535  1.00  0.00    -0.507 OA
ATOM     21  H   UNL     1      25.736  38.842  19.032  1.00  0.00     0.293 HD
ENDBRANCH  17  20
ENDBRANCH   1  12
BRANCH   2  22
ATOM     22  O   UNL     1      27.633  39.348  23.005  1.00  0.00    -0.502 OA
ATOM     23  H   UNL     1      26.899  39.331  23.702  1.00  0.00     0.293 HD
ENDBRANCH   2  22
BRANCH   6  24
ATOM     24  O   UNL     1      27.907  34.174  23.502  1.00  0.00    -0.507 OA
ATOM     25  H   UNL     1      28.503  34.451  24.272  1.00  0.00     0.293 HD
ENDBRANCH   6  24
BRANCH   8  26
ATOM     26  O   UNL     1      29.125  32.852  19.007  1.00  0.00    -0.508 OA
ATOM     27  H   UNL     1      30.016  32.838  18.525  1.00  0.00     0.293 HD
ENDBRANCH   8  26
TORSDOF 6
ENDMDL
MODEL 7
REMARK VINA RESULT:    -3.170      9.457     13.004
REMARK INTER + INTRA:          -4.234
REMARK INTER:                  -4.084
REMARK INTRA:                  -0.150
REMARK UNBOUND:                -0.415
REMARK SMILES O=c1c(O)c(-c2ccc(O)cc2O)oc2cc(O)cc(O)c12
REMARK SMILES IDX 5 1 3 2 2 3 1 4 22 5 20 6 19 7 17 8 16 9 15 10 14 11 6 12
REMARK SMILES IDX 8 13 7 14 9 15 11 16 12 17 10 18 13 20 4 22 21 24 18 26
REMARK H PARENT 10 19 13 21 4 23 21 25 18 27
REMARK Flexibility Score: inf
ROOT
ATOM      1  C   UNL     1      27.336  27.977  27.802  1.00  0.00     0.184 A 
ATOM      2  C   UNL     1      27.818  26.731  28.243  1.00  0.00     0.208 A 
ATOM      3  C   UNL     1      27.568  26.339  29.567  1.00  0.00     0.238 A 
ATOM      4  O   UNL     1      28.005  25.230  29.977  1.00  0.00    -0.285 OA
ATOM      5  C   UNL     1      26.826  27.187  30.416  1.00  0.00     0.111 A 
ATOM      6  C   UNL     1      26.528  26.865  31.761  1.00  0.00     0.134 A 
ATOM      7  C   UNL     1      25.775  27.757  32.540  1.00  0.00     0.093 A 
ATOM      8  C   UNL     1      25.317  28.964  31.998  1.00  0.00     0.123 A 
ATOM      9  C   UNL     1      25.610  29.285  30.672  1.00  0.00     0.094 A 
ATOM     10  C   UNL     1      26.359  28.411  29.881  1.00  0.00     0.146 A 
ATOM     11  O   UNL     1      26.627  28.744  28.623  1.00  0.00    -0.451 OA
ENDROOT
BRANCH   1  12
ATOM     12  C   UNL     1      27.575  28.456  26.424  1.00  0.00     0.063 A 
ATOM     13  C   UNL     1      29.124  28.789  24.581  1.00  0.00     0.047 A 
ATOM     14  C   UNL     1      28.865  28.351  25.882  1.00  0.00     0.020 A 
ATOM     15  C   UNL     1      28.092  29.322  23.799  1.00  0.00     0.119 A 
ATOM     16  C   UNL     1      26.799  29.407  24.322  1.00  0.00     0.093 A 
ATOM     17  C   UNL     1      26.529  28.966  25.626  1.00  0.00     0.130 A 
BRANCH  15  18
ATOM     18  O   UNL     1      28.339  29.765  22.501  1.00  0.00    -0.508 OA
ATOM     19  H   UNL     1      29.119  30.378  22.290  1.00  0.00     0.293 HD
ENDBRANCH  15  18
BRANCH  17  20
ATOM     20  O   UNL     1      25.225  29.012  26.119  1.00  0.00    -0.507 OA
ATOM     21  H   UNL     1      24.509  29.575  25.676  1.00  0.00     0.293 HD
ENDBRANCH  17  20
ENDBRANCH   1  12
BRANCH   2  22
ATOM     22  O   UNL     1      28.511  25.895  27.364  1.00  0.00    -0.502 OA
ATOM     23  H   UNL     1      29.501  26.002  27.182  1.00  0.00     0.293 HD
ENDBRANCH   2  22
BRANCH   6  24
ATOM     24  O   UNL     1      26.969  25.668  32.330  1.00  0.00    -0.507 OA
ATOM     25  H   UNL     1      26.910  24.788  31.832  1.00  0.00     0.293 HD
ENDBRANCH   6  24
BRANCH   8  26
ATOM     26  O   UNL     1      24.570  29.850  32.770  1.00  0.00    -0.508 OA
ATOM     27  H   UNL     1      24.649  30.853  32.651  1.00  0.00     0.293 HD
ENDBRANCH   8  26
TORSDOF 6
ENDMDL
MODEL 8
REMARK VINA RESULT:    -3.149      7.505     11.725
REMARK INTER + INTRA:          -4.209
REMARK INTER:                  -4.130
REMARK INTRA:                  -0.079
REMARK UNBOUND:                -0.415
REMARK SMILES O=c1c(O)c(-c2ccc(O)cc2O)oc2cc(O)cc(O)c12
REMARK SMILES IDX 5 1 3 2 2 3 1 4 22 5 20 6 19 7 17 8 16 9 15 10 14 11 6 12
REMARK SMILES IDX 8 13 7 14 9 15 11 16 12 17 10 18 13 20 4 22 21 24 18 26
REMARK H PARENT 10 19 13 21 4 23 21 25 18 27
REMARK Flexibility Score: inf
ROOT
ATOM      1  C   UNL     1      27.692  28.874  26.401  1.00  0.00     0.184 A 
ATOM      2  C   UNL     1      28.071  29.327  27.678  1.00  0.00     0.208 A 
ATOM      3  C   UNL     1      27.680  28.586  28.803  1.00  0.00     0.238 A 
ATOM      4  O   UNL     1      28.003  28.989  29.953  1.00  0.00    -0.285 OA
ATOM      5  C   UNL     1      26.936  27.400  28.632  1.00  0.00     0.111 A 
ATOM      6  C   UNL     1      26.505  26.594  29.713  1.00  0.00     0.134 A 
ATOM      7  C   UNL     1      25.777  25.422  29.460  1.00  0.00     0.093 A 
ATOM      8  C   UNL     1      25.472  25.042  28.148  1.00  0.00     0.123 A 
ATOM      9  C   UNL     1      25.895  25.834  27.079  1.00  0.00     0.094 A 
ATOM     10  C   UNL     1      26.620  27.006  27.310  1.00  0.00     0.146 A 
ATOM     11  O   UNL     1      27.005  27.743  26.275  1.00  0.00    -0.451 OA
ENDROOT
BRANCH   1  12
ATOM     12  C   UNL     1      28.061  29.612  25.176  1.00  0.00     0.063 A 
ATOM     13  C   UNL     1      28.308  31.742  24.030  1.00  0.00     0.047 A 
ATOM     14  C   UNL     1      27.961  31.012  25.170  1.00  0.00     0.020 A 
ATOM     15  C   UNL     1      28.774  31.081  22.887  1.00  0.00     0.119 A 
ATOM     16  C   UNL     1      28.900  29.690  22.892  1.00  0.00     0.093 A 
ATOM     17  C   UNL     1      28.559  28.950  24.034  1.00  0.00     0.130 A 
BRANCH  15  18
ATOM     18  O   UNL     1      29.119  31.799  21.743  1.00  0.00    -0.508 OA
ATOM     19  H   UNL     1      29.903  32.442  21.738  1.00  0.00     0.293 HD
ENDBRANCH  15  18
BRANCH  17  20
ATOM     20  O   UNL     1      28.735  27.566  24.042  1.00  0.00    -0.507 OA
ATOM     21  H   UNL     1      28.004  26.939  24.357  1.00  0.00     0.293 HD
ENDBRANCH  17  20
ENDBRANCH   1  12
BRANCH   2  22
ATOM     22  O   UNL     1      28.845  30.482  27.811  1.00  0.00    -0.502 OA
ATOM     23  H   UNL     1      29.386  30.679  28.645  1.00  0.00     0.293 HD
ENDBRANCH   2  22
BRANCH   6  24
ATOM     24  O   UNL     1      26.795  26.946  31.032  1.00  0.00    -0.507 OA
ATOM     25  H   UNL     1      26.183  27.547  31.570  1.00  0.00     0.293 HD
ENDBRANCH   6  24
BRANCH   8  26
ATOM     26  O   UNL     1      24.750  23.878  27.896  1.00  0.00    -0.508 OA
ATOM     27  H   UNL     1      25.192  22.966  27.909  1.00  0.00     0.293 HD
ENDBRANCH   8  26
TORSDOF 6
ENDMDL
