MODEL 1
REMARK VINA RESULT:    -3.955      0.000      0.000
REMARK INTER + INTRA:          -5.949
REMARK INTER:                  -5.342
REMARK INTRA:                  -0.607
REMARK UNBOUND:                -0.607
REMARK SMILES CCCCCCCC(=O)[O-]
REMARK SMILES IDX 5 1 6 2 7 3 8 4 9 5 10 6 4 7 3 8 2 9 1 10
REMARK H PARENT
REMARK Flexibility Score: inf
ROOT
ATOM      1  C   UNL     1      18.340  55.268  13.972  1.00  0.00     0.000 C 
ENDROOT
BRANCH   1   2
ATOM      2  C   UNL     1      19.301  54.075  14.119  1.00  0.00     0.006 C 
BRANCH   2   3
ATOM      3  C   UNL     1      20.641  54.484  14.740  1.00  0.00     0.053 C 
BRANCH   3   4
ATOM      4  C   UNL     1      20.927  53.717  15.995  1.00  0.00     0.041 C 
ATOM      5  O   UNL     1      22.109  53.389  16.282  1.00  0.00    -0.550 OA
ATOM      6  O   UNL     1      19.893  53.396  16.866  1.00  0.00    -0.550 OA
ENDBRANCH   3   4
ENDBRANCH   2   3
ENDBRANCH   1   2
BRANCH   1   7
ATOM      7  C   UNL     1      17.519  55.529  15.244  1.00  0.00     0.000 C 
BRANCH   7   8
ATOM      8  C   UNL     1      17.950  56.814  15.973  1.00  0.00    -0.000 C 
BRANCH   8   9
ATOM      9  C   UNL     1      18.502  56.535  17.379  1.00  0.00    -0.003 C 
ATOM     10  C   UNL     1      19.915  57.084  17.582  1.00  0.00     0.004 C 
ENDBRANCH   8   9
ENDBRANCH   7   8
ENDBRANCH   1   7
TORSDOF 6
ENDMDL
MODEL 2
REMARK VINA RESULT:    -3.899      1.627      3.463
REMARK INTER + INTRA:          -5.874
REMARK INTER:                  -5.323
REMARK INTRA:                  -0.551
REMARK UNBOUND:                -0.607
REMARK SMILES CCCCCCCC(=O)[O-]
REMARK SMILES IDX 5 1 6 2 7 3 8 4 9 5 10 6 4 7 3 8 2 9 1 10
REMARK H PARENT
REMARK Flexibility Score: inf
ROOT
ATOM      1  C   UNL     1      18.361  55.984  14.407  1.00  0.00     0.000 C 
ENDROOT
BRANCH   1   2
ATOM      2  C   UNL     1      17.320  56.018  15.541  1.00  0.00     0.006 C 
BRANCH   2   3
ATOM      3  C   UNL     1      17.731  56.965  16.675  1.00  0.00     0.053 C 
BRANCH   3   4
ATOM      4  C   UNL     1      18.930  56.456  17.415  1.00  0.00     0.041 C 
ATOM      5  O   UNL     1      19.988  57.136  17.452  1.00  0.00    -0.550 OA
ATOM      6  O   UNL     1      18.866  55.245  18.094  1.00  0.00    -0.550 OA
ENDBRANCH   3   4
ENDBRANCH   2   3
ENDBRANCH   1   2
BRANCH   1   7
ATOM      7  C   UNL     1      18.334  54.665  13.618  1.00  0.00     0.000 C 
BRANCH   7   8
ATOM      8  C   UNL     1      19.544  53.766  13.930  1.00  0.00    -0.000 C 
BRANCH   8   9
ATOM      9  C   UNL     1      20.635  54.501  14.723  1.00  0.00    -0.003 C 
ATOM     10  C   UNL     1      21.167  53.683  15.900  1.00  0.00     0.004 C 
ENDBRANCH   8   9
ENDBRANCH   7   8
ENDBRANCH   1   7
TORSDOF 6
ENDMDL
MODEL 3
REMARK VINA RESULT:    -3.858      1.905      4.148
REMARK INTER + INTRA:          -5.818
REMARK INTER:                  -5.181
REMARK INTRA:                  -0.637
REMARK UNBOUND:                -0.607
REMARK SMILES CCCCCCCC(=O)[O-]
REMARK SMILES IDX 5 1 6 2 7 3 8 4 9 5 10 6 4 7 3 8 2 9 1 10
REMARK H PARENT
REMARK Flexibility Score: inf
ROOT
ATOM      1  C   UNL     1      21.706  55.553  16.475  1.00  0.00     0.000 C 
ENDROOT
BRANCH   1   2
ATOM      2  C   UNL     1      20.813  56.798  16.324  1.00  0.00     0.006 C 
BRANCH   2   3
ATOM      3  C   UNL     1      19.834  56.953  17.494  1.00  0.00     0.053 C 
BRANCH   3   4
ATOM      4  C   UNL     1      18.437  56.584  17.101  1.00  0.00     0.041 C 
ATOM      5  O   UNL     1      17.734  57.387  16.432  1.00  0.00    -0.550 OA
ATOM      6  O   UNL     1      17.923  55.339  17.441  1.00  0.00    -0.550 OA
ENDBRANCH   3   4
ENDBRANCH   2   3
ENDBRANCH   1   2
BRANCH   1   7
ATOM      7  C   UNL     1      21.086  54.299  15.839  1.00  0.00     0.000 C 
BRANCH   7   8
ATOM      8  C   UNL     1      20.510  54.570  14.437  1.00  0.00    -0.000 C 
BRANCH   8   9
ATOM      9  C   UNL     1      19.068  54.061  14.285  1.00  0.00    -0.003 C 
ATOM     10  C   UNL     1      18.126  55.115  13.701  1.00  0.00     0.004 C 
ENDBRANCH   8   9
ENDBRANCH   7   8
ENDBRANCH   1   7
TORSDOF 6
ENDMDL
MODEL 4
REMARK VINA RESULT:    -3.855      2.280      4.020
REMARK INTER + INTRA:          -5.815
REMARK INTER:                  -5.416
REMARK INTRA:                  -0.399
REMARK UNBOUND:                -0.607
REMARK SMILES CCCCCCCC(=O)[O-]
REMARK SMILES IDX 5 1 6 2 7 3 8 4 9 5 10 6 4 7 3 8 2 9 1 10
REMARK H PARENT
REMARK Flexibility Score: inf
ROOT
ATOM      1  C   UNL     1      21.214  54.695  15.539  1.00  0.00     0.000 C 
ENDROOT
BRANCH   1   2
ATOM      2  C   UNL     1      21.119  55.091  17.023  1.00  0.00     0.006 C 
BRANCH   2   3
ATOM      3  C   UNL     1      19.669  55.137  17.519  1.00  0.00     0.053 C 
BRANCH   3   4
ATOM      4  C   UNL     1      19.148  56.540  17.577  1.00  0.00     0.041 C 
ATOM      5  O   UNL     1      19.795  57.432  18.187  1.00  0.00    -0.550 OA
ATOM      6  O   UNL     1      17.965  56.872  16.928  1.00  0.00    -0.550 OA
ENDBRANCH   3   4
ENDBRANCH   2   3
ENDBRANCH   1   2
BRANCH   1   7
ATOM      7  C   UNL     1      20.251  53.557  15.166  1.00  0.00     0.000 C 
BRANCH   7   8
ATOM      8  C   UNL     1      19.504  53.823  13.847  1.00  0.00    -0.000 C 
BRANCH   8   9
ATOM      9  C   UNL     1      18.541  55.016  13.948  1.00  0.00    -0.003 C 
ATOM     10  C   UNL     1      17.536  55.066  12.796  1.00  0.00     0.004 C 
ENDBRANCH   8   9
ENDBRANCH   7   8
ENDBRANCH   1   7
TORSDOF 6
ENDMDL
MODEL 5
REMARK VINA RESULT:    -3.840      1.876      3.101
REMARK INTER + INTRA:          -5.794
REMARK INTER:                  -5.193
REMARK INTRA:                  -0.601
REMARK UNBOUND:                -0.607
REMARK SMILES CCCCCCCC(=O)[O-]
REMARK SMILES IDX 5 1 6 2 7 3 8 4 9 5 10 6 4 7 3 8 2 9 1 10
REMARK H PARENT
REMARK Flexibility Score: inf
ROOT
ATOM      1  C   UNL     1      20.626  54.469  14.554  1.00  0.00     0.000 C 
ENDROOT
BRANCH   1   2
ATOM      2  C   UNL     1      21.104  53.832  15.871  1.00  0.00     0.006 C 
BRANCH   2   3
ATOM      3  C   UNL     1      20.730  54.679  17.093  1.00  0.00     0.053 C 
BRANCH   3   4
ATOM      4  C   UNL     1      21.304  56.060  17.006  1.00  0.00     0.041 C 
ATOM      5  O   UNL     1      20.545  57.065  17.042  1.00  0.00    -0.550 OA
ATOM      6  O   UNL     1      22.679  56.239  16.923  1.00  0.00    -0.550 OA
ENDBRANCH   3   4
ENDBRANCH   2   3
ENDBRANCH   1   2
BRANCH   1   7
ATOM      7  C   UNL     1      19.350  53.810  14.006  1.00  0.00     0.000 C 
BRANCH   7   8
ATOM      8  C   UNL     1      18.285  54.839  13.588  1.00  0.00    -0.000 C 
BRANCH   8   9
ATOM      9  C   UNL     1      18.004  55.873  14.689  1.00  0.00    -0.003 C 
ATOM     10  C   UNL     1      17.211  55.291  15.861  1.00  0.00     0.004 C 
ENDBRANCH   8   9
ENDBRANCH   7   8
ENDBRANCH   1   7
TORSDOF 6
ENDMDL
MODEL 6
REMARK VINA RESULT:    -3.827      1.764      3.666
REMARK INTER + INTRA:          -5.776
REMARK INTER:                  -5.106
REMARK INTRA:                  -0.670
REMARK UNBOUND:                -0.607
REMARK SMILES CCCCCCCC(=O)[O-]
REMARK SMILES IDX 5 1 6 2 7 3 8 4 9 5 10 6 4 7 3 8 2 9 1 10
REMARK H PARENT
REMARK Flexibility Score: inf
ROOT
ATOM      1  C   UNL     1      18.324  55.301  14.188  1.00  0.00     0.000 C 
ENDROOT
BRANCH   1   2
ATOM      2  C   UNL     1      18.887  56.380  15.131  1.00  0.00     0.006 C 
BRANCH   2   3
ATOM      3  C   UNL     1      17.967  56.635  16.331  1.00  0.00     0.053 C 
BRANCH   3   4
ATOM      4  C   UNL     1      18.058  55.535  17.343  1.00  0.00     0.041 C 
ATOM      5  O   UNL     1      17.109  54.720  17.481  1.00  0.00    -0.550 OA
ATOM      6  O   UNL     1      19.208  55.387  18.109  1.00  0.00    -0.550 OA
ENDBRANCH   3   4
ENDBRANCH   2   3
ENDBRANCH   1   2
BRANCH   1   7
ATOM      7  C   UNL     1      19.304  54.137  13.967  1.00  0.00     0.000 C 
BRANCH   7   8
ATOM      8  C   UNL     1      20.558  54.245  14.853  1.00  0.00    -0.000 C 
BRANCH   8   9
ATOM      9  C   UNL     1      20.680  53.076  15.843  1.00  0.00    -0.003 C 
ATOM     10  C   UNL     1      19.369  52.309  16.021  1.00  0.00     0.004 C 
ENDBRANCH   8   9
ENDBRANCH   7   8
ENDBRANCH   1   7
TORSDOF 6
ENDMDL
MODEL 7
REMARK VINA RESULT:    -3.760      1.488      2.256
REMARK INTER + INTRA:          -5.686
REMARK INTER:                  -5.174
REMARK INTRA:                  -0.512
REMARK UNBOUND:                -0.607
REMARK SMILES CCCCCCCC(=O)[O-]
REMARK SMILES IDX 5 1 6 2 7 3 8 4 9 5 10 6 4 7 3 8 2 9 1 10
REMARK H PARENT
REMARK Flexibility Score: inf
ROOT
ATOM      1  C   UNL     1      18.300  54.832  13.610  1.00  0.00     0.000 C 
ENDROOT
BRANCH   1   2
ATOM      2  C   UNL     1      19.535  53.918  13.683  1.00  0.00     0.006 C 
BRANCH   2   3
ATOM      3  C   UNL     1      20.553  54.401  14.723  1.00  0.00     0.053 C 
BRANCH   3   4
ATOM      4  C   UNL     1      20.839  53.348  15.749  1.00  0.00     0.041 C 
ATOM      5  O   UNL     1      20.035  52.394  15.920  1.00  0.00    -0.550 OA
ATOM      6  O   UNL     1      22.012  53.401  16.492  1.00  0.00    -0.550 OA
ENDBRANCH   3   4
ENDBRANCH   2   3
ENDBRANCH   1   2
BRANCH   1   7
ATOM      7  C   UNL     1      18.317  55.940  14.675  1.00  0.00     0.000 C 
BRANCH   7   8
ATOM      8  C   UNL     1      17.218  55.756  15.737  1.00  0.00    -0.000 C 
BRANCH   8   9
ATOM      9  C   UNL     1      16.399  54.475  15.519  1.00  0.00    -0.003 C 
ATOM     10  C   UNL     1      16.654  53.417  16.594  1.00  0.00     0.004 C 
ENDBRANCH   8   9
ENDBRANCH   7   8
ENDBRANCH   1   7
TORSDOF 6
ENDMDL
MODEL 8
REMARK VINA RESULT:    -3.714      1.302      3.232
REMARK INTER + INTRA:          -5.624
REMARK INTER:                  -5.047
REMARK INTRA:                  -0.577
REMARK UNBOUND:                -0.607
REMARK SMILES CCCCCCCC(=O)[O-]
REMARK SMILES IDX 5 1 6 2 7 3 8 4 9 5 10 6 4 7 3 8 2 9 1 10
REMARK H PARENT
REMARK Flexibility Score: inf
ROOT
ATOM      1  C   UNL     1      17.840  56.910  16.182  1.00  0.00     0.000 C 
ENDROOT
BRANCH   1   2
ATOM      2  C   UNL     1      18.455  56.737  17.582  1.00  0.00     0.006 C 
BRANCH   2   3
ATOM      3  C   UNL     1      19.937  57.131  17.616  1.00  0.00     0.053 C 
BRANCH   3   4
ATOM      4  C   UNL     1      20.799  56.103  16.952  1.00  0.00     0.041 C 
ATOM      5  O   UNL     1      21.652  56.450  16.093  1.00  0.00    -0.550 OA
ATOM      6  O   UNL     1      20.687  54.764  17.308  1.00  0.00    -0.550 OA
ENDBRANCH   3   4
ENDBRANCH   2   3
ENDBRANCH   1   2
BRANCH   1   7
ATOM      7  C   UNL     1      16.785  55.839  15.861  1.00  0.00     0.000 C 
BRANCH   7   8
ATOM      8  C   UNL     1      17.362  54.666  15.050  1.00  0.00    -0.000 C 
BRANCH   8   9
ATOM      9  C   UNL     1      18.396  55.123  14.009  1.00  0.00    -0.003 C 
ATOM     10  C   UNL     1      19.600  54.184  13.917  1.00  0.00     0.004 C 
ENDBRANCH   8   9
ENDBRANCH   7   8
ENDBRANCH   1   7
TORSDOF 6
ENDMDL
MODEL 9
REMARK VINA RESULT:    -3.675      2.263      3.755
REMARK INTER + INTRA:          -5.572
REMARK INTER:                  -4.996
REMARK INTRA:                  -0.576
REMARK UNBOUND:                -0.607
REMARK SMILES CCCCCCCC(=O)[O-]
REMARK SMILES IDX 5 1 6 2 7 3 8 4 9 5 10 6 4 7 3 8 2 9 1 10
REMARK H PARENT
REMARK Flexibility Score: inf
ROOT
ATOM      1  C   UNL     1      16.689  54.861  13.438  1.00  0.00     0.000 C 
ENDROOT
BRANCH   1   2
ATOM      2  C   UNL     1      15.915  54.861  14.769  1.00  0.00     0.006 C 
BRANCH   2   3
ATOM      3  C   UNL     1      16.441  55.921  15.744  1.00  0.00     0.053 C 
BRANCH   3   4
ATOM      4  C   UNL     1      16.839  55.318  17.056  1.00  0.00     0.041 C 
ATOM      5  O   UNL     1      17.305  54.149  17.101  1.00  0.00    -0.550 OA
ATOM      6  O   UNL     1      16.729  56.061  18.225  1.00  0.00    -0.550 OA
ENDBRANCH   3   4
ENDBRANCH   2   3
ENDBRANCH   1   2
BRANCH   1   7
ATOM      7  C   UNL     1      18.156  55.286  13.606  1.00  0.00     0.000 C 
BRANCH   7   8
ATOM      8  C   UNL     1      19.124  54.090  13.588  1.00  0.00    -0.000 C 
BRANCH   8   9
ATOM      9  C   UNL     1      20.277  54.251  14.590  1.00  0.00    -0.003 C 
ATOM     10  C   UNL     1      20.165  55.528  15.423  1.00  0.00     0.004 C 
ENDBRANCH   8   9
ENDBRANCH   7   8
ENDBRANCH   1   7
TORSDOF 6
ENDMDL
