MODEL 1
REMARK VINA RESULT:    -3.718      0.000      0.000
REMARK INTER + INTRA:          -6.976
REMARK INTER:                  -5.674
REMARK INTRA:                  -1.302
REMARK UNBOUND:                -1.302
REMARK SMILES OC[C@@H]1O[C@@](CO)(O[C@@H]2O[C@H](CO)[C@@H](O)[C@H](O)[C@H]2O)[C@H](O)[C@@H]1O
REMARK SMILES IDX 8 1 9 2 11 3 14 4 10 5 16 6 18 7 12 8 13 9 15 11 17 13 19 15
REMARK SMILES IDX 5 17 20 18 4 19 22 20 3 21 6 22 7 23 21 25 23 27 2 29 1 30
REMARK H PARENT 13 10 15 12 17 14 19 16 7 24 21 26 23 28 1 31
REMARK Flexibility Score: inf
ROOT
ATOM      1  O   UNL     1     -11.685  -8.825  -7.012  1.00  0.00    -0.313 OA
ENDROOT
BRANCH   1   2
ATOM      2  C   UNL     1     -12.965  -8.518  -6.473  1.00  0.00     0.285 C 
ATOM      3  C   UNL     1     -15.064  -9.389  -5.960  1.00  0.00     0.178 C 
ATOM      4  C   UNL     1     -15.661  -7.947  -6.071  1.00  0.00     0.177 C 
ATOM      5  O   UNL     1     -13.894  -9.551  -6.748  1.00  0.00    -0.341 OA
ATOM      6  C   UNL     1     -15.006  -7.172  -7.233  1.00  0.00     0.179 C 
ATOM      7  C   UNL     1     -13.463  -7.203  -7.124  1.00  0.00     0.202 C 
BRANCH   3   8
ATOM      8  C   UNL     1     -16.082 -10.450  -6.403  1.00  0.00     0.191 C 
BRANCH   8   9
ATOM      9  O   UNL     1     -16.517 -10.213  -7.715  1.00  0.00    -0.394 OA
ATOM     10  H   UNL     1     -17.500 -10.077  -7.668  1.00  0.00     0.210 HD
ENDBRANCH   8   9
ENDBRANCH   3   8
BRANCH   4  11
ATOM     11  O   UNL     1     -15.442  -7.244  -4.875  1.00  0.00    -0.387 OA
ATOM     12  H   UNL     1     -15.189  -7.916  -4.190  1.00  0.00     0.211 HD
ENDBRANCH   4  11
BRANCH   6  13
ATOM     13  O   UNL     1     -15.393  -7.742  -8.458  1.00  0.00    -0.387 OA
ATOM     14  H   UNL     1     -14.583  -7.775  -9.032  1.00  0.00     0.211 HD
ENDBRANCH   6  13
BRANCH   7  15
ATOM     15  O   UNL     1     -13.024  -6.100  -6.371  1.00  0.00    -0.385 OA
ATOM     16  H   UNL     1     -12.725  -5.412  -7.021  1.00  0.00     0.211 HD
ENDBRANCH   7  15
ENDBRANCH   1   2
BRANCH   1  17
ATOM     17  C   UNL     1     -10.648  -9.057  -6.054  1.00  0.00     0.224 C 
ATOM     18  C   UNL     1      -9.351  -9.534  -6.772  1.00  0.00     0.208 C 
ATOM     19  O   UNL     1     -10.358  -7.796  -5.471  1.00  0.00    -0.337 OA
ATOM     20  C   UNL     1      -8.268  -8.610  -6.257  1.00  0.00     0.180 C 
ATOM     21  C   UNL     1      -9.092  -7.374  -5.927  1.00  0.00     0.179 C 
BRANCH  17  22
ATOM     22  C   UNL     1     -11.102  -9.975  -4.883  1.00  0.00     0.225 C 
BRANCH  22  23
ATOM     23  O   UNL     1     -11.733 -11.125  -5.377  1.00  0.00    -0.391 OA
ATOM     24  H   UNL     1     -12.013 -10.912  -6.306  1.00  0.00     0.210 HD
ENDBRANCH  22  23
ENDBRANCH  17  22
BRANCH  18  25
ATOM     25  O   UNL     1      -9.051 -10.907  -6.631  1.00  0.00    -0.385 OA
ATOM     26  H   UNL     1      -8.133 -11.079  -6.960  1.00  0.00     0.211 HD
ENDBRANCH  18  25
BRANCH  20  27
ATOM     27  O   UNL     1      -7.651  -9.121  -5.102  1.00  0.00    -0.387 OA
ATOM     28  H   UNL     1      -8.345  -9.636  -4.613  1.00  0.00     0.211 HD
ENDBRANCH  20  27
BRANCH  21  29
ATOM     29  C   UNL     1      -8.432  -6.461  -4.883  1.00  0.00     0.191 C 
BRANCH  29  30
ATOM     30  O   UNL     1      -7.252  -5.907  -5.399  1.00  0.00    -0.394 OA
ATOM     31  H   UNL     1      -7.050  -6.400  -6.237  1.00  0.00     0.210 HD
ENDBRANCH  29  30
ENDBRANCH  21  29
ENDBRANCH   1  17
TORSDOF 13
ENDMDL
MODEL 2
REMARK VINA RESULT:    -2.056      1.563      6.583
REMARK INTER + INTRA:          -4.440
REMARK INTER:                  -2.963
REMARK INTRA:                  -1.477
REMARK UNBOUND:                -1.302
REMARK SMILES OC[C@@H]1O[C@@](CO)(O[C@@H]2O[C@H](CO)[C@@H](O)[C@H](O)[C@H]2O)[C@H](O)[C@@H]1O
REMARK SMILES IDX 8 1 9 2 11 3 14 4 10 5 16 6 18 7 12 8 13 9 15 11 17 13 19 15
REMARK SMILES IDX 5 17 20 18 4 19 22 20 3 21 6 22 7 23 21 25 23 27 2 29 1 30
REMARK H PARENT 13 10 15 12 17 14 19 16 7 24 21 26 23 28 1 31
REMARK Flexibility Score: inf
ROOT
ATOM      1  O   UNL     1     -13.477  -7.701  -6.561  1.00  0.00    -0.313 OA
ENDROOT
BRANCH   1   2
ATOM      2  C   UNL     1     -12.311  -8.344  -6.063  1.00  0.00     0.285 C 
ATOM      3  C   UNL     1     -10.258  -8.000  -5.018  1.00  0.00     0.178 C 
ATOM      4  C   UNL     1      -9.743  -9.337  -5.647  1.00  0.00     0.177 C 
ATOM      5  O   UNL     1     -11.289  -7.403  -5.789  1.00  0.00    -0.341 OA
ATOM      6  C   UNL     1     -10.271  -9.503  -7.087  1.00  0.00     0.179 C 
ATOM      7  C   UNL     1     -11.809  -9.339  -7.140  1.00  0.00     0.202 C 
BRANCH   3   8
ATOM      8  C   UNL     1      -9.121  -6.978  -4.875  1.00  0.00     0.191 C 
BRANCH   8   9
ATOM      9  O   UNL     1      -8.411  -6.845  -6.078  1.00  0.00    -0.394 OA
ATOM     10  H   UNL     1      -8.528  -5.904  -6.374  1.00  0.00     0.210 HD
ENDBRANCH   8   9
ENDBRANCH   3   8
BRANCH   4  11
ATOM     11  O   UNL     1     -10.176 -10.429  -4.875  1.00  0.00    -0.387 OA
ATOM     12  H   UNL     1      -9.688 -11.226  -5.208  1.00  0.00     0.211 HD
ENDBRANCH   4  11
BRANCH   6  13
ATOM     13  O   UNL     1      -9.675  -8.542  -7.921  1.00  0.00    -0.387 OA
ATOM     14  H   UNL     1     -10.013  -7.655  -7.629  1.00  0.00     0.211 HD
ENDBRANCH   6  13
BRANCH   7  15
ATOM     15  O   UNL     1     -12.421 -10.591  -6.956  1.00  0.00    -0.385 OA
ATOM     16  H   UNL     1     -12.954 -10.769  -7.774  1.00  0.00     0.211 HD
ENDBRANCH   7  15
ENDBRANCH   1   2
BRANCH   1  17
ATOM     17  C   UNL     1     -14.723  -8.294  -6.182  1.00  0.00     0.224 C 
ATOM     18  C   UNL     1     -15.847  -7.215  -6.160  1.00  0.00     0.208 C 
ATOM     19  O   UNL     1     -15.053  -9.214  -7.210  1.00  0.00    -0.337 OA
ATOM     20  C   UNL     1     -16.953  -7.801  -7.012  1.00  0.00     0.180 C 
ATOM     21  C   UNL     1     -16.146  -8.699  -7.937  1.00  0.00     0.179 C 
BRANCH  17  22
ATOM     22  C   UNL     1     -14.619  -9.132  -4.875  1.00  0.00     0.225 C 
BRANCH  22  23
ATOM     23  O   UNL     1     -14.939 -10.474  -5.125  1.00  0.00    -0.391 OA
ATOM     24  H   UNL     1     -15.642 -10.719  -4.468  1.00  0.00     0.210 HD
ENDBRANCH  22  23
ENDBRANCH  17  22
BRANCH  18  25
ATOM     25  O   UNL     1     -16.265  -6.803  -4.875  1.00  0.00    -0.385 OA
ATOM     26  H   UNL     1     -15.471  -6.626  -4.312  1.00  0.00     0.211 HD
ENDBRANCH  18  25
BRANCH  20  27
ATOM     27  O   UNL     1     -17.856  -8.558  -6.245  1.00  0.00    -0.387 OA
ATOM     28  H   UNL     1     -18.444  -9.036  -6.887  1.00  0.00     0.211 HD
ENDBRANCH  20  27
BRANCH  21  29
ATOM     29  C   UNL     1     -16.966  -9.846  -8.544  1.00  0.00     0.191 C 
BRANCH  29  30
ATOM     30  O   UNL     1     -16.727 -11.037  -7.845  1.00  0.00    -0.394 OA
ATOM     31  H   UNL     1     -17.134 -11.768  -8.380  1.00  0.00     0.210 HD
ENDBRANCH  29  30
ENDBRANCH  21  29
ENDBRANCH   1  17
TORSDOF 13
ENDMDL
MODEL 3
REMARK VINA RESULT:    -1.550      1.412      2.826
REMARK INTER + INTRA:          -3.668
REMARK INTER:                  -5.638
REMARK INTRA:                   1.971
REMARK UNBOUND:                -1.302
REMARK SMILES OC[C@@H]1O[C@@](CO)(O[C@@H]2O[C@H](CO)[C@@H](O)[C@H](O)[C@H]2O)[C@H](O)[C@@H]1O
REMARK SMILES IDX 8 1 9 2 11 3 14 4 10 5 16 6 18 7 12 8 13 9 15 11 17 13 19 15
REMARK SMILES IDX 5 17 20 18 4 19 22 20 3 21 6 22 7 23 21 25 23 27 2 29 1 30
REMARK H PARENT 13 10 15 12 17 14 19 16 7 24 21 26 23 28 1 31
REMARK Flexibility Score: inf
ROOT
ATOM      1  O   UNL     1     -13.472  -9.673  -5.255  1.00  0.00    -0.313 OA
ENDROOT
BRANCH   1   2
ATOM      2  C   UNL     1     -14.814  -9.377  -5.621  1.00  0.00     0.285 C 
ATOM      3  C   UNL     1     -16.646 -10.111  -6.857  1.00  0.00     0.178 C 
ATOM      4  C   UNL     1     -17.154  -8.633  -6.932  1.00  0.00     0.177 C 
ATOM      5  O   UNL     1     -15.238 -10.190  -6.700  1.00  0.00    -0.341 OA
ATOM      6  C   UNL     1     -15.974  -7.658  -7.120  1.00  0.00     0.179 C 
ATOM      7  C   UNL     1     -14.883  -7.890  -6.048  1.00  0.00     0.202 C 
BRANCH   3   8
ATOM      8  C   UNL     1     -17.025 -10.895  -8.122  1.00  0.00     0.191 C 
BRANCH   8   9
ATOM      9  O   UNL     1     -16.998 -10.067  -9.254  1.00  0.00    -0.394 OA
ATOM     10  H   UNL     1     -16.231 -10.370  -9.808  1.00  0.00     0.210 HD
ENDBRANCH   8   9
ENDBRANCH   3   8
BRANCH   4  11
ATOM     11  O   UNL     1     -17.836  -8.300  -5.750  1.00  0.00    -0.387 OA
ATOM     12  H   UNL     1     -18.198  -9.147  -5.380  1.00  0.00     0.211 HD
ENDBRANCH   4  11
BRANCH   6  13
ATOM     13  O   UNL     1     -15.413  -7.836  -8.396  1.00  0.00    -0.387 OA
ATOM     14  H   UNL     1     -16.101  -7.560  -9.057  1.00  0.00     0.211 HD
ENDBRANCH   6  13
BRANCH   7  15
ATOM     15  O   UNL     1     -15.146  -7.082  -4.928  1.00  0.00    -0.385 OA
ATOM     16  H   UNL     1     -15.142  -7.683  -4.137  1.00  0.00     0.211 HD
ENDBRANCH   7  15
ENDBRANCH   1   2
BRANCH   1  17
ATOM     17  C   UNL     1     -12.460  -8.961  -5.974  1.00  0.00     0.224 C 
ATOM     18  C   UNL     1     -11.759  -7.932  -5.039  1.00  0.00     0.208 C 
ATOM     19  O   UNL     1     -11.483  -9.922  -6.339  1.00  0.00    -0.337 OA
ATOM     20  C   UNL     1     -10.281  -8.221  -5.196  1.00  0.00     0.180 C 
ATOM     21  C   UNL     1     -10.324  -9.695  -5.568  1.00  0.00     0.179 C 
BRANCH  17  22
ATOM     22  C   UNL     1     -12.983  -8.356  -7.309  1.00  0.00     0.225 C 
BRANCH  22  23
ATOM     23  O   UNL     1     -11.913  -8.058  -8.165  1.00  0.00    -0.391 OA
ATOM     24  H   UNL     1     -12.317  -7.727  -9.009  1.00  0.00     0.210 HD
ENDBRANCH  22  23
ENDBRANCH  17  22
BRANCH  18  25
ATOM     25  O   UNL     1     -12.108  -6.581  -5.256  1.00  0.00    -0.385 OA
ATOM     26  H   UNL     1     -13.042  -6.431  -4.962  1.00  0.00     0.211 HD
ENDBRANCH  18  25
BRANCH  20  27
ATOM     27  O   UNL     1      -9.708  -7.461  -6.231  1.00  0.00    -0.387 OA
ATOM     28  H   UNL     1      -8.724  -7.513  -6.111  1.00  0.00     0.211 HD
ENDBRANCH  20  27
BRANCH  21  29
ATOM     29  C   UNL     1      -9.079 -10.168  -6.333  1.00  0.00     0.191 C 
BRANCH  29  30
ATOM     30  O   UNL     1      -7.953 -10.131  -5.500  1.00  0.00    -0.394 OA
ATOM     31  H   UNL     1      -8.249 -10.450  -4.607  1.00  0.00     0.210 HD
ENDBRANCH  29  30
ENDBRANCH  21  29
ENDBRANCH   1  17
TORSDOF 13
ENDMDL
MODEL 4
REMARK VINA RESULT:    -1.476      2.292      7.038
REMARK INTER + INTRA:          -3.554
REMARK INTER:                  -2.815
REMARK INTRA:                  -0.740
REMARK UNBOUND:                -1.302
REMARK SMILES OC[C@@H]1O[C@@](CO)(O[C@@H]2O[C@H](CO)[C@@H](O)[C@H](O)[C@H]2O)[C@H](O)[C@@H]1O
REMARK SMILES IDX 8 1 9 2 11 3 14 4 10 5 16 6 18 7 12 8 13 9 15 11 17 13 19 15
REMARK SMILES IDX 5 17 20 18 4 19 22 20 3 21 6 22 7 23 21 25 23 27 2 29 1 30
REMARK H PARENT 13 10 15 12 17 14 19 16 7 24 21 26 23 28 1 31
REMARK Flexibility Score: inf
ROOT
ATOM      1  O   UNL     1      -8.954  -7.734  -6.919  1.00  0.00    -0.313 OA
ENDROOT
BRANCH   1   2
ATOM      2  C   UNL     1      -7.809  -8.416  -6.423  1.00  0.00     0.285 C 
ATOM      3  C   UNL     1      -5.834  -8.171  -5.212  1.00  0.00     0.178 C 
ATOM      4  C   UNL     1      -5.254  -9.420  -5.956  1.00  0.00     0.177 C 
ATOM      5  O   UNL     1      -6.826  -7.501  -5.976  1.00  0.00    -0.341 OA
ATOM      6  C   UNL     1      -5.686  -9.425  -7.437  1.00  0.00     0.179 C 
ATOM      7  C   UNL     1      -7.221  -9.274  -7.571  1.00  0.00     0.202 C 
BRANCH   3   8
ATOM      8  C   UNL     1      -4.729  -7.158  -4.880  1.00  0.00     0.191 C 
BRANCH   8   9
ATOM      9  O   UNL     1      -4.447  -6.341  -5.985  1.00  0.00    -0.394 OA
ATOM     10  H   UNL     1      -5.107  -5.599  -5.964  1.00  0.00     0.210 HD
ENDBRANCH   8   9
ENDBRANCH   3   8
BRANCH   4  11
ATOM     11  O   UNL     1      -5.714 -10.598  -5.344  1.00  0.00    -0.387 OA
ATOM     12  H   UNL     1      -6.461 -10.937  -5.903  1.00  0.00     0.211 HD
ENDBRANCH   4  11
BRANCH   6  13
ATOM     13  O   UNL     1      -5.058  -8.366  -8.115  1.00  0.00    -0.387 OA
ATOM     14  H   UNL     1      -4.269  -8.102  -7.572  1.00  0.00     0.211 HD
ENDBRANCH   6  13
BRANCH   7  15
ATOM     15  O   UNL     1      -7.819 -10.546  -7.572  1.00  0.00    -0.385 OA
ATOM     16  H   UNL     1      -8.738 -10.428  -7.217  1.00  0.00     0.211 HD
ENDBRANCH   7  15
ENDBRANCH   1   2
BRANCH   1  17
ATOM     17  C   UNL     1     -10.188  -8.456  -6.847  1.00  0.00     0.224 C 
ATOM     18  C   UNL     1     -10.131  -9.501  -5.693  1.00  0.00     0.208 C 
ATOM     19  O   UNL     1     -11.182  -7.507  -6.497  1.00  0.00    -0.337 OA
ATOM     20  C   UNL     1     -11.377  -9.233  -4.876  1.00  0.00     0.180 C 
ATOM     21  C   UNL     1     -11.591  -7.756  -5.170  1.00  0.00     0.179 C 
BRANCH  17  22
ATOM     22  C   UNL     1     -10.623  -9.046  -8.219  1.00  0.00     0.225 C 
BRANCH  22  23
ATOM     23  O   UNL     1     -11.561  -8.208  -8.838  1.00  0.00    -0.391 OA
ATOM     24  H   UNL     1     -12.398  -8.290  -8.311  1.00  0.00     0.210 HD
ENDBRANCH  22  23
ENDBRANCH  17  22
BRANCH  18  25
ATOM     25  O   UNL     1      -9.988 -10.846  -6.101  1.00  0.00    -0.385 OA
ATOM     26  H   UNL     1      -9.873 -11.421  -5.303  1.00  0.00     0.211 HD
ENDBRANCH  18  25
BRANCH  20  27
ATOM     27  O   UNL     1     -12.470  -9.995  -5.326  1.00  0.00    -0.387 OA
ATOM     28  H   UNL     1     -12.709  -9.647  -6.225  1.00  0.00     0.211 HD
ENDBRANCH  20  27
BRANCH  21  29
ATOM     29  C   UNL     1     -13.042  -7.296  -4.969  1.00  0.00     0.191 C 
BRANCH  29  30
ATOM     30  O   UNL     1     -13.754  -7.390  -6.173  1.00  0.00    -0.394 OA
ATOM     31  H   UNL     1     -13.203  -6.938  -6.864  1.00  0.00     0.210 HD
ENDBRANCH  29  30
ENDBRANCH  21  29
ENDBRANCH   1  17
TORSDOF 13
ENDMDL
