MODEL 1
REMARK VINA RESULT:    -1.495      0.000      0.000
REMARK INTER + INTRA:          -3.799
REMARK INTER:                  -2.412
REMARK INTRA:                  -1.387
REMARK UNBOUND:                -1.387
REMARK SMILES CCCCCCCCCCCCO
REMARK SMILES IDX 7 1 6 2 5 3 4 4 3 5 2 6 1 7 8 8 9 9 10 10 11 11 12 12 13 13
REMARK H PARENT 13 14
REMARK Flexibility Score: inf
ROOT
ATOM      1  C   UNL     1     124.690 107.866 136.375  1.00  0.00     0.000 C 
ENDROOT
BRANCH   1   2
ATOM      2  C   UNL     1     125.954 107.311 137.042  1.00  0.00    -0.000 C 
BRANCH   2   3
ATOM      3  C   UNL     1     126.423 108.225 138.180  1.00  0.00    -0.000 C 
BRANCH   3   4
ATOM      4  C   UNL     1     125.642 109.549 138.178  1.00  0.00    -0.000 C 
BRANCH   4   5
ATOM      5  C   UNL     1     126.513 110.750 137.778  1.00  0.00    -0.000 C 
BRANCH   5   6
ATOM      6  C   UNL     1     125.680 111.983 137.395  1.00  0.00    -0.003 C 
ATOM      7  C   UNL     1     124.394 111.576 136.681  1.00  0.00     0.004 C 
ENDBRANCH   5   6
ENDBRANCH   4   5
ENDBRANCH   3   4
ENDBRANCH   2   3
ENDBRANCH   1   2
BRANCH   1   8
ATOM      8  C   UNL     1     124.867 107.963 134.854  1.00  0.00     0.000 C 
BRANCH   8   9
ATOM      9  C   UNL     1     126.317 107.662 134.449  1.00  0.00     0.000 C 
BRANCH   9  10
ATOM     10  C   UNL     1     127.050 108.899 133.905  1.00  0.00     0.002 C 
BRANCH  10  11
ATOM     11  C   UNL     1     126.131 110.125 133.782  1.00  0.00     0.028 C 
BRANCH  11  12
ATOM     12  C   UNL     1     126.880 111.340 133.233  1.00  0.00     0.156 C 
BRANCH  12  13
ATOM     13  O   UNL     1     127.125 112.261 134.261  1.00  0.00    -0.396 OA
ATOM     14  H   UNL     1     127.705 111.794 134.916  1.00  0.00     0.210 HD
ENDBRANCH  12  13
ENDBRANCH  11  12
ENDBRANCH  10  11
ENDBRANCH   9  10
ENDBRANCH   8   9
ENDBRANCH   1   8
TORSDOF 11
ENDMDL
MODEL 2
REMARK VINA RESULT:    -1.479      1.762      4.024
REMARK INTER + INTRA:          -3.774
REMARK INTER:                  -2.627
REMARK INTRA:                  -1.146
REMARK UNBOUND:                -1.387
REMARK SMILES CCCCCCCCCCCCO
REMARK SMILES IDX 7 1 6 2 5 3 4 4 3 5 2 6 1 7 8 8 9 9 10 10 11 11 12 12 13 13
REMARK H PARENT 13 14
REMARK Flexibility Score: inf
ROOT
ATOM      1  C   UNL     1     125.417 108.493 136.764  1.00  0.00     0.000 C 
ENDROOT
BRANCH   1   2
ATOM      2  C   UNL     1     125.301 107.400 135.695  1.00  0.00    -0.000 C 
BRANCH   2   3
ATOM      3  C   UNL     1     125.532 107.975 134.293  1.00  0.00    -0.000 C 
BRANCH   3   4
ATOM      4  C   UNL     1     126.855 108.753 134.229  1.00  0.00    -0.000 C 
BRANCH   4   5
ATOM      5  C   UNL     1     126.697 110.140 133.585  1.00  0.00    -0.000 C 
BRANCH   5   6
ATOM      6  C   UNL     1     126.815 111.282 134.605  1.00  0.00    -0.003 C 
ATOM      7  C   UNL     1     125.440 111.818 134.992  1.00  0.00     0.004 C 
ENDBRANCH   5   6
ENDBRANCH   4   5
ENDBRANCH   3   4
ENDBRANCH   2   3
ENDBRANCH   1   2
BRANCH   1   8
ATOM      8  C   UNL     1     126.230 108.002 137.968  1.00  0.00     0.000 C 
BRANCH   8   9
ATOM      9  C   UNL     1     126.589 109.168 138.901  1.00  0.00     0.000 C 
BRANCH   9  10
ATOM     10  C   UNL     1     126.757 110.499 138.151  1.00  0.00     0.002 C 
BRANCH  10  11
ATOM     11  C   UNL     1     126.774 111.712 139.094  1.00  0.00     0.028 C 
BRANCH  11  12
ATOM     12  C   UNL     1     125.845 112.824 138.603  1.00  0.00     0.156 C 
BRANCH  12  13
ATOM     13  O   UNL     1     124.540 112.334 138.458  1.00  0.00    -0.396 OA
ATOM     14  H   UNL     1     124.165 112.277 139.375  1.00  0.00     0.210 HD
ENDBRANCH  12  13
ENDBRANCH  11  12
ENDBRANCH  10  11
ENDBRANCH   9  10
ENDBRANCH   8   9
ENDBRANCH   1   8
TORSDOF 11
ENDMDL
MODEL 3
REMARK VINA RESULT:    -1.462      1.639      3.997
REMARK INTER + INTRA:          -3.746
REMARK INTER:                  -2.591
REMARK INTRA:                  -1.155
REMARK UNBOUND:                -1.387
REMARK SMILES CCCCCCCCCCCCO
REMARK SMILES IDX 7 1 6 2 5 3 4 4 3 5 2 6 1 7 8 8 9 9 10 10 11 11 12 12 13 13
REMARK H PARENT 13 14
REMARK Flexibility Score: inf
ROOT
ATOM      1  C   UNL     1     124.246 110.875 137.876  1.00  0.00     0.000 C 
ENDROOT
BRANCH   1   2
ATOM      2  C   UNL     1     124.221 109.766 136.817  1.00  0.00    -0.000 C 
BRANCH   2   3
ATOM      3  C   UNL     1     125.208 108.647 137.169  1.00  0.00    -0.000 C 
BRANCH   3   4
ATOM      4  C   UNL     1     126.021 108.224 135.935  1.00  0.00    -0.000 C 
BRANCH   4   5
ATOM      5  C   UNL     1     126.025 109.296 134.833  1.00  0.00    -0.000 C 
BRANCH   5   6
ATOM      6  C   UNL     1     127.122 109.060 133.784  1.00  0.00    -0.003 C 
ATOM      7  C   UNL     1     126.971 107.690 133.130  1.00  0.00     0.004 C 
ENDBRANCH   5   6
ENDBRANCH   4   5
ENDBRANCH   3   4
ENDBRANCH   2   3
ENDBRANCH   1   2
BRANCH   1   8
ATOM      8  C   UNL     1     125.452 110.718 138.810  1.00  0.00     0.000 C 
BRANCH   8   9
ATOM      9  C   UNL     1     126.450 111.870 138.621  1.00  0.00     0.000 C 
BRANCH   9  10
ATOM     10  C   UNL     1     127.125 111.849 137.240  1.00  0.00     0.002 C 
BRANCH  10  11
ATOM     11  C   UNL     1     126.962 113.175 136.481  1.00  0.00     0.028 C 
BRANCH  11  12
ATOM     12  C   UNL     1     126.344 112.963 135.098  1.00  0.00     0.156 C 
BRANCH  12  13
ATOM     13  O   UNL     1     124.948 113.059 135.173  1.00  0.00    -0.396 OA
ATOM     14  H   UNL     1     124.728 114.009 134.991  1.00  0.00     0.210 HD
ENDBRANCH  12  13
ENDBRANCH  11  12
ENDBRANCH  10  11
ENDBRANCH   9  10
ENDBRANCH   8   9
ENDBRANCH   1   8
TORSDOF 11
ENDMDL
MODEL 4
REMARK VINA RESULT:    -1.389      2.042      5.037
REMARK INTER + INTRA:          -3.628
REMARK INTER:                  -2.389
REMARK INTRA:                  -1.239
REMARK UNBOUND:                -1.387
REMARK SMILES CCCCCCCCCCCCO
REMARK SMILES IDX 7 1 6 2 5 3 4 4 3 5 2 6 1 7 8 8 9 9 10 10 11 11 12 12 13 13
REMARK H PARENT 13 14
REMARK Flexibility Score: inf
ROOT
ATOM      1  C   UNL     1     125.294 111.076 135.095  1.00  0.00     0.000 C 
ENDROOT
BRANCH   1   2
ATOM      2  C   UNL     1     125.742 111.570 133.715  1.00  0.00    -0.000 C 
BRANCH   2   3
ATOM      3  C   UNL     1     126.381 110.436 132.904  1.00  0.00    -0.000 C 
BRANCH   3   4
ATOM      4  C   UNL     1     127.125 109.455 133.824  1.00  0.00    -0.000 C 
BRANCH   4   5
ATOM      5  C   UNL     1     127.005 107.997 133.355  1.00  0.00    -0.000 C 
BRANCH   5   6
ATOM      6  C   UNL     1     126.494 107.060 134.460  1.00  0.00    -0.003 C 
ATOM      7  C   UNL     1     124.977 107.151 134.599  1.00  0.00     0.004 C 
ENDBRANCH   5   6
ENDBRANCH   4   5
ENDBRANCH   3   4
ENDBRANCH   2   3
ENDBRANCH   1   2
BRANCH   1   8
ATOM      8  C   UNL     1     125.906 111.930 136.212  1.00  0.00     0.000 C 
BRANCH   8   9
ATOM      9  C   UNL     1     126.441 111.047 137.350  1.00  0.00     0.000 C 
BRANCH   9  10
ATOM     10  C   UNL     1     125.979 109.585 137.234  1.00  0.00     0.002 C 
BRANCH  10  11
ATOM     11  C   UNL     1     125.185 109.116 138.463  1.00  0.00     0.028 C 
BRANCH  11  12
ATOM     12  C   UNL     1     123.708 109.498 138.361  1.00  0.00     0.156 C 
BRANCH  12  13
ATOM     13  O   UNL     1     123.170 109.031 137.154  1.00  0.00    -0.396 OA
ATOM     14  H   UNL     1     123.934 108.672 136.634  1.00  0.00     0.210 HD
ENDBRANCH  12  13
ENDBRANCH  11  12
ENDBRANCH  10  11
ENDBRANCH   9  10
ENDBRANCH   8   9
ENDBRANCH   1   8
TORSDOF 11
ENDMDL
MODEL 5
REMARK VINA RESULT:    -1.385      1.912      3.731
REMARK INTER + INTRA:          -3.621
REMARK INTER:                  -2.400
REMARK INTRA:                  -1.221
REMARK UNBOUND:                -1.387
REMARK SMILES CCCCCCCCCCCCO
REMARK SMILES IDX 7 1 6 2 5 3 4 4 3 5 2 6 1 7 8 8 9 9 10 10 11 11 12 12 13 13
REMARK H PARENT 13 14
REMARK Flexibility Score: inf
ROOT
ATOM      1  C   UNL     1     126.016 111.034 133.493  1.00  0.00     0.000 C 
ENDROOT
BRANCH   1   2
ATOM      2  C   UNL     1     125.158 111.515 134.668  1.00  0.00    -0.000 C 
BRANCH   2   3
ATOM      3  C   UNL     1     125.935 111.433 135.988  1.00  0.00    -0.000 C 
BRANCH   3   4
ATOM      4  C   UNL     1     125.254 110.464 136.967  1.00  0.00    -0.000 C 
BRANCH   4   5
ATOM      5  C   UNL     1     126.219 109.399 137.512  1.00  0.00    -0.000 C 
BRANCH   5   6
ATOM      6  C   UNL     1     125.514 108.072 137.834  1.00  0.00    -0.003 C 
ATOM      7  C   UNL     1     126.406 107.167 138.678  1.00  0.00     0.004 C 
ENDBRANCH   5   6
ENDBRANCH   4   5
ENDBRANCH   3   4
ENDBRANCH   2   3
ENDBRANCH   1   2
BRANCH   1   8
ATOM      8  C   UNL     1     127.125 110.088 133.971  1.00  0.00     0.000 C 
BRANCH   8   9
ATOM      9  C   UNL     1     127.125 108.785 133.158  1.00  0.00     0.000 C 
BRANCH   9  10
ATOM     10  C   UNL     1     126.732 107.561 134.000  1.00  0.00     0.002 C 
BRANCH  10  11
ATOM     11  C   UNL     1     125.217 107.470 134.241  1.00  0.00     0.028 C 
BRANCH  11  12
ATOM     12  C   UNL     1     124.440 107.379 132.926  1.00  0.00     0.156 C 
BRANCH  12  13
ATOM     13  O   UNL     1     123.639 108.517 132.758  1.00  0.00    -0.396 OA
ATOM     14  H   UNL     1     124.210 109.189 132.303  1.00  0.00     0.210 HD
ENDBRANCH  12  13
ENDBRANCH  11  12
ENDBRANCH  10  11
ENDBRANCH   9  10
ENDBRANCH   8   9
ENDBRANCH   1   8
TORSDOF 11
ENDMDL
MODEL 6
REMARK VINA RESULT:    -1.371      1.802      3.283
REMARK INTER + INTRA:          -3.599
REMARK INTER:                  -2.351
REMARK INTRA:                  -1.249
REMARK UNBOUND:                -1.387
REMARK SMILES CCCCCCCCCCCCO
REMARK SMILES IDX 7 1 6 2 5 3 4 4 3 5 2 6 1 7 8 8 9 9 10 10 11 11 12 12 13 13
REMARK H PARENT 13 14
REMARK Flexibility Score: inf
ROOT
ATOM      1  C   UNL     1     125.179 111.589 136.990  1.00  0.00     0.000 C 
ENDROOT
BRANCH   1   2
ATOM      2  C   UNL     1     125.114 110.894 138.356  1.00  0.00    -0.000 C 
BRANCH   2   3
ATOM      3  C   UNL     1     126.249 109.874 138.509  1.00  0.00    -0.000 C 
BRANCH   3   4
ATOM      4  C   UNL     1     125.690 108.453 138.679  1.00  0.00    -0.000 C 
BRANCH   4   5
ATOM      5  C   UNL     1     126.047 107.531 137.502  1.00  0.00    -0.000 C 
BRANCH   5   6
ATOM      6  C   UNL     1     124.811 106.875 136.869  1.00  0.00    -0.003 C 
ATOM      7  C   UNL     1     123.673 107.880 136.718  1.00  0.00     0.004 C 
ENDBRANCH   5   6
ENDBRANCH   4   5
ENDBRANCH   3   4
ENDBRANCH   2   3
ENDBRANCH   1   2
BRANCH   1   8
ATOM      8  C   UNL     1     126.334 111.038 136.146  1.00  0.00     0.000 C 
BRANCH   8   9
ATOM      9  C   UNL     1     125.809 110.353 134.875  1.00  0.00     0.000 C 
BRANCH   9  10
ATOM     10  C   UNL     1     126.766 109.273 134.345  1.00  0.00     0.002 C 
BRANCH  10  11
ATOM     11  C   UNL     1     127.125 109.476 132.865  1.00  0.00     0.028 C 
BRANCH  11  12
ATOM     12  C   UNL     1     125.916 109.250 131.954  1.00  0.00     0.156 C 
BRANCH  12  13
ATOM     13  O   UNL     1     126.330 109.154 130.618  1.00  0.00    -0.396 OA
ATOM     14  H   UNL     1     125.665 109.665 130.087  1.00  0.00     0.210 HD
ENDBRANCH  12  13
ENDBRANCH  11  12
ENDBRANCH  10  11
ENDBRANCH   9  10
ENDBRANCH   8   9
ENDBRANCH   1   8
TORSDOF 11
ENDMDL
MODEL 7
REMARK VINA RESULT:    -1.358      1.772      4.542
REMARK INTER + INTRA:          -3.578
REMARK INTER:                  -2.367
REMARK INTRA:                  -1.211
REMARK UNBOUND:                -1.387
REMARK SMILES CCCCCCCCCCCCO
REMARK SMILES IDX 7 1 6 2 5 3 4 4 3 5 2 6 1 7 8 8 9 9 10 10 11 11 12 12 13 13
REMARK H PARENT 13 14
REMARK Flexibility Score: inf
ROOT
ATOM      1  C   UNL     1     126.213 110.970 133.451  1.00  0.00     0.000 C 
ENDROOT
BRANCH   1   2
ATOM      2  C   UNL     1     127.125 109.740 133.527  1.00  0.00    -0.000 C 
BRANCH   2   3
ATOM      3  C   UNL     1     126.309 108.444 133.449  1.00  0.00    -0.000 C 
BRANCH   3   4
ATOM      4  C   UNL     1     126.432 107.638 134.751  1.00  0.00    -0.000 C 
BRANCH   4   5
ATOM      5  C   UNL     1     125.066 107.300 135.370  1.00  0.00    -0.000 C 
BRANCH   5   6
ATOM      6  C   UNL     1     124.958 107.739 136.838  1.00  0.00    -0.003 C 
ATOM      7  C   UNL     1     126.149 107.237 137.650  1.00  0.00     0.004 C 
ENDBRANCH   5   6
ENDBRANCH   4   5
ENDBRANCH   3   4
ENDBRANCH   2   3
ENDBRANCH   1   2
BRANCH   1   8
ATOM      8  C   UNL     1     126.358 111.842 134.703  1.00  0.00     0.000 C 
BRANCH   8   9
ATOM      9  C   UNL     1     125.733 111.155 135.927  1.00  0.00     0.000 C 
BRANCH   9  10
ATOM     10  C   UNL     1     126.739 110.951 137.071  1.00  0.00     0.002 C 
BRANCH  10  11
ATOM     11  C   UNL     1     126.128 111.229 138.453  1.00  0.00     0.028 C 
BRANCH  11  12
ATOM     12  C   UNL     1     124.641 111.574 138.355  1.00  0.00     0.156 C 
BRANCH  12  13
ATOM     13  O   UNL     1     124.432 112.915 138.706  1.00  0.00    -0.396 OA
ATOM     14  H   UNL     1     124.268 113.398 137.855  1.00  0.00     0.210 HD
ENDBRANCH  12  13
ENDBRANCH  11  12
ENDBRANCH  10  11
ENDBRANCH   9  10
ENDBRANCH   8   9
ENDBRANCH   1   8
TORSDOF 11
ENDMDL
