MODEL 1
REMARK VINA RESULT:    -3.895      0.000      0.000
REMARK INTER + INTRA:          -9.524
REMARK INTER:                  -7.311
REMARK INTRA:                  -2.214
REMARK UNBOUND:                -2.214
REMARK SMILES O=C([O-])CCCCCCCCCCCCCCC(=O)[O-]
REMARK SMILES IDX 10 1 9 2 8 3 7 4 6 5 5 6 4 7 2 8 1 9 3 10 11 11 12 12 13 13
REMARK SMILES IDX 14 14 15 15 16 16 17 17 18 18 19 19 20 20
REMARK H PARENT
REMARK Flexibility Score: inf
ROOT
ATOM      1  C   UNL     1      -8.889   8.402 -17.642  1.00  0.00     0.000 C 
ENDROOT
BRANCH   1   2
ATOM      2  C   UNL     1      -9.758   9.635 -17.937  1.00  0.00     0.000 C 
BRANCH   2   3
ATOM      3  C   UNL     1      -9.745   9.969 -19.436  1.00  0.00     0.000 C 
BRANCH   3   4
ATOM      4  C   UNL     1     -11.040   9.550 -20.153  1.00  0.00     0.000 C 
BRANCH   4   5
ATOM      5  C   UNL     1     -12.130   8.956 -19.238  1.00  0.00     0.000 C 
BRANCH   5   6
ATOM      6  C   UNL     1     -12.349   7.437 -19.382  1.00  0.00     0.006 C 
BRANCH   6   7
ATOM      7  C   UNL     1     -11.302   6.723 -20.250  1.00  0.00     0.053 C 
BRANCH   7   8
ATOM      8  C   UNL     1     -11.890   6.214 -21.531  1.00  0.00     0.041 C 
ATOM      9  O   UNL     1     -12.633   6.957 -22.225  1.00  0.00    -0.550 OA
ATOM     10  O   UNL     1     -11.646   4.910 -21.941  1.00  0.00    -0.550 OA
ENDBRANCH   7   8
ENDBRANCH   6   7
ENDBRANCH   5   6
ENDBRANCH   4   5
ENDBRANCH   3   4
ENDBRANCH   2   3
ENDBRANCH   1   2
BRANCH   1  11
ATOM     11  C   UNL     1      -8.093   7.921 -18.869  1.00  0.00     0.000 C 
BRANCH  11  12
ATOM     12  C   UNL     1      -6.572   7.805 -18.657  1.00  0.00     0.000 C 
BRANCH  12  13
ATOM     13  C   UNL     1      -6.006   8.919 -17.759  1.00  0.00     0.000 C 
BRANCH  13  14
ATOM     14  C   UNL     1      -5.592  10.166 -18.557  1.00  0.00     0.000 C 
BRANCH  14  15
ATOM     15  C   UNL     1      -6.445  11.399 -18.216  1.00  0.00     0.000 C 
BRANCH  15  16
ATOM     16  C   UNL     1      -6.166  11.879 -16.784  1.00  0.00     0.006 C 
BRANCH  16  17
ATOM     17  C   UNL     1      -7.436  11.907 -15.923  1.00  0.00     0.053 C 
BRANCH  17  18
ATOM     18  C   UNL     1      -7.403  10.865 -14.848  1.00  0.00     0.041 C 
ATOM     19  O   UNL     1      -8.427  10.173 -14.605  1.00  0.00    -0.550 OA
ATOM     20  O   UNL     1      -6.231  10.632 -14.139  1.00  0.00    -0.550 OA
ENDBRANCH  17  18
ENDBRANCH  16  17
ENDBRANCH  15  16
ENDBRANCH  14  15
ENDBRANCH  13  14
ENDBRANCH  12  13
ENDBRANCH  11  12
ENDBRANCH   1  11
TORSDOF 15
ENDMDL
MODEL 2
REMARK VINA RESULT:    -3.758      2.323      6.783
REMARK INTER + INTRA:          -9.267
REMARK INTER:                  -7.318
REMARK INTRA:                  -1.949
REMARK UNBOUND:                -2.214
REMARK SMILES O=C([O-])CCCCCCCCCCCCCCC(=O)[O-]
REMARK SMILES IDX 10 1 9 2 8 3 7 4 6 5 5 6 4 7 2 8 1 9 3 10 11 11 12 12 13 13
REMARK SMILES IDX 14 14 15 15 16 16 17 17 18 18 19 19 20 20
REMARK H PARENT
REMARK Flexibility Score: inf
ROOT
ATOM      1  C   UNL     1     -12.999   8.481 -20.554  1.00  0.00     0.000 C 
ENDROOT
BRANCH   1   2
ATOM      2  C   UNL     1     -12.359   8.039 -19.228  1.00  0.00     0.000 C 
BRANCH   2   3
ATOM      3  C   UNL     1     -11.023   8.759 -18.998  1.00  0.00     0.000 C 
BRANCH   3   4
ATOM      4  C   UNL     1      -9.966   7.860 -18.333  1.00  0.00     0.000 C 
BRANCH   4   5
ATOM      5  C   UNL     1      -8.611   8.542 -18.055  1.00  0.00     0.000 C 
BRANCH   5   6
ATOM      6  C   UNL     1      -8.702   9.986 -17.523  1.00  0.00     0.006 C 
BRANCH   6   7
ATOM      7  C   UNL     1      -8.698  10.100 -15.990  1.00  0.00     0.053 C 
BRANCH   7   8
ATOM      8  C   UNL     1      -7.553  10.928 -15.494  1.00  0.00     0.041 C 
ATOM      9  O   UNL     1      -7.184  11.947 -16.135  1.00  0.00    -0.550 OA
ATOM     10  O   UNL     1      -6.871  10.555 -14.342  1.00  0.00    -0.550 OA
ENDBRANCH   7   8
ENDBRANCH   6   7
ENDBRANCH   5   6
ENDBRANCH   4   5
ENDBRANCH   3   4
ENDBRANCH   2   3
ENDBRANCH   1   2
BRANCH   1  11
ATOM     11  C   UNL     1     -12.828   7.444 -21.679  1.00  0.00     0.000 C 
BRANCH  11  12
ATOM     12  C   UNL     1     -12.253   6.086 -21.235  1.00  0.00     0.000 C 
BRANCH  12  13
ATOM     13  C   UNL     1     -10.864   5.799 -21.830  1.00  0.00     0.000 C 
BRANCH  13  14
ATOM     14  C   UNL     1     -10.267   7.021 -22.547  1.00  0.00     0.000 C 
BRANCH  14  15
ATOM     15  C   UNL     1      -9.019   7.574 -21.841  1.00  0.00     0.000 C 
BRANCH  15  16
ATOM     16  C   UNL     1      -7.842   6.593 -21.958  1.00  0.00     0.006 C 
BRANCH  16  17
ATOM     17  C   UNL     1      -7.181   6.312 -20.603  1.00  0.00     0.053 C 
BRANCH  17  18
ATOM     18  C   UNL     1      -7.511   4.943 -20.095  1.00  0.00     0.041 C 
ATOM     19  O   UNL     1      -6.888   3.939 -20.529  1.00  0.00    -0.550 OA
ATOM     20  O   UNL     1      -8.483   4.778 -19.116  1.00  0.00    -0.550 OA
ENDBRANCH  17  18
ENDBRANCH  16  17
ENDBRANCH  15  16
ENDBRANCH  14  15
ENDBRANCH  13  14
ENDBRANCH  12  13
ENDBRANCH  11  12
ENDBRANCH   1  11
TORSDOF 15
ENDMDL
MODEL 3
REMARK VINA RESULT:    -3.741      1.544      2.202
REMARK INTER + INTRA:          -9.236
REMARK INTER:                  -7.519
REMARK INTRA:                  -1.717
REMARK UNBOUND:                -2.214
REMARK SMILES O=C([O-])CCCCCCCCCCCCCCC(=O)[O-]
REMARK SMILES IDX 10 1 9 2 8 3 7 4 6 5 5 6 4 7 2 8 1 9 3 10 11 11 12 12 13 13
REMARK SMILES IDX 14 14 15 15 16 16 17 17 18 18 19 19 20 20
REMARK H PARENT
REMARK Flexibility Score: inf
ROOT
ATOM      1  C   UNL     1      -7.761   6.574 -19.172  1.00  0.00     0.000 C 
ENDROOT
BRANCH   1   2
ATOM      2  C   UNL     1      -9.093   7.111 -19.720  1.00  0.00     0.000 C 
BRANCH   2   3
ATOM      3  C   UNL     1     -10.078   7.402 -18.578  1.00  0.00     0.000 C 
BRANCH   3   4
ATOM      4  C   UNL     1     -10.655   8.828 -18.635  1.00  0.00     0.000 C 
BRANCH   4   5
ATOM      5  C   UNL     1     -11.528   9.129 -19.871  1.00  0.00     0.000 C 
BRANCH   5   6
ATOM      6  C   UNL     1     -12.871   8.375 -19.924  1.00  0.00     0.006 C 
BRANCH   6   7
ATOM      7  C   UNL     1     -13.174   7.709 -21.275  1.00  0.00     0.053 C 
BRANCH   7   8
ATOM      8  C   UNL     1     -12.313   6.507 -21.512  1.00  0.00     0.041 C 
ATOM      9  O   UNL     1     -12.348   5.536 -20.710  1.00  0.00    -0.550 OA
ATOM     10  O   UNL     1     -11.447   6.472 -22.598  1.00  0.00    -0.550 OA
ENDBRANCH   7   8
ENDBRANCH   6   7
ENDBRANCH   5   6
ENDBRANCH   4   5
ENDBRANCH   3   4
ENDBRANCH   2   3
ENDBRANCH   1   2
BRANCH   1  11
ATOM     11  C   UNL     1      -6.898   7.666 -18.513  1.00  0.00     0.000 C 
BRANCH  11  12
ATOM     12  C   UNL     1      -6.724   8.952 -19.344  1.00  0.00     0.000 C 
BRANCH  12  13
ATOM     13  C   UNL     1      -7.201  10.213 -18.602  1.00  0.00     0.000 C 
BRANCH  13  14
ATOM     14  C   UNL     1      -7.641   9.917 -17.159  1.00  0.00     0.000 C 
BRANCH  14  15
ATOM     15  C   UNL     1      -7.845  11.193 -16.326  1.00  0.00     0.000 C 
BRANCH  15  16
ATOM     16  C   UNL     1      -7.563  10.928 -14.840  1.00  0.00     0.006 C 
BRANCH  16  17
ATOM     17  C   UNL     1      -6.188  11.452 -14.406  1.00  0.00     0.053 C 
BRANCH  17  18
ATOM     18  C   UNL     1      -5.135  10.390 -14.491  1.00  0.00     0.041 C 
ATOM     19  O   UNL     1      -5.018   9.540 -13.570  1.00  0.00    -0.550 OA
ATOM     20  O   UNL     1      -4.307  10.319 -15.603  1.00  0.00    -0.550 OA
ENDBRANCH  17  18
ENDBRANCH  16  17
ENDBRANCH  15  16
ENDBRANCH  14  15
ENDBRANCH  13  14
ENDBRANCH  12  13
ENDBRANCH  11  12
ENDBRANCH   1  11
TORSDOF 15
ENDMDL
MODEL 4
REMARK VINA RESULT:    -3.735      1.392      2.103
REMARK INTER + INTRA:          -9.223
REMARK INTER:                  -7.015
REMARK INTRA:                  -2.208
REMARK UNBOUND:                -2.214
REMARK SMILES O=C([O-])CCCCCCCCCCCCCCC(=O)[O-]
REMARK SMILES IDX 10 1 9 2 8 3 7 4 6 5 5 6 4 7 2 8 1 9 3 10 11 11 12 12 13 13
REMARK SMILES IDX 14 14 15 15 16 16 17 17 18 18 19 19 20 20
REMARK H PARENT
REMARK Flexibility Score: inf
ROOT
ATOM      1  C   UNL     1      -8.204   7.558 -21.326  1.00  0.00     0.000 C 
ENDROOT
BRANCH   1   2
ATOM      2  C   UNL     1      -9.437   8.311 -21.849  1.00  0.00     0.000 C 
BRANCH   2   3
ATOM      3  C   UNL     1      -9.508   9.725 -21.255  1.00  0.00     0.000 C 
BRANCH   3   4
ATOM      4  C   UNL     1     -10.893  10.060 -20.672  1.00  0.00     0.000 C 
BRANCH   4   5
ATOM      5  C   UNL     1     -11.243   9.326 -19.362  1.00  0.00     0.000 C 
BRANCH   5   6
ATOM      6  C   UNL     1     -12.475   8.402 -19.438  1.00  0.00     0.006 C 
BRANCH   6   7
ATOM      7  C   UNL     1     -12.142   6.909 -19.581  1.00  0.00     0.053 C 
BRANCH   7   8
ATOM      8  C   UNL     1     -12.364   6.418 -20.978  1.00  0.00     0.041 C 
ATOM      9  O   UNL     1     -13.055   7.094 -21.785  1.00  0.00    -0.550 OA
ATOM     10  O   UNL     1     -11.836   5.197 -21.381  1.00  0.00    -0.550 OA
ENDBRANCH   7   8
ENDBRANCH   6   7
ENDBRANCH   5   6
ENDBRANCH   4   5
ENDBRANCH   3   4
ENDBRANCH   2   3
ENDBRANCH   1   2
BRANCH   1  11
ATOM     11  C   UNL     1      -8.554   6.484 -20.279  1.00  0.00     0.000 C 
BRANCH  11  12
ATOM     12  C   UNL     1      -8.442   6.940 -18.812  1.00  0.00     0.000 C 
BRANCH  12  13
ATOM     13  C   UNL     1      -7.175   7.768 -18.537  1.00  0.00     0.000 C 
BRANCH  13  14
ATOM     14  C   UNL     1      -7.489   9.237 -18.212  1.00  0.00     0.000 C 
BRANCH  14  15
ATOM     15  C   UNL     1      -8.604   9.389 -17.165  1.00  0.00     0.000 C 
BRANCH  15  16
ATOM     16  C   UNL     1      -8.519  10.756 -16.469  1.00  0.00     0.006 C 
BRANCH  16  17
ATOM     17  C   UNL     1      -8.028  10.640 -15.020  1.00  0.00     0.053 C 
BRANCH  17  18
ATOM     18  C   UNL     1      -6.596  11.058 -14.882  1.00  0.00     0.041 C 
ATOM     19  O   UNL     1      -5.885  10.585 -13.957  1.00  0.00    -0.550 OA
ATOM     20  O   UNL     1      -6.037  11.942 -15.797  1.00  0.00    -0.550 OA
ENDBRANCH  17  18
ENDBRANCH  16  17
ENDBRANCH  15  16
ENDBRANCH  14  15
ENDBRANCH  13  14
ENDBRANCH  12  13
ENDBRANCH  11  12
ENDBRANCH   1  11
TORSDOF 15
ENDMDL
MODEL 5
REMARK VINA RESULT:    -3.705      1.400      2.464
REMARK INTER + INTRA:          -9.168
REMARK INTER:                  -6.682
REMARK INTRA:                  -2.486
REMARK UNBOUND:                -2.214
REMARK SMILES O=C([O-])CCCCCCCCCCCCCCC(=O)[O-]
REMARK SMILES IDX 10 1 9 2 8 3 7 4 6 5 5 6 4 7 2 8 1 9 3 10 11 11 12 12 13 13
REMARK SMILES IDX 14 14 15 15 16 16 17 17 18 18 19 19 20 20
REMARK H PARENT
REMARK Flexibility Score: inf
ROOT
ATOM      1  C   UNL     1      -6.439   7.841 -19.948  1.00  0.00     0.000 C 
ENDROOT
BRANCH   1   2
ATOM      2  C   UNL     1      -7.004   7.707 -18.525  1.00  0.00     0.000 C 
BRANCH   2   3
ATOM      3  C   UNL     1      -8.539   7.697 -18.543  1.00  0.00     0.000 C 
BRANCH   3   4
ATOM      4  C   UNL     1      -9.154   8.729 -17.581  1.00  0.00     0.000 C 
BRANCH   4   5
ATOM      5  C   UNL     1      -9.988   9.836 -18.258  1.00  0.00     0.000 C 
BRANCH   5   6
ATOM      6  C   UNL     1     -10.756   9.398 -19.520  1.00  0.00     0.006 C 
BRANCH   6   7
ATOM      7  C   UNL     1     -12.116   8.739 -19.241  1.00  0.00     0.053 C 
BRANCH   7   8
ATOM      8  C   UNL     1     -12.397   7.613 -20.187  1.00  0.00     0.041 C 
ATOM      9  O   UNL     1     -12.074   6.434 -19.882  1.00  0.00    -0.550 OA
ATOM     10  O   UNL     1     -12.985   7.867 -21.420  1.00  0.00    -0.550 OA
ENDBRANCH   7   8
ENDBRANCH   6   7
ENDBRANCH   5   6
ENDBRANCH   4   5
ENDBRANCH   3   4
ENDBRANCH   2   3
ENDBRANCH   1   2
BRANCH   1  11
ATOM     11  C   UNL     1      -7.523   8.154 -20.997  1.00  0.00     0.000 C 
BRANCH  11  12
ATOM     12  C   UNL     1      -7.576   9.621 -21.465  1.00  0.00     0.000 C 
BRANCH  12  13
ATOM     13  C   UNL     1      -6.396  10.459 -20.942  1.00  0.00     0.000 C 
BRANCH  13  14
ATOM     14  C   UNL     1      -6.804  11.405 -19.801  1.00  0.00     0.000 C 
BRANCH  14  15
ATOM     15  C   UNL     1      -5.875  11.300 -18.581  1.00  0.00     0.000 C 
BRANCH  15  16
ATOM     16  C   UNL     1      -6.674  11.401 -17.273  1.00  0.00     0.006 C 
BRANCH  16  17
ATOM     17  C   UNL     1      -6.135  10.459 -16.189  1.00  0.00     0.053 C 
BRANCH  17  18
ATOM     18  C   UNL     1      -6.777  10.715 -14.860  1.00  0.00     0.041 C 
ATOM     19  O   UNL     1      -8.005  10.493 -14.697  1.00  0.00    -0.550 OA
ATOM     20  O   UNL     1      -6.011  11.165 -13.791  1.00  0.00    -0.550 OA
ENDBRANCH  17  18
ENDBRANCH  16  17
ENDBRANCH  15  16
ENDBRANCH  14  15
ENDBRANCH  13  14
ENDBRANCH  12  13
ENDBRANCH  11  12
ENDBRANCH   1  11
TORSDOF 15
ENDMDL
MODEL 6
REMARK VINA RESULT:    -3.645      1.910      7.326
REMARK INTER + INTRA:          -9.055
REMARK INTER:                  -6.799
REMARK INTRA:                  -2.256
REMARK UNBOUND:                -2.214
REMARK SMILES O=C([O-])CCCCCCCCCCCCCCC(=O)[O-]
REMARK SMILES IDX 10 1 9 2 8 3 7 4 6 5 5 6 4 7 2 8 1 9 3 10 11 11 12 12 13 13
REMARK SMILES IDX 14 14 15 15 16 16 17 17 18 18 19 19 20 20
REMARK H PARENT
REMARK Flexibility Score: inf
ROOT
ATOM      1  C   UNL     1      -9.649   9.722 -19.639  1.00  0.00     0.000 C 
ENDROOT
BRANCH   1   2
ATOM      2  C   UNL     1      -9.835   9.487 -18.132  1.00  0.00     0.000 C 
BRANCH   2   3
ATOM      3  C   UNL     1      -9.124   8.202 -17.685  1.00  0.00     0.000 C 
BRANCH   3   4
ATOM      4  C   UNL     1      -8.632   7.348 -18.867  1.00  0.00     0.000 C 
BRANCH   4   5
ATOM      5  C   UNL     1      -7.129   7.004 -18.842  1.00  0.00     0.000 C 
BRANCH   5   6
ATOM      6  C   UNL     1      -6.179   8.210 -18.980  1.00  0.00     0.006 C 
BRANCH   6   7
ATOM      7  C   UNL     1      -5.328   8.494 -17.732  1.00  0.00     0.053 C 
BRANCH   7   8
ATOM      8  C   UNL     1      -5.741   9.763 -17.051  1.00  0.00     0.041 C 
ATOM      9  O   UNL     1      -6.491  10.583 -17.642  1.00  0.00    -0.550 OA
ATOM     10  O   UNL     1      -5.270  10.055 -15.777  1.00  0.00    -0.550 OA
ENDBRANCH   7   8
ENDBRANCH   6   7
ENDBRANCH   5   6
ENDBRANCH   4   5
ENDBRANCH   3   4
ENDBRANCH   2   3
ENDBRANCH   1   2
BRANCH   1  11
ATOM     11  C   UNL     1     -10.982   9.799 -20.406  1.00  0.00     0.000 C 
BRANCH  11  12
ATOM     12  C   UNL     1     -12.209   9.272 -19.638  1.00  0.00     0.000 C 
BRANCH  12  13
ATOM     13  C   UNL     1     -12.766   7.963 -20.225  1.00  0.00     0.000 C 
BRANCH  13  14
ATOM     14  C   UNL     1     -12.131   6.715 -19.590  1.00  0.00     0.000 C 
BRANCH  14  15
ATOM     15  C   UNL     1     -12.059   5.526 -20.561  1.00  0.00     0.000 C 
BRANCH  15  16
ATOM     16  C   UNL     1     -11.542   5.972 -21.937  1.00  0.00     0.006 C 
BRANCH  16  17
ATOM     17  C   UNL     1     -10.017   6.139 -21.959  1.00  0.00     0.053 C 
BRANCH  17  18
ATOM     18  C   UNL     1      -9.313   4.820 -22.047  1.00  0.00     0.041 C 
ATOM     19  O   UNL     1      -9.661   3.973 -22.910  1.00  0.00    -0.550 OA
ATOM     20  O   UNL     1      -8.249   4.542 -21.198  1.00  0.00    -0.550 OA
ENDBRANCH  17  18
ENDBRANCH  16  17
ENDBRANCH  15  16
ENDBRANCH  14  15
ENDBRANCH  13  14
ENDBRANCH  12  13
ENDBRANCH  11  12
ENDBRANCH   1  11
TORSDOF 15
ENDMDL
MODEL 7
REMARK VINA RESULT:    -3.632      3.501      6.102
REMARK INTER + INTRA:          -9.031
REMARK INTER:                  -6.849
REMARK INTRA:                  -2.182
REMARK UNBOUND:                -2.214
REMARK SMILES O=C([O-])CCCCCCCCCCCCCCC(=O)[O-]
REMARK SMILES IDX 10 1 9 2 8 3 7 4 6 5 5 6 4 7 2 8 1 9 3 10 11 11 12 12 13 13
REMARK SMILES IDX 14 14 15 15 16 16 17 17 18 18 19 19 20 20
REMARK H PARENT
REMARK Flexibility Score: inf
ROOT
ATOM      1  C   UNL     1     -13.140   7.384 -21.833  1.00  0.00     0.000 C 
ENDROOT
BRANCH   1   2
ATOM      2  C   UNL     1     -12.816   8.015 -20.469  1.00  0.00     0.000 C 
BRANCH   2   3
ATOM      3  C   UNL     1     -12.104   7.007 -19.555  1.00  0.00     0.000 C 
BRANCH   3   4
ATOM      4  C   UNL     1     -10.876   7.606 -18.846  1.00  0.00     0.000 C 
BRANCH   4   5
ATOM      5  C   UNL     1     -10.839   9.147 -18.797  1.00  0.00     0.000 C 
BRANCH   5   6
ATOM      6  C   UNL     1      -9.634   9.750 -18.048  1.00  0.00     0.006 C 
BRANCH   6   7
ATOM      7  C   UNL     1      -8.490   8.759 -17.784  1.00  0.00     0.053 C 
BRANCH   7   8
ATOM      8  C   UNL     1      -7.151   9.431 -17.809  1.00  0.00     0.041 C 
ATOM      9  O   UNL     1      -6.851  10.275 -16.923  1.00  0.00    -0.550 OA
ATOM     10  O   UNL     1      -6.249   9.152 -18.827  1.00  0.00    -0.550 OA
ENDBRANCH   7   8
ENDBRANCH   6   7
ENDBRANCH   5   6
ENDBRANCH   4   5
ENDBRANCH   3   4
ENDBRANCH   2   3
ENDBRANCH   1   2
BRANCH   1  11
ATOM     11  C   UNL     1     -11.881   7.026 -22.644  1.00  0.00     0.000 C 
BRANCH  11  12
ATOM     12  C   UNL     1     -10.869   8.173 -22.822  1.00  0.00     0.000 C 
BRANCH  12  13
ATOM     13  C   UNL     1      -9.474   7.833 -22.267  1.00  0.00     0.000 C 
BRANCH  13  14
ATOM     14  C   UNL     1      -8.696   9.083 -21.824  1.00  0.00     0.000 C 
BRANCH  14  15
ATOM     15  C   UNL     1      -9.288  10.384 -22.389  1.00  0.00     0.000 C 
BRANCH  15  16
ATOM     16  C   UNL     1      -9.384  11.461 -21.298  1.00  0.00     0.006 C 
BRANCH  16  17
ATOM     17  C   UNL     1     -10.497  12.478 -21.580  1.00  0.00     0.053 C 
BRANCH  17  18
ATOM     18  C   UNL     1      -9.944  13.819 -21.956  1.00  0.00     0.041 C 
ATOM     19  O   UNL     1      -8.724  13.944 -22.239  1.00  0.00    -0.550 OA
ATOM     20  O   UNL     1     -10.784  14.923 -22.028  1.00  0.00    -0.550 OA
ENDBRANCH  17  18
ENDBRANCH  16  17
ENDBRANCH  15  16
ENDBRANCH  14  15
ENDBRANCH  13  14
ENDBRANCH  12  13
ENDBRANCH  11  12
ENDBRANCH   1  11
TORSDOF 15
ENDMDL
MODEL 8
REMARK VINA RESULT:    -3.590      3.252      5.728
REMARK INTER + INTRA:          -8.952
REMARK INTER:                  -6.713
REMARK INTRA:                  -2.240
REMARK UNBOUND:                -2.214
REMARK SMILES O=C([O-])CCCCCCCCCCCCCCC(=O)[O-]
REMARK SMILES IDX 10 1 9 2 8 3 7 4 6 5 5 6 4 7 2 8 1 9 3 10 11 11 12 12 13 13
REMARK SMILES IDX 14 14 15 15 16 16 17 17 18 18 19 19 20 20
REMARK H PARENT
REMARK Flexibility Score: inf
ROOT
ATOM      1  C   UNL     1     -12.365   8.890 -19.642  1.00  0.00     0.000 C 
ENDROOT
BRANCH   1   2
ATOM      2  C   UNL     1     -12.461   7.386 -19.942  1.00  0.00     0.000 C 
BRANCH   2   3
ATOM      3  C   UNL     1     -12.693   7.139 -21.440  1.00  0.00     0.000 C 
BRANCH   3   4
ATOM      4  C   UNL     1     -11.509   6.427 -22.119  1.00  0.00     0.000 C 
BRANCH   4   5
ATOM      5  C   UNL     1     -10.840   7.219 -23.261  1.00  0.00     0.000 C 
BRANCH   5   6
ATOM      6  C   UNL     1     -10.667   8.728 -22.997  1.00  0.00     0.006 C 
BRANCH   6   7
ATOM      7  C   UNL     1      -9.437   9.088 -22.149  1.00  0.00     0.053 C 
BRANCH   7   8
ATOM      8  C   UNL     1      -9.343  10.561 -21.897  1.00  0.00     0.041 C 
ATOM      9  O   UNL     1      -9.849  11.376 -22.713  1.00  0.00    -0.550 OA
ATOM     10  O   UNL     1      -8.667  11.036 -20.780  1.00  0.00    -0.550 OA
ENDBRANCH   7   8
ENDBRANCH   6   7
ENDBRANCH   5   6
ENDBRANCH   4   5
ENDBRANCH   3   4
ENDBRANCH   2   3
ENDBRANCH   1   2
BRANCH   1  11
ATOM     11  C   UNL     1     -11.088   9.268 -18.868  1.00  0.00     0.000 C 
BRANCH  11  12
ATOM     12  C   UNL     1     -10.161   8.088 -18.520  1.00  0.00     0.000 C 
BRANCH  12  13
ATOM     13  C   UNL     1      -8.908   8.521 -17.739  1.00  0.00     0.000 C 
BRANCH  13  14
ATOM     14  C   UNL     1      -7.631   8.458 -18.593  1.00  0.00     0.000 C 
BRANCH  14  15
ATOM     15  C   UNL     1      -7.119   7.023 -18.792  1.00  0.00     0.000 C 
BRANCH  15  16
ATOM     16  C   UNL     1      -7.184   6.618 -20.272  1.00  0.00     0.006 C 
BRANCH  16  17
ATOM     17  C   UNL     1      -8.244   5.540 -20.534  1.00  0.00     0.053 C 
BRANCH  17  18
ATOM     18  C   UNL     1      -7.678   4.372 -21.280  1.00  0.00     0.041 C 
ATOM     19  O   UNL     1      -8.188   4.010 -22.372  1.00  0.00    -0.550 OA
ATOM     20  O   UNL     1      -6.563   3.704 -20.786  1.00  0.00    -0.550 OA
ENDBRANCH  17  18
ENDBRANCH  16  17
ENDBRANCH  15  16
ENDBRANCH  14  15
ENDBRANCH  13  14
ENDBRANCH  12  13
ENDBRANCH  11  12
ENDBRANCH   1  11
TORSDOF 15
ENDMDL
MODEL 9
REMARK VINA RESULT:    -3.589      2.262      3.855
REMARK INTER + INTRA:          -8.950
REMARK INTER:                  -7.018
REMARK INTRA:                  -1.933
REMARK UNBOUND:                -2.214
REMARK SMILES O=C([O-])CCCCCCCCCCCCCCC(=O)[O-]
REMARK SMILES IDX 10 1 9 2 8 3 7 4 6 5 5 6 4 7 2 8 1 9 3 10 11 11 12 12 13 13
REMARK SMILES IDX 14 14 15 15 16 16 17 17 18 18 19 19 20 20
REMARK H PARENT
REMARK Flexibility Score: inf
ROOT
ATOM      1  C   UNL     1     -11.998   7.003 -19.242  1.00  0.00     0.000 C 
ENDROOT
BRANCH   1   2
ATOM      2  C   UNL     1     -12.343   6.180 -20.493  1.00  0.00     0.000 C 
BRANCH   2   3
ATOM      3  C   UNL     1     -12.598   7.096 -21.699  1.00  0.00     0.000 C 
BRANCH   3   4
ATOM      4  C   UNL     1     -11.506   6.983 -22.777  1.00  0.00     0.000 C 
BRANCH   4   5
ATOM      5  C   UNL     1     -10.388   8.040 -22.686  1.00  0.00     0.000 C 
BRANCH   5   6
ATOM      6  C   UNL     1      -9.008   7.499 -22.263  1.00  0.00     0.006 C 
BRANCH   6   7
ATOM      7  C   UNL     1      -8.985   5.996 -21.943  1.00  0.00     0.053 C 
BRANCH   7   8
ATOM      8  C   UNL     1      -8.330   5.715 -20.626  1.00  0.00     0.041 C 
ATOM      9  O   UNL     1      -7.137   6.065 -20.425  1.00  0.00    -0.550 OA
ATOM     10  O   UNL     1      -9.024   5.036 -19.632  1.00  0.00    -0.550 OA
ENDBRANCH   7   8
ENDBRANCH   6   7
ENDBRANCH   5   6
ENDBRANCH   4   5
ENDBRANCH   3   4
ENDBRANCH   2   3
ENDBRANCH   1   2
BRANCH   1  11
ATOM     11  C   UNL     1     -12.147   8.520 -19.461  1.00  0.00     0.000 C 
BRANCH  11  12
ATOM     12  C   UNL     1     -10.945   9.368 -19.004  1.00  0.00     0.000 C 
BRANCH  12  13
ATOM     13  C   UNL     1      -9.681   8.528 -18.753  1.00  0.00     0.000 C 
BRANCH  13  14
ATOM     14  C   UNL     1      -9.061   8.794 -17.371  1.00  0.00     0.000 C 
BRANCH  14  15
ATOM     15  C   UNL     1      -8.956  10.292 -17.046  1.00  0.00     0.000 C 
BRANCH  15  16
ATOM     16  C   UNL     1      -7.640  10.603 -16.316  1.00  0.00     0.006 C 
BRANCH  16  17
ATOM     17  C   UNL     1      -6.422  10.011 -17.036  1.00  0.00     0.053 C 
BRANCH  17  18
ATOM     18  C   UNL     1      -5.231   9.919 -16.133  1.00  0.00     0.041 C 
ATOM     19  O   UNL     1      -4.988  10.839 -15.309  1.00  0.00    -0.550 OA
ATOM     20  O   UNL     1      -4.410   8.799 -16.176  1.00  0.00    -0.550 OA
ENDBRANCH  17  18
ENDBRANCH  16  17
ENDBRANCH  15  16
ENDBRANCH  14  15
ENDBRANCH  13  14
ENDBRANCH  12  13
ENDBRANCH  11  12
ENDBRANCH   1  11
TORSDOF 15
ENDMDL
