MODEL 1
REMARK VINA RESULT:    -4.098      0.000      0.000
REMARK INTER + INTRA:          -6.416
REMARK INTER:                  -5.535
REMARK INTRA:                  -0.880
REMARK UNBOUND:                -0.880
REMARK SMILES C[C@@H](O)[C@H](O)[C@@H](O)[C@H](O)C=O
REMARK SMILES IDX 4 1 2 2 1 3 3 4 6 6 8 7 10 8 11 9 9 10 7 12 5 14
REMARK H PARENT 3 5 9 11 7 13 5 15
REMARK Flexibility Score: inf
ROOT
ATOM      1  C   UNL     1      10.242   2.912  -1.441  1.00  0.00     0.174 C 
ENDROOT
BRANCH   1   2
ATOM      2  C   UNL     1      10.580   2.830   0.066  1.00  0.00     0.142 C 
ATOM      3  C   UNL     1       9.379   3.173   0.958  1.00  0.00     0.041 C 
BRANCH   2   4
ATOM      4  O   UNL     1      11.006   1.523   0.361  1.00  0.00    -0.391 OA
ATOM      5  H   UNL     1      11.963   1.464   0.102  1.00  0.00     0.211 HD
ENDBRANCH   2   4
ENDBRANCH   1   2
BRANCH   1   6
ATOM      6  C   UNL     1      11.477   3.262  -2.320  1.00  0.00     0.181 C 
BRANCH   6   7
ATOM      7  C   UNL     1      11.128   3.348  -3.827  1.00  0.00     0.209 C 
BRANCH   7   8
ATOM      8  C   UNL     1      11.553   2.096  -4.548  1.00  0.00     0.258 C 
ATOM      9  O   UNL     1      11.186   0.997  -4.160  1.00  0.00    -0.300 OA
ENDBRANCH   7   8
BRANCH   7  10
ATOM     10  O   UNL     1       9.749   3.549  -4.009  1.00  0.00    -0.383 OA
ATOM     11  H   UNL     1       9.651   4.304  -4.646  1.00  0.00     0.211 HD
ENDBRANCH   7  10
ENDBRANCH   6   7
BRANCH   6  12
ATOM     12  O   UNL     1      12.545   2.373  -2.093  1.00  0.00    -0.387 OA
ATOM     13  H   UNL     1      13.019   2.240  -2.954  1.00  0.00     0.211 HD
ENDBRANCH   6  12
ENDBRANCH   1   6
BRANCH   1  14
ATOM     14  O   UNL     1       9.702   1.676  -1.841  1.00  0.00    -0.388 OA
ATOM     15  H   UNL     1       9.166   1.838  -2.662  1.00  0.00     0.211 HD
ENDBRANCH   1  14
TORSDOF 8
ENDMDL
MODEL 2
REMARK VINA RESULT:    -4.076      1.654      3.936
REMARK INTER + INTRA:          -6.386
REMARK INTER:                  -5.409
REMARK INTRA:                  -0.977
REMARK UNBOUND:                -0.880
REMARK SMILES C[C@@H](O)[C@H](O)[C@@H](O)[C@H](O)C=O
REMARK SMILES IDX 4 1 2 2 1 3 3 4 6 6 8 7 10 8 11 9 9 10 7 12 5 14
REMARK H PARENT 3 5 9 11 7 13 5 15
REMARK Flexibility Score: inf
ROOT
ATOM      1  C   UNL     1      10.501   1.990  -1.609  1.00  0.00     0.174 C 
ENDROOT
BRANCH   1   2
ATOM      2  C   UNL     1      11.745   1.610  -2.446  1.00  0.00     0.142 C 
ATOM      3  C   UNL     1      11.394   1.278  -3.903  1.00  0.00     0.041 C 
BRANCH   2   4
ATOM      4  O   UNL     1      12.645   2.690  -2.430  1.00  0.00    -0.391 OA
ATOM      5  H   UNL     1      13.222   2.576  -1.631  1.00  0.00     0.211 HD
ENDBRANCH   2   4
ENDBRANCH   1   2
BRANCH   1   6
ATOM      6  C   UNL     1      10.515   3.474  -1.143  1.00  0.00     0.181 C 
BRANCH   6   7
ATOM      7  C   UNL     1       9.585   3.724   0.070  1.00  0.00     0.209 C 
BRANCH   7   8
ATOM      8  C   UNL     1       8.338   4.454  -0.352  1.00  0.00     0.258 C 
ATOM      9  O   UNL     1       7.603   3.991  -1.211  1.00  0.00    -0.300 OA
ENDBRANCH   7   8
BRANCH   7  10
ATOM     10  O   UNL     1       9.233   2.511   0.687  1.00  0.00    -0.383 OA
ATOM     11  H   UNL     1       9.987   2.262   1.283  1.00  0.00     0.211 HD
ENDBRANCH   7  10
ENDBRANCH   6   7
BRANCH   6  12
ATOM     12  O   UNL     1      10.220   4.354  -2.202  1.00  0.00    -0.387 OA
ATOM     13  H   UNL     1       9.466   4.932  -1.917  1.00  0.00     0.211 HD
ENDBRANCH   6  12
ENDBRANCH   1   6
BRANCH   1  14
ATOM     14  O   UNL     1       9.353   1.740  -2.385  1.00  0.00    -0.388 OA
ATOM     15  H   UNL     1       9.534   2.077  -3.301  1.00  0.00     0.211 HD
ENDBRANCH   1  14
TORSDOF 8
ENDMDL
MODEL 3
REMARK VINA RESULT:    -4.063      1.394      2.091
REMARK INTER + INTRA:          -6.369
REMARK INTER:                  -5.410
REMARK INTRA:                  -0.960
REMARK UNBOUND:                -0.880
REMARK SMILES C[C@@H](O)[C@H](O)[C@@H](O)[C@H](O)C=O
REMARK SMILES IDX 4 1 2 2 1 3 3 4 6 6 8 7 10 8 11 9 9 10 7 12 5 14
REMARK H PARENT 3 5 9 11 7 13 5 15
REMARK Flexibility Score: inf
ROOT
ATOM      1  C   UNL     1       9.826   2.025  -0.945  1.00  0.00     0.174 C 
ENDROOT
BRANCH   1   2
ATOM      2  C   UNL     1       9.406   3.444  -0.498  1.00  0.00     0.142 C 
ATOM      3  C   UNL     1       9.117   3.525   1.007  1.00  0.00     0.041 C 
BRANCH   2   4
ATOM      4  O   UNL     1      10.443   4.339  -0.811  1.00  0.00    -0.391 OA
ATOM      5  H   UNL     1      11.009   4.424   0.001  1.00  0.00     0.211 HD
ENDBRANCH   2   4
ENDBRANCH   1   2
BRANCH   1   6
ATOM      6  C   UNL     1      10.139   1.936  -2.467  1.00  0.00     0.181 C 
BRANCH   6   7
ATOM      7  C   UNL     1      11.619   1.577  -2.750  1.00  0.00     0.209 C 
BRANCH   7   8
ATOM      8  C   UNL     1      11.800   1.136  -4.178  1.00  0.00     0.258 C 
ATOM      9  O   UNL     1      11.443   1.850  -5.103  1.00  0.00    -0.300 OA
ENDBRANCH   7   8
BRANCH   7  10
ATOM     10  O   UNL     1      12.456   2.676  -2.488  1.00  0.00    -0.383 OA
ATOM     11  H   UNL     1      12.500   3.209  -3.325  1.00  0.00     0.211 HD
ENDBRANCH   7  10
ENDBRANCH   6   7
BRANCH   6  12
ATOM     12  O   UNL     1       9.760   3.111  -3.143  1.00  0.00    -0.387 OA
ATOM     13  H   UNL     1      10.579   3.646  -3.308  1.00  0.00     0.211 HD
ENDBRANCH   6  12
ENDBRANCH   1   6
BRANCH   1  14
ATOM     14  O   UNL     1      10.957   1.642  -0.199  1.00  0.00    -0.388 OA
ATOM     15  H   UNL     1      11.744   1.702  -0.801  1.00  0.00     0.211 HD
ENDBRANCH   1  14
TORSDOF 8
ENDMDL
MODEL 4
REMARK VINA RESULT:    -4.009      1.237      4.014
REMARK INTER + INTRA:          -6.295
REMARK INTER:                  -5.660
REMARK INTRA:                  -0.635
REMARK UNBOUND:                -0.880
REMARK SMILES C[C@@H](O)[C@H](O)[C@@H](O)[C@H](O)C=O
REMARK SMILES IDX 4 1 2 2 1 3 3 4 6 6 8 7 10 8 11 9 9 10 7 12 5 14
REMARK H PARENT 3 5 9 11 7 13 5 15
REMARK Flexibility Score: inf
ROOT
ATOM      1  C   UNL     1      11.482   2.757  -2.554  1.00  0.00     0.174 C 
ENDROOT
BRANCH   1   2
ATOM      2  C   UNL     1      11.511   2.402  -4.059  1.00  0.00     0.142 C 
ATOM      3  C   UNL     1      11.457   0.888  -4.307  1.00  0.00     0.041 C 
BRANCH   2   4
ATOM      4  O   UNL     1      10.406   3.005  -4.684  1.00  0.00    -0.391 OA
ATOM      5  H   UNL     1      10.675   3.930  -4.923  1.00  0.00     0.211 HD
ENDBRANCH   2   4
ENDBRANCH   1   2
BRANCH   1   6
ATOM      6  C   UNL     1      10.625   1.767  -1.714  1.00  0.00     0.181 C 
BRANCH   6   7
ATOM      7  C   UNL     1       9.253   2.363  -1.310  1.00  0.00     0.209 C 
BRANCH   7   8
ATOM      8  C   UNL     1       9.419   3.421  -0.252  1.00  0.00     0.258 C 
ATOM      9  O   UNL     1       9.718   3.117   0.894  1.00  0.00    -0.300 OA
ENDBRANCH   7   8
BRANCH   7  10
ATOM     10  O   UNL     1       8.601   2.914  -2.427  1.00  0.00    -0.383 OA
ATOM     11  H   UNL     1       8.945   2.435  -3.226  1.00  0.00     0.211 HD
ENDBRANCH   7  10
ENDBRANCH   6   7
BRANCH   6  12
ATOM     12  O   UNL     1      11.329   1.297  -0.589  1.00  0.00    -0.387 OA
ATOM     13  H   UNL     1      11.456   2.061   0.032  1.00  0.00     0.211 HD
ENDBRANCH   6  12
ENDBRANCH   1   6
BRANCH   1  14
ATOM     14  O   UNL     1      12.806   2.771  -2.077  1.00  0.00    -0.388 OA
ATOM     15  H   UNL     1      12.846   2.160  -1.295  1.00  0.00     0.211 HD
ENDBRANCH   1  14
TORSDOF 8
ENDMDL
MODEL 5
REMARK VINA RESULT:    -3.913      1.764      4.091
REMARK INTER + INTRA:          -6.166
REMARK INTER:                  -5.225
REMARK INTRA:                  -0.942
REMARK UNBOUND:                -0.880
REMARK SMILES C[C@@H](O)[C@H](O)[C@@H](O)[C@H](O)C=O
REMARK SMILES IDX 4 1 2 2 1 3 3 4 6 6 8 7 10 8 11 9 9 10 7 12 5 14
REMARK H PARENT 3 5 9 11 7 13 5 15
REMARK Flexibility Score: inf
ROOT
ATOM      1  C   UNL     1      10.015   1.993  -2.165  1.00  0.00     0.174 C 
ENDROOT
BRANCH   1   2
ATOM      2  C   UNL     1      11.495   1.648  -2.455  1.00  0.00     0.142 C 
ATOM      3  C   UNL     1      11.724   1.222  -3.911  1.00  0.00     0.041 C 
BRANCH   2   4
ATOM      4  O   UNL     1      12.282   2.780  -2.182  1.00  0.00    -0.391 OA
ATOM      5  H   UNL     1      12.929   2.871  -2.930  1.00  0.00     0.211 HD
ENDBRANCH   2   4
ENDBRANCH   1   2
BRANCH   1   6
ATOM      6  C   UNL     1       9.763   2.378  -0.679  1.00  0.00     0.181 C 
BRANCH   6   7
ATOM      7  C   UNL     1       9.382   3.870  -0.507  1.00  0.00     0.209 C 
BRANCH   7   8
ATOM      8  C   UNL     1       9.122   4.194   0.940  1.00  0.00     0.258 C 
ATOM      9  O   UNL     1      10.024   4.589   1.664  1.00  0.00    -0.300 OA
ENDBRANCH   7   8
BRANCH   7  10
ATOM     10  O   UNL     1      10.401   4.704  -0.999  1.00  0.00    -0.383 OA
ATOM     11  H   UNL     1      10.215   4.846  -1.964  1.00  0.00     0.211 HD
ENDBRANCH   7  10
ENDBRANCH   6   7
BRANCH   6  12
ATOM     12  O   UNL     1      10.856   2.033   0.140  1.00  0.00    -0.387 OA
ATOM     13  H   UNL     1      10.551   1.336   0.777  1.00  0.00     0.211 HD
ENDBRANCH   6  12
ENDBRANCH   1   6
BRANCH   1  14
ATOM     14  O   UNL     1       9.635   3.055  -3.008  1.00  0.00    -0.388 OA
ATOM     15  H   UNL     1      10.444   3.607  -3.173  1.00  0.00     0.211 HD
ENDBRANCH   1  14
TORSDOF 8
ENDMDL
MODEL 6
REMARK VINA RESULT:    -3.897      0.883      1.616
REMARK INTER + INTRA:          -6.144
REMARK INTER:                  -5.732
REMARK INTRA:                  -0.412
REMARK UNBOUND:                -0.880
REMARK SMILES C[C@@H](O)[C@H](O)[C@@H](O)[C@H](O)C=O
REMARK SMILES IDX 4 1 2 2 1 3 3 4 6 6 8 7 10 8 11 9 9 10 7 12 5 14
REMARK H PARENT 3 5 9 11 7 13 5 15
REMARK Flexibility Score: inf
ROOT
ATOM      1  C   UNL     1      10.257   2.834  -1.937  1.00  0.00     0.174 C 
ENDROOT
BRANCH   1   2
ATOM      2  C   UNL     1      10.737   2.638  -0.480  1.00  0.00     0.142 C 
ATOM      3  C   UNL     1       9.677   3.055   0.549  1.00  0.00     0.041 C 
BRANCH   2   4
ATOM      4  O   UNL     1      11.048   1.281  -0.289  1.00  0.00    -0.391 OA
ATOM      5  H   UNL     1      10.421   0.756  -0.853  1.00  0.00     0.211 HD
ENDBRANCH   2   4
ENDBRANCH   1   2
BRANCH   1   6
ATOM      6  C   UNL     1      11.430   2.919  -2.955  1.00  0.00     0.181 C 
BRANCH   6   7
ATOM      7  C   UNL     1      11.218   2.002  -4.185  1.00  0.00     0.209 C 
BRANCH   7   8
ATOM      8  C   UNL     1      11.314   2.789  -5.465  1.00  0.00     0.258 C 
ATOM      9  O   UNL     1      10.816   3.901  -5.553  1.00  0.00    -0.300 OA
ENDBRANCH   7   8
BRANCH   7  10
ATOM     10  O   UNL     1      12.166   0.963  -4.201  1.00  0.00    -0.383 OA
ATOM     11  H   UNL     1      12.466   0.835  -3.263  1.00  0.00     0.211 HD
ENDBRANCH   7  10
ENDBRANCH   6   7
BRANCH   6  12
ATOM     12  O   UNL     1      12.671   2.668  -2.339  1.00  0.00    -0.387 OA
ATOM     13  H   UNL     1      12.849   3.405  -1.699  1.00  0.00     0.211 HD
ENDBRANCH   6  12
ENDBRANCH   1   6
BRANCH   1  14
ATOM     14  O   UNL     1       9.407   1.764  -2.272  1.00  0.00    -0.388 OA
ATOM     15  H   UNL     1       9.968   0.947  -2.333  1.00  0.00     0.211 HD
ENDBRANCH   1  14
TORSDOF 8
ENDMDL
MODEL 7
REMARK VINA RESULT:    -3.737      1.987      3.152
REMARK INTER + INTRA:          -5.929
REMARK INTER:                  -4.962
REMARK INTRA:                  -0.967
REMARK UNBOUND:                -0.880
REMARK SMILES C[C@@H](O)[C@H](O)[C@@H](O)[C@H](O)C=O
REMARK SMILES IDX 4 1 2 2 1 3 3 4 6 6 8 7 10 8 11 9 9 10 7 12 5 14
REMARK H PARENT 3 5 9 11 7 13 5 15
REMARK Flexibility Score: inf
ROOT
ATOM      1  C   UNL     1      10.936   2.281  -0.368  1.00  0.00     0.174 C 
ENDROOT
BRANCH   1   2
ATOM      2  C   UNL     1      12.172   1.648  -1.048  1.00  0.00     0.142 C 
ATOM      3  C   UNL     1      12.752   0.478  -0.241  1.00  0.00     0.041 C 
BRANCH   2   4
ATOM      4  O   UNL     1      11.796   1.181  -2.320  1.00  0.00    -0.391 OA
ATOM      5  H   UNL     1      12.617   1.165  -2.878  1.00  0.00     0.211 HD
ENDBRANCH   2   4
ENDBRANCH   1   2
BRANCH   1   6
ATOM      6  C   UNL     1      10.422   3.550  -1.106  1.00  0.00     0.181 C 
BRANCH   6   7
ATOM      7  C   UNL     1       9.020   3.349  -1.732  1.00  0.00     0.209 C 
BRANCH   7   8
ATOM      8  C   UNL     1       8.546   4.610  -2.404  1.00  0.00     0.258 C 
ATOM      9  O   UNL     1       8.893   5.706  -1.991  1.00  0.00    -0.300 OA
ENDBRANCH   7   8
BRANCH   7  10
ATOM     10  O   UNL     1       9.037   2.297  -2.665  1.00  0.00    -0.383 OA
ATOM     11  H   UNL     1       9.263   1.471  -2.162  1.00  0.00     0.211 HD
ENDBRANCH   7  10
ENDBRANCH   6   7
BRANCH   6  12
ATOM     12  O   UNL     1      11.349   4.003  -2.066  1.00  0.00    -0.387 OA
ATOM     13  H   UNL     1      11.023   4.871  -2.418  1.00  0.00     0.211 HD
ENDBRANCH   6  12
ENDBRANCH   1   6
BRANCH   1  14
ATOM     14  O   UNL     1       9.916   1.312  -0.313  1.00  0.00    -0.388 OA
ATOM     15  H   UNL     1       9.778   0.973  -1.236  1.00  0.00     0.211 HD
ENDBRANCH   1  14
TORSDOF 8
ENDMDL
MODEL 8
REMARK VINA RESULT:    -3.600      2.269      4.632
REMARK INTER + INTRA:          -5.744
REMARK INTER:                  -5.037
REMARK INTRA:                  -0.707
REMARK UNBOUND:                -0.880
REMARK SMILES C[C@@H](O)[C@H](O)[C@@H](O)[C@H](O)C=O
REMARK SMILES IDX 4 1 2 2 1 3 3 4 6 6 8 7 10 8 11 9 9 10 7 12 5 14
REMARK H PARENT 3 5 9 11 7 13 5 15
REMARK Flexibility Score: inf
ROOT
ATOM      1  C   UNL     1      10.766   2.675  -1.053  1.00  0.00     0.174 C 
ENDROOT
BRANCH   1   2
ATOM      2  C   UNL     1      10.441   2.341  -2.528  1.00  0.00     0.142 C 
ATOM      3  C   UNL     1      11.497   1.433  -3.172  1.00  0.00     0.041 C 
BRANCH   2   4
ATOM      4  O   UNL     1       9.194   1.695  -2.578  1.00  0.00    -0.391 OA
ATOM      5  H   UNL     1       8.711   2.054  -3.368  1.00  0.00     0.211 HD
ENDBRANCH   2   4
ENDBRANCH   1   2
BRANCH   1   6
ATOM      6  C   UNL     1      10.019   3.938  -0.538  1.00  0.00     0.181 C 
BRANCH   6   7
ATOM      7  C   UNL     1       9.779   3.906   0.992  1.00  0.00     0.209 C 
BRANCH   7   8
ATOM      8  C   UNL     1       9.750   5.300   1.560  1.00  0.00     0.258 C 
ATOM      9  O   UNL     1       8.933   6.119   1.166  1.00  0.00    -0.300 OA
ENDBRANCH   7   8
BRANCH   7  10
ATOM     10  O   UNL     1       8.572   3.251   1.293  1.00  0.00    -0.383 OA
ATOM     11  H   UNL     1       7.856   3.726   0.794  1.00  0.00     0.211 HD
ENDBRANCH   7  10
ENDBRANCH   6   7
BRANCH   6  12
ATOM     12  O   UNL     1       8.816   4.151  -1.239  1.00  0.00    -0.387 OA
ATOM     13  H   UNL     1       8.696   3.399  -1.874  1.00  0.00     0.211 HD
ENDBRANCH   6  12
ENDBRANCH   1   6
BRANCH   1  14
ATOM     14  O   UNL     1      10.427   1.561  -0.262  1.00  0.00    -0.388 OA
ATOM     15  H   UNL     1      10.519   1.832   0.689  1.00  0.00     0.211 HD
ENDBRANCH   1  14
TORSDOF 8
ENDMDL
