MODEL 1
REMARK VINA RESULT:    -3.795      0.000      0.000
REMARK INTER + INTRA:          -4.554
REMARK INTER:                  -4.461
REMARK INTRA:                  -0.093
REMARK UNBOUND:                -0.093
REMARK SMILES O=C([O-])CCC(=O)[O-]
REMARK SMILES IDX 4 1 2 2 1 3 3 4 5 5 6 6 7 7 8 8
REMARK H PARENT
REMARK Flexibility Score: inf
ROOT
ATOM      1  C   UNL     1      36.038  42.632  46.687  1.00  0.00     0.059 C 
ENDROOT
BRANCH   1   2
ATOM      2  C   UNL     1      36.608  42.620  48.070  1.00  0.00     0.042 C 
ATOM      3  O   UNL     1      37.783  42.212  48.268  1.00  0.00    -0.550 OA
ATOM      4  O   UNL     1      35.859  43.103  49.135  1.00  0.00    -0.550 OA
ENDBRANCH   1   2
BRANCH   1   5
ATOM      5  C   UNL     1      35.986  44.060  46.143  1.00  0.00     0.059 C 
BRANCH   5   6
ATOM      6  C   UNL     1      34.622  44.368  45.612  1.00  0.00     0.042 C 
ATOM      7  O   UNL     1      33.609  44.218  46.345  1.00  0.00    -0.550 OA
ATOM      8  O   UNL     1      34.472  44.868  44.325  1.00  0.00    -0.550 OA
ENDBRANCH   5   6
ENDBRANCH   1   5
TORSDOF 3
ENDMDL
MODEL 2
REMARK VINA RESULT:    -3.794      2.013      2.774
REMARK INTER + INTRA:          -4.553
REMARK INTER:                  -4.523
REMARK INTRA:                  -0.030
REMARK UNBOUND:                -0.093
REMARK SMILES O=C([O-])CCC(=O)[O-]
REMARK SMILES IDX 4 1 2 2 1 3 3 4 5 5 6 6 7 7 8 8
REMARK H PARENT
REMARK Flexibility Score: inf
ROOT
ATOM      1  C   UNL     1      37.037  42.625  49.118  1.00  0.00     0.059 C 
ENDROOT
BRANCH   1   2
ATOM      2  C   UNL     1      38.283  42.232  49.848  1.00  0.00     0.042 C 
ATOM      3  O   UNL     1      38.870  41.155  49.564  1.00  0.00    -0.550 OA
ATOM      4  O   UNL     1      38.821  43.077  50.808  1.00  0.00    -0.550 OA
ENDBRANCH   1   2
BRANCH   1   5
ATOM      5  C   UNL     1      37.186  42.352  47.620  1.00  0.00     0.059 C 
BRANCH   5   6
ATOM      6  C   UNL     1      36.018  42.907  46.869  1.00  0.00     0.042 C 
ATOM      7  O   UNL     1      36.192  43.801  45.999  1.00  0.00    -0.550 OA
ATOM      8  O   UNL     1      34.743  42.406  47.095  1.00  0.00    -0.550 OA
ENDBRANCH   5   6
ENDBRANCH   1   5
TORSDOF 3
ENDMDL
MODEL 3
REMARK VINA RESULT:    -3.790      2.021      4.778
REMARK INTER + INTRA:          -4.548
REMARK INTER:                  -4.519
REMARK INTRA:                  -0.028
REMARK UNBOUND:                -0.093
REMARK SMILES O=C([O-])CCC(=O)[O-]
REMARK SMILES IDX 4 1 2 2 1 3 3 4 5 5 6 6 7 7 8 8
REMARK H PARENT
REMARK Flexibility Score: inf
ROOT
ATOM      1  C   UNL     1      37.121  42.249  47.687  1.00  0.00     0.059 C 
ENDROOT
BRANCH   1   2
ATOM      2  C   UNL     1      35.962  42.812  46.926  1.00  0.00     0.042 C 
ATOM      3  O   UNL     1      34.796  42.386  47.141  1.00  0.00    -0.550 OA
ATOM      4  O   UNL     1      36.163  43.840  46.015  1.00  0.00    -0.550 OA
ENDBRANCH   1   2
BRANCH   1   5
ATOM      5  C   UNL     1      37.028  42.632  49.165  1.00  0.00     0.059 C 
BRANCH   5   6
ATOM      6  C   UNL     1      38.295  42.279  49.877  1.00  0.00     0.042 C 
ATOM      7  O   UNL     1      38.770  43.058  50.745  1.00  0.00    -0.550 OA
ATOM      8  O   UNL     1      38.926  41.069  49.617  1.00  0.00    -0.550 OA
ENDBRANCH   5   6
ENDBRANCH   1   5
TORSDOF 3
ENDMDL
MODEL 4
REMARK VINA RESULT:    -3.765      0.097      4.160
REMARK INTER + INTRA:          -4.518
REMARK INTER:                  -4.436
REMARK INTRA:                  -0.082
REMARK UNBOUND:                -0.093
REMARK SMILES O=C([O-])CCC(=O)[O-]
REMARK SMILES IDX 4 1 2 2 1 3 3 4 5 5 6 6 7 7 8 8
REMARK H PARENT
REMARK Flexibility Score: inf
ROOT
ATOM      1  C   UNL     1      35.882  44.073  46.210  1.00  0.00     0.059 C 
ENDROOT
BRANCH   1   2
ATOM      2  C   UNL     1      34.522  44.346  45.649  1.00  0.00     0.042 C 
ATOM      3  O   UNL     1      33.495  44.137  46.347  1.00  0.00    -0.550 OA
ATOM      4  O   UNL     1      34.390  44.877  44.373  1.00  0.00    -0.550 OA
ENDBRANCH   1   2
BRANCH   1   5
ATOM      5  C   UNL     1      35.962  42.643  46.747  1.00  0.00     0.059 C 
BRANCH   5   6
ATOM      6  C   UNL     1      36.573  42.631  48.112  1.00  0.00     0.042 C 
ATOM      7  O   UNL     1      37.760  42.242  48.271  1.00  0.00    -0.550 OA
ATOM      8  O   UNL     1      35.848  43.093  49.203  1.00  0.00    -0.550 OA
ENDBRANCH   5   6
ENDBRANCH   1   5
TORSDOF 3
ENDMDL
MODEL 5
REMARK VINA RESULT:    -3.651      1.490      4.343
REMARK INTER + INTRA:          -4.384
REMARK INTER:                  -4.277
REMARK INTRA:                  -0.106
REMARK UNBOUND:                -0.093
REMARK SMILES O=C([O-])CCC(=O)[O-]
REMARK SMILES IDX 4 1 2 2 1 3 3 4 5 5 6 6 7 7 8 8
REMARK H PARENT
REMARK Flexibility Score: inf
ROOT
ATOM      1  C   UNL     1      35.845  42.595  47.432  1.00  0.00     0.059 C 
ENDROOT
BRANCH   1   2
ATOM      2  C   UNL     1      35.568  43.966  46.899  1.00  0.00     0.042 C 
ATOM      3  O   UNL     1      35.094  44.855  47.653  1.00  0.00    -0.550 OA
ATOM      4  O   UNL     1      35.879  44.274  45.581  1.00  0.00    -0.550 OA
ENDBRANCH   1   2
BRANCH   1   5
ATOM      5  C   UNL     1      37.349  42.382  47.607  1.00  0.00     0.059 C 
BRANCH   5   6
ATOM      6  C   UNL     1      37.688  42.219  49.055  1.00  0.00     0.042 C 
ATOM      7  O   UNL     1      38.645  41.478  49.401  1.00  0.00    -0.550 OA
ATOM      8  O   UNL     1      36.979  42.923  50.020  1.00  0.00    -0.550 OA
ENDBRANCH   5   6
ENDBRANCH   1   5
TORSDOF 3
ENDMDL
MODEL 6
REMARK VINA RESULT:    -3.546      2.019      2.859
REMARK INTER + INTRA:          -4.261
REMARK INTER:                  -4.119
REMARK INTRA:                  -0.141
REMARK UNBOUND:                -0.093
REMARK SMILES O=C([O-])CCC(=O)[O-]
REMARK SMILES IDX 4 1 2 2 1 3 3 4 5 5 6 6 7 7 8 8
REMARK H PARENT
REMARK Flexibility Score: inf
ROOT
ATOM      1  C   UNL     1      34.909  42.596  47.211  1.00  0.00     0.059 C 
ENDROOT
BRANCH   1   2
ATOM      2  C   UNL     1      36.165  43.124  46.591  1.00  0.00     0.042 C 
ATOM      3  O   UNL     1      37.282  42.642  46.914  1.00  0.00    -0.550 OA
ATOM      4  O   UNL     1      36.097  44.116  45.622  1.00  0.00    -0.550 OA
ENDBRANCH   1   2
BRANCH   1   5
ATOM      5  C   UNL     1      34.737  43.150  48.626  1.00  0.00     0.059 C 
BRANCH   5   6
ATOM      6  C   UNL     1      34.166  44.532  48.580  1.00  0.00     0.042 C 
ATOM      7  O   UNL     1      33.071  44.746  47.996  1.00  0.00    -0.550 OA
ATOM      8  O   UNL     1      34.819  45.576  49.223  1.00  0.00    -0.550 OA
ENDBRANCH   5   6
ENDBRANCH   1   5
TORSDOF 3
ENDMDL
MODEL 7
REMARK VINA RESULT:    -3.531      2.116      3.315
REMARK INTER + INTRA:          -4.243
REMARK INTER:                  -4.090
REMARK INTRA:                  -0.153
REMARK UNBOUND:                -0.093
REMARK SMILES O=C([O-])CCC(=O)[O-]
REMARK SMILES IDX 4 1 2 2 1 3 3 4 5 5 6 6 7 7 8 8
REMARK H PARENT
REMARK Flexibility Score: inf
ROOT
ATOM      1  C   UNL     1      35.086  44.487  47.564  1.00  0.00     0.059 C 
ENDROOT
BRANCH   1   2
ATOM      2  C   UNL     1      35.765  43.921  46.355  1.00  0.00     0.042 C 
ATOM      3  O   UNL     1      35.531  44.401  45.215  1.00  0.00    -0.550 OA
ATOM      4  O   UNL     1      36.691  42.897  46.495  1.00  0.00    -0.550 OA
ENDBRANCH   1   2
BRANCH   1   5
ATOM      5  C   UNL     1      33.622  44.048  47.609  1.00  0.00     0.059 C 
BRANCH   5   6
ATOM      6  C   UNL     1      33.516  42.625  48.055  1.00  0.00     0.042 C 
ATOM      7  O   UNL     1      33.810  42.308  49.238  1.00  0.00    -0.550 OA
ATOM      8  O   UNL     1      33.048  41.654  47.179  1.00  0.00    -0.550 OA
ENDBRANCH   5   6
ENDBRANCH   1   5
TORSDOF 3
ENDMDL
MODEL 8
REMARK VINA RESULT:    -3.529      2.113      3.013
REMARK INTER + INTRA:          -4.241
REMARK INTER:                  -4.088
REMARK INTRA:                  -0.153
REMARK UNBOUND:                -0.093
REMARK SMILES O=C([O-])CCC(=O)[O-]
REMARK SMILES IDX 4 1 2 2 1 3 3 4 5 5 6 6 7 7 8 8
REMARK H PARENT
REMARK Flexibility Score: inf
ROOT
ATOM      1  C   UNL     1      33.612  44.047  47.577  1.00  0.00     0.059 C 
ENDROOT
BRANCH   1   2
ATOM      2  C   UNL     1      33.503  42.627  48.037  1.00  0.00     0.042 C 
ATOM      3  O   UNL     1      33.802  42.319  49.220  1.00  0.00    -0.550 OA
ATOM      4  O   UNL     1      33.025  41.651  47.171  1.00  0.00    -0.550 OA
ENDBRANCH   1   2
BRANCH   1   5
ATOM      5  C   UNL     1      35.076  44.485  47.538  1.00  0.00     0.059 C 
BRANCH   5   6
ATOM      6  C   UNL     1      35.761  43.914  46.338  1.00  0.00     0.042 C 
ATOM      7  O   UNL     1      35.531  44.387  45.193  1.00  0.00    -0.550 OA
ATOM      8  O   UNL     1      36.690  42.892  46.486  1.00  0.00    -0.550 OA
ENDBRANCH   5   6
ENDBRANCH   1   5
TORSDOF 3
ENDMDL
MODEL 9
REMARK VINA RESULT:    -3.420      1.696      2.466
REMARK INTER + INTRA:          -4.113
REMARK INTER:                  -4.023
REMARK INTRA:                  -0.089
REMARK UNBOUND:                -0.093
REMARK SMILES O=C([O-])CCC(=O)[O-]
REMARK SMILES IDX 4 1 2 2 1 3 3 4 5 5 6 6 7 7 8 8
REMARK H PARENT
REMARK Flexibility Score: inf
ROOT
ATOM      1  C   UNL     1      34.968  43.139  48.574  1.00  0.00     0.059 C 
ENDROOT
BRANCH   1   2
ATOM      2  C   UNL     1      35.903  43.396  49.714  1.00  0.00     0.042 C 
ATOM      3  O   UNL     1      35.651  44.306  50.547  1.00  0.00    -0.550 OA
ATOM      4  O   UNL     1      37.028  42.600  49.882  1.00  0.00    -0.550 OA
ENDBRANCH   1   2
BRANCH   1   5
ATOM      5  C   UNL     1      35.023  44.289  47.567  1.00  0.00     0.059 C 
BRANCH   5   6
ATOM      6  C   UNL     1      35.766  43.872  46.338  1.00  0.00     0.042 C 
ATOM      7  O   UNL     1      35.560  44.460  45.243  1.00  0.00    -0.550 OA
ATOM      8  O   UNL     1      36.721  42.865  46.409  1.00  0.00    -0.550 OA
ENDBRANCH   5   6
ENDBRANCH   1   5
TORSDOF 3
ENDMDL
