MODEL 1
REMARK VINA RESULT:    -4.796      0.000      0.000
REMARK INTER + INTRA:          -6.071
REMARK INTER:                  -5.777
REMARK INTRA:                  -0.294
REMARK UNBOUND:                -0.294
REMARK SMILES O=c1c(O)c(-c2ccc(O)c(O)c2)oc2cc(O)cc(O)c12
REMARK SMILES IDX 5 1 3 2 2 3 1 4 22 5 20 6 19 7 17 8 16 9 15 10 14 11 6 12
REMARK SMILES IDX 7 13 8 14 9 15 13 16 11 17 10 18 12 20 4 22 21 24 18 26
REMARK H PARENT 10 19 12 21 4 23 21 25 18 27
REMARK Flexibility Score: inf
ROOT
ATOM      1  C   UNL     1     -13.046 -10.899   6.630  1.00  0.00     0.180 A 
ATOM      2  C   UNL     1     -11.991 -11.818   6.790  1.00  0.00     0.208 A 
ATOM      3  C   UNL     1     -11.592 -12.594   5.690  1.00  0.00     0.238 A 
ATOM      4  O   UNL     1     -10.642 -13.411   5.819  1.00  0.00    -0.285 OA
ATOM      5  C   UNL     1     -12.266 -12.453   4.459  1.00  0.00     0.111 A 
ATOM      6  C   UNL     1     -11.929 -13.199   3.303  1.00  0.00     0.134 A 
ATOM      7  C   UNL     1     -12.652 -13.008   2.117  1.00  0.00     0.093 A 
ATOM      8  C   UNL     1     -13.706 -12.087   2.065  1.00  0.00     0.123 A 
ATOM      9  C   UNL     1     -14.040 -11.349   3.201  1.00  0.00     0.094 A 
ATOM     10  C   UNL     1     -13.330 -11.523   4.393  1.00  0.00     0.146 A 
ATOM     11  O   UNL     1     -13.667 -10.805   5.457  1.00  0.00    -0.452 OA
ENDROOT
BRANCH   1  12
ATOM     12  C   UNL     1     -13.511 -10.033   7.737  1.00  0.00     0.025 A 
ATOM     13  C   UNL     1     -14.637 -10.370   8.507  1.00  0.00     0.016 A 
ATOM     14  C   UNL     1     -15.042  -9.548   9.562  1.00  0.00     0.051 A 
ATOM     15  C   UNL     1     -14.325  -8.389   9.873  1.00  0.00     0.157 A 
ATOM     16  C   UNL     1     -12.779  -8.879   8.064  1.00  0.00     0.062 A 
ATOM     17  C   UNL     1     -13.185  -8.053   9.123  1.00  0.00     0.158 A 
BRANCH  15  18
ATOM     18  O   UNL     1     -14.756  -7.589  10.930  1.00  0.00    -0.504 OA
ATOM     19  H   UNL     1     -14.489  -6.614  11.010  1.00  0.00     0.293 HD
ENDBRANCH  15  18
BRANCH  17  20
ATOM     20  O   UNL     1     -12.462  -6.902   9.431  1.00  0.00    -0.504 OA
ATOM     21  H   UNL     1     -11.882  -6.846  10.261  1.00  0.00     0.293 HD
ENDBRANCH  17  20
ENDBRANCH   1  12
BRANCH   2  22
ATOM     22  O   UNL     1     -11.374 -11.973   8.034  1.00  0.00    -0.502 OA
ATOM     23  H   UNL     1     -10.625 -12.638   8.190  1.00  0.00     0.293 HD
ENDBRANCH   2  22
BRANCH   6  24
ATOM     24  O   UNL     1     -10.885 -14.124   3.325  1.00  0.00    -0.507 OA
ATOM     25  H   UNL     1     -10.246 -14.189   4.110  1.00  0.00     0.293 HD
ENDBRANCH   6  24
BRANCH   8  26
ATOM     26  O   UNL     1     -14.425 -11.898   0.887  1.00  0.00    -0.508 OA
ATOM     27  H   UNL     1     -14.607 -10.971   0.521  1.00  0.00     0.293 HD
ENDBRANCH   8  26
TORSDOF 6
ENDMDL
MODEL 2
REMARK VINA RESULT:    -4.502      5.295      8.993
REMARK INTER + INTRA:          -5.717
REMARK INTER:                  -5.416
REMARK INTRA:                  -0.301
REMARK UNBOUND:                -0.294
REMARK SMILES O=c1c(O)c(-c2ccc(O)c(O)c2)oc2cc(O)cc(O)c12
REMARK SMILES IDX 5 1 3 2 2 3 1 4 22 5 20 6 19 7 17 8 16 9 15 10 14 11 6 12
REMARK SMILES IDX 7 13 8 14 9 15 13 16 11 17 10 18 12 20 4 22 21 24 18 26
REMARK H PARENT 10 19 12 21 4 23 21 25 18 27
REMARK Flexibility Score: inf
ROOT
ATOM      1  C   UNL     1     -12.980 -12.594  -1.680  1.00  0.00     0.180 A 
ATOM      2  C   UNL     1     -13.926 -11.977  -2.521  1.00  0.00     0.208 A 
ATOM      3  C   UNL     1     -13.649 -11.872  -3.894  1.00  0.00     0.238 A 
ATOM      4  O   UNL     1     -14.494 -11.331  -4.657  1.00  0.00    -0.285 OA
ATOM      5  C   UNL     1     -12.428 -12.365  -4.397  1.00  0.00     0.111 A 
ATOM      6  C   UNL     1     -12.070 -12.295  -5.766  1.00  0.00     0.134 A 
ATOM      7  C   UNL     1     -10.832 -12.802  -6.187  1.00  0.00     0.093 A 
ATOM      8  C   UNL     1      -9.946 -13.375  -5.268  1.00  0.00     0.123 A 
ATOM      9  C   UNL     1     -10.295 -13.447  -3.919  1.00  0.00     0.094 A 
ATOM     10  C   UNL     1     -11.525 -12.950  -3.478  1.00  0.00     0.146 A 
ATOM     11  O   UNL     1     -11.833 -13.035  -2.189  1.00  0.00    -0.452 OA
ENDROOT
BRANCH   1  12
ATOM     12  C   UNL     1     -13.208 -12.760  -0.226  1.00  0.00     0.025 A 
ATOM     13  C   UNL     1     -13.631 -13.987   0.313  1.00  0.00     0.016 A 
ATOM     14  C   UNL     1     -13.815 -14.125   1.691  1.00  0.00     0.051 A 
ATOM     15  C   UNL     1     -13.570 -13.050   2.551  1.00  0.00     0.157 A 
ATOM     16  C   UNL     1     -12.942 -11.687   0.640  1.00  0.00     0.062 A 
ATOM     17  C   UNL     1     -13.128 -11.825   2.023  1.00  0.00     0.158 A 
BRANCH  15  18
ATOM     18  O   UNL     1     -13.766 -13.218   3.920  1.00  0.00    -0.504 OA
ATOM     19  H   UNL     1     -14.632 -13.585   4.299  1.00  0.00     0.293 HD
ENDBRANCH  15  18
BRANCH  17  20
ATOM     20  O   UNL     1     -12.875 -10.750   2.875  1.00  0.00    -0.504 OA
ATOM     21  H   UNL     1     -12.510  -9.871   2.526  1.00  0.00     0.293 HD
ENDBRANCH  17  20
ENDBRANCH   1  12
BRANCH   2  22
ATOM     22  O   UNL     1     -15.106 -11.451  -1.989  1.00  0.00    -0.502 OA
ATOM     23  H   UNL     1     -15.580 -11.872  -1.198  1.00  0.00     0.293 HD
ENDBRANCH   2  22
BRANCH   6  24
ATOM     24  O   UNL     1     -12.933 -11.730  -6.705  1.00  0.00    -0.507 OA
ATOM     25  H   UNL     1     -13.613 -11.023  -6.446  1.00  0.00     0.293 HD
ENDBRANCH   6  24
BRANCH   8  26
ATOM     26  O   UNL     1      -8.715 -13.877  -5.686  1.00  0.00    -0.508 OA
ATOM     27  H   UNL     1      -8.040 -14.243  -5.025  1.00  0.00     0.293 HD
ENDBRANCH   8  26
TORSDOF 6
ENDMDL
MODEL 3
REMARK VINA RESULT:    -4.442      1.962      6.942
REMARK INTER + INTRA:          -5.644
REMARK INTER:                  -5.530
REMARK INTRA:                  -0.114
REMARK UNBOUND:                -0.294
REMARK SMILES O=c1c(O)c(-c2ccc(O)c(O)c2)oc2cc(O)cc(O)c12
REMARK SMILES IDX 5 1 3 2 2 3 1 4 22 5 20 6 19 7 17 8 16 9 15 10 14 11 6 12
REMARK SMILES IDX 7 13 8 14 9 15 13 16 11 17 10 18 12 20 4 22 21 24 18 26
REMARK H PARENT 10 19 12 21 4 23 21 25 18 27
REMARK Flexibility Score: inf
ROOT
ATOM      1  C   UNL     1     -12.631 -11.615   5.059  1.00  0.00     0.180 A 
ATOM      2  C   UNL     1     -11.931 -10.437   5.381  1.00  0.00     0.208 A 
ATOM      3  C   UNL     1     -11.986  -9.952   6.697  1.00  0.00     0.238 A 
ATOM      4  O   UNL     1     -11.355  -8.904   6.999  1.00  0.00    -0.285 OA
ATOM      5  C   UNL     1     -12.754 -10.638   7.660  1.00  0.00     0.111 A 
ATOM      6  C   UNL     1     -12.866 -10.214   9.007  1.00  0.00     0.134 A 
ATOM      7  C   UNL     1     -13.657 -10.948   9.903  1.00  0.00     0.093 A 
ATOM      8  C   UNL     1     -14.338 -12.095   9.479  1.00  0.00     0.123 A 
ATOM      9  C   UNL     1     -14.230 -12.517   8.154  1.00  0.00     0.094 A 
ATOM     10  C   UNL     1     -13.445 -11.801   7.245  1.00  0.00     0.146 A 
ATOM     11  O   UNL     1     -13.357 -12.228   5.991  1.00  0.00    -0.452 OA
ENDROOT
BRANCH   1  12
ATOM     12  C   UNL     1     -12.606 -12.200   3.698  1.00  0.00     0.025 A 
ATOM     13  C   UNL     1     -12.126 -13.501   3.470  1.00  0.00     0.016 A 
ATOM     14  C   UNL     1     -12.135 -14.040   2.180  1.00  0.00     0.051 A 
ATOM     15  C   UNL     1     -12.632 -13.297   1.105  1.00  0.00     0.157 A 
ATOM     16  C   UNL     1     -13.124 -11.463   2.621  1.00  0.00     0.062 A 
ATOM     17  C   UNL     1     -13.132 -12.002   1.326  1.00  0.00     0.158 A 
BRANCH  15  18
ATOM     18  O   UNL     1     -12.624 -13.861  -0.169  1.00  0.00    -0.504 OA
ATOM     19  H   UNL     1     -11.859 -13.717  -0.817  1.00  0.00     0.293 HD
ENDBRANCH  15  18
BRANCH  17  20
ATOM     20  O   UNL     1     -13.635 -11.258   0.260  1.00  0.00    -0.504 OA
ATOM     21  H   UNL     1     -14.213 -10.439   0.411  1.00  0.00     0.293 HD
ENDBRANCH  17  20
ENDBRANCH   1  12
BRANCH   2  22
ATOM     22  O   UNL     1     -11.218  -9.749   4.396  1.00  0.00    -0.502 OA
ATOM     23  H   UNL     1     -11.385  -8.771   4.188  1.00  0.00     0.293 HD
ENDBRANCH   2  22
BRANCH   6  24
ATOM     24  O   UNL     1     -12.199  -9.075   9.458  1.00  0.00    -0.507 OA
ATOM     25  H   UNL     1     -12.617  -8.153   9.397  1.00  0.00     0.293 HD
ENDBRANCH   6  24
BRANCH   8  26
ATOM     26  O   UNL     1     -15.125 -12.823  10.370  1.00  0.00    -0.508 OA
ATOM     27  H   UNL     1     -14.822 -13.002  11.320  1.00  0.00     0.293 HD
ENDBRANCH   8  26
TORSDOF 6
ENDMDL
MODEL 4
REMARK VINA RESULT:    -4.380      4.591      7.767
REMARK INTER + INTRA:          -5.571
REMARK INTER:                  -5.251
REMARK INTRA:                  -0.320
REMARK UNBOUND:                -0.294
REMARK SMILES O=c1c(O)c(-c2ccc(O)c(O)c2)oc2cc(O)cc(O)c12
REMARK SMILES IDX 5 1 3 2 2 3 1 4 22 5 20 6 19 7 17 8 16 9 15 10 14 11 6 12
REMARK SMILES IDX 7 13 8 14 9 15 13 16 11 17 10 18 12 20 4 22 21 24 18 26
REMARK H PARENT 10 19 12 21 4 23 21 25 18 27
REMARK Flexibility Score: inf
ROOT
ATOM      1  C   UNL     1     -13.033 -12.660  -0.426  1.00  0.00     0.180 A 
ATOM      2  C   UNL     1     -13.813 -12.336  -1.552  1.00  0.00     0.208 A 
ATOM      3  C   UNL     1     -13.245 -12.457  -2.830  1.00  0.00     0.238 A 
ATOM      4  O   UNL     1     -13.938 -12.180  -3.846  1.00  0.00    -0.285 OA
ATOM      5  C   UNL     1     -11.906 -12.878  -2.959  1.00  0.00     0.111 A 
ATOM      6  C   UNL     1     -11.257 -13.022  -4.210  1.00  0.00     0.134 A 
ATOM      7  C   UNL     1      -9.919 -13.439  -4.255  1.00  0.00     0.093 A 
ATOM      8  C   UNL     1      -9.217 -13.712  -3.075  1.00  0.00     0.123 A 
ATOM      9  C   UNL     1      -9.853 -13.573  -1.841  1.00  0.00     0.094 A 
ATOM     10  C   UNL     1     -11.187 -13.161  -1.774  1.00  0.00     0.146 A 
ATOM     11  O   UNL     1     -11.768 -13.041  -0.586  1.00  0.00    -0.452 OA
ENDROOT
BRANCH   1  12
ATOM     12  C   UNL     1     -13.567 -12.577   0.953  1.00  0.00     0.025 A 
ATOM     13  C   UNL     1     -14.342 -13.614   1.502  1.00  0.00     0.016 A 
ATOM     14  C   UNL     1     -14.814 -13.523   2.814  1.00  0.00     0.051 A 
ATOM     15  C   UNL     1     -14.511 -12.407   3.600  1.00  0.00     0.157 A 
ATOM     16  C   UNL     1     -13.246 -11.467   1.751  1.00  0.00     0.062 A 
ATOM     17  C   UNL     1     -13.720 -11.375   3.068  1.00  0.00     0.158 A 
BRANCH  15  18
ATOM     18  O   UNL     1     -14.999 -12.345   4.904  1.00  0.00    -0.504 OA
ATOM     19  H   UNL     1     -14.837 -11.543   5.502  1.00  0.00     0.293 HD
ENDBRANCH  15  18
BRANCH  17  20
ATOM     20  O   UNL     1     -13.409 -10.262   3.849  1.00  0.00    -0.504 OA
ATOM     21  H   UNL     1     -12.462  -9.907   3.913  1.00  0.00     0.293 HD
ENDBRANCH  17  20
ENDBRANCH   1  12
BRANCH   2  22
ATOM     22  O   UNL     1     -15.122 -11.873  -1.393  1.00  0.00    -0.502 OA
ATOM     23  H   UNL     1     -15.742 -12.231  -0.675  1.00  0.00     0.293 HD
ENDBRANCH   2  22
BRANCH   6  24
ATOM     24  O   UNL     1     -11.931 -12.756  -5.403  1.00  0.00    -0.507 OA
ATOM     25  H   UNL     1     -12.650 -12.045  -5.461  1.00  0.00     0.293 HD
ENDBRANCH   6  24
BRANCH   8  26
ATOM     26  O   UNL     1      -7.887 -14.125  -3.119  1.00  0.00    -0.508 OA
ATOM     27  H   UNL     1      -7.636 -15.077  -3.356  1.00  0.00     0.293 HD
ENDBRANCH   8  26
TORSDOF 6
ENDMDL
MODEL 5
REMARK VINA RESULT:    -4.338      9.385     12.527
REMARK INTER + INTRA:          -5.519
REMARK INTER:                  -5.669
REMARK INTRA:                   0.150
REMARK UNBOUND:                -0.294
REMARK SMILES O=c1c(O)c(-c2ccc(O)c(O)c2)oc2cc(O)cc(O)c12
REMARK SMILES IDX 5 1 3 2 2 3 1 4 22 5 20 6 19 7 17 8 16 9 15 10 14 11 6 12
REMARK SMILES IDX 7 13 8 14 9 15 13 16 11 17 10 18 12 20 4 22 21 24 18 26
REMARK H PARENT 10 19 12 21 4 23 21 25 18 27
REMARK Flexibility Score: inf
ROOT
ATOM      1  C   UNL     1      -9.527 -13.169  -4.122  1.00  0.00     0.180 A 
ATOM      2  C   UNL     1      -9.815 -13.628  -2.823  1.00  0.00     0.208 A 
ATOM      3  C   UNL     1     -11.136 -13.551  -2.352  1.00  0.00     0.238 A 
ATOM      4  O   UNL     1     -11.408 -13.968  -1.194  1.00  0.00    -0.285 OA
ATOM      5  C   UNL     1     -12.137 -12.999  -3.177  1.00  0.00     0.111 A 
ATOM      6  C   UNL     1     -13.491 -12.880  -2.778  1.00  0.00     0.134 A 
ATOM      7  C   UNL     1     -14.427 -12.312  -3.654  1.00  0.00     0.093 A 
ATOM      8  C   UNL     1     -14.036 -11.859  -4.920  1.00  0.00     0.123 A 
ATOM      9  C   UNL     1     -12.704 -11.974  -5.317  1.00  0.00     0.094 A 
ATOM     10  C   UNL     1     -11.755 -12.540  -4.460  1.00  0.00     0.146 A 
ATOM     11  O   UNL     1     -10.495 -12.642  -4.866  1.00  0.00    -0.452 OA
ENDROOT
BRANCH   1  12
ATOM     12  C   UNL     1      -8.163 -13.236  -4.696  1.00  0.00     0.025 A 
ATOM     13  C   UNL     1      -7.027 -12.956  -3.917  1.00  0.00     0.016 A 
ATOM     14  C   UNL     1      -5.749 -13.049  -4.475  1.00  0.00     0.051 A 
ATOM     15  C   UNL     1      -5.585 -13.433  -5.809  1.00  0.00     0.157 A 
ATOM     16  C   UNL     1      -7.995 -13.642  -6.030  1.00  0.00     0.062 A 
ATOM     17  C   UNL     1      -6.713 -13.735  -6.591  1.00  0.00     0.158 A 
BRANCH  15  18
ATOM     18  O   UNL     1      -4.298 -13.514  -6.337  1.00  0.00    -0.504 OA
ATOM     19  H   UNL     1      -3.945 -14.360  -6.770  1.00  0.00     0.293 HD
ENDBRANCH  15  18
BRANCH  17  20
ATOM     20  O   UNL     1      -6.556 -14.125  -7.920  1.00  0.00    -0.504 OA
ATOM     21  H   UNL     1      -5.831 -13.729  -8.507  1.00  0.00     0.293 HD
ENDBRANCH  17  20
ENDBRANCH   1  12
BRANCH   2  22
ATOM     22  O   UNL     1      -8.795 -14.125  -2.007  1.00  0.00    -0.502 OA
ATOM     23  H   UNL     1      -8.901 -14.222  -1.004  1.00  0.00     0.293 HD
ENDBRANCH   2  22
BRANCH   6  24
ATOM     24  O   UNL     1     -13.910 -13.322  -1.523  1.00  0.00    -0.507 OA
ATOM     25  H   UNL     1     -14.153 -12.673  -0.783  1.00  0.00     0.293 HD
ENDBRANCH   6  24
BRANCH   8  26
ATOM     26  O   UNL     1     -14.966 -11.293  -5.790  1.00  0.00    -0.508 OA
ATOM     27  H   UNL     1     -15.434 -11.847  -6.497  1.00  0.00     0.293 HD
ENDBRANCH   8  26
TORSDOF 6
ENDMDL
MODEL 6
REMARK VINA RESULT:    -4.315     11.957     15.063
REMARK INTER + INTRA:          -5.492
REMARK INTER:                  -5.550
REMARK INTRA:                   0.058
REMARK UNBOUND:                -0.294
REMARK SMILES O=c1c(O)c(-c2ccc(O)c(O)c2)oc2cc(O)cc(O)c12
REMARK SMILES IDX 5 1 3 2 2 3 1 4 22 5 20 6 19 7 17 8 16 9 15 10 14 11 6 12
REMARK SMILES IDX 7 13 8 14 9 15 13 16 11 17 10 18 12 20 4 22 21 24 18 26
REMARK H PARENT 10 19 12 21 4 23 21 25 18 27
REMARK Flexibility Score: inf
ROOT
ATOM      1  C   UNL     1      -8.374 -12.408  -7.002  1.00  0.00     0.180 A 
ATOM      2  C   UNL     1      -8.798 -11.591  -8.067  1.00  0.00     0.208 A 
ATOM      3  C   UNL     1     -10.161 -11.274  -8.180  1.00  0.00     0.238 A 
ATOM      4  O   UNL     1     -10.550 -10.535  -9.123  1.00  0.00    -0.285 OA
ATOM      5  C   UNL     1     -11.076 -11.795  -7.242  1.00  0.00     0.111 A 
ATOM      6  C   UNL     1     -12.466 -11.528  -7.287  1.00  0.00     0.134 A 
ATOM      7  C   UNL     1     -13.314 -12.091  -6.321  1.00  0.00     0.093 A 
ATOM      8  C   UNL     1     -12.799 -12.916  -5.314  1.00  0.00     0.123 A 
ATOM      9  C   UNL     1     -11.429 -13.180  -5.266  1.00  0.00     0.094 A 
ATOM     10  C   UNL     1     -10.567 -12.628  -6.217  1.00  0.00     0.146 A 
ATOM     11  O   UNL     1      -9.269 -12.893  -6.145  1.00  0.00    -0.452 OA
ENDROOT
BRANCH   1  12
ATOM     12  C   UNL     1      -6.951 -12.770  -6.804  1.00  0.00     0.025 A 
ATOM     13  C   UNL     1      -6.341 -12.676  -5.542  1.00  0.00     0.016 A 
ATOM     14  C   UNL     1      -5.004 -13.046  -5.376  1.00  0.00     0.051 A 
ATOM     15  C   UNL     1      -4.261 -13.525  -6.459  1.00  0.00     0.157 A 
ATOM     16  C   UNL     1      -6.210 -13.271  -7.887  1.00  0.00     0.062 A 
ATOM     17  C   UNL     1      -4.868 -13.642  -7.721  1.00  0.00     0.158 A 
BRANCH  15  18
ATOM     18  O   UNL     1      -2.929 -13.884  -6.262  1.00  0.00    -0.504 OA
ATOM     19  H   UNL     1      -2.164 -13.257  -6.485  1.00  0.00     0.293 HD
ENDBRANCH  15  18
BRANCH  17  20
ATOM     20  O   UNL     1      -4.135 -14.125  -8.805  1.00  0.00    -0.504 OA
ATOM     21  H   UNL     1      -3.324 -13.631  -9.159  1.00  0.00     0.293 HD
ENDBRANCH  17  20
ENDBRANCH   1  12
BRANCH   2  22
ATOM     22  O   UNL     1      -7.877 -11.129  -9.011  1.00  0.00    -0.502 OA
ATOM     23  H   UNL     1      -7.746 -11.582  -9.909  1.00  0.00     0.293 HD
ENDBRANCH   2  22
BRANCH   6  24
ATOM     24  O   UNL     1     -13.009 -10.711  -8.279  1.00  0.00    -0.507 OA
ATOM     25  H   UNL     1     -12.497 -10.491  -9.126  1.00  0.00     0.293 HD
ENDBRANCH   6  24
BRANCH   8  26
ATOM     26  O   UNL     1     -13.641 -13.476  -4.355  1.00  0.00    -0.508 OA
ATOM     27  H   UNL     1     -14.568 -13.105  -4.184  1.00  0.00     0.293 HD
ENDBRANCH   8  26
TORSDOF 6
ENDMDL
MODEL 7
REMARK VINA RESULT:    -4.136     22.956     24.286
REMARK INTER + INTRA:          -5.276
REMARK INTER:                  -5.025
REMARK INTRA:                  -0.251
REMARK UNBOUND:                -0.294
REMARK SMILES O=c1c(O)c(-c2ccc(O)c(O)c2)oc2cc(O)cc(O)c12
REMARK SMILES IDX 5 1 3 2 2 3 1 4 22 5 20 6 19 7 17 8 16 9 15 10 14 11 6 12
REMARK SMILES IDX 7 13 8 14 9 15 13 16 11 17 10 18 12 20 4 22 21 24 18 26
REMARK H PARENT 10 19 12 21 4 23 21 25 18 27
REMARK Flexibility Score: inf
ROOT
ATOM      1  C   UNL     1       3.072   1.260  -6.080  1.00  0.00     0.180 A 
ATOM      2  C   UNL     1       3.718   2.482  -5.811  1.00  0.00     0.208 A 
ATOM      3  C   UNL     1       3.126   3.676  -6.254  1.00  0.00     0.238 A 
ATOM      4  O   UNL     1       3.690   4.776  -6.010  1.00  0.00    -0.285 OA
ATOM      5  C   UNL     1       1.914   3.626  -6.973  1.00  0.00     0.111 A 
ATOM      6  C   UNL     1       1.254   4.782  -7.458  1.00  0.00     0.134 A 
ATOM      7  C   UNL     1       0.055   4.648  -8.173  1.00  0.00     0.093 A 
ATOM      8  C   UNL     1      -0.496   3.384  -8.413  1.00  0.00     0.123 A 
ATOM      9  C   UNL     1       0.150   2.243  -7.936  1.00  0.00     0.094 A 
ATOM     10  C   UNL     1       1.346   2.354  -7.219  1.00  0.00     0.146 A 
ATOM     11  O   UNL     1       1.937   1.252  -6.774  1.00  0.00    -0.452 OA
ENDROOT
BRANCH   1  12
ATOM     12  C   UNL     1       3.624  -0.038  -5.629  1.00  0.00     0.025 A 
ATOM     13  C   UNL     1       3.613  -0.406  -4.272  1.00  0.00     0.016 A 
ATOM     14  C   UNL     1       4.117  -1.647  -3.874  1.00  0.00     0.051 A 
ATOM     15  C   UNL     1       4.626  -2.542  -4.821  1.00  0.00     0.157 A 
ATOM     16  C   UNL     1       4.116  -0.947  -6.580  1.00  0.00     0.062 A 
ATOM     17  C   UNL     1       4.623  -2.192  -6.181  1.00  0.00     0.158 A 
BRANCH  15  18
ATOM     18  O   UNL     1       5.125  -3.771  -4.392  1.00  0.00    -0.504 OA
ATOM     19  H   UNL     1       4.523  -4.572  -4.240  1.00  0.00     0.293 HD
ENDBRANCH  15  18
BRANCH  17  20
ATOM     20  O   UNL     1       5.123  -3.082  -7.131  1.00  0.00    -0.504 OA
ATOM     21  H   UNL     1       5.516  -2.757  -8.007  1.00  0.00     0.293 HD
ENDBRANCH  17  20
ENDBRANCH   1  12
BRANCH   2  22
ATOM     22  O   UNL     1       4.944   2.499  -5.141  1.00  0.00    -0.502 OA
ATOM     23  H   UNL     1       5.525   3.328  -5.093  1.00  0.00     0.293 HD
ENDBRANCH   2  22
BRANCH   6  24
ATOM     24  O   UNL     1       1.780   6.055  -7.235  1.00  0.00    -0.507 OA
ATOM     25  H   UNL     1       2.261   6.289  -6.375  1.00  0.00     0.293 HD
ENDBRANCH   6  24
BRANCH   8  26
ATOM     26  O   UNL     1      -1.687   3.252  -9.124  1.00  0.00    -0.508 OA
ATOM     27  H   UNL     1      -1.872   2.439  -9.700  1.00  0.00     0.293 HD
ENDBRANCH   8  26
TORSDOF 6
ENDMDL
MODEL 8
REMARK VINA RESULT:    -3.925     22.854     23.798
REMARK INTER + INTRA:          -5.023
REMARK INTER:                  -4.790
REMARK INTRA:                  -0.233
REMARK UNBOUND:                -0.294
REMARK SMILES O=c1c(O)c(-c2ccc(O)c(O)c2)oc2cc(O)cc(O)c12
REMARK SMILES IDX 5 1 3 2 2 3 1 4 22 5 20 6 19 7 17 8 16 9 15 10 14 11 6 12
REMARK SMILES IDX 7 13 8 14 9 15 13 16 11 17 10 18 12 20 4 22 21 24 18 26
REMARK H PARENT 10 19 12 21 4 23 21 25 18 27
REMARK Flexibility Score: inf
ROOT
ATOM      1  C   UNL     1       1.834   1.725  -7.221  1.00  0.00     0.180 A 
ATOM      2  C   UNL     1       2.683   1.808  -6.102  1.00  0.00     0.208 A 
ATOM      3  C   UNL     1       3.414   0.672  -5.717  1.00  0.00     0.238 A 
ATOM      4  O   UNL     1       4.185   0.738  -4.722  1.00  0.00    -0.285 OA
ATOM      5  C   UNL     1       3.268  -0.528  -6.443  1.00  0.00     0.111 A 
ATOM      6  C   UNL     1       3.965  -1.718  -6.119  1.00  0.00     0.134 A 
ATOM      7  C   UNL     1       3.759  -2.874  -6.886  1.00  0.00     0.093 A 
ATOM      8  C   UNL     1       2.871  -2.864  -7.968  1.00  0.00     0.123 A 
ATOM      9  C   UNL     1       2.183  -1.693  -8.291  1.00  0.00     0.094 A 
ATOM     10  C   UNL     1       2.375  -0.529  -7.541  1.00  0.00     0.146 A 
ATOM     11  O   UNL     1       1.712   0.571  -7.873  1.00  0.00    -0.452 OA
ENDROOT
BRANCH   1  12
ATOM     12  C   UNL     1       1.046   2.884  -7.700  1.00  0.00     0.025 A 
ATOM     13  C   UNL     1       1.669   4.001  -8.284  1.00  0.00     0.016 A 
ATOM     14  C   UNL     1       0.902   5.072  -8.750  1.00  0.00     0.051 A 
ATOM     15  C   UNL     1      -0.493   5.040  -8.653  1.00  0.00     0.157 A 
ATOM     16  C   UNL     1      -0.355   2.844  -7.623  1.00  0.00     0.062 A 
ATOM     17  C   UNL     1      -1.126   3.919  -8.090  1.00  0.00     0.158 A 
BRANCH  15  18
ATOM     18  O   UNL     1      -1.229   6.125  -9.125  1.00  0.00    -0.504 OA
ATOM     19  H   UNL     1      -1.505   6.207 -10.096  1.00  0.00     0.293 HD
ENDBRANCH  15  18
BRANCH  17  20
ATOM     20  O   UNL     1      -2.516   3.878  -7.997  1.00  0.00    -0.504 OA
ATOM     21  H   UNL     1      -3.057   3.147  -8.445  1.00  0.00     0.293 HD
ENDBRANCH  17  20
ENDBRANCH   1  12
BRANCH   2  22
ATOM     22  O   UNL     1       2.771   2.994  -5.369  1.00  0.00    -0.502 OA
ATOM     23  H   UNL     1       3.439   3.120  -4.618  1.00  0.00     0.293 HD
ENDBRANCH   2  22
BRANCH   6  24
ATOM     24  O   UNL     1       4.856  -1.759  -5.047  1.00  0.00    -0.507 OA
ATOM     25  H   UNL     1       4.893  -1.017  -4.357  1.00  0.00     0.293 HD
ENDBRANCH   6  24
BRANCH   8  26
ATOM     26  O   UNL     1       2.666  -4.013  -8.729  1.00  0.00    -0.508 OA
ATOM     27  H   UNL     1       1.767  -4.480  -8.750  1.00  0.00     0.293 HD
ENDBRANCH   8  26
TORSDOF 6
ENDMDL
