MODEL 1
REMARK VINA RESULT:    -4.396      0.000      0.000
REMARK INTER + INTRA:          -9.876
REMARK INTER:                  -8.123
REMARK INTRA:                  -1.753
REMARK UNBOUND:                -1.753
REMARK SMILES CCCCCCCCCCCCCCCCO
REMARK SMILES IDX 9 1 8 2 7 3 6 4 5 5 4 6 3 7 2 8 1 9 10 10 11 11 12 12 13 13
REMARK SMILES IDX 14 14 15 15 16 16 17 17
REMARK H PARENT 17 18
REMARK Flexibility Score: inf
ROOT
ATOM      1  C   UNL     1     182.841 179.277 183.387  1.00  0.00     0.000 C 
ENDROOT
BRANCH   1   2
ATOM      2  C   UNL     1     183.200 179.159 184.879  1.00  0.00    -0.000 C 
BRANCH   2   3
ATOM      3  C   UNL     1     181.982 179.363 185.796  1.00  0.00    -0.000 C 
BRANCH   3   4
ATOM      4  C   UNL     1     180.728 178.636 185.283  1.00  0.00    -0.000 C 
BRANCH   4   5
ATOM      5  C   UNL     1     179.510 179.567 185.168  1.00  0.00    -0.000 C 
BRANCH   5   6
ATOM      6  C   UNL     1     179.190 179.953 183.716  1.00  0.00    -0.000 C 
BRANCH   6   7
ATOM      7  C   UNL     1     179.600 181.405 183.431  1.00  0.00    -0.000 C 
BRANCH   7   8
ATOM      8  C   UNL     1     179.581 181.742 181.932  1.00  0.00    -0.003 C 
ATOM      9  C   UNL     1     180.279 180.683 181.078  1.00  0.00     0.004 C 
ENDBRANCH   7   8
ENDBRANCH   6   7
ENDBRANCH   5   6
ENDBRANCH   4   5
ENDBRANCH   3   4
ENDBRANCH   2   3
ENDBRANCH   1   2
BRANCH   1  10
ATOM     10  C   UNL     1     183.038 177.956 182.627  1.00  0.00     0.000 C 
BRANCH  10  11
ATOM     11  C   UNL     1     181.754 177.471 181.936  1.00  0.00     0.000 C 
BRANCH  11  12
ATOM     12  C   UNL     1     181.257 176.160 182.563  1.00  0.00     0.000 C 
BRANCH  12  13
ATOM     13  C   UNL     1     182.398 175.302 183.140  1.00  0.00     0.000 C 
BRANCH  13  14
ATOM     14  C   UNL     1     182.387 173.822 182.708  1.00  0.00     0.002 C 
BRANCH  14  15
ATOM     15  C   UNL     1     181.409 173.484 181.569  1.00  0.00     0.028 C 
BRANCH  15  16
ATOM     16  C   UNL     1     181.798 172.213 180.804  1.00  0.00     0.156 C 
BRANCH  16  17
ATOM     17  O   UNL     1     180.830 171.218 180.994  1.00  0.00    -0.396 OA
ATOM     18  H   UNL     1     180.736 171.097 181.975  1.00  0.00     0.210 HD
ENDBRANCH  16  17
ENDBRANCH  15  16
ENDBRANCH  14  15
ENDBRANCH  13  14
ENDBRANCH  12  13
ENDBRANCH  11  12
ENDBRANCH  10  11
ENDBRANCH   1  10
TORSDOF 15
ENDMDL
MODEL 2
REMARK VINA RESULT:    -4.304      4.498      7.203
REMARK INTER + INTRA:          -9.706
REMARK INTER:                  -8.059
REMARK INTRA:                  -1.647
REMARK UNBOUND:                -1.753
REMARK SMILES CCCCCCCCCCCCCCCCO
REMARK SMILES IDX 9 1 8 2 7 3 6 4 5 5 4 6 3 7 2 8 1 9 10 10 11 11 12 12 13 13
REMARK SMILES IDX 14 14 15 15 16 16 17 17
REMARK H PARENT 17 18
REMARK Flexibility Score: inf
ROOT
ATOM      1  C   UNL     1     180.136 178.817 183.229  1.00  0.00     0.000 C 
ENDROOT
BRANCH   1   2
ATOM      2  C   UNL     1     180.872 178.068 184.354  1.00  0.00    -0.000 C 
BRANCH   2   3
ATOM      3  C   UNL     1     180.891 178.858 185.674  1.00  0.00    -0.000 C 
BRANCH   3   4
ATOM      4  C   UNL     1     179.842 179.983 185.703  1.00  0.00    -0.000 C 
BRANCH   4   5
ATOM      5  C   UNL     1     180.391 181.287 186.306  1.00  0.00    -0.000 C 
BRANCH   5   6
ATOM      6  C   UNL     1     181.786 181.648 185.775  1.00  0.00    -0.000 C 
BRANCH   6   7
ATOM      7  C   UNL     1     182.798 181.756 186.924  1.00  0.00    -0.000 C 
BRANCH   7   8
ATOM      8  C   UNL     1     182.255 181.191 188.246  1.00  0.00    -0.003 C 
ATOM      9  C   UNL     1     182.961 179.905 188.675  1.00  0.00     0.004 C 
ENDBRANCH   7   8
ENDBRANCH   6   7
ENDBRANCH   5   6
ENDBRANCH   4   5
ENDBRANCH   3   4
ENDBRANCH   2   3
ENDBRANCH   1   2
BRANCH   1  10
ATOM     10  C   UNL     1     181.058 179.772 182.455  1.00  0.00     0.000 C 
BRANCH  10  11
ATOM     11  C   UNL     1     180.470 180.200 181.102  1.00  0.00     0.000 C 
BRANCH  11  12
ATOM     12  C   UNL     1     180.112 181.694 181.108  1.00  0.00     0.000 C 
BRANCH  12  13
ATOM     13  C   UNL     1     179.158 182.076 182.254  1.00  0.00     0.000 C 
BRANCH  13  14
ATOM     14  C   UNL     1     179.477 183.412 182.953  1.00  0.00     0.002 C 
BRANCH  14  15
ATOM     15  C   UNL     1     178.611 183.726 184.185  1.00  0.00     0.028 C 
BRANCH  15  16
ATOM     16  C   UNL     1     177.543 184.792 183.910  1.00  0.00     0.156 C 
BRANCH  16  17
ATOM     17  O   UNL     1     176.825 184.468 182.751  1.00  0.00    -0.396 OA
ATOM     18  H   UNL     1     177.342 183.761 182.284  1.00  0.00     0.210 HD
ENDBRANCH  16  17
ENDBRANCH  15  16
ENDBRANCH  14  15
ENDBRANCH  13  14
ENDBRANCH  12  13
ENDBRANCH  11  12
ENDBRANCH  10  11
ENDBRANCH   1  10
TORSDOF 15
ENDMDL
MODEL 3
REMARK VINA RESULT:    -4.258      4.423      6.769
REMARK INTER + INTRA:          -9.621
REMARK INTER:                  -6.895
REMARK INTRA:                  -2.726
REMARK UNBOUND:                -1.753
REMARK SMILES CCCCCCCCCCCCCCCCO
REMARK SMILES IDX 9 1 8 2 7 3 6 4 5 5 4 6 3 7 2 8 1 9 10 10 11 11 12 12 13 13
REMARK SMILES IDX 14 14 15 15 16 16 17 17
REMARK H PARENT 17 18
REMARK Flexibility Score: inf
ROOT
ATOM      1  C   UNL     1     183.615 181.050 185.282  1.00  0.00     0.000 C 
ENDROOT
BRANCH   1   2
ATOM      2  C   UNL     1     183.392 179.777 186.116  1.00  0.00    -0.000 C 
BRANCH   2   3
ATOM      3  C   UNL     1     182.076 179.816 186.912  1.00  0.00    -0.000 C 
BRANCH   3   4
ATOM      4  C   UNL     1     181.351 181.167 186.785  1.00  0.00    -0.000 C 
BRANCH   4   5
ATOM      5  C   UNL     1     180.001 181.047 186.058  1.00  0.00    -0.000 C 
BRANCH   5   6
ATOM      6  C   UNL     1     179.678 179.606 185.636  1.00  0.00    -0.000 C 
BRANCH   6   7
ATOM      7  C   UNL     1     179.362 179.533 184.135  1.00  0.00    -0.000 C 
BRANCH   7   8
ATOM      8  C   UNL     1     180.427 178.757 183.343  1.00  0.00    -0.003 C 
ATOM      9  C   UNL     1     180.956 177.540 184.101  1.00  0.00     0.004 C 
ENDBRANCH   7   8
ENDBRANCH   6   7
ENDBRANCH   5   6
ENDBRANCH   4   5
ENDBRANCH   3   4
ENDBRANCH   2   3
ENDBRANCH   1   2
BRANCH   1  10
ATOM     10  C   UNL     1     183.475 180.799 183.772  1.00  0.00     0.000 C 
BRANCH  10  11
ATOM     11  C   UNL     1     182.429 181.711 183.112  1.00  0.00     0.000 C 
BRANCH  11  12
ATOM     12  C   UNL     1     182.491 183.129 183.699  1.00  0.00     0.000 C 
BRANCH  12  13
ATOM     13  C   UNL     1     181.121 183.832 183.709  1.00  0.00     0.000 C 
BRANCH  13  14
ATOM     14  C   UNL     1     179.988 183.068 182.996  1.00  0.00     0.002 C 
BRANCH  14  15
ATOM     15  C   UNL     1     178.572 183.366 183.518  1.00  0.00     0.028 C 
BRANCH  15  16
ATOM     16  C   UNL     1     177.641 183.926 182.436  1.00  0.00     0.156 C 
BRANCH  16  17
ATOM     17  O   UNL     1     176.621 184.689 183.022  1.00  0.00    -0.396 OA
ATOM     18  H   UNL     1     176.023 184.978 182.284  1.00  0.00     0.210 HD
ENDBRANCH  16  17
ENDBRANCH  15  16
ENDBRANCH  14  15
ENDBRANCH  13  14
ENDBRANCH  12  13
ENDBRANCH  11  12
ENDBRANCH  10  11
ENDBRANCH   1  10
TORSDOF 15
ENDMDL
MODEL 4
REMARK VINA RESULT:    -4.177      3.978      6.064
REMARK INTER + INTRA:          -9.471
REMARK INTER:                  -7.020
REMARK INTRA:                  -2.451
REMARK UNBOUND:                -1.753
REMARK SMILES CCCCCCCCCCCCCCCCO
REMARK SMILES IDX 9 1 8 2 7 3 6 4 5 5 4 6 3 7 2 8 1 9 10 10 11 11 12 12 13 13
REMARK SMILES IDX 14 14 15 15 16 16 17 17
REMARK H PARENT 17 18
REMARK Flexibility Score: inf
ROOT
ATOM      1  C   UNL     1     182.908 178.207 182.810  1.00  0.00     0.000 C 
ENDROOT
BRANCH   1   2
ATOM      2  C   UNL     1     182.018 177.110 183.420  1.00  0.00    -0.000 C 
BRANCH   2   3
ATOM      3  C   UNL     1     180.607 177.618 183.760  1.00  0.00    -0.000 C 
BRANCH   3   4
ATOM      4  C   UNL     1     180.546 178.318 185.128  1.00  0.00    -0.000 C 
BRANCH   4   5
ATOM      5  C   UNL     1     179.633 179.556 185.119  1.00  0.00    -0.000 C 
BRANCH   5   6
ATOM      6  C   UNL     1     179.309 180.046 183.699  1.00  0.00    -0.000 C 
BRANCH   6   7
ATOM      7  C   UNL     1     180.022 181.372 183.401  1.00  0.00    -0.000 C 
BRANCH   7   8
ATOM      8  C   UNL     1     180.852 181.321 182.108  1.00  0.00    -0.003 C 
ATOM      9  C   UNL     1     180.314 180.304 181.101  1.00  0.00     0.004 C 
ENDBRANCH   7   8
ENDBRANCH   6   7
ENDBRANCH   5   6
ENDBRANCH   4   5
ENDBRANCH   3   4
ENDBRANCH   2   3
ENDBRANCH   1   2
BRANCH   1  10
ATOM     10  C   UNL     1     183.926 178.769 183.815  1.00  0.00     0.000 C 
BRANCH  10  11
ATOM     11  C   UNL     1     183.929 180.304 183.864  1.00  0.00     0.000 C 
BRANCH  11  12
ATOM     12  C   UNL     1     183.252 180.813 185.146  1.00  0.00     0.000 C 
BRANCH  12  13
ATOM     13  C   UNL     1     183.675 180.025 186.399  1.00  0.00     0.000 C 
BRANCH  13  14
ATOM     14  C   UNL     1     182.608 179.937 187.508  1.00  0.00     0.002 C 
BRANCH  14  15
ATOM     15  C   UNL     1     182.527 181.163 188.433  1.00  0.00     0.028 C 
BRANCH  15  16
ATOM     16  C   UNL     1     183.851 181.934 188.521  1.00  0.00     0.156 C 
BRANCH  16  17
ATOM     17  O   UNL     1     184.634 181.429 189.569  1.00  0.00    -0.396 OA
ATOM     18  H   UNL     1     185.430 181.008 189.150  1.00  0.00     0.210 HD
ENDBRANCH  16  17
ENDBRANCH  15  16
ENDBRANCH  14  15
ENDBRANCH  13  14
ENDBRANCH  12  13
ENDBRANCH  11  12
ENDBRANCH  10  11
ENDBRANCH   1  10
TORSDOF 15
ENDMDL
MODEL 5
REMARK VINA RESULT:    -4.135      1.092      2.662
REMARK INTER + INTRA:          -9.393
REMARK INTER:                  -7.615
REMARK INTRA:                  -1.778
REMARK UNBOUND:                -1.753
REMARK SMILES CCCCCCCCCCCCCCCCO
REMARK SMILES IDX 9 1 8 2 7 3 6 4 5 5 4 6 3 7 2 8 1 9 10 10 11 11 12 12 13 13
REMARK SMILES IDX 14 14 15 15 16 16 17 17
REMARK H PARENT 17 18
REMARK Flexibility Score: inf
ROOT
ATOM      1  C   UNL     1     182.757 180.380 182.213  1.00  0.00     0.000 C 
ENDROOT
BRANCH   1   2
ATOM      2  C   UNL     1     181.693 181.329 182.793  1.00  0.00    -0.000 C 
BRANCH   2   3
ATOM      3  C   UNL     1     180.277 181.008 182.286  1.00  0.00    -0.000 C 
BRANCH   3   4
ATOM      4  C   UNL     1     179.249 180.912 183.426  1.00  0.00    -0.000 C 
BRANCH   4   5
ATOM      5  C   UNL     1     179.146 179.494 184.011  1.00  0.00    -0.000 C 
BRANCH   5   6
ATOM      6  C   UNL     1     179.795 179.373 185.399  1.00  0.00    -0.000 C 
BRANCH   6   7
ATOM      7  C   UNL     1     179.932 180.752 186.061  1.00  0.00    -0.000 C 
BRANCH   7   8
ATOM      8  C   UNL     1     181.357 181.028 186.565  1.00  0.00    -0.003 C 
ATOM      9  C   UNL     1     182.244 179.783 186.542  1.00  0.00     0.004 C 
ENDBRANCH   7   8
ENDBRANCH   6   7
ENDBRANCH   5   6
ENDBRANCH   4   5
ENDBRANCH   3   4
ENDBRANCH   2   3
ENDBRANCH   1   2
BRANCH   1  10
ATOM     10  C   UNL     1     182.828 179.041 182.965  1.00  0.00     0.000 C 
BRANCH  10  11
ATOM     11  C   UNL     1     182.065 177.916 182.249  1.00  0.00     0.000 C 
BRANCH  11  12
ATOM     12  C   UNL     1     181.555 176.874 183.256  1.00  0.00     0.000 C 
BRANCH  12  13
ATOM     13  C   UNL     1     182.165 175.478 183.033  1.00  0.00     0.000 C 
BRANCH  13  14
ATOM     14  C   UNL     1     181.387 174.572 182.058  1.00  0.00     0.002 C 
BRANCH  14  15
ATOM     15  C   UNL     1     181.945 173.146 181.907  1.00  0.00     0.028 C 
BRANCH  15  16
ATOM     16  C   UNL     1     181.507 172.467 180.604  1.00  0.00     0.156 C 
BRANCH  16  17
ATOM     17  O   UNL     1     180.786 171.299 180.886  1.00  0.00    -0.396 OA
ATOM     18  H   UNL     1     180.918 171.111 181.852  1.00  0.00     0.210 HD
ENDBRANCH  16  17
ENDBRANCH  15  16
ENDBRANCH  14  15
ENDBRANCH  13  14
ENDBRANCH  12  13
ENDBRANCH  11  12
ENDBRANCH  10  11
ENDBRANCH   1  10
TORSDOF 15
ENDMDL
MODEL 6
REMARK VINA RESULT:    -4.100      4.275      6.782
REMARK INTER + INTRA:          -9.329
REMARK INTER:                  -7.121
REMARK INTRA:                  -2.208
REMARK UNBOUND:                -1.753
REMARK SMILES CCCCCCCCCCCCCCCCO
REMARK SMILES IDX 9 1 8 2 7 3 6 4 5 5 4 6 3 7 2 8 1 9 10 10 11 11 12 12 13 13
REMARK SMILES IDX 14 14 15 15 16 16 17 17
REMARK H PARENT 17 18
REMARK Flexibility Score: inf
ROOT
ATOM      1  C   UNL     1     182.714 178.758 183.921  1.00  0.00     0.000 C 
ENDROOT
BRANCH   1   2
ATOM      2  C   UNL     1     183.174 179.582 185.137  1.00  0.00    -0.000 C 
BRANCH   2   3
ATOM      3  C   UNL     1     182.996 181.095 184.925  1.00  0.00    -0.000 C 
BRANCH   3   4
ATOM      4  C   UNL     1     181.957 181.706 185.880  1.00  0.00    -0.000 C 
BRANCH   4   5
ATOM      5  C   UNL     1     181.506 180.721 186.972  1.00  0.00    -0.000 C 
BRANCH   5   6
ATOM      6  C   UNL     1     182.032 181.096 188.365  1.00  0.00    -0.000 C 
BRANCH   6   7
ATOM      7  C   UNL     1     183.092 180.091 188.840  1.00  0.00    -0.000 C 
BRANCH   7   8
ATOM      8  C   UNL     1     184.507 180.690 188.867  1.00  0.00    -0.003 C 
ATOM      9  C   UNL     1     184.519 182.190 188.570  1.00  0.00     0.004 C 
ENDBRANCH   7   8
ENDBRANCH   6   7
ENDBRANCH   5   6
ENDBRANCH   4   5
ENDBRANCH   3   4
ENDBRANCH   2   3
ENDBRANCH   1   2
BRANCH   1  10
ATOM     10  C   UNL     1     181.433 177.956 184.201  1.00  0.00     0.000 C 
BRANCH  10  11
ATOM     11  C   UNL     1     180.219 178.483 183.422  1.00  0.00     0.000 C 
BRANCH  11  12
ATOM     12  C   UNL     1     179.387 179.442 184.287  1.00  0.00     0.000 C 
BRANCH  12  13
ATOM     13  C   UNL     1     179.199 180.825 183.637  1.00  0.00     0.000 C 
BRANCH  13  14
ATOM     14  C   UNL     1     180.023 181.063 182.356  1.00  0.00     0.002 C 
BRANCH  14  15
ATOM     15  C   UNL     1     180.250 182.540 181.993  1.00  0.00     0.028 C 
BRANCH  15  16
ATOM     16  C   UNL     1     179.029 183.422 182.284  1.00  0.00     0.156 C 
BRANCH  16  17
ATOM     17  O   UNL     1     179.297 184.751 181.928  1.00  0.00    -0.396 OA
ATOM     18  H   UNL     1     178.813 185.322 182.580  1.00  0.00     0.210 HD
ENDBRANCH  16  17
ENDBRANCH  15  16
ENDBRANCH  14  15
ENDBRANCH  13  14
ENDBRANCH  12  13
ENDBRANCH  11  12
ENDBRANCH  10  11
ENDBRANCH   1  10
TORSDOF 15
ENDMDL
MODEL 7
REMARK VINA RESULT:    -4.072      4.285      7.114
REMARK INTER + INTRA:          -9.276
REMARK INTER:                  -7.700
REMARK INTRA:                  -1.577
REMARK UNBOUND:                -1.753
REMARK SMILES CCCCCCCCCCCCCCCCO
REMARK SMILES IDX 9 1 8 2 7 3 6 4 5 5 4 6 3 7 2 8 1 9 10 10 11 11 12 12 13 13
REMARK SMILES IDX 14 14 15 15 16 16 17 17
REMARK H PARENT 17 18
REMARK Flexibility Score: inf
ROOT
ATOM      1  C   UNL     1     182.781 179.185 181.299  1.00  0.00     0.000 C 
ENDROOT
BRANCH   1   2
ATOM      2  C   UNL     1     182.026 177.920 181.742  1.00  0.00    -0.000 C 
BRANCH   2   3
ATOM      3  C   UNL     1     182.299 177.554 183.210  1.00  0.00    -0.000 C 
BRANCH   3   4
ATOM      4  C   UNL     1     181.011 177.245 183.991  1.00  0.00    -0.000 C 
BRANCH   4   5
ATOM      5  C   UNL     1     180.588 178.399 184.915  1.00  0.00    -0.000 C 
BRANCH   5   6
ATOM      6  C   UNL     1     181.777 179.251 185.386  1.00  0.00    -0.000 C 
BRANCH   6   7
ATOM      7  C   UNL     1     181.312 180.649 185.818  1.00  0.00    -0.000 C 
BRANCH   7   8
ATOM      8  C   UNL     1     182.315 181.344 186.753  1.00  0.00    -0.003 C 
ATOM      9  C   UNL     1     182.104 180.979 188.222  1.00  0.00     0.004 C 
ENDBRANCH   7   8
ENDBRANCH   6   7
ENDBRANCH   5   6
ENDBRANCH   4   5
ENDBRANCH   3   4
ENDBRANCH   2   3
ENDBRANCH   1   2
BRANCH   1  10
ATOM     10  C   UNL     1     181.904 180.446 181.354  1.00  0.00     0.000 C 
BRANCH  10  11
ATOM     11  C   UNL     1     180.402 180.125 181.385  1.00  0.00     0.000 C 
BRANCH  11  12
ATOM     12  C   UNL     1     179.575 181.395 181.635  1.00  0.00     0.000 C 
BRANCH  12  13
ATOM     13  C   UNL     1     178.961 181.441 183.046  1.00  0.00     0.000 C 
BRANCH  13  14
ATOM     14  C   UNL     1     179.007 182.820 183.734  1.00  0.00     0.002 C 
BRANCH  14  15
ATOM     15  C   UNL     1     178.237 183.936 183.008  1.00  0.00     0.028 C 
BRANCH  15  16
ATOM     16  C   UNL     1     177.314 184.730 183.940  1.00  0.00     0.156 C 
BRANCH  16  17
ATOM     17  O   UNL     1     176.205 185.210 183.229  1.00  0.00    -0.396 OA
ATOM     18  H   UNL     1     175.720 184.413 182.889  1.00  0.00     0.210 HD
ENDBRANCH  16  17
ENDBRANCH  15  16
ENDBRANCH  14  15
ENDBRANCH  13  14
ENDBRANCH  12  13
ENDBRANCH  11  12
ENDBRANCH  10  11
ENDBRANCH   1  10
TORSDOF 15
ENDMDL
MODEL 8
REMARK VINA RESULT:    -4.054      4.139      6.353
REMARK INTER + INTRA:          -9.243
REMARK INTER:                  -7.520
REMARK INTRA:                  -1.723
REMARK UNBOUND:                -1.753
REMARK SMILES CCCCCCCCCCCCCCCCO
REMARK SMILES IDX 9 1 8 2 7 3 6 4 5 5 4 6 3 7 2 8 1 9 10 10 11 11 12 12 13 13
REMARK SMILES IDX 14 14 15 15 16 16 17 17
REMARK H PARENT 17 18
REMARK Flexibility Score: inf
ROOT
ATOM      1  C   UNL     1     180.902 177.824 184.292  1.00  0.00     0.000 C 
ENDROOT
BRANCH   1   2
ATOM      2  C   UNL     1     181.623 177.790 182.933  1.00  0.00    -0.000 C 
BRANCH   2   3
ATOM      3  C   UNL     1     182.288 179.133 182.585  1.00  0.00    -0.000 C 
BRANCH   3   4
ATOM      4  C   UNL     1     181.904 179.636 181.183  1.00  0.00    -0.000 C 
BRANCH   4   5
ATOM      5  C   UNL     1     180.466 180.179 181.123  1.00  0.00    -0.000 C 
BRANCH   5   6
ATOM      6  C   UNL     1     180.319 181.550 181.798  1.00  0.00    -0.000 C 
BRANCH   6   7
ATOM      7  C   UNL     1     178.881 181.766 182.292  1.00  0.00    -0.000 C 
BRANCH   7   8
ATOM      8  C   UNL     1     178.735 183.030 183.155  1.00  0.00    -0.003 C 
ATOM      9  C   UNL     1     177.588 183.930 182.695  1.00  0.00     0.004 C 
ENDBRANCH   7   8
ENDBRANCH   6   7
ENDBRANCH   5   6
ENDBRANCH   4   5
ENDBRANCH   3   4
ENDBRANCH   2   3
ENDBRANCH   1   2
BRANCH   1  10
ATOM     10  C   UNL     1     179.771 178.863 184.335  1.00  0.00     0.000 C 
BRANCH  10  11
ATOM     11  C   UNL     1     179.762 179.679 185.637  1.00  0.00     0.000 C 
BRANCH  11  12
ATOM     12  C   UNL     1     180.680 180.905 185.520  1.00  0.00     0.000 C 
BRANCH  12  13
ATOM     13  C   UNL     1     181.631 181.058 186.722  1.00  0.00     0.000 C 
BRANCH  13  14
ATOM     14  C   UNL     1     182.382 179.775 187.129  1.00  0.00     0.002 C 
BRANCH  14  15
ATOM     15  C   UNL     1     183.124 179.854 188.474  1.00  0.00     0.028 C 
BRANCH  15  16
ATOM     16  C   UNL     1     184.309 180.827 188.448  1.00  0.00     0.156 C 
BRANCH  16  17
ATOM     17  O   UNL     1     184.720 181.123 189.755  1.00  0.00    -0.396 OA
ATOM     18  H   UNL     1     185.223 180.332 190.081  1.00  0.00     0.210 HD
ENDBRANCH  16  17
ENDBRANCH  15  16
ENDBRANCH  14  15
ENDBRANCH  13  14
ENDBRANCH  12  13
ENDBRANCH  11  12
ENDBRANCH  10  11
ENDBRANCH   1  10
TORSDOF 15
ENDMDL
MODEL 9
REMARK VINA RESULT:    -4.038      1.747      4.001
REMARK INTER + INTRA:          -9.214
REMARK INTER:                  -6.737
REMARK INTRA:                  -2.477
REMARK UNBOUND:                -1.753
REMARK SMILES CCCCCCCCCCCCCCCCO
REMARK SMILES IDX 9 1 8 2 7 3 6 4 5 5 4 6 3 7 2 8 1 9 10 10 11 11 12 12 13 13
REMARK SMILES IDX 14 14 15 15 16 16 17 17
REMARK H PARENT 17 18
REMARK Flexibility Score: inf
ROOT
ATOM      1  C   UNL     1     181.698 182.450 181.688  1.00  0.00     0.000 C 
ENDROOT
BRANCH   1   2
ATOM      2  C   UNL     1     180.365 183.053 182.166  1.00  0.00    -0.000 C 
BRANCH   2   3
ATOM      3  C   UNL     1     179.733 182.251 183.315  1.00  0.00    -0.000 C 
BRANCH   3   4
ATOM      4  C   UNL     1     179.074 180.947 182.833  1.00  0.00    -0.000 C 
BRANCH   4   5
ATOM      5  C   UNL     1     179.169 179.817 183.871  1.00  0.00    -0.000 C 
BRANCH   5   6
ATOM      6  C   UNL     1     179.882 180.252 185.161  1.00  0.00    -0.000 C 
BRANCH   6   7
ATOM      7  C   UNL     1     180.750 179.114 185.716  1.00  0.00    -0.000 C 
BRANCH   7   8
ATOM      8  C   UNL     1     182.028 179.626 186.400  1.00  0.00    -0.003 C 
ATOM      9  C   UNL     1     181.866 181.029 186.983  1.00  0.00     0.004 C 
ENDBRANCH   7   8
ENDBRANCH   6   7
ENDBRANCH   5   6
ENDBRANCH   4   5
ENDBRANCH   3   4
ENDBRANCH   2   3
ENDBRANCH   1   2
BRANCH   1  10
ATOM     10  C   UNL     1     182.587 181.988 182.852  1.00  0.00     0.000 C 
BRANCH  10  11
ATOM     11  C   UNL     1     182.878 180.480 182.817  1.00  0.00     0.000 C 
BRANCH  11  12
ATOM     12  C   UNL     1     182.294 179.839 181.549  1.00  0.00     0.000 C 
BRANCH  12  13
ATOM     13  C   UNL     1     181.829 178.388 181.771  1.00  0.00     0.000 C 
BRANCH  13  14
ATOM     14  C   UNL     1     182.498 177.661 182.955  1.00  0.00     0.002 C 
BRANCH  14  15
ATOM     15  C   UNL     1     181.818 176.349 183.381  1.00  0.00     0.028 C 
BRANCH  15  16
ATOM     16  C   UNL     1     182.537 175.103 182.848  1.00  0.00     0.156 C 
BRANCH  16  17
ATOM     17  O   UNL     1     182.008 173.949 183.442  1.00  0.00    -0.396 OA
ATOM     18  H   UNL     1     181.026 173.980 183.298  1.00  0.00     0.210 HD
ENDBRANCH  16  17
ENDBRANCH  15  16
ENDBRANCH  14  15
ENDBRANCH  13  14
ENDBRANCH  12  13
ENDBRANCH  11  12
ENDBRANCH  10  11
ENDBRANCH   1  10
TORSDOF 15
ENDMDL
