MODEL 1
REMARK VINA RESULT:    -6.412      0.000      0.000
REMARK INTER + INTRA:          -8.211
REMARK INTER:                  -7.911
REMARK INTRA:                  -0.300
REMARK UNBOUND:                -0.300
REMARK SMILES O=c1c(O)c(-c2cc(O)c(O)c(O)c2)oc2cc(O)cc(O)c12
REMARK SMILES IDX 5 1 3 2 2 3 1 4 23 5 21 6 20 7 18 8 17 9 16 10 15 11 6 12
REMARK SMILES IDX 7 13 8 14 14 15 10 16 12 17 9 18 11 20 13 22 4 24 22 26
REMARK SMILES IDX 19 28
REMARK H PARENT 9 19 11 21 13 23 4 25 22 27 19 29
REMARK Flexibility Score: inf
ROOT
ATOM      1  C   UNL     1     105.992  42.893 136.040  1.00  0.00     0.180 A 
ATOM      2  C   UNL     1     106.673  42.122 135.082  1.00  0.00     0.208 A 
ATOM      3  C   UNL     1     107.772  41.348 135.487  1.00  0.00     0.238 A 
ATOM      4  O   UNL     1     108.344  40.618 134.638  1.00  0.00    -0.285 OA
ATOM      5  C   UNL     1     108.185  41.367 136.842  1.00  0.00     0.111 A 
ATOM      6  C   UNL     1     109.309  40.653 137.356  1.00  0.00     0.134 A 
ATOM      7  C   UNL     1     109.547  40.642 138.736  1.00  0.00     0.093 A 
ATOM      8  C   UNL     1     108.740  41.371 139.612  1.00  0.00     0.123 A 
ATOM      9  C   UNL     1     107.677  42.119 139.113  1.00  0.00     0.094 A 
ATOM     10  C   UNL     1     107.392  42.121 137.746  1.00  0.00     0.146 A 
ATOM     11  O   UNL     1     106.362  42.839 137.313  1.00  0.00    -0.452 OA
ENDROOT
BRANCH   1  12
ATOM     12  C   UNL     1     104.840  43.754 135.683  1.00  0.00     0.029 A 
ATOM     13  C   UNL     1     105.029  45.137 135.548  1.00  0.00     0.062 A 
ATOM     14  C   UNL     1     103.960  45.971 135.191  1.00  0.00     0.162 A 
ATOM     15  C   UNL     1     103.573  43.207 135.418  1.00  0.00     0.062 A 
ATOM     16  C   UNL     1     102.693  45.423 134.950  1.00  0.00     0.200 A 
ATOM     17  C   UNL     1     102.500  44.036 135.059  1.00  0.00     0.162 A 
BRANCH  14  18
ATOM     18  O   UNL     1     104.150  47.347 135.073  1.00  0.00    -0.504 OA
ATOM     19  H   UNL     1     104.736  47.741 134.348  1.00  0.00     0.293 HD
ENDBRANCH  14  18
BRANCH  16  20
ATOM     20  O   UNL     1     101.641  46.268 134.598  1.00  0.00    -0.502 OA
ATOM     21  H   UNL     1     101.702  46.907 133.812  1.00  0.00     0.293 HD
ENDBRANCH  16  20
BRANCH  17  22
ATOM     22  O   UNL     1     101.245  43.484 134.806  1.00  0.00    -0.504 OA
ATOM     23  H   UNL     1     100.404  43.861 135.225  1.00  0.00     0.293 HD
ENDBRANCH  17  22
ENDBRANCH   1  12
BRANCH   2  24
ATOM     24  O   UNL     1     106.235  42.101 133.755  1.00  0.00    -0.502 OA
ATOM     25  H   UNL     1     106.769  41.666 133.012  1.00  0.00     0.293 HD
ENDBRANCH   2  24
BRANCH   6  26
ATOM     26  O   UNL     1     110.231  39.969 136.559  1.00  0.00    -0.507 OA
ATOM     27  H   UNL     1     110.171  39.886 135.554  1.00  0.00     0.293 HD
ENDBRANCH   6  26
BRANCH   8  28
ATOM     28  O   UNL     1     108.994  41.367 140.983  1.00  0.00    -0.508 OA
ATOM     29  H   UNL     1     109.766  41.889 141.381  1.00  0.00     0.293 HD
ENDBRANCH   8  28
TORSDOF 7
ENDMDL
MODEL 2
REMARK VINA RESULT:    -6.357      0.085      1.751
REMARK INTER + INTRA:          -8.143
REMARK INTER:                  -7.834
REMARK INTRA:                  -0.309
REMARK UNBOUND:                -0.300
REMARK SMILES O=c1c(O)c(-c2cc(O)c(O)c(O)c2)oc2cc(O)cc(O)c12
REMARK SMILES IDX 5 1 3 2 2 3 1 4 23 5 21 6 20 7 18 8 17 9 16 10 15 11 6 12
REMARK SMILES IDX 7 13 8 14 14 15 10 16 12 17 9 18 11 20 13 22 4 24 22 26
REMARK SMILES IDX 19 28
REMARK H PARENT 9 19 11 21 13 23 4 25 22 27 19 29
REMARK Flexibility Score: inf
ROOT
ATOM      1  C   UNL     1     106.031  42.847 136.021  1.00  0.00     0.180 A 
ATOM      2  C   UNL     1     106.709  42.051 135.082  1.00  0.00     0.208 A 
ATOM      3  C   UNL     1     107.787  41.260 135.511  1.00  0.00     0.238 A 
ATOM      4  O   UNL     1     108.355  40.508 134.678  1.00  0.00    -0.285 OA
ATOM      5  C   UNL     1     108.182  41.288 136.870  1.00  0.00     0.111 A 
ATOM      6  C   UNL     1     109.286  40.559 137.408  1.00  0.00     0.134 A 
ATOM      7  C   UNL     1     109.506  40.559 138.791  1.00  0.00     0.093 A 
ATOM      8  C   UNL     1     108.703  41.316 139.647  1.00  0.00     0.123 A 
ATOM      9  C   UNL     1     107.661  42.078 139.125  1.00  0.00     0.094 A 
ATOM     10  C   UNL     1     107.393  42.069 137.754  1.00  0.00     0.146 A 
ATOM     11  O   UNL     1     106.384  42.802 137.300  1.00  0.00    -0.452 OA
ENDROOT
BRANCH   1  12
ATOM     12  C   UNL     1     104.901  43.726 135.639  1.00  0.00     0.029 A 
ATOM     13  C   UNL     1     103.628  43.169 135.447  1.00  0.00     0.062 A 
ATOM     14  C   UNL     1     102.538  43.981 135.105  1.00  0.00     0.162 A 
ATOM     15  C   UNL     1     105.064  45.117 135.521  1.00  0.00     0.062 A 
ATOM     16  C   UNL     1     102.712  45.365 134.968  1.00  0.00     0.200 A 
ATOM     17  C   UNL     1     103.978  45.935 135.180  1.00  0.00     0.162 A 
BRANCH  14  18
ATOM     18  O   UNL     1     101.279  43.421 134.902  1.00  0.00    -0.504 OA
ATOM     19  H   UNL     1     101.145  42.418 134.861  1.00  0.00     0.293 HD
ENDBRANCH  14  18
BRANCH  16  20
ATOM     20  O   UNL     1     101.617  46.158 134.625  1.00  0.00    -0.502 OA
ATOM     21  H   UNL     1     101.168  46.776 135.292  1.00  0.00     0.293 HD
ENDBRANCH  16  20
BRANCH  17  22
ATOM     22  O   UNL     1     104.152  47.313 135.059  1.00  0.00    -0.504 OA
ATOM     23  H   UNL     1     104.920  47.793 135.512  1.00  0.00     0.293 HD
ENDBRANCH  17  22
ENDBRANCH   1  12
BRANCH   2  24
ATOM     24  O   UNL     1     106.287  42.022 133.750  1.00  0.00    -0.502 OA
ATOM     25  H   UNL     1     106.213  42.859 133.184  1.00  0.00     0.293 HD
ENDBRANCH   2  24
BRANCH   6  26
ATOM     26  O   UNL     1     110.203  39.846 136.631  1.00  0.00    -0.507 OA
ATOM     27  H   UNL     1     109.964  39.085 136.013  1.00  0.00     0.293 HD
ENDBRANCH   6  26
BRANCH   8  28
ATOM     28  O   UNL     1     108.939  41.324 141.021  1.00  0.00    -0.508 OA
ATOM     29  H   UNL     1     109.691  40.783 141.433  1.00  0.00     0.293 HD
ENDBRANCH   8  28
TORSDOF 7
ENDMDL
MODEL 3
REMARK VINA RESULT:    -5.989      3.559      4.589
REMARK INTER + INTRA:          -7.689
REMARK INTER:                  -7.432
REMARK INTRA:                  -0.256
REMARK UNBOUND:                -0.300
REMARK SMILES O=c1c(O)c(-c2cc(O)c(O)c(O)c2)oc2cc(O)cc(O)c12
REMARK SMILES IDX 5 1 3 2 2 3 1 4 23 5 21 6 20 7 18 8 17 9 16 10 15 11 6 12
REMARK SMILES IDX 7 13 8 14 14 15 10 16 12 17 9 18 11 20 13 22 4 24 22 26
REMARK SMILES IDX 19 28
REMARK H PARENT 9 19 11 21 13 23 4 25 22 27 19 29
REMARK Flexibility Score: inf
ROOT
ATOM      1  C   UNL     1     107.645  45.308 137.763  1.00  0.00     0.180 A 
ATOM      2  C   UNL     1     107.625  45.005 136.391  1.00  0.00     0.208 A 
ATOM      3  C   UNL     1     108.117  43.763 135.959  1.00  0.00     0.238 A 
ATOM      4  O   UNL     1     108.046  43.475 134.737  1.00  0.00    -0.285 OA
ATOM      5  C   UNL     1     108.635  42.845 136.905  1.00  0.00     0.111 A 
ATOM      6  C   UNL     1     109.197  41.574 136.576  1.00  0.00     0.134 A 
ATOM      7  C   UNL     1     109.560  40.694 137.603  1.00  0.00     0.093 A 
ATOM      8  C   UNL     1     109.444  41.065 138.944  1.00  0.00     0.123 A 
ATOM      9  C   UNL     1     108.954  42.326 139.273  1.00  0.00     0.094 A 
ATOM     10  C   UNL     1     108.549  43.213 138.273  1.00  0.00     0.146 A 
ATOM     11  O   UNL     1     108.077  44.401 138.630  1.00  0.00    -0.452 OA
ENDROOT
BRANCH   1  12
ATOM     12  C   UNL     1     107.167  46.608 138.290  1.00  0.00     0.029 A 
ATOM     13  C   UNL     1     105.791  46.879 138.311  1.00  0.00     0.062 A 
ATOM     14  C   UNL     1     105.312  48.093 138.823  1.00  0.00     0.162 A 
ATOM     15  C   UNL     1     108.060  47.552 138.824  1.00  0.00     0.062 A 
ATOM     16  C   UNL     1     106.209  49.041 139.335  1.00  0.00     0.200 A 
ATOM     17  C   UNL     1     107.587  48.768 139.339  1.00  0.00     0.162 A 
BRANCH  14  18
ATOM     18  O   UNL     1     103.945  48.364 138.829  1.00  0.00    -0.504 OA
ATOM     19  H   UNL     1     103.380  48.221 139.656  1.00  0.00     0.293 HD
ENDBRANCH  14  18
BRANCH  16  20
ATOM     20  O   UNL     1     105.714  50.243 139.839  1.00  0.00    -0.502 OA
ATOM     21  H   UNL     1     105.834  51.123 139.349  1.00  0.00     0.293 HD
ENDBRANCH  16  20
BRANCH  17  22
ATOM     22  O   UNL     1     108.482  49.701 139.861  1.00  0.00    -0.504 OA
ATOM     23  H   UNL     1     108.441  49.992 140.830  1.00  0.00     0.293 HD
ENDBRANCH  17  22
ENDBRANCH   1  12
BRANCH   2  24
ATOM     24  O   UNL     1     107.088  45.917 135.477  1.00  0.00    -0.502 OA
ATOM     25  H   UNL     1     106.372  46.587 135.733  1.00  0.00     0.293 HD
ENDBRANCH   2  24
BRANCH   6  26
ATOM     26  O   UNL     1     109.440  41.143 135.269  1.00  0.00    -0.507 OA
ATOM     27  H   UNL     1     109.603  40.183 135.002  1.00  0.00     0.293 HD
ENDBRANCH   6  26
BRANCH   8  28
ATOM     28  O   UNL     1     109.823  40.189 139.960  1.00  0.00    -0.508 OA
ATOM     29  H   UNL     1     110.184  40.527 140.844  1.00  0.00     0.293 HD
ENDBRANCH   8  28
TORSDOF 7
ENDMDL
MODEL 4
REMARK VINA RESULT:    -5.987      3.608      5.525
REMARK INTER + INTRA:          -7.686
REMARK INTER:                  -7.654
REMARK INTRA:                  -0.032
REMARK UNBOUND:                -0.300
REMARK SMILES O=c1c(O)c(-c2cc(O)c(O)c(O)c2)oc2cc(O)cc(O)c12
REMARK SMILES IDX 5 1 3 2 2 3 1 4 23 5 21 6 20 7 18 8 17 9 16 10 15 11 6 12
REMARK SMILES IDX 7 13 8 14 14 15 10 16 12 17 9 18 11 20 13 22 4 24 22 26
REMARK SMILES IDX 19 28
REMARK H PARENT 9 19 11 21 13 23 4 25 22 27 19 29
REMARK Flexibility Score: inf
ROOT
ATOM      1  C   UNL     1     108.192  44.895 138.369  1.00  0.00     0.180 A 
ATOM      2  C   UNL     1     108.866  44.070 139.285  1.00  0.00     0.208 A 
ATOM      3  C   UNL     1     109.236  42.774 138.891  1.00  0.00     0.238 A 
ATOM      4  O   UNL     1     109.887  42.059 139.696  1.00  0.00    -0.285 OA
ATOM      5  C   UNL     1     108.914  42.315 137.591  1.00  0.00     0.111 A 
ATOM      6  C   UNL     1     109.204  41.007 137.098  1.00  0.00     0.134 A 
ATOM      7  C   UNL     1     108.957  40.705 135.753  1.00  0.00     0.093 A 
ATOM      8  C   UNL     1     108.369  41.642 134.901  1.00  0.00     0.123 A 
ATOM      9  C   UNL     1     108.027  42.901 135.388  1.00  0.00     0.094 A 
ATOM     10  C   UNL     1     108.295  43.245 136.715  1.00  0.00     0.146 A 
ATOM     11  O   UNL     1     107.962  44.460 137.136  1.00  0.00    -0.452 OA
ENDROOT
BRANCH   1  12
ATOM     12  C   UNL     1     107.748  46.264 138.721  1.00  0.00     0.029 A 
ATOM     13  C   UNL     1     106.402  46.619 138.544  1.00  0.00     0.062 A 
ATOM     14  C   UNL     1     105.952  47.900 138.888  1.00  0.00     0.162 A 
ATOM     15  C   UNL     1     108.634  47.199 139.283  1.00  0.00     0.062 A 
ATOM     16  C   UNL     1     106.845  48.836 139.429  1.00  0.00     0.200 A 
ATOM     17  C   UNL     1     108.189  48.482 139.631  1.00  0.00     0.162 A 
BRANCH  14  18
ATOM     18  O   UNL     1     104.617  48.253 138.698  1.00  0.00    -0.504 OA
ATOM     19  H   UNL     1     103.865  47.598 138.875  1.00  0.00     0.293 HD
ENDBRANCH  14  18
BRANCH  16  20
ATOM     20  O   UNL     1     106.379  50.107 139.764  1.00  0.00    -0.502 OA
ATOM     21  H   UNL     1     106.446  50.475 140.706  1.00  0.00     0.293 HD
ENDBRANCH  16  20
BRANCH  17  22
ATOM     22  O   UNL     1     109.078  49.404 140.182  1.00  0.00    -0.504 OA
ATOM     23  H   UNL     1     109.898  49.109 140.697  1.00  0.00     0.293 HD
ENDBRANCH  17  22
ENDBRANCH   1  12
BRANCH   2  24
ATOM     24  O   UNL     1     109.193  44.551 140.556  1.00  0.00    -0.502 OA
ATOM     25  H   UNL     1     109.173  45.537 140.787  1.00  0.00     0.293 HD
ENDBRANCH   2  24
BRANCH   6  26
ATOM     26  O   UNL     1     109.707  39.969 137.888  1.00  0.00    -0.507 OA
ATOM     27  H   UNL     1     110.603  39.982 138.351  1.00  0.00     0.293 HD
ENDBRANCH   6  26
BRANCH   8  28
ATOM     28  O   UNL     1     108.111  41.329 133.568  1.00  0.00    -0.508 OA
ATOM     29  H   UNL     1     108.850  41.316 132.874  1.00  0.00     0.293 HD
ENDBRANCH   8  28
TORSDOF 7
ENDMDL
MODEL 5
REMARK VINA RESULT:    -5.947      3.609      4.391
REMARK INTER + INTRA:          -7.637
REMARK INTER:                  -7.411
REMARK INTRA:                  -0.227
REMARK UNBOUND:                -0.300
REMARK SMILES O=c1c(O)c(-c2cc(O)c(O)c(O)c2)oc2cc(O)cc(O)c12
REMARK SMILES IDX 5 1 3 2 2 3 1 4 23 5 21 6 20 7 18 8 17 9 16 10 15 11 6 12
REMARK SMILES IDX 7 13 8 14 14 15 10 16 12 17 9 18 11 20 13 22 4 24 22 26
REMARK SMILES IDX 19 28
REMARK H PARENT 9 19 11 21 13 23 4 25 22 27 19 29
REMARK Flexibility Score: inf
ROOT
ATOM      1  C   UNL     1     107.639  45.311 137.853  1.00  0.00     0.180 A 
ATOM      2  C   UNL     1     107.620  45.021 136.478  1.00  0.00     0.208 A 
ATOM      3  C   UNL     1     108.102  43.778 136.037  1.00  0.00     0.238 A 
ATOM      4  O   UNL     1     108.033  43.502 134.812  1.00  0.00    -0.285 OA
ATOM      5  C   UNL     1     108.610  42.847 136.976  1.00  0.00     0.111 A 
ATOM      6  C   UNL     1     109.162  41.574 136.637  1.00  0.00     0.134 A 
ATOM      7  C   UNL     1     109.514  40.682 137.657  1.00  0.00     0.093 A 
ATOM      8  C   UNL     1     109.399  41.042 139.001  1.00  0.00     0.123 A 
ATOM      9  C   UNL     1     108.919  42.305 139.340  1.00  0.00     0.094 A 
ATOM     10  C   UNL     1     108.523  43.204 138.347  1.00  0.00     0.146 A 
ATOM     11  O   UNL     1     108.061  44.393 138.713  1.00  0.00    -0.452 OA
ENDROOT
BRANCH   1  12
ATOM     12  C   UNL     1     107.171  46.610 138.390  1.00  0.00     0.029 A 
ATOM     13  C   UNL     1     108.106  47.519 138.908  1.00  0.00     0.062 A 
ATOM     14  C   UNL     1     107.693  48.762 139.404  1.00  0.00     0.162 A 
ATOM     15  C   UNL     1     105.816  46.977 138.338  1.00  0.00     0.062 A 
ATOM     16  C   UNL     1     106.336  49.115 139.369  1.00  0.00     0.200 A 
ATOM     17  C   UNL     1     105.396  48.221 138.831  1.00  0.00     0.162 A 
BRANCH  14  18
ATOM     18  O   UNL     1     108.623  49.656 139.931  1.00  0.00    -0.504 OA
ATOM     19  H   UNL     1     109.617  49.458 139.913  1.00  0.00     0.293 HD
ENDBRANCH  14  18
BRANCH  16  20
ATOM     20  O   UNL     1     105.943  50.356 139.869  1.00  0.00    -0.502 OA
ATOM     21  H   UNL     1     105.695  51.128 139.260  1.00  0.00     0.293 HD
ENDBRANCH  16  20
BRANCH  17  22
ATOM     22  O   UNL     1     104.048  48.573 138.782  1.00  0.00    -0.504 OA
ATOM     23  H   UNL     1     103.320  47.931 139.072  1.00  0.00     0.293 HD
ENDBRANCH  17  22
ENDBRANCH   1  12
BRANCH   2  24
ATOM     24  O   UNL     1     107.094  45.945 135.571  1.00  0.00    -0.502 OA
ATOM     25  H   UNL     1     107.361  46.923 135.573  1.00  0.00     0.293 HD
ENDBRANCH   2  24
BRANCH   6  26
ATOM     26  O   UNL     1     109.405  41.152 135.327  1.00  0.00    -0.507 OA
ATOM     27  H   UNL     1     109.273  40.209 134.993  1.00  0.00     0.293 HD
ENDBRANCH   6  26
BRANCH   8  28
ATOM     28  O   UNL     1     109.767  40.154 140.010  1.00  0.00    -0.508 OA
ATOM     29  H   UNL     1     110.275  39.301 139.806  1.00  0.00     0.293 HD
ENDBRANCH   8  28
TORSDOF 7
ENDMDL
MODEL 6
REMARK VINA RESULT:    -5.842      4.314      7.611
REMARK INTER + INTRA:          -7.508
REMARK INTER:                  -7.393
REMARK INTRA:                  -0.115
REMARK UNBOUND:                -0.300
REMARK SMILES O=c1c(O)c(-c2cc(O)c(O)c(O)c2)oc2cc(O)cc(O)c12
REMARK SMILES IDX 5 1 3 2 2 3 1 4 23 5 21 6 20 7 18 8 17 9 16 10 15 11 6 12
REMARK SMILES IDX 7 13 8 14 14 15 10 16 12 17 9 18 11 20 13 22 4 24 22 26
REMARK SMILES IDX 19 28
REMARK H PARENT 9 19 11 21 13 23 4 25 22 27 19 29
REMARK Flexibility Score: inf
ROOT
ATOM      1  C   UNL     1     107.597  45.651 138.380  1.00  0.00     0.180 A 
ATOM      2  C   UNL     1     106.223  45.856 138.169  1.00  0.00     0.208 A 
ATOM      3  C   UNL     1     105.656  47.090 138.526  1.00  0.00     0.238 A 
ATOM      4  O   UNL     1     104.437  47.288 138.285  1.00  0.00    -0.285 OA
ATOM      5  C   UNL     1     106.467  48.097 139.102  1.00  0.00     0.111 A 
ATOM      6  C   UNL     1     105.991  49.370 139.539  1.00  0.00     0.134 A 
ATOM      7  C   UNL     1     106.905  50.337 139.974  1.00  0.00     0.093 A 
ATOM      8  C   UNL     1     108.270  50.054 140.051  1.00  0.00     0.123 A 
ATOM      9  C   UNL     1     108.738  48.795 139.685  1.00  0.00     0.094 A 
ATOM     10  C   UNL     1     107.855  47.821 139.211  1.00  0.00     0.146 A 
ATOM     11  O   UNL     1     108.344  46.637 138.862  1.00  0.00    -0.452 OA
ENDROOT
BRANCH   1  12
ATOM     12  C   UNL     1     108.261  44.367 138.053  1.00  0.00     0.029 A 
ATOM     13  C   UNL     1     108.884  43.633 139.074  1.00  0.00     0.062 A 
ATOM     14  C   UNL     1     109.502  42.407 138.795  1.00  0.00     0.162 A 
ATOM     15  C   UNL     1     108.230  43.839 136.751  1.00  0.00     0.062 A 
ATOM     16  C   UNL     1     109.486  41.895 137.490  1.00  0.00     0.200 A 
ATOM     17  C   UNL     1     108.845  42.611 136.466  1.00  0.00     0.162 A 
BRANCH  14  18
ATOM     18  O   UNL     1     110.132  41.688 139.809  1.00  0.00    -0.504 OA
ATOM     19  H   UNL     1     109.602  41.164 140.495  1.00  0.00     0.293 HD
ENDBRANCH  14  18
BRANCH  16  20
ATOM     20  O   UNL     1     110.108  40.673 137.230  1.00  0.00    -0.502 OA
ATOM     21  H   UNL     1     110.917  40.598 136.625  1.00  0.00     0.293 HD
ENDBRANCH  16  20
BRANCH  17  22
ATOM     22  O   UNL     1     108.814  42.099 135.169  1.00  0.00    -0.504 OA
ATOM     23  H   UNL     1     108.441  42.635 134.395  1.00  0.00     0.293 HD
ENDBRANCH  17  22
ENDBRANCH   1  12
BRANCH   2  24
ATOM     24  O   UNL     1     105.445  44.856 137.578  1.00  0.00    -0.502 OA
ATOM     25  H   UNL     1     105.107  44.920 136.625  1.00  0.00     0.293 HD
ENDBRANCH   2  24
BRANCH   6  26
ATOM     26  O   UNL     1     104.639  49.722 139.589  1.00  0.00    -0.507 OA
ATOM     27  H   UNL     1     104.031  49.557 140.379  1.00  0.00     0.293 HD
ENDBRANCH   6  26
BRANCH   8  28
ATOM     28  O   UNL     1     109.172  51.017 140.501  1.00  0.00    -0.508 OA
ATOM     29  H   UNL     1     108.895  51.983 140.629  1.00  0.00     0.293 HD
ENDBRANCH   8  28
TORSDOF 7
ENDMDL
MODEL 7
REMARK VINA RESULT:    -5.748      4.047      7.494
REMARK INTER + INTRA:          -7.392
REMARK INTER:                  -7.280
REMARK INTRA:                  -0.112
REMARK UNBOUND:                -0.300
REMARK SMILES O=c1c(O)c(-c2cc(O)c(O)c(O)c2)oc2cc(O)cc(O)c12
REMARK SMILES IDX 5 1 3 2 2 3 1 4 23 5 21 6 20 7 18 8 17 9 16 10 15 11 6 12
REMARK SMILES IDX 7 13 8 14 14 15 10 16 12 17 9 18 11 20 13 22 4 24 22 26
REMARK SMILES IDX 19 28
REMARK H PARENT 9 19 11 21 13 23 4 25 22 27 19 29
REMARK Flexibility Score: inf
ROOT
ATOM      1  C   UNL     1     107.583  45.327 138.246  1.00  0.00     0.180 A 
ATOM      2  C   UNL     1     106.228  45.547 137.944  1.00  0.00     0.208 A 
ATOM      3  C   UNL     1     105.657  46.794 138.244  1.00  0.00     0.238 A 
ATOM      4  O   UNL     1     104.460  47.004 137.922  1.00  0.00    -0.285 OA
ATOM      5  C   UNL     1     106.445  47.799 138.855  1.00  0.00     0.111 A 
ATOM      6  C   UNL     1     105.960  49.086 139.240  1.00  0.00     0.134 A 
ATOM      7  C   UNL     1     106.859  50.048 139.717  1.00  0.00     0.093 A 
ATOM      8  C   UNL     1     108.212  49.748 139.886  1.00  0.00     0.123 A 
ATOM      9  C   UNL     1     108.684  48.477 139.570  1.00  0.00     0.094 A 
ATOM     10  C   UNL     1     107.819  47.507 139.057  1.00  0.00     0.146 A 
ATOM     11  O   UNL     1     108.312  46.311 138.759  1.00  0.00    -0.452 OA
ENDROOT
BRANCH   1  12
ATOM     12  C   UNL     1     108.248  44.029 137.982  1.00  0.00     0.029 A 
ATOM     13  C   UNL     1     108.309  43.540 136.669  1.00  0.00     0.062 A 
ATOM     14  C   UNL     1     108.950  42.325 136.390  1.00  0.00     0.162 A 
ATOM     15  C   UNL     1     108.871  43.304 139.013  1.00  0.00     0.062 A 
ATOM     16  C   UNL     1     109.551  41.596 137.425  1.00  0.00     0.200 A 
ATOM     17  C   UNL     1     109.515  42.089 138.740  1.00  0.00     0.162 A 
BRANCH  14  18
ATOM     18  O   UNL     1     108.996  41.836 135.086  1.00  0.00    -0.504 OA
ATOM     19  H   UNL     1     108.183  41.859 134.482  1.00  0.00     0.293 HD
ENDBRANCH  14  18
BRANCH  16  20
ATOM     20  O   UNL     1     110.183  40.388 137.129  1.00  0.00    -0.502 OA
ATOM     21  H   UNL     1     109.926  39.519 137.585  1.00  0.00     0.293 HD
ENDBRANCH  16  20
BRANCH  17  22
ATOM     22  O   UNL     1     110.124  41.374 139.770  1.00  0.00    -0.504 OA
ATOM     23  H   UNL     1     110.818  41.799 140.374  1.00  0.00     0.293 HD
ENDBRANCH  17  22
ENDBRANCH   1  12
BRANCH   2  24
ATOM     24  O   UNL     1     105.475  44.547 137.321  1.00  0.00    -0.502 OA
ATOM     25  H   UNL     1     104.504  44.374 137.551  1.00  0.00     0.293 HD
ENDBRANCH   2  24
BRANCH   6  26
ATOM     26  O   UNL     1     104.613  49.457 139.198  1.00  0.00    -0.507 OA
ATOM     27  H   UNL     1     104.023  49.386 138.383  1.00  0.00     0.293 HD
ENDBRANCH   6  26
BRANCH   8  28
ATOM     28  O   UNL     1     109.097  50.706 140.377  1.00  0.00    -0.508 OA
ATOM     29  H   UNL     1     109.535  50.607 141.286  1.00  0.00     0.293 HD
ENDBRANCH   8  28
TORSDOF 7
ENDMDL
MODEL 8
REMARK VINA RESULT:    -5.684      3.500      7.088
REMARK INTER + INTRA:          -7.313
REMARK INTER:                  -7.273
REMARK INTRA:                  -0.039
REMARK UNBOUND:                -0.300
REMARK SMILES O=c1c(O)c(-c2cc(O)c(O)c(O)c2)oc2cc(O)cc(O)c12
REMARK SMILES IDX 5 1 3 2 2 3 1 4 23 5 21 6 20 7 18 8 17 9 16 10 15 11 6 12
REMARK SMILES IDX 7 13 8 14 14 15 10 16 12 17 9 18 11 20 13 22 4 24 22 26
REMARK SMILES IDX 19 28
REMARK H PARENT 9 19 11 21 13 23 4 25 22 27 19 29
REMARK Flexibility Score: inf
ROOT
ATOM      1  C   UNL     1     107.621  45.056 137.534  1.00  0.00     0.180 A 
ATOM      2  C   UNL     1     108.535  45.944 138.127  1.00  0.00     0.208 A 
ATOM      3  C   UNL     1     108.054  47.128 138.710  1.00  0.00     0.238 A 
ATOM      4  O   UNL     1     108.869  47.892 139.287  1.00  0.00    -0.285 OA
ATOM      5  C   UNL     1     106.668  47.415 138.678  1.00  0.00     0.111 A 
ATOM      6  C   UNL     1     106.075  48.604 139.201  1.00  0.00     0.134 A 
ATOM      7  C   UNL     1     104.680  48.723 139.232  1.00  0.00     0.093 A 
ATOM      8  C   UNL     1     103.860  47.727 138.698  1.00  0.00     0.123 A 
ATOM      9  C   UNL     1     104.432  46.591 138.131  1.00  0.00     0.094 A 
ATOM     10  C   UNL     1     105.819  46.425 138.119  1.00  0.00     0.146 A 
ATOM     11  O   UNL     1     106.322  45.322 137.578  1.00  0.00    -0.452 OA
ENDROOT
BRANCH   1  12
ATOM     12  C   UNL     1     108.056  43.801 136.878  1.00  0.00     0.029 A 
ATOM     13  C   UNL     1     108.834  42.881 137.596  1.00  0.00     0.062 A 
ATOM     14  C   UNL     1     109.241  41.677 137.006  1.00  0.00     0.162 A 
ATOM     15  C   UNL     1     107.657  43.484 135.569  1.00  0.00     0.062 A 
ATOM     16  C   UNL     1     108.858  41.376 135.692  1.00  0.00     0.200 A 
ATOM     17  C   UNL     1     108.060  42.280 134.972  1.00  0.00     0.162 A 
BRANCH  14  18
ATOM     18  O   UNL     1     110.026  40.773 137.719  1.00  0.00    -0.504 OA
ATOM     19  H   UNL     1     109.916  40.648 138.718  1.00  0.00     0.293 HD
ENDBRANCH  14  18
BRANCH  16  20
ATOM     20  O   UNL     1     109.274  40.174 135.119  1.00  0.00    -0.502 OA
ATOM     21  H   UNL     1     109.200  39.996 134.124  1.00  0.00     0.293 HD
ENDBRANCH  16  20
BRANCH  17  22
ATOM     22  O   UNL     1     107.664  41.979 133.670  1.00  0.00    -0.504 OA
ATOM     23  H   UNL     1     107.312  41.063 133.420  1.00  0.00     0.293 HD
ENDBRANCH  17  22
ENDBRANCH   1  12
BRANCH   2  24
ATOM     24  O   UNL     1     109.897  45.630 138.167  1.00  0.00    -0.502 OA
ATOM     25  H   UNL     1     110.331  45.189 138.969  1.00  0.00     0.293 HD
ENDBRANCH   2  24
BRANCH   6  26
ATOM     26  O   UNL     1     106.806  49.698 139.674  1.00  0.00    -0.507 OA
ATOM     27  H   UNL     1     106.846  49.987 140.640  1.00  0.00     0.293 HD
ENDBRANCH   6  26
BRANCH   8  28
ATOM     28  O   UNL     1     102.473  47.861 138.718  1.00  0.00    -0.508 OA
ATOM     29  H   UNL     1     102.006  48.611 138.223  1.00  0.00     0.293 HD
ENDBRANCH   8  28
TORSDOF 7
ENDMDL
MODEL 9
REMARK VINA RESULT:    -5.658      1.670      7.396
REMARK INTER + INTRA:          -7.280
REMARK INTER:                  -7.119
REMARK INTRA:                  -0.161
REMARK UNBOUND:                -0.300
REMARK SMILES O=c1c(O)c(-c2cc(O)c(O)c(O)c2)oc2cc(O)cc(O)c12
REMARK SMILES IDX 5 1 3 2 2 3 1 4 23 5 21 6 20 7 18 8 17 9 16 10 15 11 6 12
REMARK SMILES IDX 7 13 8 14 14 15 10 16 12 17 9 18 11 20 13 22 4 24 22 26
REMARK SMILES IDX 19 28
REMARK H PARENT 9 19 11 21 13 23 4 25 22 27 19 29
REMARK Flexibility Score: inf
ROOT
ATOM      1  C   UNL     1     105.062  43.972 135.489  1.00  0.00     0.180 A 
ATOM      2  C   UNL     1     105.041  45.377 135.465  1.00  0.00     0.208 A 
ATOM      3  C   UNL     1     103.817  46.037 135.266  1.00  0.00     0.238 A 
ATOM      4  O   UNL     1     103.795  47.294 135.300  1.00  0.00    -0.285 OA
ATOM      5  C   UNL     1     102.634  45.282 135.078  1.00  0.00     0.111 A 
ATOM      6  C   UNL     1     101.345  45.844 134.828  1.00  0.00     0.134 A 
ATOM      7  C   UNL     1     100.223  45.007 134.788  1.00  0.00     0.093 A 
ATOM      8  C   UNL     1     100.351  43.624 134.923  1.00  0.00     0.123 A 
ATOM      9  C   UNL     1     101.611  43.060 135.107  1.00  0.00     0.094 A 
ATOM     10  C   UNL     1     102.746  43.871 135.188  1.00  0.00     0.146 A 
ATOM     11  O   UNL     1     103.927  43.294 135.375  1.00  0.00    -0.452 OA
ENDROOT
BRANCH   1  12
ATOM     12  C   UNL     1     106.318  43.207 135.668  1.00  0.00     0.029 A 
ATOM     13  C   UNL     1     106.782  42.390 134.627  1.00  0.00     0.062 A 
ATOM     14  C   UNL     1     107.978  41.671 134.763  1.00  0.00     0.162 A 
ATOM     15  C   UNL     1     107.087  43.327 136.838  1.00  0.00     0.062 A 
ATOM     16  C   UNL     1     108.730  41.778 135.941  1.00  0.00     0.200 A 
ATOM     17  C   UNL     1     108.285  42.612 136.980  1.00  0.00     0.162 A 
BRANCH  14  18
ATOM     18  O   UNL     1     108.427  40.849 133.731  1.00  0.00    -0.504 OA
ATOM     19  H   UNL     1     108.500  39.845 133.846  1.00  0.00     0.293 HD
ENDBRANCH  14  18
BRANCH  16  20
ATOM     20  O   UNL     1     109.916  41.054 136.060  1.00  0.00    -0.502 OA
ATOM     21  H   UNL     1     110.219  40.396 135.351  1.00  0.00     0.293 HD
ENDBRANCH  16  20
BRANCH  17  22
ATOM     22  O   UNL     1     109.037  42.733 138.148  1.00  0.00    -0.504 OA
ATOM     23  H   UNL     1     108.608  42.977 139.033  1.00  0.00     0.293 HD
ENDBRANCH  17  22
ENDBRANCH   1  12
BRANCH   2  24
ATOM     24  O   UNL     1     106.217  46.102 135.674  1.00  0.00    -0.502 OA
ATOM     25  H   UNL     1     107.093  45.861 135.225  1.00  0.00     0.293 HD
ENDBRANCH   2  24
BRANCH   6  26
ATOM     26  O   UNL     1     101.120  47.203 134.588  1.00  0.00    -0.507 OA
ATOM     27  H   UNL     1     100.635  47.825 135.218  1.00  0.00     0.293 HD
ENDBRANCH   6  26
BRANCH   8  28
ATOM     28  O   UNL     1      99.231  42.797 134.865  1.00  0.00    -0.508 OA
ATOM     29  H   UNL     1      99.319  41.790 134.793  1.00  0.00     0.293 HD
ENDBRANCH   8  28
TORSDOF 7
ENDMDL
