MODEL 1
REMARK VINA RESULT:    -3.790      0.000      0.000
REMARK INTER + INTRA:          -5.399
REMARK INTER:                  -4.897
REMARK INTRA:                  -0.502
REMARK UNBOUND:                -0.502
REMARK SMILES CCO[C@H]1O[C@@H](CO)[C@@H](O)[C@H](O)[C@H]1O
REMARK SMILES IDX 4 1 13 2 11 3 9 4 6 5 5 6 3 7 2 8 1 9 14 10 12 12 7 14 8 15
REMARK SMILES IDX 10 17
REMARK H PARENT 14 11 12 13 8 16 10 18
REMARK Flexibility Score: inf
ROOT
ATOM      1  C   UNL     1       6.346  41.099  23.536  1.00  0.00     0.281 C 
ATOM      2  C   UNL     1       7.194  41.506  22.318  1.00  0.00     0.202 C 
ATOM      3  C   UNL     1       8.274  40.456  22.039  1.00  0.00     0.179 C 
ATOM      4  C   UNL     1       9.089  40.228  23.326  1.00  0.00     0.177 C 
ATOM      5  C   UNL     1       8.172  39.917  24.537  1.00  0.00     0.178 C 
ATOM      6  O   UNL     1       7.141  40.886  24.700  1.00  0.00    -0.341 OA
ENDROOT
BRANCH   1   7
ATOM      7  O   UNL     1       5.558  39.961  23.228  1.00  0.00    -0.350 OA
BRANCH   7   8
ATOM      8  C   UNL     1       4.318  40.026  23.901  1.00  0.00     0.160 C 
ATOM      9  C   UNL     1       3.728  41.416  23.726  1.00  0.00     0.035 C 
ENDBRANCH   7   8
ENDBRANCH   1   7
BRANCH   2  10
ATOM     10  O   UNL     1       6.358  41.651  21.198  1.00  0.00    -0.385 OA
ATOM     11  H   UNL     1       6.640  40.965  20.537  1.00  0.00     0.211 HD
ENDBRANCH   2  10
BRANCH   3  12
ATOM     12  O   UNL     1       9.118  40.919  21.016  1.00  0.00    -0.387 OA
ATOM     13  H   UNL     1       8.570  41.506  20.433  1.00  0.00     0.211 HD
ENDBRANCH   3  12
BRANCH   5  14
ATOM     14  C   UNL     1       7.625  38.473  24.586  1.00  0.00     0.191 C 
BRANCH  14  15
ATOM     15  O   UNL     1       8.638  37.587  24.976  1.00  0.00    -0.394 OA
ATOM     16  H   UNL     1       8.373  36.695  24.629  1.00  0.00     0.210 HD
ENDBRANCH  14  15
ENDBRANCH   5  14
BRANCH   4  17
ATOM     17  O   UNL     1      10.078  39.241  23.154  1.00  0.00    -0.387 OA
ATOM     18  H   UNL     1       9.624  38.377  22.971  1.00  0.00     0.211 HD
ENDBRANCH   4  17
TORSDOF 7
ENDMDL
MODEL 2
REMARK VINA RESULT:    -3.784      1.376      4.115
REMARK INTER + INTRA:          -5.391
REMARK INTER:                  -4.913
REMARK INTRA:                  -0.478
REMARK UNBOUND:                -0.502
REMARK SMILES CCO[C@H]1O[C@@H](CO)[C@@H](O)[C@H](O)[C@H]1O
REMARK SMILES IDX 4 1 13 2 11 3 9 4 6 5 5 6 3 7 2 8 1 9 14 10 12 12 7 14 8 15
REMARK SMILES IDX 10 17
REMARK H PARENT 14 11 12 13 8 16 10 18
REMARK Flexibility Score: inf
ROOT
ATOM      1  C   UNL     1       7.579  39.851  24.851  1.00  0.00     0.281 C 
ATOM      2  C   UNL     1       6.076  39.916  24.529  1.00  0.00     0.202 C 
ATOM      3  C   UNL     1       5.855  40.108  23.025  1.00  0.00     0.179 C 
ATOM      4  C   UNL     1       6.653  41.341  22.560  1.00  0.00     0.177 C 
ATOM      5  C   UNL     1       8.138  41.260  22.997  1.00  0.00     0.178 C 
ATOM      6  O   UNL     1       8.280  41.004  24.392  1.00  0.00    -0.341 OA
ENDROOT
BRANCH   1   7
ATOM      7  O   UNL     1       8.142  38.658  24.330  1.00  0.00    -0.350 OA
BRANCH   7   8
ATOM      8  C   UNL     1       8.956  38.034  25.301  1.00  0.00     0.160 C 
ATOM      9  C   UNL     1      10.413  38.165  24.888  1.00  0.00     0.035 C 
ENDBRANCH   7   8
ENDBRANCH   1   7
BRANCH   2  10
ATOM     10  O   UNL     1       5.457  38.732  24.963  1.00  0.00    -0.385 OA
ATOM     11  H   UNL     1       5.261  38.195  24.151  1.00  0.00     0.211 HD
ENDBRANCH   2  10
BRANCH   3  12
ATOM     12  O   UNL     1       4.486  40.306  22.779  1.00  0.00    -0.387 OA
ATOM     13  H   UNL     1       4.005  40.065  23.613  1.00  0.00     0.211 HD
ENDBRANCH   3  12
BRANCH   5  14
ATOM     14  C   UNL     1       9.019  40.323  22.142  1.00  0.00     0.191 C 
BRANCH  14  15
ATOM     15  O   UNL     1       9.231  40.883  20.875  1.00  0.00    -0.394 OA
ATOM     16  H   UNL     1       8.580  40.445  20.267  1.00  0.00     0.210 HD
ENDBRANCH  14  15
ENDBRANCH   5  14
BRANCH   4  17
ATOM     17  O   UNL     1       6.529  41.554  21.174  1.00  0.00    -0.387 OA
ATOM     18  H   UNL     1       5.858  40.912  20.821  1.00  0.00     0.211 HD
ENDBRANCH   4  17
TORSDOF 7
ENDMDL
MODEL 3
REMARK VINA RESULT:    -3.668     16.975     18.257
REMARK INTER + INTRA:          -5.243
REMARK INTER:                  -4.808
REMARK INTRA:                  -0.434
REMARK UNBOUND:                -0.502
REMARK SMILES CCO[C@H]1O[C@@H](CO)[C@@H](O)[C@H](O)[C@H]1O
REMARK SMILES IDX 4 1 13 2 11 3 9 4 6 5 5 6 3 7 2 8 1 9 14 10 12 12 7 14 8 15
REMARK SMILES IDX 10 17
REMARK H PARENT 14 11 12 13 8 16 10 18
REMARK Flexibility Score: inf
ROOT
ATOM      1  C   UNL     1      19.866  41.468  34.285  1.00  0.00     0.281 C 
ATOM      2  C   UNL     1      19.324  42.331  35.438  1.00  0.00     0.202 C 
ATOM      3  C   UNL     1      20.084  42.035  36.735  1.00  0.00     0.179 C 
ATOM      4  C   UNL     1      20.034  40.520  37.005  1.00  0.00     0.177 C 
ATOM      5  C   UNL     1      20.502  39.703  35.773  1.00  0.00     0.178 C 
ATOM      6  O   UNL     1      19.814  40.075  34.581  1.00  0.00    -0.341 OA
ENDROOT
BRANCH   1   7
ATOM      7  O   UNL     1      21.179  41.878  33.940  1.00  0.00    -0.350 OA
BRANCH   7   8
ATOM      8  C   UNL     1      21.286  42.061  32.543  1.00  0.00     0.160 C 
ATOM      9  C   UNL     1      21.963  43.394  32.266  1.00  0.00     0.035 C 
ENDBRANCH   7   8
ENDBRANCH   1   7
BRANCH   2  10
ATOM     10  O   UNL     1      19.450  43.689  35.100  1.00  0.00    -0.385 OA
ATOM     11  H   UNL     1      19.689  44.172  35.934  1.00  0.00     0.211 HD
ENDBRANCH   2  10
BRANCH   3  12
ATOM     12  O   UNL     1      19.478  42.728  37.796  1.00  0.00    -0.387 OA
ATOM     13  H   UNL     1      18.637  42.247  38.012  1.00  0.00     0.211 HD
ENDBRANCH   3  12
BRANCH   5  14
ATOM     14  C   UNL     1      22.032  39.652  35.567  1.00  0.00     0.191 C 
BRANCH  14  15
ATOM     15  O   UNL     1      22.330  39.200  34.275  1.00  0.00    -0.394 OA
ATOM     16  H   UNL     1      21.721  38.435  34.103  1.00  0.00     0.210 HD
ENDBRANCH  14  15
ENDBRANCH   5  14
BRANCH   4  17
ATOM     17  O   UNL     1      20.751  40.169  38.165  1.00  0.00    -0.387 OA
ATOM     18  H   UNL     1      20.096  39.942  38.876  1.00  0.00     0.211 HD
ENDBRANCH   4  17
TORSDOF 7
ENDMDL
MODEL 4
REMARK VINA RESULT:    -3.657     11.254     13.389
REMARK INTER + INTRA:          -5.228
REMARK INTER:                  -4.733
REMARK INTRA:                  -0.495
REMARK UNBOUND:                -0.502
REMARK SMILES CCO[C@H]1O[C@@H](CO)[C@@H](O)[C@H](O)[C@H]1O
REMARK SMILES IDX 4 1 13 2 11 3 9 4 6 5 5 6 3 7 2 8 1 9 14 10 12 12 7 14 8 15
REMARK SMILES IDX 10 17
REMARK H PARENT 14 11 12 13 8 16 10 18
REMARK Flexibility Score: inf
ROOT
ATOM      1  C   UNL     1      19.198  45.571  23.149  1.00  0.00     0.281 C 
ATOM      2  C   UNL     1      18.227  45.091  22.056  1.00  0.00     0.202 C 
ATOM      3  C   UNL     1      17.169  46.162  21.769  1.00  0.00     0.179 C 
ATOM      4  C   UNL     1      16.485  46.551  23.093  1.00  0.00     0.177 C 
ATOM      5  C   UNL     1      17.521  46.932  24.182  1.00  0.00     0.178 C 
ATOM      6  O   UNL     1      18.524  45.933  24.351  1.00  0.00    -0.341 OA
ENDROOT
BRANCH   1   7
ATOM      7  O   UNL     1      20.000  46.634  22.661  1.00  0.00    -0.350 OA
BRANCH   7   8
ATOM      8  C   UNL     1      21.315  46.530  23.166  1.00  0.00     0.160 C 
ATOM      9  C   UNL     1      21.925  45.217  22.702  1.00  0.00     0.035 C 
ENDBRANCH   7   8
ENDBRANCH   1   7
BRANCH   2  10
ATOM     10  O   UNL     1      18.950  44.798  20.887  1.00  0.00    -0.385 OA
ATOM     11  H   UNL     1      18.353  44.259  20.306  1.00  0.00     0.211 HD
ENDBRANCH   2  10
BRANCH   3  12
ATOM     12  O   UNL     1      16.216  45.644  20.875  1.00  0.00    -0.387 OA
ATOM     13  H   UNL     1      16.603  45.722  19.964  1.00  0.00     0.211 HD
ENDBRANCH   3  12
BRANCH   5  14
ATOM     14  C   UNL     1      18.129  48.345  24.038  1.00  0.00     0.191 C 
BRANCH  14  15
ATOM     15  O   UNL     1      17.201  49.313  24.446  1.00  0.00    -0.394 OA
ATOM     16  H   UNL     1      17.533  50.180  24.095  1.00  0.00     0.210 HD
ENDBRANCH  14  15
ENDBRANCH   5  14
BRANCH   4  17
ATOM     17  O   UNL     1      15.525  47.565  22.910  1.00  0.00    -0.387 OA
ATOM     18  H   UNL     1      15.738  48.308  23.533  1.00  0.00     0.211 HD
ENDBRANCH   4  17
TORSDOF 7
ENDMDL
MODEL 5
REMARK VINA RESULT:    -3.578     10.719     12.322
REMARK INTER + INTRA:          -5.125
REMARK INTER:                  -4.775
REMARK INTRA:                  -0.350
REMARK UNBOUND:                -0.502
REMARK SMILES CCO[C@H]1O[C@@H](CO)[C@@H](O)[C@H](O)[C@H]1O
REMARK SMILES IDX 4 1 13 2 11 3 9 4 6 5 5 6 3 7 2 8 1 9 14 10 12 12 7 14 8 15
REMARK SMILES IDX 10 17
REMARK H PARENT 14 11 12 13 8 16 10 18
REMARK Flexibility Score: inf
ROOT
ATOM      1  C   UNL     1      17.013  47.206  24.244  1.00  0.00     0.281 C 
ATOM      2  C   UNL     1      18.433  47.548  23.760  1.00  0.00     0.202 C 
ATOM      3  C   UNL     1      18.630  47.099  22.309  1.00  0.00     0.179 C 
ATOM      4  C   UNL     1      18.269  45.606  22.198  1.00  0.00     0.177 C 
ATOM      5  C   UNL     1      16.867  45.310  22.789  1.00  0.00     0.178 C 
ATOM      6  O   UNL     1      16.717  45.818  24.112  1.00  0.00    -0.341 OA
ENDROOT
BRANCH   1   7
ATOM      7  O   UNL     1      16.058  48.008  23.571  1.00  0.00    -0.350 OA
BRANCH   7   8
ATOM      8  C   UNL     1      14.984  48.324  24.434  1.00  0.00     0.160 C 
ATOM      9  C   UNL     1      15.363  49.532  25.277  1.00  0.00     0.035 C 
ENDBRANCH   7   8
ENDBRANCH   1   7
BRANCH   2  10
ATOM     10  O   UNL     1      18.640  48.933  23.871  1.00  0.00    -0.385 OA
ATOM     11  H   UNL     1      19.292  49.185  23.167  1.00  0.00     0.211 HD
ENDBRANCH   2  10
BRANCH   3  12
ATOM     12  O   UNL     1      19.971  47.294  21.941  1.00  0.00    -0.387 OA
ATOM     13  H   UNL     1      20.196  46.584  21.284  1.00  0.00     0.211 HD
ENDBRANCH   3  12
BRANCH   5  14
ATOM     14  C   UNL     1      15.681  45.700  21.880  1.00  0.00     0.191 C 
BRANCH  14  15
ATOM     15  O   UNL     1      16.108  46.590  20.886  1.00  0.00    -0.394 OA
ATOM     16  H   UNL     1      16.929  46.193  20.494  1.00  0.00     0.210 HD
ENDBRANCH  14  15
ENDBRANCH   5  14
BRANCH   4  17
ATOM     17  O   UNL     1      18.388  45.133  20.877  1.00  0.00    -0.387 OA
ATOM     18  H   UNL     1      18.230  45.895  20.261  1.00  0.00     0.211 HD
ENDBRANCH   4  17
TORSDOF 7
ENDMDL
MODEL 6
REMARK VINA RESULT:    -3.552     10.095     11.520
REMARK INTER + INTRA:          -5.093
REMARK INTER:                  -4.658
REMARK INTRA:                  -0.435
REMARK UNBOUND:                -0.502
REMARK SMILES CCO[C@H]1O[C@@H](CO)[C@@H](O)[C@H](O)[C@H]1O
REMARK SMILES IDX 4 1 13 2 11 3 9 4 6 5 5 6 3 7 2 8 1 9 14 10 12 12 7 14 8 15
REMARK SMILES IDX 10 17
REMARK H PARENT 14 11 12 13 8 16 10 18
REMARK Flexibility Score: inf
ROOT
ATOM      1  C   UNL     1       7.416  46.011  32.662  1.00  0.00     0.281 C 
ATOM      2  C   UNL     1       8.093  46.998  31.696  1.00  0.00     0.202 C 
ATOM      3  C   UNL     1       7.042  47.784  30.905  1.00  0.00     0.179 C 
ATOM      4  C   UNL     1       6.088  46.787  30.221  1.00  0.00     0.177 C 
ATOM      5  C   UNL     1       5.513  45.759  31.230  1.00  0.00     0.178 C 
ATOM      6  O   UNL     1       6.533  45.116  31.990  1.00  0.00    -0.341 OA
ENDROOT
BRANCH   1   7
ATOM      7  O   UNL     1       6.753  46.715  33.699  1.00  0.00    -0.350 OA
BRANCH   7   8
ATOM      8  C   UNL     1       6.945  46.062  34.938  1.00  0.00     0.160 C 
ATOM      9  C   UNL     1       7.770  46.956  35.849  1.00  0.00     0.035 C 
ENDBRANCH   7   8
ENDBRANCH   1   7
BRANCH   2  10
ATOM     10  O   UNL     1       8.908  47.879  32.427  1.00  0.00    -0.385 OA
ATOM     11  H   UNL     1       9.571  47.323  32.913  1.00  0.00     0.211 HD
ENDBRANCH   2  10
BRANCH   3  12
ATOM     12  O   UNL     1       7.684  48.571  29.935  1.00  0.00    -0.387 OA
ATOM     13  H   UNL     1       8.095  49.339  30.412  1.00  0.00     0.211 HD
ENDBRANCH   3  12
BRANCH   5  14
ATOM     14  C   UNL     1       4.372  46.292  32.125  1.00  0.00     0.191 C 
BRANCH  14  15
ATOM     15  O   UNL     1       3.258  46.619  31.340  1.00  0.00    -0.394 OA
ATOM     16  H   UNL     1       2.609  45.878  31.460  1.00  0.00     0.210 HD
ENDBRANCH  14  15
ENDBRANCH   5  14
BRANCH   4  17
ATOM     17  O   UNL     1       5.067  47.442  29.507  1.00  0.00    -0.387 OA
ATOM     18  H   UNL     1       4.370  46.772  29.279  1.00  0.00     0.211 HD
ENDBRANCH   4  17
TORSDOF 7
ENDMDL
MODEL 7
REMARK VINA RESULT:    -3.517      9.798     11.307
REMARK INTER + INTRA:          -5.047
REMARK INTER:                  -4.571
REMARK INTRA:                  -0.476
REMARK UNBOUND:                -0.502
REMARK SMILES CCO[C@H]1O[C@@H](CO)[C@@H](O)[C@H](O)[C@H]1O
REMARK SMILES IDX 4 1 13 2 11 3 9 4 6 5 5 6 3 7 2 8 1 9 14 10 12 12 7 14 8 15
REMARK SMILES IDX 10 17
REMARK H PARENT 14 11 12 13 8 16 10 18
REMARK Flexibility Score: inf
ROOT
ATOM      1  C   UNL     1       6.730  46.179  30.765  1.00  0.00     0.281 C 
ATOM      2  C   UNL     1       5.249  46.427  30.428  1.00  0.00     0.202 C 
ATOM      3  C   UNL     1       4.465  46.803  31.690  1.00  0.00     0.179 C 
ATOM      4  C   UNL     1       4.695  45.717  32.758  1.00  0.00     0.177 C 
ATOM      5  C   UNL     1       6.205  45.446  32.983  1.00  0.00     0.178 C 
ATOM      6  O   UNL     1       6.896  45.178  31.766  1.00  0.00    -0.341 OA
ENDROOT
BRANCH   1   7
ATOM      7  O   UNL     1       7.359  47.395  31.135  1.00  0.00    -0.350 OA
BRANCH   7   8
ATOM      8  C   UNL     1       8.663  47.457  30.595  1.00  0.00     0.160 C 
ATOM      9  C   UNL     1       8.608  48.142  29.239  1.00  0.00     0.035 C 
ENDBRANCH   7   8
ENDBRANCH   1   7
BRANCH   2  10
ATOM     10  O   UNL     1       5.156  47.455  29.475  1.00  0.00    -0.385 OA
ATOM     11  H   UNL     1       4.211  47.760  29.471  1.00  0.00     0.211 HD
ENDBRANCH   2  10
BRANCH   3  12
ATOM     12  O   UNL     1       3.097  46.884  31.379  1.00  0.00    -0.387 OA
ATOM     13  H   UNL     1       2.625  47.131  32.216  1.00  0.00     0.211 HD
ENDBRANCH   3  12
BRANCH   5  14
ATOM     14  C   UNL     1       6.934  46.500  33.845  1.00  0.00     0.191 C 
BRANCH  14  15
ATOM     15  O   UNL     1       6.590  46.341  35.195  1.00  0.00    -0.394 OA
ATOM     16  H   UNL     1       7.117  47.017  35.696  1.00  0.00     0.210 HD
ENDBRANCH  14  15
ENDBRANCH   5  14
BRANCH   4  17
ATOM     17  O   UNL     1       4.034  46.019  33.964  1.00  0.00    -0.387 OA
ATOM     18  H   UNL     1       3.284  46.636  33.759  1.00  0.00     0.211 HD
ENDBRANCH   4  17
TORSDOF 7
ENDMDL
MODEL 8
REMARK VINA RESULT:    -3.504     16.131     17.979
REMARK INTER + INTRA:          -5.030
REMARK INTER:                  -4.530
REMARK INTRA:                  -0.500
REMARK UNBOUND:                -0.502
REMARK SMILES CCO[C@H]1O[C@@H](CO)[C@@H](O)[C@H](O)[C@H]1O
REMARK SMILES IDX 4 1 13 2 11 3 9 4 6 5 5 6 3 7 2 8 1 9 14 10 12 12 7 14 8 15
REMARK SMILES IDX 10 17
REMARK H PARENT 14 11 12 13 8 16 10 18
REMARK Flexibility Score: inf
ROOT
ATOM      1  C   UNL     1      19.894  40.000  34.406  1.00  0.00     0.281 C 
ATOM      2  C   UNL     1      19.779  39.624  35.894  1.00  0.00     0.202 C 
ATOM      3  C   UNL     1      20.499  40.657  36.767  1.00  0.00     0.179 C 
ATOM      4  C   UNL     1      21.947  40.807  36.266  1.00  0.00     0.177 C 
ATOM      5  C   UNL     1      22.000  41.090  34.742  1.00  0.00     0.178 C 
ATOM      6  O   UNL     1      21.249  40.142  33.988  1.00  0.00    -0.341 OA
ENDROOT
BRANCH   1   7
ATOM      7  O   UNL     1      19.141  41.170  34.135  1.00  0.00    -0.350 OA
BRANCH   7   8
ATOM      8  C   UNL     1      18.525  41.076  32.867  1.00  0.00     0.160 C 
ATOM      9  C   UNL     1      17.872  39.710  32.731  1.00  0.00     0.035 C 
ENDBRANCH   7   8
ENDBRANCH   1   7
BRANCH   2  10
ATOM     10  O   UNL     1      18.422  39.549  36.250  1.00  0.00    -0.385 OA
ATOM     11  H   UNL     1      17.917  39.344  35.420  1.00  0.00     0.211 HD
ENDBRANCH   2  10
BRANCH   3  12
ATOM     12  O   UNL     1      20.500  40.216  38.101  1.00  0.00    -0.387 OA
ATOM     13  H   UNL     1      19.640  39.743  38.249  1.00  0.00     0.211 HD
ENDBRANCH   3  12
BRANCH   5  14
ATOM     14  C   UNL     1      21.670  42.544  34.338  1.00  0.00     0.191 C 
BRANCH  14  15
ATOM     15  O   UNL     1      21.631  42.659  32.942  1.00  0.00    -0.394 OA
ATOM     16  H   UNL     1      22.060  43.528  32.724  1.00  0.00     0.210 HD
ENDBRANCH  14  15
ENDBRANCH   5  14
BRANCH   4  17
ATOM     17  O   UNL     1      22.660  41.775  37.000  1.00  0.00    -0.387 OA
ATOM     18  H   UNL     1      22.261  41.830  37.907  1.00  0.00     0.211 HD
ENDBRANCH   4  17
TORSDOF 7
ENDMDL
MODEL 9
REMARK VINA RESULT:    -3.496      6.626      8.689
REMARK INTER + INTRA:          -5.020
REMARK INTER:                  -4.548
REMARK INTRA:                  -0.471
REMARK UNBOUND:                -0.502
REMARK SMILES CCO[C@H]1O[C@@H](CO)[C@@H](O)[C@H](O)[C@H]1O
REMARK SMILES IDX 4 1 13 2 11 3 9 4 6 5 5 6 3 7 2 8 1 9 14 10 12 12 7 14 8 15
REMARK SMILES IDX 10 17
REMARK H PARENT 14 11 12 13 8 16 10 18
REMARK Flexibility Score: inf
ROOT
ATOM      1  C   UNL     1      13.260  34.974  27.840  1.00  0.00     0.281 C 
ATOM      2  C   UNL     1      13.820  36.369  27.513  1.00  0.00     0.202 C 
ATOM      3  C   UNL     1      12.805  37.180  26.701  1.00  0.00     0.179 C 
ATOM      4  C   UNL     1      12.393  36.361  25.463  1.00  0.00     0.177 C 
ATOM      5  C   UNL     1      11.929  34.933  25.850  1.00  0.00     0.178 C 
ATOM      6  O   UNL     1      12.879  34.257  26.668  1.00  0.00    -0.341 OA
ENDROOT
BRANCH   1   7
ATOM      7  O   UNL     1      12.185  35.079  28.758  1.00  0.00    -0.350 OA
BRANCH   7   8
ATOM      8  C   UNL     1      12.204  33.995  29.665  1.00  0.00     0.160 C 
ATOM      9  C   UNL     1      13.029  34.380  30.882  1.00  0.00     0.035 C 
ENDBRANCH   7   8
ENDBRANCH   1   7
BRANCH   2  10
ATOM     10  O   UNL     1      14.128  37.038  28.710  1.00  0.00    -0.385 OA
ATOM     11  H   UNL     1      14.583  36.381  29.299  1.00  0.00     0.211 HD
ENDBRANCH   2  10
BRANCH   3  12
ATOM     12  O   UNL     1      13.395  38.390  26.297  1.00  0.00    -0.387 OA
ATOM     13  H   UNL     1      12.965  39.111  26.825  1.00  0.00     0.211 HD
ENDBRANCH   3  12
BRANCH   5  14
ATOM     14  C   UNL     1      10.499  34.847  26.427  1.00  0.00     0.191 C 
BRANCH  14  15
ATOM     15  O   UNL     1       9.565  34.737  25.388  1.00  0.00    -0.394 OA
ATOM     16  H   UNL     1      10.059  34.939  24.551  1.00  0.00     0.210 HD
ENDBRANCH  14  15
ENDBRANCH   5  14
BRANCH   4  17
ATOM     17  O   UNL     1      11.427  37.031  24.688  1.00  0.00    -0.387 OA
ATOM     18  H   UNL     1      11.827  37.879  24.362  1.00  0.00     0.211 HD
ENDBRANCH   4  17
TORSDOF 7
ENDMDL
