MODEL 1
REMARK VINA RESULT:    -3.832      0.000      0.000
REMARK INTER + INTRA:          -6.581
REMARK INTER:                  -5.848
REMARK INTRA:                  -0.733
REMARK UNBOUND:                -0.733
REMARK SMILES CCCCCCCCCCC(=O)[O-]
REMARK SMILES IDX 7 1 8 2 9 3 10 4 11 5 12 6 13 7 6 8 5 9 4 10 3 11 2 12 1 13
REMARK H PARENT
REMARK Flexibility Score: inf
ROOT
ATOM      1  C   UNL     1      -0.663   8.118  -8.403  1.00  0.00     0.000 C 
ENDROOT
BRANCH   1   2
ATOM      2  C   UNL     1       0.752   8.161  -7.808  1.00  0.00     0.000 C 
BRANCH   2   3
ATOM      3  C   UNL     1       1.738   7.369  -8.681  1.00  0.00     0.006 C 
BRANCH   3   4
ATOM      4  C   UNL     1       2.560   8.280  -9.603  1.00  0.00     0.053 C 
BRANCH   4   5
ATOM      5  C   UNL     1       2.220   8.062 -11.046  1.00  0.00     0.041 C 
ATOM      6  O   UNL     1       2.642   7.042 -11.650  1.00  0.00    -0.550 OA
ATOM      7  O   UNL     1       1.466   9.006 -11.733  1.00  0.00    -0.550 OA
ENDBRANCH   4   5
ENDBRANCH   3   4
ENDBRANCH   2   3
ENDBRANCH   1   2
BRANCH   1   8
ATOM      8  C   UNL     1      -0.887   6.900  -9.314  1.00  0.00     0.000 C 
BRANCH   8   9
ATOM      9  C   UNL     1      -1.354   7.294 -10.725  1.00  0.00    -0.000 C 
BRANCH   9  10
ATOM     10  C   UNL     1      -2.811   6.869 -10.958  1.00  0.00    -0.000 C 
BRANCH  10  11
ATOM     11  C   UNL     1      -3.698   8.030 -11.434  1.00  0.00    -0.000 C 
BRANCH  11  12
ATOM     12  C   UNL     1      -3.385   9.349 -10.713  1.00  0.00    -0.003 C 
ATOM     13  C   UNL     1      -4.635  10.214 -10.583  1.00  0.00     0.004 C 
ENDBRANCH  11  12
ENDBRANCH  10  11
ENDBRANCH   9  10
ENDBRANCH   8   9
ENDBRANCH   1   8
TORSDOF 9
ENDMDL
MODEL 2
REMARK VINA RESULT:    -3.817      2.930      5.039
REMARK INTER + INTRA:          -6.558
REMARK INTER:                  -5.381
REMARK INTRA:                  -1.176
REMARK UNBOUND:                -0.733
REMARK SMILES CCCCCCCCCCC(=O)[O-]
REMARK SMILES IDX 7 1 8 2 9 3 10 4 11 5 12 6 13 7 6 8 5 9 4 10 3 11 2 12 1 13
REMARK H PARENT
REMARK Flexibility Score: inf
ROOT
ATOM      1  C   UNL     1      -1.577   8.086  -8.531  1.00  0.00     0.000 C 
ENDROOT
BRANCH   1   2
ATOM      2  C   UNL     1      -1.849   6.945  -9.524  1.00  0.00     0.000 C 
BRANCH   2   3
ATOM      3  C   UNL     1      -2.366   7.494 -10.862  1.00  0.00     0.006 C 
BRANCH   3   4
ATOM      4  C   UNL     1      -3.059   8.853 -10.704  1.00  0.00     0.053 C 
BRANCH   4   5
ATOM      5  C   UNL     1      -4.472   8.818 -11.201  1.00  0.00     0.041 C 
ATOM      6  O   UNL     1      -4.800   8.028 -12.125  1.00  0.00    -0.550 OA
ATOM      7  O   UNL     1      -5.419   9.682 -10.666  1.00  0.00    -0.550 OA
ENDBRANCH   4   5
ENDBRANCH   3   4
ENDBRANCH   2   3
ENDBRANCH   1   2
BRANCH   1   8
ATOM      8  C   UNL     1      -0.125   8.099  -8.026  1.00  0.00     0.000 C 
BRANCH   8   9
ATOM      9  C   UNL     1       0.772   7.100  -8.775  1.00  0.00    -0.000 C 
BRANCH   9  10
ATOM     10  C   UNL     1       1.943   7.822  -9.458  1.00  0.00    -0.000 C 
BRANCH  10  11
ATOM     11  C   UNL     1       1.586   9.251  -9.894  1.00  0.00    -0.000 C 
BRANCH  11  12
ATOM     12  C   UNL     1       0.940   9.302 -11.286  1.00  0.00    -0.003 C 
ATOM     13  C   UNL     1       0.139  10.587 -11.473  1.00  0.00     0.004 C 
ENDBRANCH  11  12
ENDBRANCH  10  11
ENDBRANCH   9  10
ENDBRANCH   8   9
ENDBRANCH   1   8
TORSDOF 9
ENDMDL
MODEL 3
REMARK VINA RESULT:    -3.804      2.746      5.428
REMARK INTER + INTRA:          -6.539
REMARK INTER:                  -5.428
REMARK INTRA:                  -1.111
REMARK UNBOUND:                -0.733
REMARK SMILES CCCCCCCCCCC(=O)[O-]
REMARK SMILES IDX 7 1 8 2 9 3 10 4 11 5 12 6 13 7 6 8 5 9 4 10 3 11 2 12 1 13
REMARK H PARENT
REMARK Flexibility Score: inf
ROOT
ATOM      1  C   UNL     1      -0.813   6.660  -9.192  1.00  0.00     0.000 C 
ENDROOT
BRANCH   1   2
ATOM      2  C   UNL     1      -1.772   6.995 -10.345  1.00  0.00     0.000 C 
BRANCH   2   3
ATOM      3  C   UNL     1      -2.236   8.457 -10.265  1.00  0.00     0.006 C 
BRANCH   3   4
ATOM      4  C   UNL     1      -3.453   8.730 -11.160  1.00  0.00     0.053 C 
BRANCH   4   5
ATOM      5  C   UNL     1      -4.307   9.834 -10.615  1.00  0.00     0.041 C 
ATOM      6  O   UNL     1      -3.796  10.950 -10.333  1.00  0.00    -0.550 OA
ATOM      7  O   UNL     1      -5.660   9.619 -10.386  1.00  0.00    -0.550 OA
ENDBRANCH   4   5
ENDBRANCH   3   4
ENDBRANCH   2   3
ENDBRANCH   1   2
BRANCH   1   8
ATOM      8  C   UNL     1      -0.475   7.885  -8.327  1.00  0.00     0.000 C 
BRANCH   8   9
ATOM      9  C   UNL     1       1.004   7.926  -7.910  1.00  0.00    -0.000 C 
BRANCH   9  10
ATOM     10  C   UNL     1       1.919   7.954  -9.143  1.00  0.00    -0.000 C 
BRANCH  10  11
ATOM     11  C   UNL     1       1.760   9.240  -9.970  1.00  0.00    -0.000 C 
BRANCH  11  12
ATOM     12  C   UNL     1       1.542   8.961 -11.464  1.00  0.00    -0.003 C 
ATOM     13  C   UNL     1       1.713   7.478 -11.776  1.00  0.00     0.004 C 
ENDBRANCH  11  12
ENDBRANCH  10  11
ENDBRANCH   9  10
ENDBRANCH   8   9
ENDBRANCH   1   8
TORSDOF 9
ENDMDL
MODEL 4
REMARK VINA RESULT:    -3.714      2.571      5.239
REMARK INTER + INTRA:          -6.402
REMARK INTER:                  -5.289
REMARK INTRA:                  -1.113
REMARK UNBOUND:                -0.733
REMARK SMILES CCCCCCCCCCC(=O)[O-]
REMARK SMILES IDX 7 1 8 2 9 3 10 4 11 5 12 6 13 7 6 8 5 9 4 10 3 11 2 12 1 13
REMARK H PARENT
REMARK Flexibility Score: inf
ROOT
ATOM      1  C   UNL     1      -0.175   6.516 -10.945  1.00  0.00     0.000 C 
ENDROOT
BRANCH   1   2
ATOM      2  C   UNL     1      -1.643   6.809 -11.289  1.00  0.00     0.000 C 
BRANCH   2   3
ATOM      3  C   UNL     1      -2.438   7.180 -10.028  1.00  0.00     0.006 C 
BRANCH   3   4
ATOM      4  C   UNL     1      -2.668   8.693  -9.909  1.00  0.00     0.053 C 
BRANCH   4   5
ATOM      5  C   UNL     1      -3.707   9.175 -10.874  1.00  0.00     0.041 C 
ATOM      6  O   UNL     1      -4.830   8.610 -10.932  1.00  0.00    -0.550 OA
ATOM      7  O   UNL     1      -3.421  10.228 -11.735  1.00  0.00    -0.550 OA
ENDBRANCH   4   5
ENDBRANCH   3   4
ENDBRANCH   2   3
ENDBRANCH   1   2
BRANCH   1   8
ATOM      8  C   UNL     1       0.808   7.201 -11.908  1.00  0.00     0.000 C 
BRANCH   8   9
ATOM      9  C   UNL     1       1.195   8.617 -11.451  1.00  0.00    -0.000 C 
BRANCH   9  10
ATOM     10  C   UNL     1       2.083   8.565 -10.198  1.00  0.00    -0.000 C 
BRANCH  10  11
ATOM     11  C   UNL     1       1.512   9.389  -9.033  1.00  0.00    -0.000 C 
BRANCH  11  12
ATOM     12  C   UNL     1       0.779   8.523  -7.999  1.00  0.00    -0.003 C 
ATOM     13  C   UNL     1       1.490   7.188  -7.797  1.00  0.00     0.004 C 
ENDBRANCH  11  12
ENDBRANCH  10  11
ENDBRANCH   9  10
ENDBRANCH   8   9
ENDBRANCH   1   8
TORSDOF 9
ENDMDL
MODEL 5
REMARK VINA RESULT:    -3.712      2.019      3.089
REMARK INTER + INTRA:          -6.399
REMARK INTER:                  -5.371
REMARK INTRA:                  -1.027
REMARK UNBOUND:                -0.733
REMARK SMILES CCCCCCCCCCC(=O)[O-]
REMARK SMILES IDX 7 1 8 2 9 3 10 4 11 5 12 6 13 7 6 8 5 9 4 10 3 11 2 12 1 13
REMARK H PARENT
REMARK Flexibility Score: inf
ROOT
ATOM      1  C   UNL     1      -2.459   6.981 -10.566  1.00  0.00     0.000 C 
ENDROOT
BRANCH   1   2
ATOM      2  C   UNL     1      -0.974   7.195 -10.898  1.00  0.00     0.000 C 
BRANCH   2   3
ATOM      3  C   UNL     1      -0.455   8.500 -10.275  1.00  0.00     0.006 C 
BRANCH   3   4
ATOM      4  C   UNL     1       1.019   8.400  -9.859  1.00  0.00     0.053 C 
BRANCH   4   5
ATOM      5  C   UNL     1       1.182   7.664  -8.565  1.00  0.00     0.041 C 
ATOM      6  O   UNL     1       2.206   6.959  -8.361  1.00  0.00    -0.550 OA
ATOM      7  O   UNL     1       0.188   7.728  -7.597  1.00  0.00    -0.550 OA
ENDBRANCH   4   5
ENDBRANCH   3   4
ENDBRANCH   2   3
ENDBRANCH   1   2
BRANCH   1   8
ATOM      8  C   UNL     1      -3.352   6.978 -11.817  1.00  0.00     0.000 C 
BRANCH   8   9
ATOM      9  C   UNL     1      -4.093   8.309 -12.019  1.00  0.00    -0.000 C 
BRANCH   9  10
ATOM     10  C   UNL     1      -4.298   9.031 -10.679  1.00  0.00    -0.000 C 
BRANCH  10  11
ATOM     11  C   UNL     1      -3.817  10.490 -10.712  1.00  0.00    -0.000 C 
BRANCH  11  12
ATOM     12  C   UNL     1      -3.134  10.859 -12.037  1.00  0.00    -0.003 C 
ATOM     13  C   UNL     1      -1.768  11.493 -11.794  1.00  0.00     0.004 C 
ENDBRANCH  11  12
ENDBRANCH  10  11
ENDBRANCH   9  10
ENDBRANCH   8   9
ENDBRANCH   1   8
TORSDOF 9
ENDMDL
MODEL 6
REMARK VINA RESULT:    -3.659      3.453      6.080
REMARK INTER + INTRA:          -6.316
REMARK INTER:                  -5.600
REMARK INTRA:                  -0.716
REMARK UNBOUND:                -0.733
REMARK SMILES CCCCCCCCCCC(=O)[O-]
REMARK SMILES IDX 7 1 8 2 9 3 10 4 11 5 12 6 13 7 6 8 5 9 4 10 3 11 2 12 1 13
REMARK H PARENT
REMARK Flexibility Score: inf
ROOT
ATOM      1  C   UNL     1      -2.632   7.626 -10.342  1.00  0.00     0.000 C 
ENDROOT
BRANCH   1   2
ATOM      2  C   UNL     1      -3.878   8.370 -10.847  1.00  0.00     0.000 C 
BRANCH   2   3
ATOM      3  C   UNL     1      -3.491   9.698 -11.515  1.00  0.00     0.006 C 
BRANCH   3   4
ATOM      4  C   UNL     1      -4.708  10.440 -12.083  1.00  0.00     0.053 C 
BRANCH   4   5
ATOM      5  C   UNL     1      -5.594  10.969 -10.996  1.00  0.00     0.041 C 
ATOM      6  O   UNL     1      -6.812  10.654 -10.962  1.00  0.00    -0.550 OA
ATOM      7  O   UNL     1      -5.080  11.838 -10.042  1.00  0.00    -0.550 OA
ENDBRANCH   4   5
ENDBRANCH   3   4
ENDBRANCH   2   3
ENDBRANCH   1   2
BRANCH   1   8
ATOM      8  C   UNL     1      -2.105   6.595 -11.353  1.00  0.00     0.000 C 
BRANCH   8   9
ATOM      9  C   UNL     1      -0.570   6.543 -11.400  1.00  0.00    -0.000 C 
BRANCH   9  10
ATOM     10  C   UNL     1       0.035   7.917 -11.076  1.00  0.00    -0.000 C 
BRANCH  10  11
ATOM     11  C   UNL     1       1.267   7.821 -10.162  1.00  0.00    -0.000 C 
BRANCH  11  12
ATOM     12  C   UNL     1       0.947   7.185  -8.802  1.00  0.00    -0.003 C 
ATOM     13  C   UNL     1       0.785   8.249  -7.722  1.00  0.00     0.004 C 
ENDBRANCH  11  12
ENDBRANCH  10  11
ENDBRANCH   9  10
ENDBRANCH   8   9
ENDBRANCH   1   8
TORSDOF 9
ENDMDL
MODEL 7
REMARK VINA RESULT:    -3.658     15.457     16.765
REMARK INTER + INTRA:          -6.316
REMARK INTER:                  -5.824
REMARK INTRA:                  -0.492
REMARK UNBOUND:                -0.733
REMARK SMILES CCCCCCCCCCC(=O)[O-]
REMARK SMILES IDX 7 1 8 2 9 3 10 4 11 5 12 6 13 7 6 8 5 9 4 10 3 11 2 12 1 13
REMARK H PARENT
REMARK Flexibility Score: inf
ROOT
ATOM      1  C   UNL     1       3.001  12.670   5.978  1.00  0.00     0.000 C 
ENDROOT
BRANCH   1   2
ATOM      2  C   UNL     1       4.502  12.983   5.886  1.00  0.00     0.000 C 
BRANCH   2   3
ATOM      3  C   UNL     1       5.247  12.470   7.128  1.00  0.00     0.006 C 
BRANCH   3   4
ATOM      4  C   UNL     1       5.286  10.937   7.190  1.00  0.00     0.053 C 
BRANCH   4   5
ATOM      5  C   UNL     1       6.032  10.352   6.030  1.00  0.00     0.041 C 
ATOM      6  O   UNL     1       7.185  10.768   5.742  1.00  0.00    -0.550 OA
ATOM      7  O   UNL     1       5.438   9.372   5.244  1.00  0.00    -0.550 OA
ENDBRANCH   4   5
ENDBRANCH   3   4
ENDBRANCH   2   3
ENDBRANCH   1   2
BRANCH   1   8
ATOM      8  C   UNL     1       2.187  13.330   4.854  1.00  0.00     0.000 C 
BRANCH   8   9
ATOM      9  C   UNL     1       0.806  13.811   5.326  1.00  0.00    -0.000 C 
BRANCH   9  10
ATOM     10  C   UNL     1      -0.305  13.265   4.417  1.00  0.00    -0.000 C 
BRANCH  10  11
ATOM     11  C   UNL     1      -0.363  11.729   4.410  1.00  0.00    -0.000 C 
BRANCH  11  12
ATOM     12  C   UNL     1      -1.084  11.157   5.639  1.00  0.00    -0.003 C 
ATOM     13  C   UNL     1      -1.895   9.918   5.273  1.00  0.00     0.004 C 
ENDBRANCH  11  12
ENDBRANCH  10  11
ENDBRANCH   9  10
ENDBRANCH   8   9
ENDBRANCH   1   8
TORSDOF 9
ENDMDL
MODEL 8
REMARK VINA RESULT:    -3.615     15.437     17.532
REMARK INTER + INTRA:          -6.250
REMARK INTER:                  -5.725
REMARK INTRA:                  -0.525
REMARK UNBOUND:                -0.733
REMARK SMILES CCCCCCCCCCC(=O)[O-]
REMARK SMILES IDX 7 1 8 2 9 3 10 4 11 5 12 6 13 7 6 8 5 9 4 10 3 11 2 12 1 13
REMARK H PARENT
REMARK Flexibility Score: inf
ROOT
ATOM      1  C   UNL     1       1.950  13.446   4.594  1.00  0.00     0.000 C 
ENDROOT
BRANCH   1   2
ATOM      2  C   UNL     1       0.501  13.786   4.975  1.00  0.00     0.000 C 
BRANCH   2   3
ATOM      3  C   UNL     1      -0.493  12.987   4.118  1.00  0.00     0.006 C 
BRANCH   3   4
ATOM      4  C   UNL     1      -1.591  12.329   4.964  1.00  0.00     0.053 C 
BRANCH   4   5
ATOM      5  C   UNL     1      -1.197  10.957   5.418  1.00  0.00     0.041 C 
ATOM      6  O   UNL     1      -1.365   9.966   4.660  1.00  0.00    -0.550 OA
ATOM      7  O   UNL     1      -0.675  10.768   6.691  1.00  0.00    -0.550 OA
ENDBRANCH   4   5
ENDBRANCH   3   4
ENDBRANCH   2   3
ENDBRANCH   1   2
BRANCH   1   8
ATOM      8  C   UNL     1       2.711  12.736   5.726  1.00  0.00     0.000 C 
BRANCH   8   9
ATOM      9  C   UNL     1       4.024  13.446   6.093  1.00  0.00    -0.000 C 
BRANCH   9  10
ATOM     10  C   UNL     1       4.976  12.490   6.827  1.00  0.00    -0.000 C 
BRANCH  10  11
ATOM     11  C   UNL     1       6.092  11.952   5.918  1.00  0.00    -0.000 C 
BRANCH  11  12
ATOM     12  C   UNL     1       6.218  10.423   5.975  1.00  0.00    -0.003 C 
ATOM     13  C   UNL     1       5.236   9.828   6.979  1.00  0.00     0.004 C 
ENDBRANCH  11  12
ENDBRANCH  10  11
ENDBRANCH   9  10
ENDBRANCH   8   9
ENDBRANCH   1   8
TORSDOF 9
ENDMDL
MODEL 9
REMARK VINA RESULT:    -3.588      1.872      2.508
REMARK INTER + INTRA:          -6.209
REMARK INTER:                  -5.368
REMARK INTRA:                  -0.841
REMARK UNBOUND:                -0.733
REMARK SMILES CCCCCCCCCCC(=O)[O-]
REMARK SMILES IDX 7 1 8 2 9 3 10 4 11 5 12 6 13 7 6 8 5 9 4 10 3 11 2 12 1 13
REMARK H PARENT
REMARK Flexibility Score: inf
ROOT
ATOM      1  C   UNL     1       0.727   8.134  -7.872  1.00  0.00     0.000 C 
ENDROOT
BRANCH   1   2
ATOM      2  C   UNL     1       1.805   7.537  -8.789  1.00  0.00     0.000 C 
BRANCH   2   3
ATOM      3  C   UNL     1       2.318   8.585  -9.788  1.00  0.00     0.006 C 
BRANCH   3   4
ATOM      4  C   UNL     1       1.839  10.001  -9.443  1.00  0.00     0.053 C 
BRANCH   4   5
ATOM      5  C   UNL     1       2.933  11.012  -9.599  1.00  0.00     0.041 C 
ATOM      6  O   UNL     1       3.669  10.997 -10.620  1.00  0.00    -0.550 OA
ATOM      7  O   UNL     1       3.162  11.949  -8.600  1.00  0.00    -0.550 OA
ENDBRANCH   4   5
ENDBRANCH   3   4
ENDBRANCH   2   3
ENDBRANCH   1   2
BRANCH   1   8
ATOM      8  C   UNL     1      -0.700   7.810  -8.346  1.00  0.00     0.000 C 
BRANCH   8   9
ATOM      9  C   UNL     1      -0.733   6.707  -9.415  1.00  0.00    -0.000 C 
BRANCH   9  10
ATOM     10  C   UNL     1      -1.305   7.243 -10.737  1.00  0.00    -0.000 C 
BRANCH  10  11
ATOM     11  C   UNL     1      -1.627   8.744 -10.677  1.00  0.00    -0.000 C 
BRANCH  11  12
ATOM     12  C   UNL     1      -3.070   9.058 -11.098  1.00  0.00    -0.003 C 
ATOM     13  C   UNL     1      -3.747   7.828 -11.696  1.00  0.00     0.004 C 
ENDBRANCH  11  12
ENDBRANCH  10  11
ENDBRANCH   9  10
ENDBRANCH   8   9
ENDBRANCH   1   8
TORSDOF 9
ENDMDL
