MODEL 1
REMARK VINA RESULT:    -5.708      0.000      0.000
REMARK INTER + INTRA:         -15.081
REMARK INTER:                 -13.049
REMARK INTRA:                  -2.032
REMARK UNBOUND:                -2.032
REMARK SMILES CCCCCCCCCCCCCCCCCCCCCCCC(=O)[O-]
REMARK SMILES IDX 13 1 14 2 15 3 16 4 17 5 18 6 19 7 20 8 21 9 22 10 23 11
REMARK SMILES IDX 24 12 25 13 26 14 12 15 11 16 10 17 9 18 8 19 7 20 6 21 5 22
REMARK SMILES IDX 4 23 3 24 2 25 1 26
REMARK H PARENT
REMARK Flexibility Score: inf
ROOT
ATOM      1  C   UNL     1      -1.060 -25.499  -1.460  1.00  0.00     0.000 C 
ENDROOT
BRANCH   1   2
ATOM      2  C   UNL     1       0.093 -25.735  -0.461  1.00  0.00     0.000 C 
BRANCH   2   3
ATOM      3  C   UNL     1       0.333 -27.229  -0.180  1.00  0.00     0.000 C 
BRANCH   3   4
ATOM      4  C   UNL     1       1.672 -27.736  -0.747  1.00  0.00     0.000 C 
BRANCH   4   5
ATOM      5  C   UNL     1       2.673 -28.259   0.302  1.00  0.00     0.000 C 
BRANCH   5   6
ATOM      6  C   UNL     1       2.162 -28.272   1.757  1.00  0.00     0.000 C 
BRANCH   6   7
ATOM      7  C   UNL     1       3.135 -28.883   2.780  1.00  0.00     0.000 C 
BRANCH   7   8
ATOM      8  C   UNL     1       3.784 -30.185   2.282  1.00  0.00     0.000 C 
BRANCH   8   9
ATOM      9  C   UNL     1       3.988 -31.209   3.422  1.00  0.00     0.000 C 
BRANCH   9  10
ATOM     10  C   UNL     1       3.943 -30.581   4.827  1.00  0.00     0.006 C 
BRANCH  10  11
ATOM     11  C   UNL     1       2.876 -31.186   5.749  1.00  0.00     0.053 C 
BRANCH  11  12
ATOM     12  C   UNL     1       1.978 -30.138   6.333  1.00  0.00     0.041 C 
ATOM     13  O   UNL     1       0.757 -30.381   6.525  1.00  0.00    -0.550 OA
ATOM     14  O   UNL     1       2.489 -28.891   6.664  1.00  0.00    -0.550 OA
ENDBRANCH  11  12
ENDBRANCH  10  11
ENDBRANCH   9  10
ENDBRANCH   8   9
ENDBRANCH   7   8
ENDBRANCH   6   7
ENDBRANCH   5   6
ENDBRANCH   4   5
ENDBRANCH   3   4
ENDBRANCH   2   3
ENDBRANCH   1   2
BRANCH   1  15
ATOM     15  C   UNL     1      -1.909 -24.251  -1.154  1.00  0.00     0.000 C 
BRANCH  15  16
ATOM     16  C   UNL     1      -2.094 -23.931   0.342  1.00  0.00     0.000 C 
BRANCH  16  17
ATOM     17  C   UNL     1      -3.474 -23.365   0.724  1.00  0.00     0.000 C 
BRANCH  17  18
ATOM     18  C   UNL     1      -4.439 -24.435   1.257  1.00  0.00    -0.000 C 
BRANCH  18  19
ATOM     19  C   UNL     1      -3.868 -25.841   1.033  1.00  0.00    -0.000 C 
BRANCH  19  20
ATOM     20  C   UNL     1      -4.767 -26.661   0.097  1.00  0.00    -0.000 C 
BRANCH  20  21
ATOM     21  C   UNL     1      -5.945 -25.844  -0.468  1.00  0.00    -0.000 C 
BRANCH  21  22
ATOM     22  C   UNL     1      -6.065 -25.852  -2.003  1.00  0.00    -0.000 C 
BRANCH  22  23
ATOM     23  C   UNL     1      -5.115 -24.856  -2.682  1.00  0.00    -0.000 C 
BRANCH  23  24
ATOM     24  C   UNL     1      -5.488 -24.665  -4.159  1.00  0.00    -0.000 C 
BRANCH  24  25
ATOM     25  C   UNL     1      -5.097 -23.277  -4.689  1.00  0.00    -0.003 C 
ATOM     26  C   UNL     1      -3.728 -22.817  -4.192  1.00  0.00     0.004 C 
ENDBRANCH  24  25
ENDBRANCH  23  24
ENDBRANCH  22  23
ENDBRANCH  21  22
ENDBRANCH  20  21
ENDBRANCH  19  20
ENDBRANCH  18  19
ENDBRANCH  17  18
ENDBRANCH  16  17
ENDBRANCH  15  16
ENDBRANCH   1  15
TORSDOF 22
ENDMDL
MODEL 2
REMARK VINA RESULT:    -5.612      1.601      3.931
REMARK INTER + INTRA:         -14.861
REMARK INTER:                 -12.823
REMARK INTRA:                  -2.037
REMARK UNBOUND:                -2.032
REMARK SMILES CCCCCCCCCCCCCCCCCCCCCCCC(=O)[O-]
REMARK SMILES IDX 13 1 14 2 15 3 16 4 17 5 18 6 19 7 20 8 21 9 22 10 23 11
REMARK SMILES IDX 24 12 25 13 26 14 12 15 11 16 10 17 9 18 8 19 7 20 6 21 5 22
REMARK SMILES IDX 4 23 3 24 2 25 1 26
REMARK H PARENT
REMARK Flexibility Score: inf
ROOT
ATOM      1  C   UNL     1       2.848 -28.207  -0.028  1.00  0.00     0.000 C 
ENDROOT
BRANCH   1   2
ATOM      2  C   UNL     1       2.281 -28.645   1.340  1.00  0.00     0.000 C 
BRANCH   2   3
ATOM      3  C   UNL     1       3.386 -29.023   2.342  1.00  0.00     0.000 C 
BRANCH   3   4
ATOM      4  C   UNL     1       4.689 -29.469   1.654  1.00  0.00     0.000 C 
BRANCH   4   5
ATOM      5  C   UNL     1       5.495 -30.546   2.408  1.00  0.00     0.000 C 
BRANCH   5   6
ATOM      6  C   UNL     1       6.472 -30.015   3.477  1.00  0.00     0.000 C 
BRANCH   6   7
ATOM      7  C   UNL     1       6.928 -31.057   4.513  1.00  0.00     0.000 C 
BRANCH   7   8
ATOM      8  C   UNL     1       6.023 -31.097   5.756  1.00  0.00     0.000 C 
BRANCH   8   9
ATOM      9  C   UNL     1       4.951 -32.207   5.661  1.00  0.00     0.000 C 
BRANCH   9  10
ATOM     10  C   UNL     1       3.517 -31.665   5.514  1.00  0.00     0.006 C 
BRANCH  10  11
ATOM     11  C   UNL     1       3.413 -30.138   5.620  1.00  0.00     0.053 C 
BRANCH  11  12
ATOM     12  C   UNL     1       2.275 -29.712   6.498  1.00  0.00     0.041 C 
ATOM     13  O   UNL     1       1.230 -30.413   6.570  1.00  0.00    -0.550 OA
ATOM     14  O   UNL     1       2.368 -28.540   7.236  1.00  0.00    -0.550 OA
ENDBRANCH  11  12
ENDBRANCH  10  11
ENDBRANCH   9  10
ENDBRANCH   8   9
ENDBRANCH   7   8
ENDBRANCH   6   7
ENDBRANCH   5   6
ENDBRANCH   4   5
ENDBRANCH   3   4
ENDBRANCH   2   3
ENDBRANCH   1   2
BRANCH   1  15
ATOM     15  C   UNL     1       1.872 -27.362  -0.869  1.00  0.00     0.000 C 
BRANCH  15  16
ATOM     16  C   UNL     1       0.446 -27.243  -0.299  1.00  0.00     0.000 C 
BRANCH  16  17
ATOM     17  C   UNL     1      -0.129 -25.814  -0.270  1.00  0.00     0.000 C 
BRANCH  17  18
ATOM     18  C   UNL     1      -1.043 -25.506  -1.465  1.00  0.00    -0.000 C 
BRANCH  18  19
ATOM     19  C   UNL     1      -1.806 -24.195  -1.241  1.00  0.00    -0.000 C 
BRANCH  19  20
ATOM     20  C   UNL     1      -1.961 -23.895   0.257  1.00  0.00    -0.000 C 
BRANCH  20  21
ATOM     21  C   UNL     1      -3.383 -23.433   0.631  1.00  0.00    -0.000 C 
BRANCH  21  22
ATOM     22  C   UNL     1      -4.397 -24.569   0.854  1.00  0.00    -0.000 C 
BRANCH  22  23
ATOM     23  C   UNL     1      -3.729 -25.916   1.164  1.00  0.00    -0.000 C 
BRANCH  23  24
ATOM     24  C   UNL     1      -4.104 -26.969   0.111  1.00  0.00    -0.000 C 
BRANCH  24  25
ATOM     25  C   UNL     1      -4.855 -26.363  -1.085  1.00  0.00    -0.003 C 
ATOM     26  C   UNL     1      -6.371 -26.382  -0.902  1.00  0.00     0.004 C 
ENDBRANCH  24  25
ENDBRANCH  23  24
ENDBRANCH  22  23
ENDBRANCH  21  22
ENDBRANCH  20  21
ENDBRANCH  19  20
ENDBRANCH  18  19
ENDBRANCH  17  18
ENDBRANCH  16  17
ENDBRANCH  15  16
ENDBRANCH   1  15
TORSDOF 22
ENDMDL
MODEL 3
REMARK VINA RESULT:    -5.581      4.183      5.414
REMARK INTER + INTRA:         -14.791
REMARK INTER:                 -12.309
REMARK INTRA:                  -2.482
REMARK UNBOUND:                -2.032
REMARK SMILES CCCCCCCCCCCCCCCCCCCCCCCC(=O)[O-]
REMARK SMILES IDX 13 1 14 2 15 3 16 4 17 5 18 6 19 7 20 8 21 9 22 10 23 11
REMARK SMILES IDX 24 12 25 13 26 14 12 15 11 16 10 17 9 18 8 19 7 20 6 21 5 22
REMARK SMILES IDX 4 23 3 24 2 25 1 26
REMARK H PARENT
REMARK Flexibility Score: inf
ROOT
ATOM      1  C   UNL     1      -1.278 -25.145  -1.425  1.00  0.00     0.000 C 
ENDROOT
BRANCH   1   2
ATOM      2  C   UNL     1      -0.347 -25.540  -0.258  1.00  0.00     0.000 C 
BRANCH   2   3
ATOM      3  C   UNL     1      -0.224 -27.065  -0.093  1.00  0.00     0.000 C 
BRANCH   3   4
ATOM      4  C   UNL     1       1.063 -27.486   0.639  1.00  0.00     0.000 C 
BRANCH   4   5
ATOM      5  C   UNL     1       2.167 -28.075  -0.260  1.00  0.00     0.000 C 
BRANCH   5   6
ATOM      6  C   UNL     1       2.491 -27.262  -1.531  1.00  0.00     0.000 C 
BRANCH   6   7
ATOM      7  C   UNL     1       3.948 -27.367  -2.014  1.00  0.00     0.000 C 
BRANCH   7   8
ATOM      8  C   UNL     1       4.776 -28.372  -1.196  1.00  0.00     0.000 C 
BRANCH   8   9
ATOM      9  C   UNL     1       6.296 -28.187  -1.410  1.00  0.00     0.000 C 
BRANCH   9  10
ATOM     10  C   UNL     1       6.681 -27.914  -2.876  1.00  0.00     0.006 C 
BRANCH  10  11
ATOM     11  C   UNL     1       7.734 -26.811  -3.050  1.00  0.00     0.053 C 
BRANCH  11  12
ATOM     12  C   UNL     1       7.116 -25.501  -3.436  1.00  0.00     0.041 C 
ATOM     13  O   UNL     1       6.785 -24.668  -2.552  1.00  0.00    -0.550 OA
ATOM     14  O   UNL     1       6.906 -25.201  -4.775  1.00  0.00    -0.550 OA
ENDBRANCH  11  12
ENDBRANCH  10  11
ENDBRANCH   9  10
ENDBRANCH   8   9
ENDBRANCH   7   8
ENDBRANCH   6   7
ENDBRANCH   5   6
ENDBRANCH   4   5
ENDBRANCH   3   4
ENDBRANCH   2   3
ENDBRANCH   1   2
BRANCH   1  15
ATOM     15  C   UNL     1      -2.271 -24.019  -1.080  1.00  0.00     0.000 C 
BRANCH  15  16
ATOM     16  C   UNL     1      -2.328 -23.626   0.409  1.00  0.00     0.000 C 
BRANCH  16  17
ATOM     17  C   UNL     1      -3.740 -23.348   0.958  1.00  0.00     0.000 C 
BRANCH  17  18
ATOM     18  C   UNL     1      -4.659 -24.578   0.913  1.00  0.00    -0.000 C 
BRANCH  18  19
ATOM     19  C   UNL     1      -3.878 -25.851   1.262  1.00  0.00    -0.000 C 
BRANCH  19  20
ATOM     20  C   UNL     1      -4.101 -26.944   0.207  1.00  0.00    -0.000 C 
BRANCH  20  21
ATOM     21  C   UNL     1      -5.311 -26.659  -0.702  1.00  0.00    -0.000 C 
BRANCH  21  22
ATOM     22  C   UNL     1      -4.992 -26.591  -2.207  1.00  0.00    -0.000 C 
BRANCH  22  23
ATOM     23  C   UNL     1      -5.781 -25.495  -2.937  1.00  0.00    -0.000 C 
BRANCH  23  24
ATOM     24  C   UNL     1      -5.131 -24.120  -2.727  1.00  0.00    -0.000 C 
BRANCH  24  25
ATOM     25  C   UNL     1      -4.701 -23.464  -4.048  1.00  0.00    -0.003 C 
ATOM     26  C   UNL     1      -5.354 -24.111  -5.269  1.00  0.00     0.004 C 
ENDBRANCH  24  25
ENDBRANCH  23  24
ENDBRANCH  22  23
ENDBRANCH  21  22
ENDBRANCH  20  21
ENDBRANCH  19  20
ENDBRANCH  18  19
ENDBRANCH  17  18
ENDBRANCH  16  17
ENDBRANCH  15  16
ENDBRANCH   1  15
TORSDOF 22
ENDMDL
MODEL 4
REMARK VINA RESULT:    -5.547      1.630      5.003
REMARK INTER + INTRA:         -14.714
REMARK INTER:                 -12.337
REMARK INTRA:                  -2.377
REMARK UNBOUND:                -2.032
REMARK SMILES CCCCCCCCCCCCCCCCCCCCCCCC(=O)[O-]
REMARK SMILES IDX 13 1 14 2 15 3 16 4 17 5 18 6 19 7 20 8 21 9 22 10 23 11
REMARK SMILES IDX 24 12 25 13 26 14 12 15 11 16 10 17 9 18 8 19 7 20 6 21 5 22
REMARK SMILES IDX 4 23 3 24 2 25 1 26
REMARK H PARENT
REMARK Flexibility Score: inf
ROOT
ATOM      1  C   UNL     1       3.077 -29.054   1.876  1.00  0.00     0.000 C 
ENDROOT
BRANCH   1   2
ATOM      2  C   UNL     1       3.655 -30.266   2.638  1.00  0.00     0.000 C 
BRANCH   2   3
ATOM      3  C   UNL     1       4.741 -29.862   3.651  1.00  0.00     0.000 C 
BRANCH   3   4
ATOM      4  C   UNL     1       6.168 -30.057   3.108  1.00  0.00     0.000 C 
BRANCH   4   5
ATOM      5  C   UNL     1       6.420 -31.398   2.390  1.00  0.00     0.000 C 
BRANCH   5   6
ATOM      6  C   UNL     1       7.083 -32.494   3.248  1.00  0.00     0.000 C 
BRANCH   6   7
ATOM      7  C   UNL     1       6.103 -33.485   3.903  1.00  0.00     0.000 C 
BRANCH   7   8
ATOM      8  C   UNL     1       5.653 -33.039   5.304  1.00  0.00     0.000 C 
BRANCH   8   9
ATOM      9  C   UNL     1       4.138 -33.256   5.526  1.00  0.00     0.000 C 
BRANCH   9  10
ATOM     10  C   UNL     1       3.463 -32.115   6.310  1.00  0.00     0.006 C 
BRANCH  10  11
ATOM     11  C   UNL     1       2.131 -31.647   5.709  1.00  0.00     0.053 C 
BRANCH  11  12
ATOM     12  C   UNL     1       1.727 -30.298   6.222  1.00  0.00     0.041 C 
ATOM     13  O   UNL     1       0.516 -30.043   6.457  1.00  0.00    -0.550 OA
ATOM     14  O   UNL     1       2.689 -29.320   6.439  1.00  0.00    -0.550 OA
ENDBRANCH  11  12
ENDBRANCH  10  11
ENDBRANCH   9  10
ENDBRANCH   8   9
ENDBRANCH   7   8
ENDBRANCH   6   7
ENDBRANCH   5   6
ENDBRANCH   4   5
ENDBRANCH   3   4
ENDBRANCH   2   3
ENDBRANCH   1   2
BRANCH   1  15
ATOM     15  C   UNL     1       3.720 -28.815   0.498  1.00  0.00     0.000 C 
BRANCH  15  16
ATOM     16  C   UNL     1       2.776 -28.252  -0.581  1.00  0.00     0.000 C 
BRANCH  16  17
ATOM     17  C   UNL     1       1.305 -28.103  -0.149  1.00  0.00     0.000 C 
BRANCH  17  18
ATOM     18  C   UNL     1       0.891 -26.644   0.094  1.00  0.00    -0.000 C 
BRANCH  18  19
ATOM     19  C   UNL     1      -0.620 -26.469  -0.100  1.00  0.00    -0.000 C 
BRANCH  19  20
ATOM     20  C   UNL     1      -0.974 -25.004  -0.394  1.00  0.00    -0.000 C 
BRANCH  20  21
ATOM     21  C   UNL     1      -1.874 -24.842  -1.633  1.00  0.00    -0.000 C 
BRANCH  21  22
ATOM     22  C   UNL     1      -3.315 -24.386  -1.335  1.00  0.00    -0.000 C 
BRANCH  22  23
ATOM     23  C   UNL     1      -3.521 -23.975   0.130  1.00  0.00    -0.000 C 
BRANCH  23  24
ATOM     24  C   UNL     1      -4.604 -24.838   0.793  1.00  0.00    -0.000 C 
BRANCH  24  25
ATOM     25  C   UNL     1      -4.944 -26.090  -0.030  1.00  0.00    -0.003 C 
ATOM     26  C   UNL     1      -4.211 -27.338   0.461  1.00  0.00     0.004 C 
ENDBRANCH  24  25
ENDBRANCH  23  24
ENDBRANCH  22  23
ENDBRANCH  21  22
ENDBRANCH  20  21
ENDBRANCH  19  20
ENDBRANCH  18  19
ENDBRANCH  17  18
ENDBRANCH  16  17
ENDBRANCH  15  16
ENDBRANCH   1  15
TORSDOF 22
ENDMDL
MODEL 5
REMARK VINA RESULT:    -5.536      3.816     10.308
REMARK INTER + INTRA:         -14.688
REMARK INTER:                 -12.325
REMARK INTRA:                  -2.363
REMARK UNBOUND:                -2.032
REMARK SMILES CCCCCCCCCCCCCCCCCCCCCCCC(=O)[O-]
REMARK SMILES IDX 13 1 14 2 15 3 16 4 17 5 18 6 19 7 20 8 21 9 22 10 23 11
REMARK SMILES IDX 24 12 25 13 26 14 12 15 11 16 10 17 9 18 8 19 7 20 6 21 5 22
REMARK SMILES IDX 4 23 3 24 2 25 1 26
REMARK H PARENT
REMARK Flexibility Score: inf
ROOT
ATOM      1  C   UNL     1      -1.238 -25.316  -1.367  1.00  0.00     0.000 C 
ENDROOT
BRANCH   1   2
ATOM      2  C   UNL     1      -2.007 -23.995  -1.150  1.00  0.00     0.000 C 
BRANCH   2   3
ATOM      3  C   UNL     1      -2.135 -23.626   0.338  1.00  0.00     0.000 C 
BRANCH   3   4
ATOM      4  C   UNL     1      -3.582 -23.301   0.751  1.00  0.00     0.000 C 
BRANCH   4   5
ATOM      5  C   UNL     1      -4.362 -24.469   1.387  1.00  0.00     0.000 C 
BRANCH   5   6
ATOM      6  C   UNL     1      -3.679 -25.849   1.296  1.00  0.00     0.000 C 
BRANCH   6   7
ATOM      7  C   UNL     1      -4.403 -26.872   0.401  1.00  0.00     0.000 C 
BRANCH   7   8
ATOM      8  C   UNL     1      -5.419 -26.218  -0.549  1.00  0.00     0.000 C 
BRANCH   8   9
ATOM      9  C   UNL     1      -4.855 -26.047  -1.979  1.00  0.00     0.000 C 
BRANCH   9  10
ATOM     10  C   UNL     1      -5.920 -25.645  -3.015  1.00  0.00     0.006 C 
BRANCH  10  11
ATOM     11  C   UNL     1      -7.221 -26.454  -2.920  1.00  0.00     0.053 C 
BRANCH  11  12
ATOM     12  C   UNL     1      -7.114 -27.775  -3.620  1.00  0.00     0.041 C 
ATOM     13  O   UNL     1      -7.098 -28.846  -2.958  1.00  0.00    -0.550 OA
ATOM     14  O   UNL     1      -7.030 -27.822  -5.005  1.00  0.00    -0.550 OA
ENDBRANCH  11  12
ENDBRANCH  10  11
ENDBRANCH   9  10
ENDBRANCH   8   9
ENDBRANCH   7   8
ENDBRANCH   6   7
ENDBRANCH   5   6
ENDBRANCH   4   5
ENDBRANCH   3   4
ENDBRANCH   2   3
ENDBRANCH   1   2
BRANCH   1  15
ATOM     15  C   UNL     1      -0.321 -25.707  -0.193  1.00  0.00     0.000 C 
BRANCH  15  16
ATOM     16  C   UNL     1      -0.350 -27.198   0.197  1.00  0.00     0.000 C 
BRANCH  16  17
ATOM     17  C   UNL     1       0.844 -28.029  -0.308  1.00  0.00     0.000 C 
BRANCH  17  18
ATOM     18  C   UNL     1       2.203 -27.453   0.116  1.00  0.00    -0.000 C 
BRANCH  18  19
ATOM     19  C   UNL     1       3.269 -28.555   0.162  1.00  0.00    -0.000 C 
BRANCH  19  20
ATOM     20  C   UNL     1       2.968 -29.570   1.275  1.00  0.00    -0.000 C 
BRANCH  20  21
ATOM     21  C   UNL     1       3.312 -29.038   2.679  1.00  0.00    -0.000 C 
BRANCH  21  22
ATOM     22  C   UNL     1       4.599 -29.616   3.296  1.00  0.00    -0.000 C 
BRANCH  22  23
ATOM     23  C   UNL     1       4.375 -30.218   4.690  1.00  0.00    -0.000 C 
BRANCH  23  24
ATOM     24  C   UNL     1       3.142 -29.597   5.363  1.00  0.00    -0.000 C 
BRANCH  24  25
ATOM     25  C   UNL     1       2.168 -30.656   5.900  1.00  0.00    -0.003 C 
ATOM     26  C   UNL     1       2.803 -32.041   6.011  1.00  0.00     0.004 C 
ENDBRANCH  24  25
ENDBRANCH  23  24
ENDBRANCH  22  23
ENDBRANCH  21  22
ENDBRANCH  20  21
ENDBRANCH  19  20
ENDBRANCH  18  19
ENDBRANCH  17  18
ENDBRANCH  16  17
ENDBRANCH  15  16
ENDBRANCH   1  15
TORSDOF 22
ENDMDL
MODEL 6
REMARK VINA RESULT:    -5.522      3.718     10.990
REMARK INTER + INTRA:         -14.656
REMARK INTER:                 -12.321
REMARK INTRA:                  -2.335
REMARK UNBOUND:                -2.032
REMARK SMILES CCCCCCCCCCCCCCCCCCCCCCCC(=O)[O-]
REMARK SMILES IDX 13 1 14 2 15 3 16 4 17 5 18 6 19 7 20 8 21 9 22 10 23 11
REMARK SMILES IDX 24 12 25 13 26 14 12 15 11 16 10 17 9 18 8 19 7 20 6 21 5 22
REMARK SMILES IDX 4 23 3 24 2 25 1 26
REMARK H PARENT
REMARK Flexibility Score: inf
ROOT
ATOM      1  C   UNL     1       3.123 -29.534   3.875  1.00  0.00     0.000 C 
ENDROOT
BRANCH   1   2
ATOM      2  C   UNL     1       4.551 -29.640   3.296  1.00  0.00     0.000 C 
BRANCH   2   3
ATOM      3  C   UNL     1       4.572 -29.534   1.761  1.00  0.00     0.000 C 
BRANCH   3   4
ATOM      4  C   UNL     1       3.192 -29.201   1.165  1.00  0.00     0.000 C 
BRANCH   4   5
ATOM      5  C   UNL     1       3.222 -28.408  -0.157  1.00  0.00     0.000 C 
BRANCH   5   6
ATOM      6  C   UNL     1       1.902 -27.706  -0.537  1.00  0.00     0.000 C 
BRANCH   6   7
ATOM      7  C   UNL     1       0.892 -27.558   0.615  1.00  0.00     0.000 C 
BRANCH   7   8
ATOM      8  C   UNL     1      -0.456 -26.979   0.154  1.00  0.00     0.000 C 
BRANCH   8   9
ATOM      9  C   UNL     1      -0.282 -25.858  -0.895  1.00  0.00     0.000 C 
BRANCH   9  10
ATOM     10  C   UNL     1      -1.602 -25.167  -1.281  1.00  0.00     0.006 C 
BRANCH  10  11
ATOM     11  C   UNL     1      -2.593 -25.021  -0.118  1.00  0.00     0.053 C 
BRANCH  11  12
ATOM     12  C   UNL     1      -2.602 -23.630   0.442  1.00  0.00     0.041 C 
ATOM     13  O   UNL     1      -3.603 -23.206   1.077  1.00  0.00    -0.550 OA
ATOM     14  O   UNL     1      -1.502 -22.801   0.260  1.00  0.00    -0.550 OA
ENDBRANCH  11  12
ENDBRANCH  10  11
ENDBRANCH   9  10
ENDBRANCH   8   9
ENDBRANCH   7   8
ENDBRANCH   6   7
ENDBRANCH   5   6
ENDBRANCH   4   5
ENDBRANCH   3   4
ENDBRANCH   2   3
ENDBRANCH   1   2
BRANCH   1  15
ATOM     15  C   UNL     1       3.081 -29.341   5.403  1.00  0.00     0.000 C 
BRANCH  15  16
ATOM     16  C   UNL     1       2.619 -30.570   6.209  1.00  0.00     0.000 C 
BRANCH  16  17
ATOM     17  C   UNL     1       2.668 -31.908   5.447  1.00  0.00     0.000 C 
BRANCH  17  18
ATOM     18  C   UNL     1       3.839 -32.804   5.875  1.00  0.00    -0.000 C 
BRANCH  18  19
ATOM     19  C   UNL     1       4.713 -33.167   4.669  1.00  0.00    -0.000 C 
BRANCH  19  20
ATOM     20  C   UNL     1       6.072 -32.454   4.736  1.00  0.00    -0.000 C 
BRANCH  20  21
ATOM     21  C   UNL     1       6.258 -31.642   6.031  1.00  0.00    -0.000 C 
BRANCH  21  22
ATOM     22  C   UNL     1       7.143 -30.390   5.892  1.00  0.00    -0.000 C 
BRANCH  22  23
ATOM     23  C   UNL     1       7.765 -30.249   4.496  1.00  0.00    -0.000 C 
BRANCH  23  24
ATOM     24  C   UNL     1       9.068 -29.438   4.556  1.00  0.00    -0.000 C 
BRANCH  24  25
ATOM     25  C   UNL     1       9.579 -29.042   3.163  1.00  0.00    -0.003 C 
ATOM     26  C   UNL     1       9.089 -27.663   2.723  1.00  0.00     0.004 C 
ENDBRANCH  24  25
ENDBRANCH  23  24
ENDBRANCH  22  23
ENDBRANCH  21  22
ENDBRANCH  20  21
ENDBRANCH  19  20
ENDBRANCH  18  19
ENDBRANCH  17  18
ENDBRANCH  16  17
ENDBRANCH  15  16
ENDBRANCH   1  15
TORSDOF 22
ENDMDL
MODEL 7
REMARK VINA RESULT:    -5.499      3.433      6.782
REMARK INTER + INTRA:         -14.603
REMARK INTER:                 -11.998
REMARK INTRA:                  -2.606
REMARK UNBOUND:                -2.032
REMARK SMILES CCCCCCCCCCCCCCCCCCCCCCCC(=O)[O-]
REMARK SMILES IDX 13 1 14 2 15 3 16 4 17 5 18 6 19 7 20 8 21 9 22 10 23 11
REMARK SMILES IDX 24 12 25 13 26 14 12 15 11 16 10 17 9 18 8 19 7 20 6 21 5 22
REMARK SMILES IDX 4 23 3 24 2 25 1 26
REMARK H PARENT
REMARK Flexibility Score: inf
ROOT
ATOM      1  C   UNL     1       3.480 -29.233   3.617  1.00  0.00     0.000 C 
ENDROOT
BRANCH   1   2
ATOM      2  C   UNL     1       3.515 -29.900   5.009  1.00  0.00     0.000 C 
BRANCH   2   3
ATOM      3  C   UNL     1       2.700 -31.204   5.058  1.00  0.00     0.000 C 
BRANCH   3   4
ATOM      4  C   UNL     1       3.411 -32.325   5.837  1.00  0.00     0.000 C 
BRANCH   4   5
ATOM      5  C   UNL     1       4.837 -32.658   5.354  1.00  0.00     0.000 C 
BRANCH   5   6
ATOM      6  C   UNL     1       4.934 -33.235   3.926  1.00  0.00     0.000 C 
BRANCH   6   7
ATOM      7  C   UNL     1       5.938 -32.519   3.005  1.00  0.00     0.000 C 
BRANCH   7   8
ATOM      8  C   UNL     1       6.929 -31.634   3.777  1.00  0.00     0.000 C 
BRANCH   8   9
ATOM      9  C   UNL     1       6.860 -30.155   3.332  1.00  0.00     0.000 C 
BRANCH   9  10
ATOM     10  C   UNL     1       6.763 -29.977   1.806  1.00  0.00     0.006 C 
BRANCH  10  11
ATOM     11  C   UNL     1       7.915 -29.166   1.198  1.00  0.00     0.053 C 
BRANCH  11  12
ATOM     12  C   UNL     1       9.180 -29.965   1.112  1.00  0.00     0.041 C 
ATOM     13  O   UNL     1      10.269 -29.479   1.519  1.00  0.00    -0.550 OA
ATOM     14  O   UNL     1       9.157 -31.247   0.580  1.00  0.00    -0.550 OA
ENDBRANCH  11  12
ENDBRANCH  10  11
ENDBRANCH   9  10
ENDBRANCH   8   9
ENDBRANCH   7   8
ENDBRANCH   6   7
ENDBRANCH   5   6
ENDBRANCH   4   5
ENDBRANCH   3   4
ENDBRANCH   2   3
ENDBRANCH   1   2
BRANCH   1  15
ATOM     15  C   UNL     1       3.151 -30.203   2.466  1.00  0.00     0.000 C 
BRANCH  15  16
ATOM     16  C   UNL     1       2.301 -29.609   1.327  1.00  0.00     0.000 C 
BRANCH  16  17
ATOM     17  C   UNL     1       2.711 -28.195   0.874  1.00  0.00     0.000 C 
BRANCH  17  18
ATOM     18  C   UNL     1       2.683 -28.018  -0.652  1.00  0.00    -0.000 C 
BRANCH  18  19
ATOM     19  C   UNL     1       1.619 -26.991  -1.059  1.00  0.00    -0.000 C 
BRANCH  19  20
ATOM     20  C   UNL     1       0.784 -26.549   0.153  1.00  0.00    -0.000 C 
BRANCH  20  21
ATOM     21  C   UNL     1      -0.677 -26.227  -0.213  1.00  0.00    -0.000 C 
BRANCH  21  22
ATOM     22  C   UNL     1      -0.861 -25.431  -1.518  1.00  0.00    -0.000 C 
BRANCH  22  23
ATOM     23  C   UNL     1      -2.012 -24.419  -1.444  1.00  0.00    -0.000 C 
BRANCH  23  24
ATOM     24  C   UNL     1      -2.256 -23.971   0.005  1.00  0.00    -0.000 C 
BRANCH  24  25
ATOM     25  C   UNL     1      -3.696 -24.237   0.469  1.00  0.00    -0.003 C 
ATOM     26  C   UNL     1      -4.211 -23.174   1.437  1.00  0.00     0.004 C 
ENDBRANCH  24  25
ENDBRANCH  23  24
ENDBRANCH  22  23
ENDBRANCH  21  22
ENDBRANCH  20  21
ENDBRANCH  19  20
ENDBRANCH  18  19
ENDBRANCH  17  18
ENDBRANCH  16  17
ENDBRANCH  15  16
ENDBRANCH   1  15
TORSDOF 22
ENDMDL
MODEL 8
REMARK VINA RESULT:    -5.489      2.807      4.763
REMARK INTER + INTRA:         -14.581
REMARK INTER:                 -12.334
REMARK INTRA:                  -2.247
REMARK UNBOUND:                -2.032
REMARK SMILES CCCCCCCCCCCCCCCCCCCCCCCC(=O)[O-]
REMARK SMILES IDX 13 1 14 2 15 3 16 4 17 5 18 6 19 7 20 8 21 9 22 10 23 11
REMARK SMILES IDX 24 12 25 13 26 14 12 15 11 16 10 17 9 18 8 19 7 20 6 21 5 22
REMARK SMILES IDX 4 23 3 24 2 25 1 26
REMARK H PARENT
REMARK Flexibility Score: inf
ROOT
ATOM      1  C   UNL     1       2.754 -28.131  -0.457  1.00  0.00     0.000 C 
ENDROOT
BRANCH   1   2
ATOM      2  C   UNL     1       3.520 -28.848   0.676  1.00  0.00     0.000 C 
BRANCH   2   3
ATOM      3  C   UNL     1       2.635 -29.120   1.905  1.00  0.00     0.000 C 
BRANCH   3   4
ATOM      4  C   UNL     1       3.435 -29.161   3.220  1.00  0.00     0.000 C 
BRANCH   4   5
ATOM      5  C   UNL     1       2.942 -30.190   4.257  1.00  0.00     0.000 C 
BRANCH   5   6
ATOM      6  C   UNL     1       3.760 -30.257   5.563  1.00  0.00     0.000 C 
BRANCH   6   7
ATOM      7  C   UNL     1       4.653 -31.504   5.704  1.00  0.00     0.000 C 
BRANCH   7   8
ATOM      8  C   UNL     1       5.816 -31.521   4.699  1.00  0.00     0.000 C 
BRANCH   8   9
ATOM      9  C   UNL     1       6.731 -30.283   4.845  1.00  0.00     0.000 C 
BRANCH   9  10
ATOM     10  C   UNL     1       7.591 -30.005   3.598  1.00  0.00     0.006 C 
BRANCH  10  11
ATOM     11  C   UNL     1       6.778 -29.789   2.314  1.00  0.00     0.053 C 
BRANCH  11  12
ATOM     12  C   UNL     1       7.655 -29.466   1.142  1.00  0.00     0.041 C 
ATOM     13  O   UNL     1       7.164 -28.949   0.104  1.00  0.00    -0.550 OA
ATOM     14  O   UNL     1       9.015 -29.737   1.197  1.00  0.00    -0.550 OA
ENDBRANCH  11  12
ENDBRANCH  10  11
ENDBRANCH   9  10
ENDBRANCH   8   9
ENDBRANCH   7   8
ENDBRANCH   6   7
ENDBRANCH   5   6
ENDBRANCH   4   5
ENDBRANCH   3   4
ENDBRANCH   2   3
ENDBRANCH   1   2
BRANCH   1  15
ATOM     15  C   UNL     1       1.261 -27.901  -0.155  1.00  0.00     0.000 C 
BRANCH  15  16
ATOM     16  C   UNL     1       0.836 -26.427  -0.018  1.00  0.00     0.000 C 
BRANCH  16  17
ATOM     17  C   UNL     1      -0.666 -26.157  -0.224  1.00  0.00     0.000 C 
BRANCH  17  18
ATOM     18  C   UNL     1      -0.980 -25.480  -1.566  1.00  0.00    -0.000 C 
BRANCH  18  19
ATOM     19  C   UNL     1      -1.769 -24.183  -1.348  1.00  0.00    -0.000 C 
BRANCH  19  20
ATOM     20  C   UNL     1      -1.863 -23.837   0.145  1.00  0.00    -0.000 C 
BRANCH  20  21
ATOM     21  C   UNL     1      -3.315 -23.668   0.630  1.00  0.00    -0.000 C 
BRANCH  21  22
ATOM     22  C   UNL     1      -4.024 -24.975   1.030  1.00  0.00    -0.000 C 
BRANCH  22  23
ATOM     23  C   UNL     1      -5.265 -25.269   0.176  1.00  0.00    -0.000 C 
BRANCH  23  24
ATOM     24  C   UNL     1      -4.877 -25.994  -1.121  1.00  0.00    -0.000 C 
BRANCH  24  25
ATOM     25  C   UNL     1      -5.680 -25.500  -2.334  1.00  0.00    -0.003 C 
ATOM     26  C   UNL     1      -5.039 -24.292  -3.016  1.00  0.00     0.004 C 
ENDBRANCH  24  25
ENDBRANCH  23  24
ENDBRANCH  22  23
ENDBRANCH  21  22
ENDBRANCH  20  21
ENDBRANCH  19  20
ENDBRANCH  18  19
ENDBRANCH  17  18
ENDBRANCH  16  17
ENDBRANCH  15  16
ENDBRANCH   1  15
TORSDOF 22
ENDMDL
MODEL 9
REMARK VINA RESULT:    -5.472      3.245     10.890
REMARK INTER + INTRA:         -14.542
REMARK INTER:                 -11.884
REMARK INTRA:                  -2.659
REMARK UNBOUND:                -2.032
REMARK SMILES CCCCCCCCCCCCCCCCCCCCCCCC(=O)[O-]
REMARK SMILES IDX 13 1 14 2 15 3 16 4 17 5 18 6 19 7 20 8 21 9 22 10 23 11
REMARK SMILES IDX 24 12 25 13 26 14 12 15 11 16 10 17 9 18 8 19 7 20 6 21 5 22
REMARK SMILES IDX 4 23 3 24 2 25 1 26
REMARK H PARENT
REMARK Flexibility Score: inf
ROOT
ATOM      1  C   UNL     1       2.767 -28.483   2.088  1.00  0.00     0.000 C 
ENDROOT
BRANCH   1   2
ATOM      2  C   UNL     1       2.182 -28.959   0.740  1.00  0.00     0.000 C 
BRANCH   2   3
ATOM      3  C   UNL     1       2.700 -28.133  -0.451  1.00  0.00     0.000 C 
BRANCH   3   4
ATOM      4  C   UNL     1       1.751 -26.985  -0.839  1.00  0.00     0.000 C 
BRANCH   4   5
ATOM      5  C   UNL     1       0.333 -27.074  -0.241  1.00  0.00     0.000 C 
BRANCH   5   6
ATOM      6  C   UNL     1      -0.439 -25.741  -0.167  1.00  0.00     0.000 C 
BRANCH   6   7
ATOM      7  C   UNL     1      -1.310 -25.427  -1.397  1.00  0.00     0.000 C 
BRANCH   7   8
ATOM      8  C   UNL     1      -2.053 -24.087  -1.275  1.00  0.00     0.000 C 
BRANCH   8   9
ATOM      9  C   UNL     1      -2.250 -23.661   0.197  1.00  0.00     0.000 C 
BRANCH   9  10
ATOM     10  C   UNL     1      -3.704 -23.796   0.687  1.00  0.00     0.006 C 
BRANCH  10  11
ATOM     11  C   UNL     1      -4.007 -25.132   1.380  1.00  0.00     0.053 C 
BRANCH  11  12
ATOM     12  C   UNL     1      -4.499 -26.167   0.415  1.00  0.00     0.041 C 
ATOM     13  O   UNL     1      -4.225 -27.383   0.591  1.00  0.00    -0.550 OA
ATOM     14  O   UNL     1      -5.261 -25.787  -0.682  1.00  0.00    -0.550 OA
ENDBRANCH  11  12
ENDBRANCH  10  11
ENDBRANCH   9  10
ENDBRANCH   8   9
ENDBRANCH   7   8
ENDBRANCH   6   7
ENDBRANCH   5   6
ENDBRANCH   4   5
ENDBRANCH   3   4
ENDBRANCH   2   3
ENDBRANCH   1   2
BRANCH   1  15
ATOM     15  C   UNL     1       3.785 -29.459   2.708  1.00  0.00     0.000 C 
BRANCH  15  16
ATOM     16  C   UNL     1       3.655 -29.667   4.228  1.00  0.00     0.000 C 
BRANCH  16  17
ATOM     17  C   UNL     1       3.243 -31.087   4.661  1.00  0.00     0.000 C 
BRANCH  17  18
ATOM     18  C   UNL     1       3.954 -31.559   5.938  1.00  0.00    -0.000 C 
BRANCH  18  19
ATOM     19  C   UNL     1       4.937 -32.693   5.624  1.00  0.00    -0.000 C 
BRANCH  19  20
ATOM     20  C   UNL     1       4.666 -33.291   4.235  1.00  0.00    -0.000 C 
BRANCH  20  21
ATOM     21  C   UNL     1       5.939 -33.409   3.376  1.00  0.00    -0.000 C 
BRANCH  21  22
ATOM     22  C   UNL     1       6.320 -32.135   2.599  1.00  0.00    -0.000 C 
BRANCH  22  23
ATOM     23  C   UNL     1       7.817 -31.807   2.685  1.00  0.00    -0.000 C 
BRANCH  23  24
ATOM     24  C   UNL     1       8.190 -31.317   4.092  1.00  0.00    -0.000 C 
BRANCH  24  25
ATOM     25  C   UNL     1       7.371 -30.091   4.525  1.00  0.00    -0.003 C 
ATOM     26  C   UNL     1       7.389 -29.872   6.037  1.00  0.00     0.004 C 
ENDBRANCH  24  25
ENDBRANCH  23  24
ENDBRANCH  22  23
ENDBRANCH  21  22
ENDBRANCH  20  21
ENDBRANCH  19  20
ENDBRANCH  18  19
ENDBRANCH  17  18
ENDBRANCH  16  17
ENDBRANCH  15  16
ENDBRANCH   1  15
TORSDOF 22
ENDMDL
