MODEL 1
REMARK VINA RESULT:    -5.404      0.000      0.000
REMARK INTER + INTRA:          -6.008
REMARK INTER:                  -5.720
REMARK INTRA:                  -0.288
REMARK UNBOUND:                -0.288
REMARK SMILES CC1=CC[C@H]2[C@H]3[C@@H]1[C@]2(C)CC[C@H]3C(C)C
REMARK SMILES IDX 1 1 2 2 3 3 4 4 5 5 6 6 7 7 8 8 10 9 11 10 12 11 9 12 13 13
REMARK SMILES IDX 14 14 15 15
REMARK H PARENT
REMARK Flexibility Score: inf
ROOT
ATOM      1  C   UNL     1     167.501 161.490 203.759  1.00  0.00     0.039 C 
ATOM      2  C   UNL     1     167.105 162.493 202.716  1.00  0.00    -0.073 C 
ATOM      3  C   UNL     1     165.831 162.956 202.633  1.00  0.00    -0.027 C 
ATOM      4  C   UNL     1     165.479 163.961 201.530  1.00  0.00     0.031 C 
ATOM      5  C   UNL     1     166.745 164.303 200.679  1.00  0.00     0.003 C 
ATOM      6  C   UNL     1     167.901 164.583 201.667  1.00  0.00     0.004 C 
ATOM      7  C   UNL     1     168.117 163.051 201.711  1.00  0.00     0.024 C 
ATOM      8  C   UNL     1     167.522 163.026 200.282  1.00  0.00    -0.022 C 
ATOM      9  C   UNL     1     168.607 163.401 199.232  1.00  0.00     0.008 C 
ATOM     10  C   UNL     1     169.623 164.448 199.761  1.00  0.00     0.005 C 
ATOM     11  C   UNL     1     169.091 165.306 200.961  1.00  0.00    -0.005 C 
ATOM     12  C   UNL     1     166.724 161.781 199.827  1.00  0.00     0.012 C 
ENDROOT
BRANCH  11  13
ATOM     13  C   UNL     1     168.766 166.774 200.527  1.00  0.00    -0.014 C 
ATOM     14  C   UNL     1     169.792 167.285 199.498  1.00  0.00     0.007 C 
ATOM     15  C   UNL     1     168.732 167.757 201.712  1.00  0.00     0.007 C 
ENDBRANCH  11  13
TORSDOF 1
ENDMDL
MODEL 2
REMARK VINA RESULT:    -5.351      4.097      6.799
REMARK INTER + INTRA:          -5.951
REMARK INTER:                  -5.663
REMARK INTRA:                  -0.288
REMARK UNBOUND:                -0.288
REMARK SMILES CC1=CC[C@H]2[C@H]3[C@@H]1[C@]2(C)CC[C@H]3C(C)C
REMARK SMILES IDX 1 1 2 2 3 3 4 4 5 5 6 6 7 7 8 8 10 9 11 10 12 11 9 12 13 13
REMARK SMILES IDX 14 14 15 15
REMARK H PARENT
REMARK Flexibility Score: inf
ROOT
ATOM      1  C   UNL     1     164.544 170.459 203.661  1.00  0.00     0.039 C 
ATOM      2  C   UNL     1     164.931 169.453 202.618  1.00  0.00    -0.073 C 
ATOM      3  C   UNL     1     166.207 168.998 202.516  1.00  0.00    -0.027 C 
ATOM      4  C   UNL     1     166.547 167.989 201.413  1.00  0.00     0.031 C 
ATOM      5  C   UNL     1     165.270 167.633 200.586  1.00  0.00     0.003 C 
ATOM      6  C   UNL     1     164.133 167.351 201.594  1.00  0.00     0.004 C 
ATOM      7  C   UNL     1     163.906 168.881 201.633  1.00  0.00     0.024 C 
ATOM      8  C   UNL     1     164.477 168.902 200.194  1.00  0.00    -0.022 C 
ATOM      9  C   UNL     1     163.378 168.512 199.164  1.00  0.00     0.008 C 
ATOM     10  C   UNL     1     162.378 167.461 199.717  1.00  0.00     0.005 C 
ATOM     11  C   UNL     1     162.936 166.615 200.913  1.00  0.00    -0.005 C 
ATOM     12  C   UNL     1     165.259 170.150 199.718  1.00  0.00     0.012 C 
ENDROOT
BRANCH  11  13
ATOM     13  C   UNL     1     163.265 165.146 200.482  1.00  0.00    -0.014 C 
ATOM     14  C   UNL     1     162.241 164.631 199.454  1.00  0.00     0.007 C 
ATOM     15  C   UNL     1     163.299 164.166 201.669  1.00  0.00     0.007 C 
ENDBRANCH  11  13
TORSDOF 1
ENDMDL
MODEL 3
REMARK VINA RESULT:    -5.254      1.823      3.244
REMARK INTER + INTRA:          -5.849
REMARK INTER:                  -5.560
REMARK INTRA:                  -0.289
REMARK UNBOUND:                -0.288
REMARK SMILES CC1=CC[C@H]2[C@H]3[C@@H]1[C@]2(C)CC[C@H]3C(C)C
REMARK SMILES IDX 1 1 2 2 3 3 4 4 5 5 6 6 7 7 8 8 10 9 11 10 12 11 9 12 13 13
REMARK SMILES IDX 14 14 15 15
REMARK H PARENT
REMARK Flexibility Score: inf
ROOT
ATOM      1  C   UNL     1     162.946 164.499 202.390  1.00  0.00     0.039 C 
ATOM      2  C   UNL     1     163.800 164.471 201.157  1.00  0.00    -0.073 C 
ATOM      3  C   UNL     1     163.489 165.218 200.066  1.00  0.00    -0.027 C 
ATOM      4  C   UNL     1     164.386 165.128 198.826  1.00  0.00     0.031 C 
ATOM      5  C   UNL     1     165.580 164.154 199.087  1.00  0.00     0.003 C 
ATOM      6  C   UNL     1     166.173 164.512 200.469  1.00  0.00     0.004 C 
ATOM      7  C   UNL     1     165.068 163.614 201.076  1.00  0.00     0.024 C 
ATOM      8  C   UNL     1     165.104 162.835 199.739  1.00  0.00    -0.022 C 
ATOM      9  C   UNL     1     166.278 161.816 199.732  1.00  0.00     0.008 C 
ATOM     10  C   UNL     1     167.523 162.323 200.507  1.00  0.00     0.005 C 
ATOM     11  C   UNL     1     167.588 163.882 200.661  1.00  0.00    -0.005 C 
ATOM     12  C   UNL     1     163.801 162.178 199.222  1.00  0.00     0.012 C 
ENDROOT
BRANCH  11  13
ATOM     13  C   UNL     1     168.687 164.513 199.743  1.00  0.00    -0.014 C 
ATOM     14  C   UNL     1     169.804 163.497 199.442  1.00  0.00     0.007 C 
ATOM     15  C   UNL     1     169.327 165.775 200.351  1.00  0.00     0.007 C 
ENDBRANCH  11  13
TORSDOF 1
ENDMDL
MODEL 4
REMARK VINA RESULT:    -5.249      3.736      6.080
REMARK INTER + INTRA:          -5.843
REMARK INTER:                  -5.554
REMARK INTRA:                  -0.289
REMARK UNBOUND:                -0.288
REMARK SMILES CC1=CC[C@H]2[C@H]3[C@@H]1[C@]2(C)CC[C@H]3C(C)C
REMARK SMILES IDX 1 1 2 2 3 3 4 4 5 5 6 6 7 7 8 8 10 9 11 10 12 11 9 12 13 13
REMARK SMILES IDX 14 14 15 15
REMARK H PARENT
REMARK Flexibility Score: inf
ROOT
ATOM      1  C   UNL     1     169.031 167.509 202.416  1.00  0.00     0.039 C 
ATOM      2  C   UNL     1     168.186 167.538 201.177  1.00  0.00    -0.073 C 
ATOM      3  C   UNL     1     168.502 166.787 200.090  1.00  0.00    -0.027 C 
ATOM      4  C   UNL     1     167.615 166.878 198.843  1.00  0.00     0.031 C 
ATOM      5  C   UNL     1     166.423 167.859 199.092  1.00  0.00     0.003 C 
ATOM      6  C   UNL     1     165.818 167.507 200.470  1.00  0.00     0.004 C 
ATOM      7  C   UNL     1     166.923 168.401 201.084  1.00  0.00     0.024 C 
ATOM      8  C   UNL     1     166.901 169.177 199.745  1.00  0.00    -0.022 C 
ATOM      9  C   UNL     1     165.731 170.202 199.726  1.00  0.00     0.008 C 
ATOM     10  C   UNL     1     164.478 169.701 200.493  1.00  0.00     0.005 C 
ATOM     11  C   UNL     1     164.404 168.143 200.651  1.00  0.00    -0.005 C 
ATOM     12  C   UNL     1     168.210 169.826 199.236  1.00  0.00     0.012 C 
ENDROOT
BRANCH  11  13
ATOM     13  C   UNL     1     163.310 167.515 199.726  1.00  0.00    -0.014 C 
ATOM     14  C   UNL     1     162.208 168.541 199.399  1.00  0.00     0.007 C 
ATOM     15  C   UNL     1     162.648 166.268 200.339  1.00  0.00     0.007 C 
ENDBRANCH  11  13
TORSDOF 1
ENDMDL
MODEL 5
REMARK VINA RESULT:    -5.243      1.834      3.953
REMARK INTER + INTRA:          -5.838
REMARK INTER:                  -5.552
REMARK INTRA:                  -0.286
REMARK UNBOUND:                -0.288
REMARK SMILES CC1=CC[C@H]2[C@H]3[C@@H]1[C@]2(C)CC[C@H]3C(C)C
REMARK SMILES IDX 1 1 2 2 3 3 4 4 5 5 6 6 7 7 8 8 10 9 11 10 12 11 9 12 13 13
REMARK SMILES IDX 14 14 15 15
REMARK H PARENT
REMARK Flexibility Score: inf
ROOT
ATOM      1  C   UNL     1     164.576 161.476 197.889  1.00  0.00     0.039 C 
ATOM      2  C   UNL     1     164.814 162.376 199.065  1.00  0.00    -0.073 C 
ATOM      3  C   UNL     1     163.783 162.983 199.709  1.00  0.00    -0.027 C 
ATOM      4  C   UNL     1     164.091 163.912 200.889  1.00  0.00     0.031 C 
ATOM      5  C   UNL     1     165.630 163.960 201.158  1.00  0.00     0.003 C 
ATOM      6  C   UNL     1     166.146 162.503 201.142  1.00  0.00     0.004 C 
ATOM      7  C   UNL     1     166.225 162.641 199.603  1.00  0.00     0.024 C 
ATOM      8  C   UNL     1     166.429 164.156 199.849  1.00  0.00    -0.022 C 
ATOM      9  C   UNL     1     167.913 164.456 200.203  1.00  0.00     0.008 C 
ATOM     10  C   UNL     1     168.582 163.318 201.019  1.00  0.00     0.005 C 
ATOM     11  C   UNL     1     167.567 162.395 201.778  1.00  0.00    -0.005 C 
ATOM     12  C   UNL     1     165.899 165.161 198.798  1.00  0.00     0.012 C 
ENDROOT
BRANCH  11  13
ATOM     13  C   UNL     1     167.587 162.654 203.321  1.00  0.00    -0.014 C 
ATOM     14  C   UNL     1     168.745 163.593 203.708  1.00  0.00     0.007 C 
ATOM     15  C   UNL     1     167.712 161.360 204.147  1.00  0.00     0.007 C 
ENDBRANCH  11  13
TORSDOF 1
ENDMDL
MODEL 6
REMARK VINA RESULT:    -5.234      4.314      6.669
REMARK INTER + INTRA:          -5.828
REMARK INTER:                  -5.545
REMARK INTRA:                  -0.282
REMARK UNBOUND:                -0.288
REMARK SMILES CC1=CC[C@H]2[C@H]3[C@@H]1[C@]2(C)CC[C@H]3C(C)C
REMARK SMILES IDX 1 1 2 2 3 3 4 4 5 5 6 6 7 7 8 8 10 9 11 10 12 11 9 12 13 13
REMARK SMILES IDX 14 14 15 15
REMARK H PARENT
REMARK Flexibility Score: inf
ROOT
ATOM      1  C   UNL     1     167.451 170.505 197.830  1.00  0.00     0.039 C 
ATOM      2  C   UNL     1     167.189 169.596 198.994  1.00  0.00    -0.073 C 
ATOM      3  C   UNL     1     168.204 168.963 199.637  1.00  0.00    -0.027 C 
ATOM      4  C   UNL     1     167.872 168.027 200.805  1.00  0.00     0.031 C 
ATOM      5  C   UNL     1     166.331 168.004 201.064  1.00  0.00     0.003 C 
ATOM      6  C   UNL     1     165.843 169.471 201.063  1.00  0.00     0.004 C 
ATOM      7  C   UNL     1     165.771 169.352 199.521  1.00  0.00     0.024 C 
ATOM      8  C   UNL     1     165.537 167.839 199.748  1.00  0.00    -0.022 C 
ATOM      9  C   UNL     1     164.045 167.562 200.090  1.00  0.00     0.008 C 
ATOM     10  C   UNL     1     163.393 168.703 200.915  1.00  0.00     0.005 C 
ATOM     11  C   UNL     1     164.420 169.598 201.691  1.00  0.00    -0.005 C 
ATOM     12  C   UNL     1     166.054 166.836 198.689  1.00  0.00     0.012 C 
ENDROOT
BRANCH  11  13
ATOM     13  C   UNL     1     164.385 169.322 203.231  1.00  0.00    -0.014 C 
ATOM     14  C   UNL     1     163.240 168.359 203.594  1.00  0.00     0.007 C 
ATOM     15  C   UNL     1     164.228 170.604 204.069  1.00  0.00     0.007 C 
ENDBRANCH  11  13
TORSDOF 1
ENDMDL
MODEL 7
REMARK VINA RESULT:    -5.194      5.050      6.621
REMARK INTER + INTRA:          -5.785
REMARK INTER:                  -5.492
REMARK INTRA:                  -0.294
REMARK UNBOUND:                -0.288
REMARK SMILES CC1=CC[C@H]2[C@H]3[C@@H]1[C@]2(C)CC[C@H]3C(C)C
REMARK SMILES IDX 1 1 2 2 3 3 4 4 5 5 6 6 7 7 8 8 10 9 11 10 12 11 9 12 13 13
REMARK SMILES IDX 14 14 15 15
REMARK H PARENT
REMARK Flexibility Score: inf
ROOT
ATOM      1  C   UNL     1     163.855 170.698 204.812  1.00  0.00     0.039 C 
ATOM      2  C   UNL     1     164.098 169.585 203.837  1.00  0.00    -0.073 C 
ATOM      3  C   UNL     1     163.695 168.315 204.102  1.00  0.00    -0.027 C 
ATOM      4  C   UNL     1     163.994 167.214 203.078  1.00  0.00     0.031 C 
ATOM      5  C   UNL     1     164.725 167.812 201.832  1.00  0.00     0.003 C 
ATOM      6  C   UNL     1     163.960 169.090 201.420  1.00  0.00     0.004 C 
ATOM      7  C   UNL     1     164.794 169.829 202.494  1.00  0.00     0.024 C 
ATOM      8  C   UNL     1     165.879 168.752 202.249  1.00  0.00    -0.022 C 
ATOM      9  C   UNL     1     166.724 169.103 200.991  1.00  0.00     0.008 C 
ATOM     10  C   UNL     1     165.894 169.807 199.885  1.00  0.00     0.005 C 
ATOM     11  C   UNL     1     164.351 169.548 199.980  1.00  0.00    -0.005 C 
ATOM     12  C   UNL     1     166.792 168.332 203.426  1.00  0.00     0.012 C 
ENDROOT
BRANCH  11  13
ATOM     13  C   UNL     1     163.853 168.581 198.855  1.00  0.00    -0.014 C 
ATOM     14  C   UNL     1     164.293 169.078 197.465  1.00  0.00     0.007 C 
ATOM     15  C   UNL     1     162.324 168.405 198.848  1.00  0.00     0.007 C 
ENDBRANCH  11  13
TORSDOF 1
ENDMDL
MODEL 8
REMARK VINA RESULT:    -5.059      1.583      3.427
REMARK INTER + INTRA:          -5.642
REMARK INTER:                  -5.348
REMARK INTRA:                  -0.295
REMARK UNBOUND:                -0.288
REMARK SMILES CC1=CC[C@H]2[C@H]3[C@@H]1[C@]2(C)CC[C@H]3C(C)C
REMARK SMILES IDX 1 1 2 2 3 3 4 4 5 5 6 6 7 7 8 8 10 9 11 10 12 11 9 12 13 13
REMARK SMILES IDX 14 14 15 15
REMARK H PARENT
REMARK Flexibility Score: inf
ROOT
ATOM      1  C   UNL     1     166.097 162.272 199.552  1.00  0.00     0.039 C 
ATOM      2  C   UNL     1     167.320 163.132 199.666  1.00  0.00    -0.073 C 
ATOM      3  C   UNL     1     168.547 162.664 199.317  1.00  0.00    -0.027 C 
ATOM      4  C   UNL     1     169.764 163.581 199.480  1.00  0.00     0.031 C 
ATOM      5  C   UNL     1     169.325 164.979 200.022  1.00  0.00     0.003 C 
ATOM      6  C   UNL     1     168.099 165.429 199.195  1.00  0.00     0.004 C 
ATOM      7  C   UNL     1     167.243 164.579 200.165  1.00  0.00     0.024 C 
ATOM      8  C   UNL     1     168.350 164.843 201.215  1.00  0.00    -0.022 C 
ATOM      9  C   UNL     1     168.157 166.240 201.871  1.00  0.00     0.008 C 
ATOM     10  C   UNL     1     167.584 167.296 200.888  1.00  0.00     0.005 C 
ATOM     11  C   UNL     1     167.819 166.954 199.376  1.00  0.00    -0.005 C 
ATOM     12  C   UNL     1     168.633 163.765 202.288  1.00  0.00     0.012 C 
ENDROOT
BRANCH  11  13
ATOM     13  C   UNL     1     168.909 167.875 198.734  1.00  0.00    -0.014 C 
ATOM     14  C   UNL     1     168.532 169.361 198.879  1.00  0.00     0.007 C 
ATOM     15  C   UNL     1     169.147 167.574 197.243  1.00  0.00     0.007 C 
ENDBRANCH  11  13
TORSDOF 1
ENDMDL
MODEL 9
REMARK VINA RESULT:    -5.058      4.179      6.695
REMARK INTER + INTRA:          -5.642
REMARK INTER:                  -5.347
REMARK INTRA:                  -0.295
REMARK UNBOUND:                -0.288
REMARK SMILES CC1=CC[C@H]2[C@H]3[C@@H]1[C@]2(C)CC[C@H]3C(C)C
REMARK SMILES IDX 1 1 2 2 3 3 4 4 5 5 6 6 7 7 8 8 10 9 11 10 12 11 9 12 13 13
REMARK SMILES IDX 14 14 15 15
REMARK H PARENT
REMARK Flexibility Score: inf
ROOT
ATOM      1  C   UNL     1     165.926 169.716 199.527  1.00  0.00     0.039 C 
ATOM      2  C   UNL     1     164.698 168.862 199.631  1.00  0.00    -0.073 C 
ATOM      3  C   UNL     1     163.478 169.333 199.260  1.00  0.00    -0.027 C 
ATOM      4  C   UNL     1     162.255 168.422 199.413  1.00  0.00     0.031 C 
ATOM      5  C   UNL     1     162.681 167.026 199.972  1.00  0.00     0.003 C 
ATOM      6  C   UNL     1     163.916 166.564 199.166  1.00  0.00     0.004 C 
ATOM      7  C   UNL     1     164.762 167.419 200.141  1.00  0.00     0.024 C 
ATOM      8  C   UNL     1     163.639 167.167 201.178  1.00  0.00    -0.022 C 
ATOM      9  C   UNL     1     163.816 165.774 201.847  1.00  0.00     0.008 C 
ATOM     10  C   UNL     1     164.399 164.709 200.881  1.00  0.00     0.005 C 
ATOM     11  C   UNL     1     164.187 165.040 199.363  1.00  0.00    -0.005 C 
ATOM     12  C   UNL     1     163.344 168.255 202.238  1.00  0.00     0.012 C 
ENDROOT
BRANCH  11  13
ATOM     13  C   UNL     1     163.102 164.119 198.712  1.00  0.00    -0.014 C 
ATOM     14  C   UNL     1     163.481 162.633 198.855  1.00  0.00     0.007 C 
ATOM     15  C   UNL     1     162.872 164.423 197.221  1.00  0.00     0.007 C 
ENDBRANCH  11  13
TORSDOF 1
ENDMDL
