MODEL 1
REMARK VINA RESULT:    -2.481      0.000      0.000
REMARK INTER + INTRA:          -1.785
REMARK INTER:                  -3.787
REMARK INTRA:                   2.001
REMARK UNBOUND:                 2.001
REMARK SMILES CC(=O)CCC=C(C)CCC=C(C)CCC=C(C)C
REMARK SMILES IDX 10 1 11 2 12 3 13 4 14 5 15 6 16 7 18 8 17 9 19 10 9 11 7 12
REMARK SMILES IDX 6 13 8 14 5 15 4 16 2 17 3 18 1 19
REMARK H PARENT
REMARK Flexibility Score: inf
ROOT
ATOM      1  C   UNL     1      -3.114  -5.696 -13.803  1.00  0.00     0.032 C 
ENDROOT
BRANCH   1   2
ATOM      2  C   UNL     1      -2.251  -4.947 -14.791  1.00  0.00    -0.028 C 
ATOM      3  C   UNL     1      -2.498  -3.693 -15.232  1.00  0.00    -0.077 C 
ATOM      4  C   UNL     1      -3.654  -2.875 -14.706  1.00  0.00     0.039 C 
BRANCH   3   5
ATOM      5  C   UNL     1      -1.577  -3.084 -16.265  1.00  0.00     0.034 C 
BRANCH   5   6
ATOM      6  C   UNL     1      -2.143  -3.268 -17.677  1.00  0.00     0.032 C 
BRANCH   6   7
ATOM      7  C   UNL     1      -3.614  -2.937 -17.712  1.00  0.00    -0.028 C 
ATOM      8  C   UNL     1      -6.023  -3.363 -17.943  1.00  0.00     0.039 C 
ATOM      9  C   UNL     1      -4.597  -3.847 -17.891  1.00  0.00    -0.080 C 
ATOM     10  C   UNL     1      -4.307  -5.325 -18.021  1.00  0.00     0.039 C 
ENDBRANCH   6   7
ENDBRANCH   5   6
ENDBRANCH   3   5
ENDBRANCH   1   2
BRANCH   1  11
ATOM     11  C   UNL     1      -3.309  -7.163 -14.214  1.00  0.00     0.034 C 
BRANCH  11  12
ATOM     12  C   UNL     1      -2.073  -7.733 -14.879  1.00  0.00    -0.077 C 
ATOM     13  C   UNL     1      -2.065  -9.030 -15.258  1.00  0.00    -0.028 C 
ATOM     14  C   UNL     1      -0.876  -6.840 -15.101  1.00  0.00     0.039 C 
BRANCH  13  15
ATOM     15  C   UNL     1      -0.875  -9.688 -15.919  1.00  0.00     0.035 C 
BRANCH  15  16
ATOM     16  C   UNL     1      -0.940  -9.589 -17.449  1.00  0.00     0.079 C 
BRANCH  16  17
ATOM     17  C   UNL     1      -1.722  -8.379 -17.896  1.00  0.00     0.130 C 
ATOM     18  O   UNL     1      -1.138  -7.324 -18.092  1.00  0.00    -0.300 OA
ATOM     19  C   UNL     1      -3.203  -8.445 -18.119  1.00  0.00     0.087 C 
ENDBRANCH  16  17
ENDBRANCH  15  16
ENDBRANCH  13  15
ENDBRANCH  11  12
ENDBRANCH   1  11
TORSDOF 9
ENDMDL
MODEL 2
REMARK VINA RESULT:    -2.430      1.803      5.288
REMARK INTER + INTRA:          -1.707
REMARK INTER:                  -2.063
REMARK INTRA:                   0.356
REMARK UNBOUND:                 2.001
REMARK SMILES CC(=O)CCC=C(C)CCC=C(C)CCC=C(C)C
REMARK SMILES IDX 10 1 11 2 12 3 13 4 14 5 15 6 16 7 18 8 17 9 19 10 9 11 7 12
REMARK SMILES IDX 6 13 8 14 5 15 4 16 2 17 3 18 1 19
REMARK H PARENT
REMARK Flexibility Score: inf
ROOT
ATOM      1  C   UNL     1      -5.273  -4.172 -17.940  1.00  0.00     0.032 C 
ENDROOT
BRANCH   1   2
ATOM      2  C   UNL     1      -3.775  -4.290 -18.085  1.00  0.00    -0.028 C 
ATOM      3  C   UNL     1      -3.076  -5.438 -17.931  1.00  0.00    -0.077 C 
ATOM      4  C   UNL     1      -3.757  -6.758 -17.664  1.00  0.00     0.039 C 
BRANCH   3   5
ATOM      5  C   UNL     1      -1.569  -5.400 -18.052  1.00  0.00     0.034 C 
BRANCH   5   6
ATOM      6  C   UNL     1      -0.991  -6.818 -18.125  1.00  0.00     0.032 C 
BRANCH   6   7
ATOM      7  C   UNL     1      -1.073  -7.500 -16.782  1.00  0.00    -0.028 C 
ATOM      8  C   UNL     1      -1.278  -9.374 -15.205  1.00  0.00     0.039 C 
ATOM      9  C   UNL     1      -1.162  -8.837 -16.609  1.00  0.00    -0.080 C 
ATOM     10  C   UNL     1      -1.131  -9.800 -17.773  1.00  0.00     0.039 C 
ENDBRANCH   6   7
ENDBRANCH   5   6
ENDBRANCH   3   5
ENDBRANCH   1   2
BRANCH   1  11
ATOM     11  C   UNL     1      -5.663  -3.299 -16.738  1.00  0.00     0.034 C 
BRANCH  11  12
ATOM     12  C   UNL     1      -4.660  -3.413 -15.608  1.00  0.00    -0.077 C 
ATOM     13  C   UNL     1      -3.355  -3.165 -15.856  1.00  0.00    -0.028 C 
ATOM     14  C   UNL     1      -5.140  -3.803 -14.231  1.00  0.00     0.039 C 
BRANCH  13  15
ATOM     15  C   UNL     1      -2.282  -3.261 -14.795  1.00  0.00     0.035 C 
BRANCH  15  16
ATOM     16  C   UNL     1      -1.494  -4.573 -14.891  1.00  0.00     0.079 C 
BRANCH  16  17
ATOM     17  C   UNL     1      -1.830  -5.509 -13.757  1.00  0.00     0.130 C 
ATOM     18  O   UNL     1      -1.143  -5.502 -12.747  1.00  0.00    -0.300 OA
ATOM     19  C   UNL     1      -3.001  -6.444 -13.837  1.00  0.00     0.087 C 
ENDBRANCH  16  17
ENDBRANCH  15  16
ENDBRANCH  13  15
ENDBRANCH  11  12
ENDBRANCH   1  11
TORSDOF 9
ENDMDL
MODEL 3
REMARK VINA RESULT:    -1.269      1.520      2.385
REMARK INTER + INTRA:           0.065
REMARK INTER:                   0.287
REMARK INTRA:                  -0.221
REMARK UNBOUND:                 2.001
REMARK SMILES CC(=O)CCC=C(C)CCC=C(C)CCC=C(C)C
REMARK SMILES IDX 10 1 11 2 12 3 13 4 14 5 15 6 16 7 18 8 17 9 19 10 9 11 7 12
REMARK SMILES IDX 6 13 8 14 5 15 4 16 2 17 3 18 1 19
REMARK H PARENT
REMARK Flexibility Score: inf
ROOT
ATOM      1  C   UNL     1      -2.275  -4.095 -14.292  1.00  0.00     0.032 C 
ENDROOT
BRANCH   1   2
ATOM      2  C   UNL     1      -2.826  -4.138 -15.697  1.00  0.00    -0.028 C 
ATOM      3  C   UNL     1      -2.230  -3.579 -16.775  1.00  0.00    -0.077 C 
ATOM      4  C   UNL     1      -0.883  -2.903 -16.681  1.00  0.00     0.039 C 
BRANCH   3   5
ATOM      5  C   UNL     1      -2.922  -3.653 -18.117  1.00  0.00     0.034 C 
BRANCH   5   6
ATOM      6  C   UNL     1      -4.243  -2.875 -18.094  1.00  0.00     0.032 C 
BRANCH   6   7
ATOM      7  C   UNL     1      -4.931  -3.029 -16.760  1.00  0.00    -0.028 C 
ATOM      8  C   UNL     1      -6.819  -3.182 -15.194  1.00  0.00     0.039 C 
ATOM      9  C   UNL     1      -6.272  -3.065 -16.593  1.00  0.00    -0.080 C 
ATOM     10  C   UNL     1      -7.227  -3.008 -17.763  1.00  0.00     0.039 C 
ENDBRANCH   6   7
ENDBRANCH   5   6
ENDBRANCH   3   5
ENDBRANCH   1   2
BRANCH   1  11
ATOM     11  C   UNL     1      -1.849  -5.487 -13.804  1.00  0.00     0.034 C 
BRANCH  11  12
ATOM     12  C   UNL     1      -2.192  -6.568 -14.809  1.00  0.00    -0.077 C 
ATOM     13  C   UNL     1      -1.288  -6.902 -15.756  1.00  0.00    -0.028 C 
ATOM     14  C   UNL     1      -3.539  -7.246 -14.732  1.00  0.00     0.039 C 
BRANCH  13  15
ATOM     15  C   UNL     1      -1.544  -7.961 -16.804  1.00  0.00     0.035 C 
BRANCH  15  16
ATOM     16  C   UNL     1      -2.278  -7.394 -18.026  1.00  0.00     0.079 C 
BRANCH  16  17
ATOM     17  C   UNL     1      -3.741  -7.759 -18.017  1.00  0.00     0.130 C 
ATOM     18  O   UNL     1      -4.582  -6.876 -18.104  1.00  0.00    -0.300 OA
ATOM     19  C   UNL     1      -4.190  -9.186 -17.915  1.00  0.00     0.087 C 
ENDBRANCH  16  17
ENDBRANCH  15  16
ENDBRANCH  13  15
ENDBRANCH  11  12
ENDBRANCH   1  11
TORSDOF 9
ENDMDL
MODEL 4
REMARK VINA RESULT:    -1.239      1.666      2.327
REMARK INTER + INTRA:           0.111
REMARK INTER:                  -1.655
REMARK INTRA:                   1.766
REMARK UNBOUND:                 2.001
REMARK SMILES CC(=O)CCC=C(C)CCC=C(C)CCC=C(C)C
REMARK SMILES IDX 10 1 11 2 12 3 13 4 14 5 15 6 16 7 18 8 17 9 19 10 9 11 7 12
REMARK SMILES IDX 6 13 8 14 5 15 4 16 2 17 3 18 1 19
REMARK H PARENT
REMARK Flexibility Score: inf
ROOT
ATOM      1  C   UNL     1      -0.899  -5.909 -14.499  1.00  0.00     0.032 C 
ENDROOT
BRANCH   1   2
ATOM      2  C   UNL     1      -0.936  -4.674 -15.368  1.00  0.00    -0.028 C 
ATOM      3  C   UNL     1      -0.893  -4.684 -16.720  1.00  0.00    -0.077 C 
ATOM      4  C   UNL     1      -0.875  -5.971 -17.509  1.00  0.00     0.039 C 
BRANCH   3   5
ATOM      5  C   UNL     1      -0.884  -3.367 -17.463  1.00  0.00     0.034 C 
BRANCH   5   6
ATOM      6  C   UNL     1      -2.313  -2.875 -17.721  1.00  0.00     0.032 C 
BRANCH   6   7
ATOM      7  C   UNL     1      -3.187  -3.115 -16.515  1.00  0.00    -0.028 C 
ATOM      8  C   UNL     1      -5.238  -3.682 -15.285  1.00  0.00     0.039 C 
ATOM      9  C   UNL     1      -4.474  -3.523 -16.575  1.00  0.00    -0.080 C 
ATOM     10  C   UNL     1      -5.156  -3.837 -17.887  1.00  0.00     0.039 C 
ENDBRANCH   6   7
ENDBRANCH   5   6
ENDBRANCH   3   5
ENDBRANCH   1   2
BRANCH   1  11
ATOM     11  C   UNL     1      -2.190  -6.731 -14.620  1.00  0.00     0.034 C 
BRANCH  11  12
ATOM     12  C   UNL     1      -1.946  -8.073 -15.282  1.00  0.00    -0.077 C 
ATOM     13  C   UNL     1      -1.989  -8.163 -16.629  1.00  0.00    -0.028 C 
ATOM     14  C   UNL     1      -1.662  -9.279 -14.420  1.00  0.00     0.039 C 
BRANCH  13  15
ATOM     15  C   UNL     1      -1.767  -9.459 -17.376  1.00  0.00     0.035 C 
BRANCH  15  16
ATOM     16  C   UNL     1      -3.030  -9.921 -18.113  1.00  0.00     0.079 C 
BRANCH  16  17
ATOM     17  C   UNL     1      -4.128  -8.890 -18.039  1.00  0.00     0.130 C 
ATOM     18  O   UNL     1      -5.286  -9.254 -17.897  1.00  0.00    -0.300 OA
ATOM     19  C   UNL     1      -3.830  -7.423 -18.125  1.00  0.00     0.087 C 
ENDBRANCH  16  17
ENDBRANCH  15  16
ENDBRANCH  13  15
ENDBRANCH  11  12
ENDBRANCH   1  11
TORSDOF 9
ENDMDL
MODEL 5
REMARK VINA RESULT:    -0.516      1.558      2.541
REMARK INTER + INTRA:           1.214
REMARK INTER:                  -0.819
REMARK INTRA:                   2.033
REMARK UNBOUND:                 2.001
REMARK SMILES CC(=O)CCC=C(C)CCC=C(C)CCC=C(C)C
REMARK SMILES IDX 10 1 11 2 12 3 13 4 14 5 15 6 16 7 18 8 17 9 19 10 9 11 7 12
REMARK SMILES IDX 6 13 8 14 5 15 4 16 2 17 3 18 1 19
REMARK H PARENT
REMARK Flexibility Score: inf
ROOT
ATOM      1  C   UNL     1      -3.516  -6.854 -14.164  1.00  0.00     0.032 C 
ENDROOT
BRANCH   1   2
ATOM      2  C   UNL     1      -3.646  -5.383 -14.482  1.00  0.00    -0.028 C 
ATOM      3  C   UNL     1      -2.814  -4.421 -14.024  1.00  0.00    -0.077 C 
ATOM      4  C   UNL     1      -1.601  -4.747 -13.184  1.00  0.00     0.039 C 
BRANCH   3   5
ATOM      5  C   UNL     1      -3.094  -2.978 -14.379  1.00  0.00     0.034 C 
BRANCH   5   6
ATOM      6  C   UNL     1      -3.861  -2.881 -15.703  1.00  0.00     0.032 C 
BRANCH   6   7
ATOM      7  C   UNL     1      -3.161  -3.664 -16.786  1.00  0.00    -0.028 C 
ATOM      8  C   UNL     1      -1.268  -4.478 -18.125  1.00  0.00     0.039 C 
ATOM      9  C   UNL     1      -1.823  -3.679 -16.973  1.00  0.00    -0.080 C 
ATOM     10  C   UNL     1      -0.877  -2.938 -16.058  1.00  0.00     0.039 C 
ENDBRANCH   6   7
ENDBRANCH   5   6
ENDBRANCH   3   5
ENDBRANCH   1   2
BRANCH   1  11
ATOM     11  C   UNL     1      -2.052  -7.266 -13.957  1.00  0.00     0.034 C 
BRANCH  11  12
ATOM     12  C   UNL     1      -1.582  -8.238 -15.022  1.00  0.00    -0.077 C 
ATOM     13  C   UNL     1      -1.443  -7.807 -16.295  1.00  0.00    -0.028 C 
ATOM     14  C   UNL     1      -1.283  -9.666 -14.636  1.00  0.00     0.039 C 
BRANCH  13  15
ATOM     15  C   UNL     1      -0.990  -8.705 -17.423  1.00  0.00     0.035 C 
BRANCH  15  16
ATOM     16  C   UNL     1      -2.170  -9.391 -18.123  1.00  0.00     0.079 C 
BRANCH  16  17
ATOM     17  C   UNL     1      -3.439  -8.584 -17.996  1.00  0.00     0.130 C 
ATOM     18  O   UNL     1      -4.504  -9.160 -17.830  1.00  0.00    -0.300 OA
ATOM     19  C   UNL     1      -3.421  -7.086 -18.057  1.00  0.00     0.087 C 
ENDBRANCH  16  17
ENDBRANCH  15  16
ENDBRANCH  13  15
ENDBRANCH  11  12
ENDBRANCH   1  11
TORSDOF 9
ENDMDL
MODEL 6
REMARK VINA RESULT:    -0.432      1.544      2.705
REMARK INTER + INTRA:           1.343
REMARK INTER:                   0.887
REMARK INTRA:                   0.456
REMARK UNBOUND:                 2.001
REMARK SMILES CC(=O)CCC=C(C)CCC=C(C)CCC=C(C)C
REMARK SMILES IDX 10 1 11 2 12 3 13 4 14 5 15 6 16 7 18 8 17 9 19 10 9 11 7 12
REMARK SMILES IDX 6 13 8 14 5 15 4 16 2 17 3 18 1 19
REMARK H PARENT
REMARK Flexibility Score: inf
ROOT
ATOM      1  C   UNL     1      -0.901  -6.151 -14.593  1.00  0.00     0.032 C 
ENDROOT
BRANCH   1   2
ATOM      2  C   UNL     1      -0.899  -5.024 -15.597  1.00  0.00    -0.028 C 
ATOM      3  C   UNL     1      -0.938  -5.188 -16.939  1.00  0.00    -0.077 C 
ATOM      4  C   UNL     1      -1.063  -6.553 -17.572  1.00  0.00     0.039 C 
BRANCH   3   5
ATOM      5  C   UNL     1      -0.876  -3.968 -17.830  1.00  0.00     0.034 C 
BRANCH   5   6
ATOM      6  C   UNL     1      -1.825  -2.875 -17.326  1.00  0.00     0.032 C 
BRANCH   6   7
ATOM      7  C   UNL     1      -3.238  -3.143 -17.778  1.00  0.00    -0.028 C 
ATOM      8  C   UNL     1      -5.626  -3.675 -17.543  1.00  0.00     0.039 C 
ATOM      9  C   UNL     1      -4.274  -3.383 -16.944  1.00  0.00    -0.080 C 
ATOM     10  C   UNL     1      -4.118  -3.350 -15.442  1.00  0.00     0.039 C 
ENDBRANCH   6   7
ENDBRANCH   5   6
ENDBRANCH   3   5
ENDBRANCH   1   2
BRANCH   1  11
ATOM     11  C   UNL     1      -2.123  -6.087 -13.665  1.00  0.00     0.034 C 
BRANCH  11  12
ATOM     12  C   UNL     1      -3.370  -6.632 -14.333  1.00  0.00    -0.077 C 
ATOM     13  C   UNL     1      -3.412  -6.722 -15.681  1.00  0.00    -0.028 C 
ATOM     14  C   UNL     1      -4.538  -7.059 -13.478  1.00  0.00     0.039 C 
BRANCH  13  15
ATOM     15  C   UNL     1      -4.613  -7.244 -16.435  1.00  0.00     0.035 C 
BRANCH  15  16
ATOM     16  C   UNL     1      -4.234  -8.352 -17.425  1.00  0.00     0.079 C 
BRANCH  16  17
ATOM     17  C   UNL     1      -2.946  -9.033 -17.034  1.00  0.00     0.130 C 
ATOM     18  O   UNL     1      -2.680  -9.184 -15.851  1.00  0.00    -0.300 OA
ATOM     19  C   UNL     1      -1.985  -9.541 -18.068  1.00  0.00     0.087 C 
ENDBRANCH  16  17
ENDBRANCH  15  16
ENDBRANCH  13  15
ENDBRANCH  11  12
ENDBRANCH   1  11
TORSDOF 9
ENDMDL
MODEL 7
REMARK VINA RESULT:     0.174      1.336      4.604
REMARK INTER + INTRA:           2.267
REMARK INTER:                   2.425
REMARK INTRA:                  -0.158
REMARK UNBOUND:                 2.001
REMARK SMILES CC(=O)CCC=C(C)CCC=C(C)CCC=C(C)C
REMARK SMILES IDX 10 1 11 2 12 3 13 4 14 5 15 6 16 7 18 8 17 9 19 10 9 11 7 12
REMARK SMILES IDX 6 13 8 14 5 15 4 16 2 17 3 18 1 19
REMARK H PARENT
REMARK Flexibility Score: inf
ROOT
ATOM      1  C   UNL     1      -3.251  -6.773 -13.918  1.00  0.00     0.032 C 
ENDROOT
BRANCH   1   2
ATOM      2  C   UNL     1      -2.334  -7.146 -15.058  1.00  0.00    -0.028 C 
ATOM      3  C   UNL     1      -1.827  -8.382 -15.264  1.00  0.00    -0.077 C 
ATOM      4  C   UNL     1      -2.198  -9.554 -14.387  1.00  0.00     0.039 C 
BRANCH   3   5
ATOM      5  C   UNL     1      -0.876  -8.602 -16.419  1.00  0.00     0.034 C 
BRANCH   5   6
ATOM      6  C   UNL     1      -1.631  -8.613 -17.754  1.00  0.00     0.032 C 
BRANCH   6   7
ATOM      7  C   UNL     1      -2.588  -7.451 -17.837  1.00  0.00    -0.028 C 
ATOM      8  C   UNL     1      -4.756  -6.319 -18.076  1.00  0.00     0.039 C 
ATOM      9  C   UNL     1      -3.928  -7.573 -17.964  1.00  0.00    -0.080 C 
ATOM     10  C   UNL     1      -4.612  -8.920 -17.978  1.00  0.00     0.039 C 
ENDBRANCH   6   7
ENDBRANCH   5   6
ENDBRANCH   3   5
ENDBRANCH   1   2
BRANCH   1  11
ATOM     11  C   UNL     1      -4.337  -5.781 -14.360  1.00  0.00     0.034 C 
BRANCH  11  12
ATOM     12  C   UNL     1      -3.765  -4.408 -14.648  1.00  0.00    -0.077 C 
ATOM     13  C   UNL     1      -2.463  -4.293 -14.991  1.00  0.00    -0.028 C 
ATOM     14  C   UNL     1      -4.662  -3.198 -14.544  1.00  0.00     0.039 C 
BRANCH  13  15
ATOM     15  C   UNL     1      -1.803  -2.966 -15.288  1.00  0.00     0.035 C 
BRANCH  15  16
ATOM     16  C   UNL     1      -0.896  -3.038 -16.523  1.00  0.00     0.079 C 
BRANCH  16  17
ATOM     17  C   UNL     1      -1.515  -3.865 -17.622  1.00  0.00     0.130 C 
ATOM     18  O   UNL     1      -0.875  -4.780 -18.119  1.00  0.00    -0.300 OA
ATOM     19  C   UNL     1      -2.907  -3.597 -18.113  1.00  0.00     0.087 C 
ENDBRANCH  16  17
ENDBRANCH  15  16
ENDBRANCH  13  15
ENDBRANCH  11  12
ENDBRANCH   1  11
TORSDOF 9
ENDMDL
