MODEL 1
REMARK VINA RESULT:    -2.753      0.000      0.000
REMARK INTER + INTRA:          -3.284
REMARK INTER:                  -3.236
REMARK INTRA:                  -0.048
REMARK UNBOUND:                -0.048
REMARK SMILES CCCCC(=O)[O-]
REMARK SMILES IDX 4 1 5 2 6 3 7 4 3 5 2 6 1 7
REMARK H PARENT
REMARK Flexibility Score: inf
ROOT
ATOM      1  C   UNL     1      58.884  28.290  48.661  1.00  0.00     0.053 C 
ENDROOT
BRANCH   1   2
ATOM      2  C   UNL     1      59.850  27.148  48.734  1.00  0.00     0.041 C 
ATOM      3  O   UNL     1      61.089  27.361  48.660  1.00  0.00    -0.550 OA
ATOM      4  O   UNL     1      59.382  25.846  48.851  1.00  0.00    -0.550 OA
ENDBRANCH   1   2
BRANCH   1   5
ATOM      5  C   UNL     1      58.057  28.431  49.949  1.00  0.00     0.006 C 
BRANCH   5   6
ATOM      6  C   UNL     1      56.576  28.042  49.792  1.00  0.00    -0.003 C 
ATOM      7  C   UNL     1      55.631  29.234  49.940  1.00  0.00     0.004 C 
ENDBRANCH   5   6
ENDBRANCH   1   5
TORSDOF 3
ENDMDL
MODEL 2
REMARK VINA RESULT:    -2.689     10.097     11.044
REMARK INTER + INTRA:          -3.208
REMARK INTER:                  -3.153
REMARK INTRA:                  -0.055
REMARK UNBOUND:                -0.048
REMARK SMILES CCCCC(=O)[O-]
REMARK SMILES IDX 4 1 5 2 6 3 7 4 3 5 2 6 1 7
REMARK H PARENT
REMARK Flexibility Score: inf
ROOT
ATOM      1  C   UNL     1      57.346  18.060  49.865  1.00  0.00     0.053 C 
ENDROOT
BRANCH   1   2
ATOM      2  C   UNL     1      55.979  18.271  50.440  1.00  0.00     0.041 C 
ATOM      3  O   UNL     1      55.001  18.503  49.680  1.00  0.00    -0.550 OA
ATOM      4  O   UNL     1      55.791  18.245  51.815  1.00  0.00    -0.550 OA
ENDBRANCH   1   2
BRANCH   1   5
ATOM      5  C   UNL     1      57.797  16.594  49.970  1.00  0.00     0.006 C 
BRANCH   5   6
ATOM      6  C   UNL     1      58.862  16.340  51.053  1.00  0.00    -0.003 C 
ATOM      7  C   UNL     1      60.166  17.093  50.791  1.00  0.00     0.004 C 
ENDBRANCH   5   6
ENDBRANCH   1   5
TORSDOF 3
ENDMDL
MODEL 3
REMARK VINA RESULT:    -2.685     16.932     17.957
REMARK INTER + INTRA:          -3.204
REMARK INTER:                  -3.155
REMARK INTRA:                  -0.048
REMARK UNBOUND:                -0.048
REMARK SMILES CCCCC(=O)[O-]
REMARK SMILES IDX 4 1 5 2 6 3 7 4 3 5 2 6 1 7
REMARK H PARENT
REMARK Flexibility Score: inf
ROOT
ATOM      1  C   UNL     1      71.273  30.887  59.547  1.00  0.00     0.053 C 
ENDROOT
BRANCH   1   2
ATOM      2  C   UNL     1      71.229  32.366  59.317  1.00  0.00     0.041 C 
ATOM      3  O   UNL     1      71.246  33.160  60.295  1.00  0.00    -0.550 OA
ATOM      4  O   UNL     1      71.136  32.867  58.026  1.00  0.00    -0.550 OA
ENDBRANCH   1   2
BRANCH   1   5
ATOM      5  C   UNL     1      72.678  30.405  59.943  1.00  0.00     0.006 C 
BRANCH   5   6
ATOM      6  C   UNL     1      72.836  30.092  61.442  1.00  0.00    -0.003 C 
ATOM      7  C   UNL     1      73.100  28.611  61.714  1.00  0.00     0.004 C 
ENDBRANCH   5   6
ENDBRANCH   1   5
TORSDOF 3
ENDMDL
MODEL 4
REMARK VINA RESULT:    -2.626     17.048     17.876
REMARK INTER + INTRA:          -3.134
REMARK INTER:                  -3.050
REMARK INTRA:                  -0.084
REMARK UNBOUND:                -0.048
REMARK SMILES CCCCC(=O)[O-]
REMARK SMILES IDX 4 1 5 2 6 3 7 4 3 5 2 6 1 7
REMARK H PARENT
REMARK Flexibility Score: inf
ROOT
ATOM      1  C   UNL     1      72.683  30.395  60.542  1.00  0.00     0.053 C 
ENDROOT
BRANCH   1   2
ATOM      2  C   UNL     1      72.230  29.318  61.479  1.00  0.00     0.041 C 
ATOM      3  O   UNL     1      73.032  28.828  62.317  1.00  0.00    -0.550 OA
ATOM      4  O   UNL     1      70.931  28.832  61.404  1.00  0.00    -0.550 OA
ENDBRANCH   1   2
BRANCH   1   5
ATOM      5  C   UNL     1      71.904  30.374  59.218  1.00  0.00     0.006 C 
BRANCH   5   6
ATOM      6  C   UNL     1      71.186  31.697  58.890  1.00  0.00    -0.003 C 
ATOM      7  C   UNL     1      71.262  32.711  60.030  1.00  0.00     0.004 C 
ENDBRANCH   5   6
ENDBRANCH   1   5
TORSDOF 3
ENDMDL
MODEL 5
REMARK VINA RESULT:    -2.620     16.962     17.800
REMARK INTER + INTRA:          -3.128
REMARK INTER:                  -3.069
REMARK INTRA:                  -0.058
REMARK UNBOUND:                -0.048
REMARK SMILES CCCCC(=O)[O-]
REMARK SMILES IDX 4 1 5 2 6 3 7 4 3 5 2 6 1 7
REMARK H PARENT
REMARK Flexibility Score: inf
ROOT
ATOM      1  C   UNL     1      72.364  30.508  60.637  1.00  0.00     0.053 C 
ENDROOT
BRANCH   1   2
ATOM      2  C   UNL     1      72.059  29.253  61.395  1.00  0.00     0.041 C 
ATOM      3  O   UNL     1      70.892  28.778  61.392  1.00  0.00    -0.550 OA
ATOM      4  O   UNL     1      73.054  28.626  62.132  1.00  0.00    -0.550 OA
ENDBRANCH   1   2
BRANCH   1   5
ATOM      5  C   UNL     1      71.665  30.541  59.268  1.00  0.00     0.006 C 
BRANCH   5   6
ATOM      6  C   UNL     1      71.083  31.915  58.892  1.00  0.00    -0.003 C 
ATOM      7  C   UNL     1      71.219  32.944  60.013  1.00  0.00     0.004 C 
ENDBRANCH   5   6
ENDBRANCH   1   5
TORSDOF 3
ENDMDL
MODEL 6
REMARK VINA RESULT:    -2.620     17.109     18.127
REMARK INTER + INTRA:          -3.127
REMARK INTER:                  -3.070
REMARK INTRA:                  -0.058
REMARK UNBOUND:                -0.048
REMARK SMILES CCCCC(=O)[O-]
REMARK SMILES IDX 4 1 5 2 6 3 7 4 3 5 2 6 1 7
REMARK H PARENT
REMARK Flexibility Score: inf
ROOT
ATOM      1  C   UNL     1      72.708  30.525  59.911  1.00  0.00     0.053 C 
ENDROOT
BRANCH   1   2
ATOM      2  C   UNL     1      71.459  31.286  59.586  1.00  0.00     0.041 C 
ATOM      3  O   UNL     1      70.629  30.819  58.763  1.00  0.00    -0.550 OA
ATOM      4  O   UNL     1      71.230  32.527  60.166  1.00  0.00    -0.550 OA
ENDBRANCH   1   2
BRANCH   1   5
ATOM      5  C   UNL     1      72.416  29.057  60.258  1.00  0.00     0.006 C 
BRANCH   5   6
ATOM      6  C   UNL     1      73.008  28.599  61.604  1.00  0.00    -0.003 C 
ATOM      7  C   UNL     1      73.125  29.735  62.618  1.00  0.00     0.004 C 
ENDBRANCH   5   6
ENDBRANCH   1   5
TORSDOF 3
ENDMDL
MODEL 7
REMARK VINA RESULT:    -2.584      1.612      2.355
REMARK INTER + INTRA:          -3.085
REMARK INTER:                  -3.050
REMARK INTRA:                  -0.035
REMARK UNBOUND:                -0.048
REMARK SMILES CCCCC(=O)[O-]
REMARK SMILES IDX 4 1 5 2 6 3 7 4 3 5 2 6 1 7
REMARK H PARENT
REMARK Flexibility Score: inf
ROOT
ATOM      1  C   UNL     1      59.216  25.981  48.986  1.00  0.00     0.053 C 
ENDROOT
BRANCH   1   2
ATOM      2  C   UNL     1      60.273  24.995  49.379  1.00  0.00     0.041 C 
ATOM      3  O   UNL     1      61.484  25.342  49.405  1.00  0.00    -0.550 OA
ATOM      4  O   UNL     1      59.926  23.686  49.684  1.00  0.00    -0.550 OA
ENDBRANCH   1   2
BRANCH   1   5
ATOM      5  C   UNL     1      59.810  27.347  48.612  1.00  0.00     0.006 C 
BRANCH   5   6
ATOM      6  C   UNL     1      58.776  28.486  48.542  1.00  0.00    -0.003 C 
ATOM      7  C   UNL     1      57.559  28.237  49.433  1.00  0.00     0.004 C 
ENDBRANCH   5   6
ENDBRANCH   1   5
TORSDOF 3
ENDMDL
MODEL 8
REMARK VINA RESULT:    -2.557      3.271      4.576
REMARK INTER + INTRA:          -3.053
REMARK INTER:                  -3.020
REMARK INTRA:                  -0.033
REMARK UNBOUND:                -0.048
REMARK SMILES CCCCC(=O)[O-]
REMARK SMILES IDX 4 1 5 2 6 3 7 4 3 5 2 6 1 7
REMARK H PARENT
REMARK Flexibility Score: inf
ROOT
ATOM      1  C   UNL     1      56.448  28.274  49.799  1.00  0.00     0.053 C 
ENDROOT
BRANCH   1   2
ATOM      2  C   UNL     1      55.714  29.507  50.229  1.00  0.00     0.041 C 
ATOM      3  O   UNL     1      54.555  29.738  49.796  1.00  0.00    -0.550 OA
ATOM      4  O   UNL     1      56.325  30.418  51.081  1.00  0.00    -0.550 OA
ENDBRANCH   1   2
BRANCH   1   5
ATOM      5  C   UNL     1      57.969  28.420  49.963  1.00  0.00     0.006 C 
BRANCH   5   6
ATOM      6  C   UNL     1      58.751  28.386  48.637  1.00  0.00    -0.003 C 
ATOM      7  C   UNL     1      59.916  27.398  48.661  1.00  0.00     0.004 C 
ENDBRANCH   5   6
ENDBRANCH   1   5
TORSDOF 3
ENDMDL
MODEL 9
REMARK VINA RESULT:    -2.476     10.290     11.397
REMARK INTER + INTRA:          -2.958
REMARK INTER:                  -2.855
REMARK INTRA:                  -0.103
REMARK UNBOUND:                -0.048
REMARK SMILES CCCCC(=O)[O-]
REMARK SMILES IDX 4 1 5 2 6 3 7 4 3 5 2 6 1 7
REMARK H PARENT
REMARK Flexibility Score: inf
ROOT
ATOM      1  C   UNL     1      58.081  16.315  50.409  1.00  0.00     0.053 C 
ENDROOT
BRANCH   1   2
ATOM      2  C   UNL     1      57.908  17.546  49.573  1.00  0.00     0.041 C 
ATOM      3  O   UNL     1      56.816  18.174  49.588  1.00  0.00    -0.550 OA
ATOM      4  O   UNL     1      58.941  17.981  48.753  1.00  0.00    -0.550 OA
ENDBRANCH   1   2
BRANCH   1   5
ATOM      5  C   UNL     1      58.922  16.584  51.667  1.00  0.00     0.006 C 
BRANCH   5   6
ATOM      6  C   UNL     1      60.288  15.875  51.675  1.00  0.00    -0.003 C 
ATOM      7  C   UNL     1      61.422  16.767  51.172  1.00  0.00     0.004 C 
ENDBRANCH   5   6
ENDBRANCH   1   5
TORSDOF 3
ENDMDL
