MODEL 1
REMARK VINA RESULT:    -1.225      0.000      0.000
REMARK INTER + INTRA:          -1.714
REMARK INTER:                  -1.440
REMARK INTRA:                  -0.274
REMARK UNBOUND:                -0.274
REMARK SMILES O=c1cc(-c2ccc(O)c(O)c2)oc2cc(O)cc(O)c12
REMARK SMILES IDX 4 1 3 2 2 3 1 4 21 5 19 6 18 7 16 8 15 9 14 10 13 11 5 12
REMARK SMILES IDX 6 13 7 14 8 15 12 16 10 17 9 18 11 20 20 22 17 24
REMARK H PARENT 9 19 11 21 20 23 17 25
REMARK Flexibility Score: inf
ROOT
ATOM      1  C   UNL     1      21.692  17.452  11.507  1.00  0.00     0.138 A 
ATOM      2  C   UNL     1      22.153  16.610  10.487  1.00  0.00     0.100 A 
ATOM      3  C   UNL     1      23.372  16.884   9.865  1.00  0.00     0.197 A 
ATOM      4  O   UNL     1      23.733  16.143   8.914  1.00  0.00    -0.289 OA
ATOM      5  C   UNL     1      24.150  17.988  10.293  1.00  0.00     0.107 A 
ATOM      6  C   UNL     1      25.424  18.344   9.755  1.00  0.00     0.134 A 
ATOM      7  C   UNL     1      26.053  19.515  10.193  1.00  0.00     0.093 A 
ATOM      8  C   UNL     1      25.483  20.312  11.188  1.00  0.00     0.123 A 
ATOM      9  C   UNL     1      24.265  19.947  11.754  1.00  0.00     0.094 A 
ATOM     10  C   UNL     1      23.595  18.802  11.315  1.00  0.00     0.146 A 
ATOM     11  O   UNL     1      22.425  18.500  11.869  1.00  0.00    -0.456 OA
ENDROOT
BRANCH   1  12
ATOM     12  C   UNL     1      20.404  17.207  12.205  1.00  0.00     0.021 A 
ATOM     13  C   UNL     1      20.211  16.084  13.031  1.00  0.00     0.016 A 
ATOM     14  C   UNL     1      18.984  15.875  13.668  1.00  0.00     0.051 A 
ATOM     15  C   UNL     1      17.930  16.778  13.486  1.00  0.00     0.157 A 
ATOM     16  C   UNL     1      19.336  18.103  12.019  1.00  0.00     0.062 A 
ATOM     17  C   UNL     1      18.107  17.896  12.656  1.00  0.00     0.158 A 
BRANCH  15  18
ATOM     18  O   UNL     1      16.709  16.567  14.125  1.00  0.00    -0.504 OA
ATOM     19  H   UNL     1      15.828  16.683  13.637  1.00  0.00     0.293 HD
ENDBRANCH  15  18
BRANCH  17  20
ATOM     20  O   UNL     1      17.076  18.813  12.451  1.00  0.00    -0.504 OA
ATOM     21  H   UNL     1      16.118  18.519  12.296  1.00  0.00     0.293 HD
ENDBRANCH  17  20
ENDBRANCH   1  12
BRANCH   6  22
ATOM     22  O   UNL     1      26.120  17.577   8.816  1.00  0.00    -0.507 OA
ATOM     23  H   UNL     1      26.497  17.925   7.948  1.00  0.00     0.293 HD
ENDBRANCH   6  22
BRANCH   8  24
ATOM     24  O   UNL     1      26.125  21.468  11.627  1.00  0.00    -0.508 OA
ATOM     25  H   UNL     1      27.022  21.753  11.250  1.00  0.00     0.293 HD
ENDBRANCH   8  24
TORSDOF 5
ENDMDL
MODEL 2
REMARK VINA RESULT:    -1.028      3.742      7.653
REMARK INTER + INTRA:          -1.482
REMARK INTER:                  -1.168
REMARK INTRA:                  -0.314
REMARK UNBOUND:                -0.274
REMARK SMILES O=c1cc(-c2ccc(O)c(O)c2)oc2cc(O)cc(O)c12
REMARK SMILES IDX 4 1 3 2 2 3 1 4 21 5 19 6 18 7 16 8 15 9 14 10 13 11 5 12
REMARK SMILES IDX 6 13 7 14 8 15 12 16 10 17 9 18 11 20 20 22 17 24
REMARK H PARENT 9 19 11 21 20 23 17 25
REMARK Flexibility Score: inf
ROOT
ATOM      1  C   UNL     1      24.484  17.391   7.443  1.00  0.00     0.138 A 
ATOM      2  C   UNL     1      25.337  18.216   8.188  1.00  0.00     0.100 A 
ATOM      3  C   UNL     1      25.083  18.424   9.545  1.00  0.00     0.197 A 
ATOM      4  O   UNL     1      25.834  19.213  10.174  1.00  0.00    -0.289 OA
ATOM      5  C   UNL     1      23.988  17.774  10.165  1.00  0.00     0.107 A 
ATOM      6  C   UNL     1      23.652  17.884  11.548  1.00  0.00     0.134 A 
ATOM      7  C   UNL     1      22.487  17.271  12.025  1.00  0.00     0.093 A 
ATOM      8  C   UNL     1      21.678  16.505  11.183  1.00  0.00     0.123 A 
ATOM      9  C   UNL     1      22.025  16.350   9.844  1.00  0.00     0.094 A 
ATOM     10  C   UNL     1      23.162  16.977   9.329  1.00  0.00     0.146 A 
ATOM     11  O   UNL     1      23.445  16.817   8.040  1.00  0.00    -0.456 OA
ENDROOT
BRANCH   1  12
ATOM     12  C   UNL     1      24.708  17.133   5.997  1.00  0.00     0.021 A 
ATOM     13  C   UNL     1      25.943  17.404   5.378  1.00  0.00     0.016 A 
ATOM     14  C   UNL     1      26.121  17.159   4.014  1.00  0.00     0.051 A 
ATOM     15  C   UNL     1      25.070  16.646   3.244  1.00  0.00     0.157 A 
ATOM     16  C   UNL     1      23.654  16.629   5.214  1.00  0.00     0.062 A 
ATOM     17  C   UNL     1      23.831  16.382   3.848  1.00  0.00     0.158 A 
BRANCH  15  18
ATOM     18  O   UNL     1      25.253  16.401   1.884  1.00  0.00    -0.504 OA
ATOM     19  H   UNL     1      24.717  16.895   1.179  1.00  0.00     0.293 HD
ENDBRANCH  15  18
BRANCH  17  20
ATOM     20  O   UNL     1      22.762  15.875   3.108  1.00  0.00    -0.504 OA
ATOM     21  H   UNL     1      21.816  15.861   3.470  1.00  0.00     0.293 HD
ENDBRANCH  17  20
ENDBRANCH   1  12
BRANCH   6  22
ATOM     22  O   UNL     1      24.433  18.558  12.492  1.00  0.00    -0.507 OA
ATOM     23  H   UNL     1      24.350  18.456  13.492  1.00  0.00     0.293 HD
ENDBRANCH   6  22
BRANCH   8  24
ATOM     24  O   UNL     1      20.529  15.886  11.672  1.00  0.00    -0.508 OA
ATOM     25  H   UNL     1      19.605  16.156  11.354  1.00  0.00     0.293 HD
ENDBRANCH   8  24
TORSDOF 5
ENDMDL
MODEL 3
REMARK VINA RESULT:     0.357      1.341      1.689
REMARK INTER + INTRA:           0.146
REMARK INTER:                   0.410
REMARK INTRA:                  -0.265
REMARK UNBOUND:                -0.274
REMARK SMILES O=c1cc(-c2ccc(O)c(O)c2)oc2cc(O)cc(O)c12
REMARK SMILES IDX 4 1 3 2 2 3 1 4 21 5 19 6 18 7 16 8 15 9 14 10 13 11 5 12
REMARK SMILES IDX 6 13 7 14 8 15 12 16 10 17 9 18 11 20 20 22 17 24
REMARK H PARENT 9 19 11 21 20 23 17 25
REMARK Flexibility Score: inf
ROOT
ATOM      1  C   UNL     1      21.566  18.201  12.355  1.00  0.00     0.138 A 
ATOM      2  C   UNL     1      22.243  17.751  11.214  1.00  0.00     0.100 A 
ATOM      3  C   UNL     1      23.449  18.350  10.847  1.00  0.00     0.197 A 
ATOM      4  O   UNL     1      24.006  17.962   9.788  1.00  0.00    -0.289 OA
ATOM      5  C   UNL     1      23.996  19.381  11.648  1.00  0.00     0.107 A 
ATOM      6  C   UNL     1      25.235  20.042  11.390  1.00  0.00     0.134 A 
ATOM      7  C   UNL     1      25.625  21.116  12.200  1.00  0.00     0.093 A 
ATOM      8  C   UNL     1      24.850  21.516  13.291  1.00  0.00     0.123 A 
ATOM      9  C   UNL     1      23.664  20.846  13.580  1.00  0.00     0.094 A 
ATOM     10  C   UNL     1      23.230  19.793  12.771  1.00  0.00     0.146 A 
ATOM     11  O   UNL     1      22.083  19.192  13.072  1.00  0.00    -0.456 OA
ENDROOT
BRANCH   1  12
ATOM     12  C   UNL     1      20.281  17.599  12.794  1.00  0.00     0.021 A 
ATOM     13  C   UNL     1      20.239  16.424  13.568  1.00  0.00     0.016 A 
ATOM     14  C   UNL     1      19.014  15.876  13.958  1.00  0.00     0.051 A 
ATOM     15  C   UNL     1      17.813  16.485  13.577  1.00  0.00     0.157 A 
ATOM     16  C   UNL     1      19.068  18.198  12.405  1.00  0.00     0.062 A 
ATOM     17  C   UNL     1      17.841  17.650  12.795  1.00  0.00     0.158 A 
BRANCH  15  18
ATOM     18  O   UNL     1      16.593  15.936  13.971  1.00  0.00    -0.504 OA
ATOM     19  H   UNL     1      16.500  14.950  14.187  1.00  0.00     0.293 HD
ENDBRANCH  15  18
BRANCH  17  20
ATOM     20  O   UNL     1      16.662  18.279  12.396  1.00  0.00    -0.504 OA
ATOM     21  H   UNL     1      16.010  17.843  11.754  1.00  0.00     0.293 HD
ENDBRANCH  17  20
ENDBRANCH   1  12
BRANCH   6  22
ATOM     22  O   UNL     1      26.125  19.672  10.377  1.00  0.00    -0.507 OA
ATOM     23  H   UNL     1      27.070  19.354  10.523  1.00  0.00     0.293 HD
ENDBRANCH   6  22
BRANCH   8  24
ATOM     24  O   UNL     1      25.254  22.577  14.099  1.00  0.00    -0.508 OA
ATOM     25  H   UNL     1      26.134  23.055  13.945  1.00  0.00     0.293 HD
ENDBRANCH   8  24
TORSDOF 5
ENDMDL
