MODEL 1
REMARK VINA RESULT:    -7.040      0.000      0.000
REMARK INTER + INTRA:          -8.551
REMARK INTER:                  -8.275
REMARK INTRA:                  -0.276
REMARK UNBOUND:                -0.276
REMARK SMILES O=c1cc(-c2ccc(O)c(O)c2)oc2cc(O)cc(O)c12
REMARK SMILES IDX 4 1 3 2 2 3 1 4 21 5 19 6 18 7 16 8 15 9 14 10 13 11 5 12
REMARK SMILES IDX 6 13 7 14 8 15 12 16 10 17 9 18 11 20 20 22 17 24
REMARK H PARENT 9 19 11 21 20 23 17 25
REMARK Flexibility Score: inf
ROOT
ATOM      1  C   UNL     1      23.046  16.371   4.039  1.00  0.00     0.138 A 
ATOM      2  C   UNL     1      24.082  15.465   3.774  1.00  0.00     0.100 A 
ATOM      3  C   UNL     1      23.775  14.158   3.395  1.00  0.00     0.197 A 
ATOM      4  O   UNL     1      24.725  13.350   3.224  1.00  0.00    -0.289 OA
ATOM      5  C   UNL     1      22.423  13.766   3.250  1.00  0.00     0.107 A 
ATOM      6  C   UNL     1      21.992  12.473   2.829  1.00  0.00     0.134 A 
ATOM      7  C   UNL     1      20.625  12.164   2.835  1.00  0.00     0.093 A 
ATOM      8  C   UNL     1      19.672  13.123   3.188  1.00  0.00     0.123 A 
ATOM      9  C   UNL     1      20.079  14.405   3.549  1.00  0.00     0.094 A 
ATOM     10  C   UNL     1      21.438  14.733   3.585  1.00  0.00     0.146 A 
ATOM     11  O   UNL     1      21.785  15.963   3.949  1.00  0.00    -0.456 OA
ENDROOT
BRANCH   1  12
ATOM     12  C   UNL     1      23.316  17.774   4.445  1.00  0.00     0.021 A 
ATOM     13  C   UNL     1      23.966  18.680   3.586  1.00  0.00     0.016 A 
ATOM     14  C   UNL     1      24.198  19.997   3.990  1.00  0.00     0.051 A 
ATOM     15  C   UNL     1      23.778  20.434   5.253  1.00  0.00     0.157 A 
ATOM     16  C   UNL     1      22.887  18.225   5.707  1.00  0.00     0.062 A 
ATOM     17  C   UNL     1      23.120  19.546   6.112  1.00  0.00     0.158 A 
BRANCH  15  18
ATOM     18  O   UNL     1      24.010  21.747   5.659  1.00  0.00    -0.504 OA
ATOM     19  H   UNL     1      24.580  22.380   5.110  1.00  0.00     0.293 HD
ENDBRANCH  15  18
BRANCH  17  20
ATOM     20  O   UNL     1      22.700  19.985   7.367  1.00  0.00    -0.504 OA
ATOM     21  H   UNL     1      21.870  19.609   7.809  1.00  0.00     0.293 HD
ENDBRANCH  17  20
ENDBRANCH   1  12
BRANCH   6  22
ATOM     22  O   UNL     1      22.855  11.470   2.377  1.00  0.00    -0.507 OA
ATOM     23  H   UNL     1      23.672  11.147   2.872  1.00  0.00     0.293 HD
ENDBRANCH   6  22
BRANCH   8  24
ATOM     24  O   UNL     1      18.314  12.812   3.176  1.00  0.00    -0.508 OA
ATOM     25  H   UNL     1      17.979  11.890   3.431  1.00  0.00     0.293 HD
ENDBRANCH   8  24
TORSDOF 5
ENDMDL
MODEL 2
REMARK VINA RESULT:    -6.410      1.273      2.862
REMARK INTER + INTRA:          -7.810
REMARK INTER:                  -7.547
REMARK INTRA:                  -0.264
REMARK UNBOUND:                -0.276
REMARK SMILES O=c1cc(-c2ccc(O)c(O)c2)oc2cc(O)cc(O)c12
REMARK SMILES IDX 4 1 3 2 2 3 1 4 21 5 19 6 18 7 16 8 15 9 14 10 13 11 5 12
REMARK SMILES IDX 6 13 7 14 8 15 12 16 10 17 9 18 11 20 20 22 17 24
REMARK H PARENT 9 19 11 21 20 23 17 25
REMARK Flexibility Score: inf
ROOT
ATOM      1  C   UNL     1      23.030  16.553   3.942  1.00  0.00     0.138 A 
ATOM      2  C   UNL     1      21.722  16.108   3.704  1.00  0.00     0.100 A 
ATOM      3  C   UNL     1      21.505  14.791   3.299  1.00  0.00     0.197 A 
ATOM      4  O   UNL     1      20.326  14.437   3.034  1.00  0.00    -0.289 OA
ATOM      5  C   UNL     1      22.601  13.906   3.162  1.00  0.00     0.107 A 
ATOM      6  C   UNL     1      22.495  12.532   2.796  1.00  0.00     0.134 A 
ATOM      7  C   UNL     1      23.660  11.783   2.578  1.00  0.00     0.093 A 
ATOM      8  C   UNL     1      24.925  12.346   2.772  1.00  0.00     0.123 A 
ATOM      9  C   UNL     1      25.037  13.672   3.183  1.00  0.00     0.094 A 
ATOM     10  C   UNL     1      23.895  14.453   3.376  1.00  0.00     0.146 A 
ATOM     11  O   UNL     1      24.046  15.719   3.753  1.00  0.00    -0.456 OA
ENDROOT
BRANCH   1  12
ATOM     12  C   UNL     1      23.318  17.944   4.375  1.00  0.00     0.021 A 
ATOM     13  C   UNL     1      23.926  18.876   3.511  1.00  0.00     0.016 A 
ATOM     14  C   UNL     1      24.177  20.181   3.941  1.00  0.00     0.051 A 
ATOM     15  C   UNL     1      23.820  20.580   5.235  1.00  0.00     0.157 A 
ATOM     16  C   UNL     1      22.952  18.357   5.668  1.00  0.00     0.062 A 
ATOM     17  C   UNL     1      23.205  19.667   6.099  1.00  0.00     0.158 A 
BRANCH  15  18
ATOM     18  O   UNL     1      24.071  21.882   5.667  1.00  0.00    -0.504 OA
ATOM     19  H   UNL     1      24.755  22.080   6.387  1.00  0.00     0.293 HD
ENDBRANCH  15  18
BRANCH  17  20
ATOM     20  O   UNL     1      22.847  20.068   7.386  1.00  0.00    -0.504 OA
ATOM     21  H   UNL     1      22.961  19.454   8.183  1.00  0.00     0.293 HD
ENDBRANCH  17  20
ENDBRANCH   1  12
BRANCH   6  22
ATOM     22  O   UNL     1      21.282  11.850   2.657  1.00  0.00    -0.507 OA
ATOM     23  H   UNL     1      20.813  11.353   3.399  1.00  0.00     0.293 HD
ENDBRANCH   6  22
BRANCH   8  24
ATOM     24  O   UNL     1      26.077  11.589   2.568  1.00  0.00    -0.508 OA
ATOM     25  H   UNL     1      26.826  11.569   3.250  1.00  0.00     0.293 HD
ENDBRANCH   8  24
TORSDOF 5
ENDMDL
MODEL 3
REMARK VINA RESULT:    -5.735      3.212      6.032
REMARK INTER + INTRA:          -7.016
REMARK INTER:                  -6.745
REMARK INTRA:                  -0.271
REMARK UNBOUND:                -0.276
REMARK SMILES O=c1cc(-c2ccc(O)c(O)c2)oc2cc(O)cc(O)c12
REMARK SMILES IDX 4 1 3 2 2 3 1 4 21 5 19 6 18 7 16 8 15 9 14 10 13 11 5 12
REMARK SMILES IDX 6 13 7 14 8 15 12 16 10 17 9 18 11 20 20 22 17 24
REMARK H PARENT 9 19 11 21 20 23 17 25
REMARK Flexibility Score: inf
ROOT
ATOM      1  C   UNL     1      23.016  19.503   7.668  1.00  0.00     0.138 A 
ATOM      2  C   UNL     1      23.606  20.546   6.940  1.00  0.00     0.100 A 
ATOM      3  C   UNL     1      23.911  20.359   5.591  1.00  0.00     0.197 A 
ATOM      4  O   UNL     1      24.496  21.291   4.980  1.00  0.00    -0.289 OA
ATOM      5  C   UNL     1      23.595  19.132   4.961  1.00  0.00     0.107 A 
ATOM      6  C   UNL     1      23.822  18.844   3.583  1.00  0.00     0.134 A 
ATOM      7  C   UNL     1      23.576  17.553   3.097  1.00  0.00     0.093 A 
ATOM      8  C   UNL     1      23.053  16.558   3.928  1.00  0.00     0.123 A 
ATOM      9  C   UNL     1      22.776  16.846   5.262  1.00  0.00     0.094 A 
ATOM     10  C   UNL     1      23.043  18.114   5.784  1.00  0.00     0.146 A 
ATOM     11  O   UNL     1      22.779  18.342   7.067  1.00  0.00    -0.456 OA
ENDROOT
BRANCH   1  12
ATOM     12  C   UNL     1      22.669  19.648   9.104  1.00  0.00     0.021 A 
ATOM     13  C   UNL     1      23.652  19.594  10.111  1.00  0.00     0.016 A 
ATOM     14  C   UNL     1      23.299  19.743  11.455  1.00  0.00     0.051 A 
ATOM     15  C   UNL     1      21.963  19.955  11.815  1.00  0.00     0.157 A 
ATOM     16  C   UNL     1      21.331  19.873   9.475  1.00  0.00     0.062 A 
ATOM     17  C   UNL     1      20.977  20.022  10.824  1.00  0.00     0.158 A 
BRANCH  15  18
ATOM     18  O   UNL     1      21.608  20.102  13.155  1.00  0.00    -0.504 OA
ATOM     19  H   UNL     1      20.751  20.567  13.430  1.00  0.00     0.293 HD
ENDBRANCH  15  18
BRANCH  17  20
ATOM     20  O   UNL     1      19.648  20.237  11.186  1.00  0.00    -0.504 OA
ATOM     21  H   UNL     1      19.380  20.392  12.150  1.00  0.00     0.293 HD
ENDBRANCH  17  20
ENDBRANCH   1  12
BRANCH   6  22
ATOM     22  O   UNL     1      24.263  19.787   2.649  1.00  0.00    -0.507 OA
ATOM     23  H   UNL     1      23.799  20.661   2.450  1.00  0.00     0.293 HD
ENDBRANCH   6  22
BRANCH   8  24
ATOM     24  O   UNL     1      22.797  15.282   3.432  1.00  0.00    -0.508 OA
ATOM     25  H   UNL     1      22.167  15.132   2.652  1.00  0.00     0.293 HD
ENDBRANCH   8  24
TORSDOF 5
ENDMDL
MODEL 4
REMARK VINA RESULT:    -5.149      3.672      7.826
REMARK INTER + INTRA:          -6.328
REMARK INTER:                  -6.030
REMARK INTRA:                  -0.298
REMARK UNBOUND:                -0.276
REMARK SMILES O=c1cc(-c2ccc(O)c(O)c2)oc2cc(O)cc(O)c12
REMARK SMILES IDX 4 1 3 2 2 3 1 4 21 5 19 6 18 7 16 8 15 9 14 10 13 11 5 12
REMARK SMILES IDX 6 13 7 14 8 15 12 16 10 17 9 18 11 20 20 22 17 24
REMARK H PARENT 9 19 11 21 20 23 17 25
REMARK Flexibility Score: inf
ROOT
ATOM      1  C   UNL     1      23.640  19.217   7.262  1.00  0.00     0.138 A 
ATOM      2  C   UNL     1      24.712  20.050   7.609  1.00  0.00     0.100 A 
ATOM      3  C   UNL     1      24.831  20.512   8.920  1.00  0.00     0.197 A 
ATOM      4  O   UNL     1      25.770  21.307   9.187  1.00  0.00    -0.289 OA
ATOM      5  C   UNL     1      23.888  20.112   9.895  1.00  0.00     0.107 A 
ATOM      6  C   UNL     1      23.932  20.487  11.271  1.00  0.00     0.134 A 
ATOM      7  C   UNL     1      22.878  20.126  12.120  1.00  0.00     0.093 A 
ATOM      8  C   UNL     1      21.811  19.351  11.655  1.00  0.00     0.123 A 
ATOM      9  C   UNL     1      21.786  18.934  10.327  1.00  0.00     0.094 A 
ATOM     10  C   UNL     1      22.806  19.307   9.447  1.00  0.00     0.146 A 
ATOM     11  O   UNL     1      22.736  18.900   8.184  1.00  0.00    -0.456 OA
ENDROOT
BRANCH   1  12
ATOM     12  C   UNL     1      23.465  18.696   5.883  1.00  0.00     0.021 A 
ATOM     13  C   UNL     1      24.559  18.245   5.118  1.00  0.00     0.016 A 
ATOM     14  C   UNL     1      24.364  17.751   3.826  1.00  0.00     0.051 A 
ATOM     15  C   UNL     1      23.077  17.689   3.279  1.00  0.00     0.157 A 
ATOM     16  C   UNL     1      22.174  18.618   5.329  1.00  0.00     0.062 A 
ATOM     17  C   UNL     1      21.980  18.121   4.033  1.00  0.00     0.158 A 
BRANCH  15  18
ATOM     18  O   UNL     1      22.881  17.196   1.990  1.00  0.00    -0.504 OA
ATOM     19  H   UNL     1      22.014  17.350   1.489  1.00  0.00     0.293 HD
ENDBRANCH  15  18
BRANCH  17  20
ATOM     20  O   UNL     1      20.699  18.055   3.487  1.00  0.00    -0.504 OA
ATOM     21  H   UNL     1      20.395  18.702   2.768  1.00  0.00     0.293 HD
ENDBRANCH  17  20
ENDBRANCH   1  12
BRANCH   6  22
ATOM     22  O   UNL     1      24.991  21.189  11.856  1.00  0.00    -0.507 OA
ATOM     23  H   UNL     1      25.571  20.837  12.603  1.00  0.00     0.293 HD
ENDBRANCH   6  22
BRANCH   8  24
ATOM     24  O   UNL     1      20.775  18.983  12.511  1.00  0.00    -0.508 OA
ATOM     25  H   UNL     1      19.959  18.488  12.173  1.00  0.00     0.293 HD
ENDBRANCH   8  24
TORSDOF 5
ENDMDL
MODEL 5
REMARK VINA RESULT:    -5.114      5.680      9.071
REMARK INTER + INTRA:          -6.287
REMARK INTER:                  -5.975
REMARK INTRA:                  -0.312
REMARK UNBOUND:                -0.276
REMARK SMILES O=c1cc(-c2ccc(O)c(O)c2)oc2cc(O)cc(O)c12
REMARK SMILES IDX 4 1 3 2 2 3 1 4 21 5 19 6 18 7 16 8 15 9 14 10 13 11 5 12
REMARK SMILES IDX 6 13 7 14 8 15 12 16 10 17 9 18 11 20 20 22 17 24
REMARK H PARENT 9 19 11 21 20 23 17 25
REMARK Flexibility Score: inf
ROOT
ATOM      1  C   UNL     1      21.270  19.721  10.671  1.00  0.00     0.138 A 
ATOM      2  C   UNL     1      22.335  20.173  11.462  1.00  0.00     0.100 A 
ATOM      3  C   UNL     1      23.588  20.375  10.881  1.00  0.00     0.197 A 
ATOM      4  O   UNL     1      24.540  20.722  11.629  1.00  0.00    -0.289 OA
ATOM      5  C   UNL     1      23.766  20.153   9.496  1.00  0.00     0.107 A 
ATOM      6  C   UNL     1      24.986  20.365   8.789  1.00  0.00     0.134 A 
ATOM      7  C   UNL     1      25.076  20.000   7.439  1.00  0.00     0.093 A 
ATOM      8  C   UNL     1      23.969  19.486   6.757  1.00  0.00     0.123 A 
ATOM      9  C   UNL     1      22.758  19.325   7.425  1.00  0.00     0.094 A 
ATOM     10  C   UNL     1      22.647  19.649   8.780  1.00  0.00     0.146 A 
ATOM     11  O   UNL     1      21.477  19.467   9.383  1.00  0.00    -0.456 OA
ENDROOT
BRANCH   1  12
ATOM     12  C   UNL     1      19.916  19.490  11.235  1.00  0.00     0.021 A 
ATOM     13  C   UNL     1      19.712  19.311  12.618  1.00  0.00     0.016 A 
ATOM     14  C   UNL     1      18.426  19.105  13.123  1.00  0.00     0.051 A 
ATOM     15  C   UNL     1      17.323  19.082  12.261  1.00  0.00     0.157 A 
ATOM     16  C   UNL     1      18.800  19.478  10.379  1.00  0.00     0.062 A 
ATOM     17  C   UNL     1      17.510  19.271  10.887  1.00  0.00     0.158 A 
BRANCH  15  18
ATOM     18  O   UNL     1      16.039  18.876  12.763  1.00  0.00    -0.504 OA
ATOM     19  H   UNL     1      15.590  19.554  13.367  1.00  0.00     0.293 HD
ENDBRANCH  15  18
BRANCH  17  20
ATOM     20  O   UNL     1      16.409  19.252  10.032  1.00  0.00    -0.504 OA
ATOM     21  H   UNL     1      15.547  18.788  10.289  1.00  0.00     0.293 HD
ENDBRANCH  17  20
ENDBRANCH   1  12
BRANCH   6  22
ATOM     22  O   UNL     1      26.125  20.949   9.352  1.00  0.00    -0.507 OA
ATOM     23  H   UNL     1      26.628  21.729   8.956  1.00  0.00     0.293 HD
ENDBRANCH   6  22
BRANCH   8  24
ATOM     24  O   UNL     1      24.063  19.139   5.411  1.00  0.00    -0.508 OA
ATOM     25  H   UNL     1      24.074  18.171   5.111  1.00  0.00     0.293 HD
ENDBRANCH   8  24
TORSDOF 5
ENDMDL
MODEL 6
REMARK VINA RESULT:    -4.704      5.103      8.537
REMARK INTER + INTRA:          -5.805
REMARK INTER:                  -5.486
REMARK INTRA:                  -0.318
REMARK UNBOUND:                -0.276
REMARK SMILES O=c1cc(-c2ccc(O)c(O)c2)oc2cc(O)cc(O)c12
REMARK SMILES IDX 4 1 3 2 2 3 1 4 21 5 19 6 18 7 16 8 15 9 14 10 13 11 5 12
REMARK SMILES IDX 6 13 7 14 8 15 12 16 10 17 9 18 11 20 20 22 17 24
REMARK H PARENT 9 19 11 21 20 23 17 25
REMARK Flexibility Score: inf
ROOT
ATOM      1  C   UNL     1      22.430  19.673   9.626  1.00  0.00     0.138 A 
ATOM      2  C   UNL     1      23.095  20.068  10.794  1.00  0.00     0.100 A 
ATOM      3  C   UNL     1      22.399  20.110  12.003  1.00  0.00     0.197 A 
ATOM      4  O   UNL     1      23.006  20.528  13.024  1.00  0.00    -0.289 OA
ATOM      5  C   UNL     1      21.038  19.724  12.046  1.00  0.00     0.107 A 
ATOM      6  C   UNL     1      20.241  19.688  13.229  1.00  0.00     0.134 A 
ATOM      7  C   UNL     1      18.873  19.400  13.130  1.00  0.00     0.093 A 
ATOM      8  C   UNL     1      18.289  19.089  11.900  1.00  0.00     0.123 A 
ATOM      9  C   UNL     1      19.071  19.068  10.747  1.00  0.00     0.094 A 
ATOM     10  C   UNL     1      20.431  19.384  10.808  1.00  0.00     0.146 A 
ATOM     11  O   UNL     1      21.138  19.368   9.683  1.00  0.00    -0.456 OA
ENDROOT
BRANCH   1  12
ATOM     12  C   UNL     1      23.121  19.609   8.313  1.00  0.00     0.021 A 
ATOM     13  C   UNL     1      24.484  19.938   8.179  1.00  0.00     0.016 A 
ATOM     14  C   UNL     1      25.112  19.860   6.933  1.00  0.00     0.051 A 
ATOM     15  C   UNL     1      24.395  19.445   5.805  1.00  0.00     0.157 A 
ATOM     16  C   UNL     1      22.412  19.181   7.176  1.00  0.00     0.062 A 
ATOM     17  C   UNL     1      23.043  19.103   5.927  1.00  0.00     0.158 A 
BRANCH  15  18
ATOM     18  O   UNL     1      25.019  19.367   4.560  1.00  0.00    -0.504 OA
ATOM     19  H   UNL     1      24.925  20.105   3.872  1.00  0.00     0.293 HD
ENDBRANCH  15  18
BRANCH  17  20
ATOM     20  O   UNL     1      22.332  18.687   4.802  1.00  0.00    -0.504 OA
ATOM     21  H   UNL     1      22.192  17.705   4.598  1.00  0.00     0.293 HD
ENDBRANCH  17  20
ENDBRANCH   1  12
BRANCH   6  22
ATOM     22  O   UNL     1      20.742  19.901  14.517  1.00  0.00    -0.507 OA
ATOM     23  H   UNL     1      21.090  19.176  15.125  1.00  0.00     0.293 HD
ENDBRANCH   6  22
BRANCH   8  24
ATOM     24  O   UNL     1      16.931  18.789  11.814  1.00  0.00    -0.508 OA
ATOM     25  H   UNL     1      16.239  19.509  11.640  1.00  0.00     0.293 HD
ENDBRANCH   8  24
TORSDOF 5
ENDMDL
MODEL 7
REMARK VINA RESULT:    -4.273      2.884      5.631
REMARK INTER + INTRA:          -5.298
REMARK INTER:                  -5.005
REMARK INTRA:                  -0.294
REMARK UNBOUND:                -0.276
REMARK SMILES O=c1cc(-c2ccc(O)c(O)c2)oc2cc(O)cc(O)c12
REMARK SMILES IDX 4 1 3 2 2 3 1 4 21 5 19 6 18 7 16 8 15 9 14 10 13 11 5 12
REMARK SMILES IDX 6 13 7 14 8 15 12 16 10 17 9 18 11 20 20 22 17 24
REMARK H PARENT 9 19 11 21 20 23 17 25
REMARK Flexibility Score: inf
ROOT
ATOM      1  C   UNL     1      21.523  16.621   3.918  1.00  0.00     0.138 A 
ATOM      2  C   UNL     1      22.067  17.904   3.760  1.00  0.00     0.100 A 
ATOM      3  C   UNL     1      23.353  18.048   3.237  1.00  0.00     0.197 A 
ATOM      4  O   UNL     1      23.838  19.207   3.165  1.00  0.00    -0.289 OA
ATOM      5  C   UNL     1      24.084  16.903   2.840  1.00  0.00     0.107 A 
ATOM      6  C   UNL     1      25.385  16.932   2.256  1.00  0.00     0.134 A 
ATOM      7  C   UNL     1      26.059  15.729   2.010  1.00  0.00     0.093 A 
ATOM      8  C   UNL     1      25.453  14.497   2.273  1.00  0.00     0.123 A 
ATOM      9  C   UNL     1      24.161  14.458   2.792  1.00  0.00     0.094 A 
ATOM     10  C   UNL     1      23.476  15.642   3.079  1.00  0.00     0.146 A 
ATOM     11  O   UNL     1      22.251  15.560   3.588  1.00  0.00    -0.456 OA
ENDROOT
BRANCH   1  12
ATOM     12  C   UNL     1      20.161  16.410   4.469  1.00  0.00     0.021 A 
ATOM     13  C   UNL     1      19.705  15.130   4.843  1.00  0.00     0.016 A 
ATOM     14  C   UNL     1      18.422  14.961   5.368  1.00  0.00     0.051 A 
ATOM     15  C   UNL     1      17.576  16.064   5.536  1.00  0.00     0.157 A 
ATOM     16  C   UNL     1      19.308  17.513   4.653  1.00  0.00     0.062 A 
ATOM     17  C   UNL     1      18.020  17.343   5.179  1.00  0.00     0.158 A 
BRANCH  15  18
ATOM     18  O   UNL     1      16.294  15.898   6.059  1.00  0.00    -0.504 OA
ATOM     19  H   UNL     1      16.090  16.082   7.034  1.00  0.00     0.293 HD
ENDBRANCH  15  18
BRANCH  17  20
ATOM     20  O   UNL     1      17.176  18.439   5.351  1.00  0.00    -0.504 OA
ATOM     21  H   UNL     1      17.213  19.238   4.730  1.00  0.00     0.293 HD
ENDBRANCH  17  20
ENDBRANCH   1  12
BRANCH   6  22
ATOM     22  O   UNL     1      26.046  18.105   1.878  1.00  0.00    -0.507 OA
ATOM     23  H   UNL     1      26.770  18.556   2.416  1.00  0.00     0.293 HD
ENDBRANCH   6  22
BRANCH   8  24
ATOM     24  O   UNL     1      26.125  13.305   2.011  1.00  0.00    -0.508 OA
ATOM     25  H   UNL     1      25.868  12.712   1.231  1.00  0.00     0.293 HD
ENDBRANCH   8  24
TORSDOF 5
ENDMDL
