MODEL 1
REMARK VINA RESULT:     8.712      0.000      0.000
REMARK INTER + INTRA:          15.298
REMARK INTER:                  15.842
REMARK INTRA:                  -0.544
REMARK UNBOUND:                -0.544
REMARK SMILES CCCCCCCCCCCCCCCC(=O)[O-]
REMARK SMILES IDX 9 1 10 2 11 3 12 4 13 5 14 6 15 7 16 8 17 9 18 10 8 11 7 12
REMARK SMILES IDX 6 13 5 14 4 15 3 16 2 17 1 18
REMARK H PARENT
REMARK Flexibility Score: inf
ROOT
ATOM      1  C   UNL     1     -17.413  -9.089  15.600  1.00  0.00     0.000 C 
ENDROOT
BRANCH   1   2
ATOM      2  C   UNL     1     -18.189  -8.512  16.794  1.00  0.00     0.000 C 
BRANCH   2   3
ATOM      3  C   UNL     1     -18.448  -7.010  16.603  1.00  0.00     0.000 C 
BRANCH   3   4
ATOM      4  C   UNL     1     -18.286  -6.206  17.904  1.00  0.00     0.000 C 
BRANCH   4   5
ATOM      5  C   UNL     1     -18.591  -4.701  17.777  1.00  0.00     0.000 C 
BRANCH   5   6
ATOM      6  C   UNL     1     -18.950  -4.256  16.343  1.00  0.00     0.006 C 
BRANCH   6   7
ATOM      7  C   UNL     1     -18.644  -2.772  16.100  1.00  0.00     0.053 C 
BRANCH   7   8
ATOM      8  C   UNL     1     -17.168  -2.553  15.988  1.00  0.00     0.041 C 
ATOM      9  O   UNL     1     -16.540  -1.985  16.919  1.00  0.00    -0.550 OA
ATOM     10  O   UNL     1     -16.477  -3.022  14.877  1.00  0.00    -0.550 OA
ENDBRANCH   7   8
ENDBRANCH   6   7
ENDBRANCH   5   6
ENDBRANCH   4   5
ENDBRANCH   3   4
ENDBRANCH   2   3
ENDBRANCH   1   2
BRANCH   1  11
ATOM     11  C   UNL     1     -17.597 -10.607  15.455  1.00  0.00     0.000 C 
BRANCH  11  12
ATOM     12  C   UNL     1     -19.040 -10.995  15.086  1.00  0.00    -0.000 C 
BRANCH  12  13
ATOM     13  C   UNL     1     -19.124 -12.370  14.403  1.00  0.00    -0.000 C 
BRANCH  13  14
ATOM     14  C   UNL     1     -19.035 -12.276  12.872  1.00  0.00    -0.000 C 
BRANCH  14  15
ATOM     15  C   UNL     1     -18.940 -13.673  12.241  1.00  0.00    -0.000 C 
BRANCH  15  16
ATOM     16  C   UNL     1     -18.896 -13.633  10.702  1.00  0.00    -0.000 C 
BRANCH  16  17
ATOM     17  C   UNL     1     -18.417 -14.934  10.034  1.00  0.00    -0.003 C 
ATOM     18  C   UNL     1     -18.727 -16.182  10.859  1.00  0.00     0.004 C 
ENDBRANCH  16  17
ENDBRANCH  15  16
ENDBRANCH  14  15
ENDBRANCH  13  14
ENDBRANCH  12  13
ENDBRANCH  11  12
ENDBRANCH   1  11
TORSDOF 14
ENDMDL
MODEL 2
REMARK VINA RESULT:     8.792     14.770     18.224
REMARK INTER + INTRA:          15.443
REMARK INTER:                  16.020
REMARK INTRA:                  -0.577
REMARK UNBOUND:                -0.544
REMARK SMILES CCCCCCCCCCCCCCCC(=O)[O-]
REMARK SMILES IDX 9 1 10 2 11 3 12 4 13 5 14 6 15 7 16 8 17 9 18 10 8 11 7 12
REMARK SMILES IDX 6 13 5 14 4 15 3 16 2 17 1 18
REMARK H PARENT
REMARK Flexibility Score: inf
ROOT
ATOM      1  C   UNL     1      -2.343  -3.270  19.285  1.00  0.00     0.000 C 
ENDROOT
BRANCH   1   2
ATOM      2  C   UNL     1      -1.154  -4.081  19.820  1.00  0.00     0.000 C 
BRANCH   2   3
ATOM      3  C   UNL     1       0.148  -3.675  19.113  1.00  0.00     0.000 C 
BRANCH   3   4
ATOM      4  C   UNL     1       1.067  -4.873  18.820  1.00  0.00     0.000 C 
BRANCH   4   5
ATOM      5  C   UNL     1       1.124  -5.298  17.340  1.00  0.00     0.000 C 
BRANCH   5   6
ATOM      6  C   UNL     1       0.261  -6.536  17.014  1.00  0.00     0.006 C 
BRANCH   6   7
ATOM      7  C   UNL     1       0.074  -6.735  15.503  1.00  0.00     0.053 C 
BRANCH   7   8
ATOM      8  C   UNL     1      -1.365  -6.568  15.127  1.00  0.00     0.041 C 
ATOM      9  O   UNL     1      -2.272  -7.013  15.879  1.00  0.00    -0.550 OA
ATOM     10  O   UNL     1      -1.707  -5.878  13.971  1.00  0.00    -0.550 OA
ENDBRANCH   7   8
ENDBRANCH   6   7
ENDBRANCH   5   6
ENDBRANCH   4   5
ENDBRANCH   3   4
ENDBRANCH   2   3
ENDBRANCH   1   2
BRANCH   1  11
ATOM     11  C   UNL     1      -3.067  -2.484  20.389  1.00  0.00     0.000 C 
BRANCH  11  12
ATOM     12  C   UNL     1      -3.849  -1.277  19.839  1.00  0.00    -0.000 C 
BRANCH  12  13
ATOM     13  C   UNL     1      -4.848  -1.673  18.741  1.00  0.00    -0.000 C 
BRANCH  13  14
ATOM     14  C   UNL     1      -6.134  -0.833  18.781  1.00  0.00    -0.000 C 
BRANCH  14  15
ATOM     15  C   UNL     1      -6.177   0.161  17.610  1.00  0.00    -0.000 C 
BRANCH  15  16
ATOM     16  C   UNL     1      -7.608   0.599  17.248  1.00  0.00    -0.000 C 
BRANCH  16  17
ATOM     17  C   UNL     1      -8.359  -0.357  16.306  1.00  0.00    -0.003 C 
ATOM     18  C   UNL     1      -9.877  -0.284  16.462  1.00  0.00     0.004 C 
ENDBRANCH  16  17
ENDBRANCH  15  16
ENDBRANCH  14  15
ENDBRANCH  13  14
ENDBRANCH  12  13
ENDBRANCH  11  12
ENDBRANCH   1  11
TORSDOF 14
ENDMDL
MODEL 3
REMARK VINA RESULT:     8.851      7.987     10.894
REMARK INTER + INTRA:          15.550
REMARK INTER:                  16.507
REMARK INTRA:                  -0.957
REMARK UNBOUND:                -0.544
REMARK SMILES CCCCCCCCCCCCCCCC(=O)[O-]
REMARK SMILES IDX 9 1 10 2 11 3 12 4 13 5 14 6 15 7 16 8 17 9 18 10 8 11 7 12
REMARK SMILES IDX 6 13 5 14 4 15 3 16 2 17 1 18
REMARK H PARENT
REMARK Flexibility Score: inf
ROOT
ATOM      1  C   UNL     1     -13.172  -0.655  12.829  1.00  0.00     0.000 C 
ENDROOT
BRANCH   1   2
ATOM      2  C   UNL     1     -11.912  -0.095  13.505  1.00  0.00     0.000 C 
BRANCH   2   3
ATOM      3  C   UNL     1     -11.304  -1.125  14.469  1.00  0.00     0.000 C 
BRANCH   3   4
ATOM      4  C   UNL     1      -9.796  -1.332  14.251  1.00  0.00     0.000 C 
BRANCH   4   5
ATOM      5  C   UNL     1      -8.900  -0.823  15.396  1.00  0.00     0.000 C 
BRANCH   5   6
ATOM      6  C   UNL     1      -9.683  -0.384  16.652  1.00  0.00     0.006 C 
BRANCH   6   7
ATOM      7  C   UNL     1      -9.117   0.902  17.271  1.00  0.00     0.053 C 
BRANCH   7   8
ATOM      8  C   UNL     1      -7.622   0.893  17.223  1.00  0.00     0.041 C 
ATOM      9  O   UNL     1      -7.000   1.843  16.678  1.00  0.00    -0.550 OA
ATOM     10  O   UNL     1      -6.912  -0.140  17.822  1.00  0.00    -0.550 OA
ENDBRANCH   7   8
ENDBRANCH   6   7
ENDBRANCH   5   6
ENDBRANCH   4   5
ENDBRANCH   3   4
ENDBRANCH   2   3
ENDBRANCH   1   2
BRANCH   1  11
ATOM     11  C   UNL     1     -14.052  -1.461  13.796  1.00  0.00     0.000 C 
BRANCH  11  12
ATOM     12  C   UNL     1     -15.005  -2.425  13.065  1.00  0.00    -0.000 C 
BRANCH  12  13
ATOM     13  C   UNL     1     -15.723  -3.385  14.027  1.00  0.00    -0.000 C 
BRANCH  13  14
ATOM     14  C   UNL     1     -15.255  -3.224  15.481  1.00  0.00    -0.000 C 
BRANCH  14  15
ATOM     15  C   UNL     1     -16.441  -2.923  16.410  1.00  0.00    -0.000 C 
BRANCH  15  16
ATOM     16  C   UNL     1     -17.333  -1.781  15.890  1.00  0.00    -0.000 C 
BRANCH  16  17
ATOM     17  C   UNL     1     -18.816  -2.148  15.708  1.00  0.00    -0.003 C 
ATOM     18  C   UNL     1     -19.125  -3.598  16.077  1.00  0.00     0.004 C 
ENDBRANCH  16  17
ENDBRANCH  15  16
ENDBRANCH  14  15
ENDBRANCH  13  14
ENDBRANCH  12  13
ENDBRANCH  11  12
ENDBRANCH   1  11
TORSDOF 14
ENDMDL
MODEL 4
REMARK VINA RESULT:     9.257     13.951     16.528
REMARK INTER + INTRA:          16.288
REMARK INTER:                  16.896
REMARK INTRA:                  -0.608
REMARK UNBOUND:                -0.544
REMARK SMILES CCCCCCCCCCCCCCCC(=O)[O-]
REMARK SMILES IDX 9 1 10 2 11 3 12 4 13 5 14 6 15 7 16 8 17 9 18 10 8 11 7 12
REMARK SMILES IDX 6 13 5 14 4 15 3 16 2 17 1 18
REMARK H PARENT
REMARK Flexibility Score: inf
ROOT
ATOM      1  C   UNL     1      -3.626  -2.821  19.285  1.00  0.00     0.000 C 
ENDROOT
BRANCH   1   2
ATOM      2  C   UNL     1      -4.241  -1.431  19.500  1.00  0.00     0.000 C 
BRANCH   2   3
ATOM      3  C   UNL     1      -5.447  -1.217  18.572  1.00  0.00     0.000 C 
BRANCH   3   4
ATOM      4  C   UNL     1      -6.218   0.077  18.882  1.00  0.00     0.000 C 
BRANCH   4   5
ATOM      5  C   UNL     1      -6.377   1.037  17.688  1.00  0.00     0.000 C 
BRANCH   5   6
ATOM      6  C   UNL     1      -7.825   1.142  17.161  1.00  0.00     0.006 C 
BRANCH   6   7
ATOM      7  C   UNL     1      -8.160   0.034  16.153  1.00  0.00     0.053 C 
BRANCH   7   8
ATOM      8  C   UNL     1      -9.591  -0.382  16.288  1.00  0.00     0.041 C 
ATOM      9  O   UNL     1     -10.279   0.023  17.262  1.00  0.00    -0.550 OA
ATOM     10  O   UNL     1     -10.180  -1.175  15.311  1.00  0.00    -0.550 OA
ENDBRANCH   7   8
ENDBRANCH   6   7
ENDBRANCH   5   6
ENDBRANCH   4   5
ENDBRANCH   3   4
ENDBRANCH   2   3
ENDBRANCH   1   2
BRANCH   1  11
ATOM     11  C   UNL     1      -2.269  -2.981  19.988  1.00  0.00     0.000 C 
BRANCH  11  12
ATOM     12  C   UNL     1      -1.513  -4.244  19.534  1.00  0.00    -0.000 C 
BRANCH  12  13
ATOM     13  C   UNL     1      -0.055  -3.950  19.148  1.00  0.00    -0.000 C 
BRANCH  13  14
ATOM     14  C   UNL     1       0.753  -5.229  18.877  1.00  0.00    -0.000 C 
BRANCH  14  15
ATOM     15  C   UNL     1       1.125  -5.339  17.391  1.00  0.00    -0.000 C 
BRANCH  15  16
ATOM     16  C   UNL     1       0.748  -6.700  16.779  1.00  0.00    -0.000 C 
BRANCH  16  17
ATOM     17  C   UNL     1      -0.225  -6.628  15.589  1.00  0.00    -0.003 C 
ATOM     18  C   UNL     1      -1.693  -6.689  16.008  1.00  0.00     0.004 C 
ENDBRANCH  16  17
ENDBRANCH  15  16
ENDBRANCH  14  15
ENDBRANCH  13  14
ENDBRANCH  12  13
ENDBRANCH  11  12
ENDBRANCH   1  11
TORSDOF 14
ENDMDL
MODEL 5
REMARK VINA RESULT:     9.296      1.285      2.182
REMARK INTER + INTRA:          16.360
REMARK INTER:                  16.645
REMARK INTRA:                  -0.284
REMARK UNBOUND:                -0.544
REMARK SMILES CCCCCCCCCCCCCCCC(=O)[O-]
REMARK SMILES IDX 9 1 10 2 11 3 12 4 13 5 14 6 15 7 16 8 17 9 18 10 8 11 7 12
REMARK SMILES IDX 6 13 5 14 4 15 3 16 2 17 1 18
REMARK H PARENT
REMARK Flexibility Score: inf
ROOT
ATOM      1  C   UNL     1     -17.887 -11.182  15.317  1.00  0.00     0.000 C 
ENDROOT
BRANCH   1   2
ATOM      2  C   UNL     1     -18.535 -10.356  16.437  1.00  0.00     0.000 C 
BRANCH   2   3
ATOM      3  C   UNL     1     -17.844  -8.990  16.579  1.00  0.00     0.000 C 
BRANCH   3   4
ATOM      4  C   UNL     1     -18.839  -7.835  16.779  1.00  0.00     0.000 C 
BRANCH   4   5
ATOM      5  C   UNL     1     -18.478  -6.534  16.037  1.00  0.00     0.000 C 
BRANCH   5   6
ATOM      6  C   UNL     1     -19.125  -5.270  16.644  1.00  0.00     0.006 C 
BRANCH   6   7
ATOM      7  C   UNL     1     -18.088  -4.332  17.277  1.00  0.00     0.053 C 
BRANCH   7   8
ATOM      8  C   UNL     1     -17.856  -3.141  16.401  1.00  0.00     0.041 C 
ATOM      9  O   UNL     1     -16.708  -2.628  16.321  1.00  0.00    -0.550 OA
ATOM     10  O   UNL     1     -18.895  -2.627  15.636  1.00  0.00    -0.550 OA
ENDBRANCH   7   8
ENDBRANCH   6   7
ENDBRANCH   5   6
ENDBRANCH   4   5
ENDBRANCH   3   4
ENDBRANCH   2   3
ENDBRANCH   1   2
BRANCH   1  11
ATOM     11  C   UNL     1     -18.863 -12.185  14.684  1.00  0.00     0.000 C 
BRANCH  11  12
ATOM     12  C   UNL     1     -18.934 -12.053  13.151  1.00  0.00    -0.000 C 
BRANCH  12  13
ATOM     13  C   UNL     1     -19.106 -13.411  12.451  1.00  0.00    -0.000 C 
BRANCH  13  14
ATOM     14  C   UNL     1     -18.260 -13.527  11.173  1.00  0.00    -0.000 C 
BRANCH  14  15
ATOM     15  C   UNL     1     -17.853 -14.986  10.915  1.00  0.00    -0.000 C 
BRANCH  15  16
ATOM     16  C   UNL     1     -18.144 -15.444   9.475  1.00  0.00    -0.000 C 
BRANCH  16  17
ATOM     17  C   UNL     1     -16.940 -15.383   8.519  1.00  0.00    -0.003 C 
ATOM     18  C   UNL     1     -15.785 -14.543   9.061  1.00  0.00     0.004 C 
ENDBRANCH  16  17
ENDBRANCH  15  16
ENDBRANCH  14  15
ENDBRANCH  13  14
ENDBRANCH  12  13
ENDBRANCH  11  12
ENDBRANCH   1  11
TORSDOF 14
ENDMDL
