MODEL 1
REMARK VINA RESULT:    10.825      0.000      0.000
REMARK INTER + INTRA:          25.524
REMARK INTER:                  27.279
REMARK INTRA:                  -1.756
REMARK UNBOUND:                -1.756
REMARK SMILES CCCCCCCCCCCCCCCCCCCCCCCCCCCC(=O)[O-]
REMARK SMILES IDX 15 1 16 2 17 3 18 4 19 5 20 6 21 7 22 8 23 9 24 10 25 11
REMARK SMILES IDX 26 12 27 13 28 14 29 15 30 16 14 17 13 18 12 19 11 20 10 21
REMARK SMILES IDX 9 22 8 23 7 24 6 25 5 26 4 27 3 28 2 29 1 30
REMARK H PARENT
REMARK Flexibility Score: inf
ROOT
ATOM      1  C   UNL     1      -4.033  36.251  21.291  1.00  0.00     0.000 C 
ENDROOT
BRANCH   1   2
ATOM      2  C   UNL     1      -4.448  37.523  20.529  1.00  0.00     0.000 C 
BRANCH   2   3
ATOM      3  C   UNL     1      -5.539  38.329  21.254  1.00  0.00     0.000 C 
BRANCH   3   4
ATOM      4  C   UNL     1      -5.048  39.711  21.722  1.00  0.00     0.000 C 
BRANCH   4   5
ATOM      5  C   UNL     1      -4.647  39.800  23.208  1.00  0.00     0.000 C 
BRANCH   5   6
ATOM      6  C   UNL     1      -5.767  39.456  24.208  1.00  0.00     0.000 C 
BRANCH   6   7
ATOM      7  C   UNL     1      -5.583  38.075  24.853  1.00  0.00     0.000 C 
BRANCH   7   8
ATOM      8  C   UNL     1      -4.693  38.169  26.102  1.00  0.00     0.000 C 
BRANCH   8   9
ATOM      9  C   UNL     1      -3.498  37.203  26.049  1.00  0.00     0.000 C 
BRANCH   9  10
ATOM     10  C   UNL     1      -2.636  37.258  27.323  1.00  0.00     0.000 C 
BRANCH  10  11
ATOM     11  C   UNL     1      -1.790  35.987  27.524  1.00  0.00     0.000 C 
BRANCH  11  12
ATOM     12  C   UNL     1      -1.947  35.314  28.904  1.00  0.00     0.006 C 
BRANCH  12  13
ATOM     13  C   UNL     1      -1.706  33.797  28.904  1.00  0.00     0.053 C 
BRANCH  13  14
ATOM     14  C   UNL     1      -0.284  33.454  29.224  1.00  0.00     0.041 C 
ATOM     15  O   UNL     1       0.655  34.150  28.757  1.00  0.00    -0.550 OA
ATOM     16  O   UNL     1       0.007  32.346  30.009  1.00  0.00    -0.550 OA
ENDBRANCH  13  14
ENDBRANCH  12  13
ENDBRANCH  11  12
ENDBRANCH  10  11
ENDBRANCH   9  10
ENDBRANCH   8   9
ENDBRANCH   7   8
ENDBRANCH   6   7
ENDBRANCH   5   6
ENDBRANCH   4   5
ENDBRANCH   3   4
ENDBRANCH   2   3
ENDBRANCH   1   2
BRANCH   1  17
ATOM     17  C   UNL     1      -5.075  35.716  22.295  1.00  0.00     0.000 C 
BRANCH  17  18
ATOM     18  C   UNL     1      -5.701  34.357  21.931  1.00  0.00     0.000 C 
BRANCH  18  19
ATOM     19  C   UNL     1      -5.437  33.883  20.488  1.00  0.00     0.000 C 
BRANCH  19  20
ATOM     20  C   UNL     1      -6.038  34.807  19.407  1.00  0.00     0.000 C 
BRANCH  20  21
ATOM     21  C   UNL     1      -5.492  34.508  17.999  1.00  0.00     0.000 C 
BRANCH  21  22
ATOM     22  C   UNL     1      -4.042  34.985  17.816  1.00  0.00    -0.000 C 
BRANCH  22  23
ATOM     23  C   UNL     1      -3.494  34.681  16.410  1.00  0.00    -0.000 C 
BRANCH  23  24
ATOM     24  C   UNL     1      -2.291  35.566  16.044  1.00  0.00    -0.000 C 
BRANCH  24  25
ATOM     25  C   UNL     1      -2.599  36.525  14.880  1.00  0.00    -0.000 C 
BRANCH  25  26
ATOM     26  C   UNL     1      -3.867  36.128  14.109  1.00  0.00    -0.000 C 
BRANCH  26  27
ATOM     27  C   UNL     1      -4.893  37.273  14.032  1.00  0.00    -0.000 C 
BRANCH  27  28
ATOM     28  C   UNL     1      -4.233  38.655  13.879  1.00  0.00    -0.000 C 
BRANCH  28  29
ATOM     29  C   UNL     1      -4.796  39.743  14.809  1.00  0.00    -0.003 C 
ATOM     30  C   UNL     1      -5.302  40.972  14.055  1.00  0.00     0.004 C 
ENDBRANCH  28  29
ENDBRANCH  27  28
ENDBRANCH  26  27
ENDBRANCH  25  26
ENDBRANCH  24  25
ENDBRANCH  23  24
ENDBRANCH  22  23
ENDBRANCH  21  22
ENDBRANCH  20  21
ENDBRANCH  19  20
ENDBRANCH  18  19
ENDBRANCH  17  18
ENDBRANCH   1  17
TORSDOF 26
ENDMDL
MODEL 2
REMARK VINA RESULT:    11.687      4.370     10.981
REMARK INTER + INTRA:          27.695
REMARK INTER:                  27.807
REMARK INTRA:                  -0.113
REMARK UNBOUND:                -1.756
REMARK SMILES CCCCCCCCCCCCCCCCCCCCCCCCCCCC(=O)[O-]
REMARK SMILES IDX 15 1 16 2 17 3 18 4 19 5 20 6 21 7 22 8 23 9 24 10 25 11
REMARK SMILES IDX 26 12 27 13 28 14 29 15 30 16 14 17 13 18 12 19 11 20 10 21
REMARK SMILES IDX 9 22 8 23 7 24 6 25 5 26 4 27 3 28 2 29 1 30
REMARK H PARENT
REMARK Flexibility Score: inf
ROOT
ATOM      1  C   UNL     1      -6.057  37.161  22.874  1.00  0.00     0.000 C 
ENDROOT
BRANCH   1   2
ATOM      2  C   UNL     1      -5.743  38.417  23.708  1.00  0.00     0.000 C 
BRANCH   2   3
ATOM      3  C   UNL     1      -5.816  39.716  22.887  1.00  0.00     0.000 C 
BRANCH   3   4
ATOM      4  C   UNL     1      -5.140  39.590  21.510  1.00  0.00     0.000 C 
BRANCH   4   5
ATOM      5  C   UNL     1      -6.089  39.681  20.298  1.00  0.00     0.000 C 
BRANCH   5   6
ATOM      6  C   UNL     1      -6.125  38.429  19.402  1.00  0.00     0.000 C 
BRANCH   6   7
ATOM      7  C   UNL     1      -4.778  37.693  19.357  1.00  0.00     0.000 C 
BRANCH   7   8
ATOM      8  C   UNL     1      -4.631  36.748  20.559  1.00  0.00     0.000 C 
BRANCH   8   9
ATOM      9  C   UNL     1      -4.331  35.299  20.139  1.00  0.00     0.000 C 
BRANCH   9  10
ATOM     10  C   UNL     1      -5.358  34.751  19.132  1.00  0.00     0.000 C 
BRANCH  10  11
ATOM     11  C   UNL     1      -4.709  34.276  17.819  1.00  0.00     0.000 C 
BRANCH  11  12
ATOM     12  C   UNL     1      -4.556  35.366  16.738  1.00  0.00     0.006 C 
BRANCH  12  13
ATOM     13  C   UNL     1      -3.170  35.417  16.077  1.00  0.00     0.053 C 
BRANCH  13  14
ATOM     14  C   UNL     1      -3.106  36.441  14.986  1.00  0.00     0.041 C 
ATOM     15  O   UNL     1      -2.194  36.388  14.121  1.00  0.00    -0.550 OA
ATOM     16  O   UNL     1      -4.032  37.476  14.947  1.00  0.00    -0.550 OA
ENDBRANCH  13  14
ENDBRANCH  12  13
ENDBRANCH  11  12
ENDBRANCH  10  11
ENDBRANCH   9  10
ENDBRANCH   8   9
ENDBRANCH   7   8
ENDBRANCH   6   7
ENDBRANCH   5   6
ENDBRANCH   4   5
ENDBRANCH   3   4
ENDBRANCH   2   3
ENDBRANCH   1   2
BRANCH   1  17
ATOM     17  C   UNL     1      -6.123  35.841  23.671  1.00  0.00     0.000 C 
BRANCH  17  18
ATOM     18  C   UNL     1      -4.850  35.486  24.461  1.00  0.00     0.000 C 
BRANCH  18  19
ATOM     19  C   UNL     1      -4.867  35.903  25.945  1.00  0.00     0.000 C 
BRANCH  19  20
ATOM     20  C   UNL     1      -5.287  37.370  26.178  1.00  0.00     0.000 C 
BRANCH  20  21
ATOM     21  C   UNL     1      -4.118  38.258  26.643  1.00  0.00     0.000 C 
BRANCH  21  22
ATOM     22  C   UNL     1      -2.754  37.568  26.481  1.00  0.00    -0.000 C 
BRANCH  22  23
ATOM     23  C   UNL     1      -2.097  37.234  27.833  1.00  0.00    -0.000 C 
BRANCH  23  24
ATOM     24  C   UNL     1      -1.498  35.819  27.863  1.00  0.00    -0.000 C 
BRANCH  24  25
ATOM     25  C   UNL     1      -1.819  35.071  29.169  1.00  0.00    -0.000 C 
BRANCH  25  26
ATOM     26  C   UNL     1      -1.395  33.595  29.121  1.00  0.00    -0.000 C 
BRANCH  26  27
ATOM     27  C   UNL     1      -0.024  33.354  29.778  1.00  0.00    -0.000 C 
BRANCH  27  28
ATOM     28  C   UNL     1       1.146  33.505  28.790  1.00  0.00    -0.000 C 
BRANCH  28  29
ATOM     29  C   UNL     1       2.232  34.504  29.224  1.00  0.00    -0.003 C 
ATOM     30  C   UNL     1       3.333  33.861  30.066  1.00  0.00     0.004 C 
ENDBRANCH  28  29
ENDBRANCH  27  28
ENDBRANCH  26  27
ENDBRANCH  25  26
ENDBRANCH  24  25
ENDBRANCH  23  24
ENDBRANCH  22  23
ENDBRANCH  21  22
ENDBRANCH  20  21
ENDBRANCH  19  20
ENDBRANCH  18  19
ENDBRANCH  17  18
ENDBRANCH   1  17
TORSDOF 26
ENDMDL
MODEL 3
REMARK VINA RESULT:    12.545      4.320     11.212
REMARK INTER + INTRA:          29.857
REMARK INTER:                  28.701
REMARK INTRA:                   1.157
REMARK UNBOUND:                -1.756
REMARK SMILES CCCCCCCCCCCCCCCCCCCCCCCCCCCC(=O)[O-]
REMARK SMILES IDX 15 1 16 2 17 3 18 4 19 5 20 6 21 7 22 8 23 9 24 10 25 11
REMARK SMILES IDX 26 12 27 13 28 14 29 15 30 16 14 17 13 18 12 19 11 20 10 21
REMARK SMILES IDX 9 22 8 23 7 24 6 25 5 26 4 27 3 28 2 29 1 30
REMARK H PARENT
REMARK Flexibility Score: inf
ROOT
ATOM      1  C   UNL     1      -4.877  33.268  22.839  1.00  0.00     0.000 C 
ENDROOT
BRANCH   1   2
ATOM      2  C   UNL     1      -3.844  34.259  22.271  1.00  0.00     0.000 C 
BRANCH   2   3
ATOM      3  C   UNL     1      -4.417  35.149  21.155  1.00  0.00     0.000 C 
BRANCH   3   4
ATOM      4  C   UNL     1      -5.272  36.309  21.696  1.00  0.00     0.000 C 
BRANCH   4   5
ATOM      5  C   UNL     1      -5.813  37.283  20.630  1.00  0.00     0.000 C 
BRANCH   5   6
ATOM      6  C   UNL     1      -5.461  36.919  19.175  1.00  0.00     0.000 C 
BRANCH   6   7
ATOM      7  C   UNL     1      -4.297  35.922  19.078  1.00  0.00     0.000 C 
BRANCH   7   8
ATOM      8  C   UNL     1      -4.737  34.636  18.361  1.00  0.00     0.000 C 
BRANCH   8   9
ATOM      9  C   UNL     1      -4.547  34.716  16.837  1.00  0.00     0.000 C 
BRANCH   9  10
ATOM     10  C   UNL     1      -3.364  35.613  16.435  1.00  0.00     0.000 C 
BRANCH  10  11
ATOM     11  C   UNL     1      -2.826  35.294  15.028  1.00  0.00     0.000 C 
BRANCH  11  12
ATOM     12  C   UNL     1      -2.986  36.432  13.997  1.00  0.00     0.006 C 
BRANCH  12  13
ATOM     13  C   UNL     1      -4.387  37.060  13.953  1.00  0.00     0.053 C 
BRANCH  13  14
ATOM     14  C   UNL     1      -4.376  38.487  14.408  1.00  0.00     0.041 C 
ATOM     15  O   UNL     1      -5.149  39.326  13.876  1.00  0.00    -0.550 OA
ATOM     16  O   UNL     1      -3.487  38.899  15.392  1.00  0.00    -0.550 OA
ENDBRANCH  13  14
ENDBRANCH  12  13
ENDBRANCH  11  12
ENDBRANCH  10  11
ENDBRANCH   9  10
ENDBRANCH   8   9
ENDBRANCH   7   8
ENDBRANCH   6   7
ENDBRANCH   5   6
ENDBRANCH   4   5
ENDBRANCH   3   4
ENDBRANCH   2   3
ENDBRANCH   1   2
BRANCH   1  17
ATOM     17  C   UNL     1      -6.125  33.911  23.480  1.00  0.00     0.000 C 
BRANCH  17  18
ATOM     18  C   UNL     1      -6.095  34.011  25.016  1.00  0.00     0.000 C 
BRANCH  18  19
ATOM     19  C   UNL     1      -5.957  35.441  25.575  1.00  0.00     0.000 C 
BRANCH  19  20
ATOM     20  C   UNL     1      -5.507  36.481  24.527  1.00  0.00     0.000 C 
BRANCH  20  21
ATOM     21  C   UNL     1      -5.818  37.928  24.952  1.00  0.00     0.000 C 
BRANCH  21  22
ATOM     22  C   UNL     1      -5.087  38.332  26.243  1.00  0.00    -0.000 C 
BRANCH  22  23
ATOM     23  C   UNL     1      -3.638  38.782  25.986  1.00  0.00    -0.000 C 
BRANCH  23  24
ATOM     24  C   UNL     1      -2.615  37.679  26.299  1.00  0.00    -0.000 C 
BRANCH  24  25
ATOM     25  C   UNL     1      -2.989  36.865  27.551  1.00  0.00    -0.000 C 
BRANCH  25  26
ATOM     26  C   UNL     1      -2.522  35.404  27.465  1.00  0.00    -0.000 C 
BRANCH  26  27
ATOM     27  C   UNL     1      -1.179  35.172  28.179  1.00  0.00    -0.000 C 
BRANCH  27  28
ATOM     28  C   UNL     1      -1.208  33.953  29.119  1.00  0.00    -0.000 C 
BRANCH  28  29
ATOM     29  C   UNL     1      -1.351  34.295  30.612  1.00  0.00    -0.003 C 
ATOM     30  C   UNL     1      -2.371  33.414  31.332  1.00  0.00     0.004 C 
ENDBRANCH  28  29
ENDBRANCH  27  28
ENDBRANCH  26  27
ENDBRANCH  25  26
ENDBRANCH  24  25
ENDBRANCH  23  24
ENDBRANCH  22  23
ENDBRANCH  21  22
ENDBRANCH  20  21
ENDBRANCH  19  20
ENDBRANCH  18  19
ENDBRANCH  17  18
ENDBRANCH   1  17
TORSDOF 26
ENDMDL
MODEL 4
REMARK VINA RESULT:    13.315      1.774      3.903
REMARK INTER + INTRA:          31.799
REMARK INTER:                  29.949
REMARK INTRA:                   1.850
REMARK UNBOUND:                -1.756
REMARK SMILES CCCCCCCCCCCCCCCCCCCCCCCCCCCC(=O)[O-]
REMARK SMILES IDX 15 1 16 2 17 3 18 4 19 5 20 6 21 7 22 8 23 9 24 10 25 11
REMARK SMILES IDX 26 12 27 13 28 14 29 15 30 16 14 17 13 18 12 19 11 20 10 21
REMARK SMILES IDX 9 22 8 23 7 24 6 25 5 26 4 27 3 28 2 29 1 30
REMARK H PARENT
REMARK Flexibility Score: inf
ROOT
ATOM      1  C   UNL     1      -5.831  34.395  24.388  1.00  0.00     0.000 C 
ENDROOT
BRANCH   1   2
ATOM      2  C   UNL     1      -6.124  35.886  24.638  1.00  0.00     0.000 C 
BRANCH   2   3
ATOM      3  C   UNL     1      -5.394  36.443  25.872  1.00  0.00     0.000 C 
BRANCH   3   4
ATOM      4  C   UNL     1      -4.500  37.652  25.540  1.00  0.00     0.000 C 
BRANCH   4   5
ATOM      5  C   UNL     1      -3.607  38.149  26.695  1.00  0.00     0.000 C 
BRANCH   5   6
ATOM      6  C   UNL     1      -2.392  37.256  27.011  1.00  0.00     0.000 C 
BRANCH   6   7
ATOM      7  C   UNL     1      -2.793  35.885  27.573  1.00  0.00     0.000 C 
BRANCH   7   8
ATOM      8  C   UNL     1      -1.558  35.111  28.059  1.00  0.00     0.000 C 
BRANCH   8   9
ATOM      9  C   UNL     1      -1.652  34.724  29.544  1.00  0.00     0.000 C 
BRANCH   9  10
ATOM     10  C   UNL     1      -1.182  33.283  29.811  1.00  0.00     0.000 C 
BRANCH  10  11
ATOM     11  C   UNL     1       0.237  33.011  29.279  1.00  0.00     0.000 C 
BRANCH  11  12
ATOM     12  C   UNL     1       1.191  34.222  29.324  1.00  0.00     0.006 C 
BRANCH  12  13
ATOM     13  C   UNL     1       2.141  34.331  28.121  1.00  0.00     0.053 C 
BRANCH  13  14
ATOM     14  C   UNL     1       3.549  34.618  28.542  1.00  0.00     0.041 C 
ATOM     15  O   UNL     1       3.881  34.518  29.752  1.00  0.00    -0.550 OA
ATOM     16  O   UNL     1       4.487  35.031  27.604  1.00  0.00    -0.550 OA
ENDBRANCH  13  14
ENDBRANCH  12  13
ENDBRANCH  11  12
ENDBRANCH  10  11
ENDBRANCH   9  10
ENDBRANCH   8   9
ENDBRANCH   7   8
ENDBRANCH   6   7
ENDBRANCH   5   6
ENDBRANCH   4   5
ENDBRANCH   3   4
ENDBRANCH   2   3
ENDBRANCH   1   2
BRANCH   1  17
ATOM     17  C   UNL     1      -4.907  34.097  23.189  1.00  0.00     0.000 C 
BRANCH  17  18
ATOM     18  C   UNL     1      -5.044  35.063  21.998  1.00  0.00     0.000 C 
BRANCH  18  19
ATOM     19  C   UNL     1      -6.034  36.226  22.212  1.00  0.00     0.000 C 
BRANCH  19  20
ATOM     20  C   UNL     1      -5.446  37.615  21.882  1.00  0.00     0.000 C 
BRANCH  20  21
ATOM     21  C   UNL     1      -5.476  37.932  20.376  1.00  0.00     0.000 C 
BRANCH  21  22
ATOM     22  C   UNL     1      -5.816  36.700  19.522  1.00  0.00    -0.000 C 
BRANCH  22  23
ATOM     23  C   UNL     1      -4.592  35.805  19.261  1.00  0.00    -0.000 C 
BRANCH  23  24
ATOM     24  C   UNL     1      -4.969  34.471  18.596  1.00  0.00    -0.000 C 
BRANCH  24  25
ATOM     25  C   UNL     1      -4.107  34.165  17.358  1.00  0.00    -0.000 C 
BRANCH  25  26
ATOM     26  C   UNL     1      -4.143  35.299  16.322  1.00  0.00    -0.000 C 
BRANCH  26  27
ATOM     27  C   UNL     1      -2.737  35.718  15.857  1.00  0.00    -0.000 C 
BRANCH  27  28
ATOM     28  C   UNL     1      -2.658  35.958  14.339  1.00  0.00    -0.000 C 
BRANCH  28  29
ATOM     29  C   UNL     1      -3.123  37.351  13.882  1.00  0.00    -0.003 C 
ATOM     30  C   UNL     1      -4.643  37.504  13.881  1.00  0.00     0.004 C 
ENDBRANCH  28  29
ENDBRANCH  27  28
ENDBRANCH  26  27
ENDBRANCH  25  26
ENDBRANCH  24  25
ENDBRANCH  23  24
ENDBRANCH  22  23
ENDBRANCH  21  22
ENDBRANCH  20  21
ENDBRANCH  19  20
ENDBRANCH  18  19
ENDBRANCH  17  18
ENDBRANCH   1  17
TORSDOF 26
ENDMDL
MODEL 5
REMARK VINA RESULT:    13.361      1.269      3.184
REMARK INTER + INTRA:          31.914
REMARK INTER:                  30.896
REMARK INTRA:                   1.018
REMARK UNBOUND:                -1.756
REMARK SMILES CCCCCCCCCCCCCCCCCCCCCCCCCCCC(=O)[O-]
REMARK SMILES IDX 15 1 16 2 17 3 18 4 19 5 20 6 21 7 22 8 23 9 24 10 25 11
REMARK SMILES IDX 26 12 27 13 28 14 29 15 30 16 14 17 13 18 12 19 11 20 10 21
REMARK SMILES IDX 9 22 8 23 7 24 6 25 5 26 4 27 3 28 2 29 1 30
REMARK H PARENT
REMARK Flexibility Score: inf
ROOT
ATOM      1  C   UNL     1      -4.741  39.803  22.303  1.00  0.00     0.000 C 
ENDROOT
BRANCH   1   2
ATOM      2  C   UNL     1      -5.023  39.479  23.781  1.00  0.00     0.000 C 
BRANCH   2   3
ATOM      3  C   UNL     1      -6.112  38.407  23.963  1.00  0.00     0.000 C 
BRANCH   3   4
ATOM      4  C   UNL     1      -5.692  37.031  23.413  1.00  0.00     0.000 C 
BRANCH   4   5
ATOM      5  C   UNL     1      -5.809  35.859  24.408  1.00  0.00     0.000 C 
BRANCH   5   6
ATOM      6  C   UNL     1      -5.119  36.086  25.766  1.00  0.00     0.000 C 
BRANCH   6   7
ATOM      7  C   UNL     1      -4.748  37.556  26.006  1.00  0.00     0.000 C 
BRANCH   7   8
ATOM      8  C   UNL     1      -3.714  37.683  27.135  1.00  0.00     0.000 C 
BRANCH   8   9
ATOM      9  C   UNL     1      -2.276  37.443  26.648  1.00  0.00     0.000 C 
BRANCH   9  10
ATOM     10  C   UNL     1      -1.569  36.317  27.421  1.00  0.00     0.000 C 
BRANCH  10  11
ATOM     11  C   UNL     1      -2.385  35.820  28.629  1.00  0.00     0.000 C 
BRANCH  11  12
ATOM     12  C   UNL     1      -1.677  34.763  29.502  1.00  0.00     0.006 C 
BRANCH  12  13
ATOM     13  C   UNL     1      -0.890  33.708  28.711  1.00  0.00     0.053 C 
BRANCH  13  14
ATOM     14  C   UNL     1       0.583  33.981  28.723  1.00  0.00     0.041 C 
ATOM     15  O   UNL     1       1.160  34.389  27.682  1.00  0.00    -0.550 OA
ATOM     16  O   UNL     1       1.325  33.748  29.874  1.00  0.00    -0.550 OA
ENDBRANCH  13  14
ENDBRANCH  12  13
ENDBRANCH  11  12
ENDBRANCH  10  11
ENDBRANCH   9  10
ENDBRANCH   8   9
ENDBRANCH   7   8
ENDBRANCH   6   7
ENDBRANCH   5   6
ENDBRANCH   4   5
ENDBRANCH   3   4
ENDBRANCH   2   3
ENDBRANCH   1   2
BRANCH   1  17
ATOM     17  C   UNL     1      -5.988  39.899  21.399  1.00  0.00     0.000 C 
BRANCH  17  18
ATOM     18  C   UNL     1      -5.758  39.534  19.922  1.00  0.00     0.000 C 
BRANCH  18  19
ATOM     19  C   UNL     1      -6.095  38.076  19.549  1.00  0.00     0.000 C 
BRANCH  19  20
ATOM     20  C   UNL     1      -5.315  37.026  20.370  1.00  0.00     0.000 C 
BRANCH  20  21
ATOM     21  C   UNL     1      -6.125  35.738  20.610  1.00  0.00     0.000 C 
BRANCH  21  22
ATOM     22  C   UNL     1      -5.259  34.591  21.155  1.00  0.00    -0.000 C 
BRANCH  22  23
ATOM     23  C   UNL     1      -3.769  34.758  20.804  1.00  0.00    -0.000 C 
BRANCH  23  24
ATOM     24  C   UNL     1      -3.527  34.839  19.289  1.00  0.00    -0.000 C 
BRANCH  24  25
ATOM     25  C   UNL     1      -4.664  34.198  18.474  1.00  0.00    -0.000 C 
BRANCH  25  26
ATOM     26  C   UNL     1      -4.617  34.589  16.989  1.00  0.00    -0.000 C 
BRANCH  26  27
ATOM     27  C   UNL     1      -3.457  35.547  16.668  1.00  0.00    -0.000 C 
BRANCH  27  28
ATOM     28  C   UNL     1      -3.217  35.707  15.156  1.00  0.00    -0.000 C 
BRANCH  28  29
ATOM     29  C   UNL     1      -4.180  36.678  14.451  1.00  0.00    -0.003 C 
ATOM     30  C   UNL     1      -3.748  38.139  14.568  1.00  0.00     0.004 C 
ENDBRANCH  28  29
ENDBRANCH  27  28
ENDBRANCH  26  27
ENDBRANCH  25  26
ENDBRANCH  24  25
ENDBRANCH  23  24
ENDBRANCH  22  23
ENDBRANCH  21  22
ENDBRANCH  20  21
ENDBRANCH  19  20
ENDBRANCH  18  19
ENDBRANCH  17  18
ENDBRANCH   1  17
TORSDOF 26
ENDMDL
MODEL 6
REMARK VINA RESULT:    13.394      1.676      4.037
REMARK INTER + INTRA:          31.997
REMARK INTER:                  32.069
REMARK INTRA:                  -0.072
REMARK UNBOUND:                -1.756
REMARK SMILES CCCCCCCCCCCCCCCCCCCCCCCCCCCC(=O)[O-]
REMARK SMILES IDX 15 1 16 2 17 3 18 4 19 5 20 6 21 7 22 8 23 9 24 10 25 11
REMARK SMILES IDX 26 12 27 13 28 14 29 15 30 16 14 17 13 18 12 19 11 20 10 21
REMARK SMILES IDX 9 22 8 23 7 24 6 25 5 26 4 27 3 28 2 29 1 30
REMARK H PARENT
REMARK Flexibility Score: inf
ROOT
ATOM      1  C   UNL     1      -6.125  36.399  23.717  1.00  0.00     0.000 C 
ENDROOT
BRANCH   1   2
ATOM      2  C   UNL     1      -5.374  36.172  25.042  1.00  0.00     0.000 C 
BRANCH   2   3
ATOM      3  C   UNL     1      -5.782  37.167  26.142  1.00  0.00     0.000 C 
BRANCH   3   4
ATOM      4  C   UNL     1      -4.619  37.520  27.088  1.00  0.00     0.000 C 
BRANCH   4   5
ATOM      5  C   UNL     1      -3.462  38.310  26.444  1.00  0.00     0.000 C 
BRANCH   5   6
ATOM      6  C   UNL     1      -2.076  38.059  27.067  1.00  0.00     0.000 C 
BRANCH   6   7
ATOM      7  C   UNL     1      -1.625  36.596  26.944  1.00  0.00     0.000 C 
BRANCH   7   8
ATOM      8  C   UNL     1      -1.212  36.034  28.312  1.00  0.00     0.000 C 
BRANCH   8   9
ATOM      9  C   UNL     1      -1.917  34.708  28.643  1.00  0.00     0.000 C 
BRANCH   9  10
ATOM     10  C   UNL     1      -0.952  33.650  29.205  1.00  0.00     0.000 C 
BRANCH  10  11
ATOM     11  C   UNL     1       0.526  33.984  28.930  1.00  0.00     0.000 C 
BRANCH  11  12
ATOM     12  C   UNL     1       1.534  32.920  29.410  1.00  0.00     0.006 C 
BRANCH  12  13
ATOM     13  C   UNL     1       0.897  31.595  29.859  1.00  0.00     0.053 C 
BRANCH  13  14
ATOM     14  C   UNL     1       1.892  30.687  30.512  1.00  0.00     0.041 C 
ATOM     15  O   UNL     1       3.121  30.954  30.461  1.00  0.00    -0.550 OA
ATOM     16  O   UNL     1       1.467  29.526  31.144  1.00  0.00    -0.550 OA
ENDBRANCH  13  14
ENDBRANCH  12  13
ENDBRANCH  11  12
ENDBRANCH  10  11
ENDBRANCH   9  10
ENDBRANCH   8   9
ENDBRANCH   7   8
ENDBRANCH   6   7
ENDBRANCH   5   6
ENDBRANCH   4   5
ENDBRANCH   3   4
ENDBRANCH   2   3
ENDBRANCH   1   2
BRANCH   1  17
ATOM     17  C   UNL     1      -5.456  37.391  22.742  1.00  0.00     0.000 C 
BRANCH  17  18
ATOM     18  C   UNL     1      -5.884  38.861  22.904  1.00  0.00     0.000 C 
BRANCH  18  19
ATOM     19  C   UNL     1      -5.529  39.779  21.718  1.00  0.00     0.000 C 
BRANCH  19  20
ATOM     20  C   UNL     1      -5.858  39.172  20.337  1.00  0.00     0.000 C 
BRANCH  20  21
ATOM     21  C   UNL     1      -5.818  37.633  20.339  1.00  0.00     0.000 C 
BRANCH  21  22
ATOM     22  C   UNL     1      -4.863  37.067  19.275  1.00  0.00    -0.000 C 
BRANCH  22  23
ATOM     23  C   UNL     1      -4.519  35.587  19.517  1.00  0.00    -0.000 C 
BRANCH  23  24
ATOM     24  C   UNL     1      -5.242  34.647  18.538  1.00  0.00    -0.000 C 
BRANCH  24  25
ATOM     25  C   UNL     1      -4.396  34.327  17.294  1.00  0.00    -0.000 C 
BRANCH  25  26
ATOM     26  C   UNL     1      -3.500  35.502  16.873  1.00  0.00    -0.000 C 
BRANCH  26  27
ATOM     27  C   UNL     1      -2.591  35.154  15.681  1.00  0.00    -0.000 C 
BRANCH  27  28
ATOM     28  C   UNL     1      -2.672  36.190  14.547  1.00  0.00    -0.000 C 
BRANCH  28  29
ATOM     29  C   UNL     1      -4.098  36.646  14.192  1.00  0.00    -0.003 C 
ATOM     30  C   UNL     1      -4.271  38.164  14.244  1.00  0.00     0.004 C 
ENDBRANCH  28  29
ENDBRANCH  27  28
ENDBRANCH  26  27
ENDBRANCH  25  26
ENDBRANCH  24  25
ENDBRANCH  23  24
ENDBRANCH  22  23
ENDBRANCH  21  22
ENDBRANCH  20  21
ENDBRANCH  19  20
ENDBRANCH  18  19
ENDBRANCH  17  18
ENDBRANCH   1  17
TORSDOF 26
ENDMDL
