MODEL 1
REMARK VINA RESULT:    -5.983      0.000      0.000
REMARK INTER + INTRA:         -12.134
REMARK INTER:                 -11.230
REMARK INTRA:                  -0.904
REMARK UNBOUND:                -0.904
REMARK SMILES O=C([O-])CCCCCCCCCCCCCCC(=O)[O-]
REMARK SMILES IDX 10 1 9 2 8 3 7 4 6 5 5 6 4 7 2 8 1 9 3 10 11 11 12 12 13 13
REMARK SMILES IDX 14 14 15 15 16 16 17 17 18 18 19 19 20 20
REMARK H PARENT
REMARK Flexibility Score: inf
ROOT
ATOM      1  C   UNL     1     102.025 307.169 196.690  1.00  0.00     0.000 C 
ENDROOT
BRANCH   1   2
ATOM      2  C   UNL     1     101.617 307.330 195.213  1.00  0.00     0.000 C 
BRANCH   2   3
ATOM      3  C   UNL     1     101.352 306.010 194.461  1.00  0.00     0.000 C 
BRANCH   3   4
ATOM      4  C   UNL     1     102.170 305.826 193.170  1.00  0.00     0.000 C 
BRANCH   4   5
ATOM      5  C   UNL     1     103.556 306.489 193.243  1.00  0.00     0.000 C 
BRANCH   5   6
ATOM      6  C   UNL     1     103.783 307.508 192.116  1.00  0.00     0.006 C 
BRANCH   6   7
ATOM      7  C   UNL     1     102.471 307.993 191.487  1.00  0.00     0.053 C 
BRANCH   7   8
ATOM      8  C   UNL     1     102.740 309.052 190.466  1.00  0.00     0.041 C 
ATOM      9  O   UNL     1     103.753 309.792 190.573  1.00  0.00    -0.550 OA
ATOM     10  O   UNL     1     101.845 309.256 189.422  1.00  0.00    -0.550 OA
ENDBRANCH   7   8
ENDBRANCH   6   7
ENDBRANCH   5   6
ENDBRANCH   4   5
ENDBRANCH   3   4
ENDBRANCH   2   3
ENDBRANCH   1   2
BRANCH   1  11
ATOM     11  C   UNL     1     102.040 305.716 197.207  1.00  0.00     0.000 C 
BRANCH  11  12
ATOM     12  C   UNL     1     101.499 305.530 198.637  1.00  0.00     0.000 C 
BRANCH  12  13
ATOM     13  C   UNL     1     102.172 306.461 199.656  1.00  0.00     0.000 C 
BRANCH  13  14
ATOM     14  C   UNL     1     101.967 305.944 201.089  1.00  0.00     0.000 C 
BRANCH  14  15
ATOM     15  C   UNL     1     100.485 305.736 201.438  1.00  0.00     0.000 C 
BRANCH  15  16
ATOM     16  C   UNL     1     100.286 305.137 202.841  1.00  0.00     0.006 C 
BRANCH  16  17
ATOM     17  C   UNL     1     101.595 305.085 203.640  1.00  0.00     0.053 C 
BRANCH  17  18
ATOM     18  C   UNL     1     101.347 305.036 205.116  1.00  0.00     0.041 C 
ATOM     19  O   UNL     1     102.200 305.500 205.917  1.00  0.00    -0.550 OA
ATOM     20  O   UNL     1     100.187 304.450 205.609  1.00  0.00    -0.550 OA
ENDBRANCH  17  18
ENDBRANCH  16  17
ENDBRANCH  15  16
ENDBRANCH  14  15
ENDBRANCH  13  14
ENDBRANCH  12  13
ENDBRANCH  11  12
ENDBRANCH   1  11
TORSDOF 15
ENDMDL
MODEL 2
REMARK VINA RESULT:    -5.827      2.460      3.597
REMARK INTER + INTRA:         -11.841
REMARK INTER:                 -10.517
REMARK INTRA:                  -1.324
REMARK UNBOUND:                -0.904
REMARK SMILES O=C([O-])CCCCCCCCCCCCCCC(=O)[O-]
REMARK SMILES IDX 10 1 9 2 8 3 7 4 6 5 5 6 4 7 2 8 1 9 3 10 11 11 12 12 13 13
REMARK SMILES IDX 14 14 15 15 16 16 17 17 18 18 19 19 20 20
REMARK H PARENT
REMARK Flexibility Score: inf
ROOT
ATOM      1  C   UNL     1     101.951 305.731 193.434  1.00  0.00     0.000 C 
ENDROOT
BRANCH   1   2
ATOM      2  C   UNL     1     103.468 305.968 193.305  1.00  0.00     0.000 C 
BRANCH   2   3
ATOM      3  C   UNL     1     103.865 307.251 192.547  1.00  0.00     0.000 C 
BRANCH   3   4
ATOM      4  C   UNL     1     102.744 307.871 191.693  1.00  0.00     0.000 C 
BRANCH   4   5
ATOM      5  C   UNL     1     102.125 309.122 192.339  1.00  0.00     0.000 C 
BRANCH   5   6
ATOM      6  C   UNL     1     102.825 309.519 193.647  1.00  0.00     0.006 C 
BRANCH   6   7
ATOM      7  C   UNL     1     101.836 309.748 194.798  1.00  0.00     0.053 C 
BRANCH   7   8
ATOM      8  C   UNL     1     102.515 310.427 195.944  1.00  0.00     0.041 C 
ATOM      9  O   UNL     1     103.012 311.575 195.796  1.00  0.00    -0.550 OA
ATOM     10  O   UNL     1     102.645 309.773 197.163  1.00  0.00    -0.550 OA
ENDBRANCH   7   8
ENDBRANCH   6   7
ENDBRANCH   5   6
ENDBRANCH   4   5
ENDBRANCH   3   4
ENDBRANCH   2   3
ENDBRANCH   1   2
BRANCH   1  11
ATOM     11  C   UNL     1     101.348 306.095 194.806  1.00  0.00     0.000 C 
BRANCH  11  12
ATOM     12  C   UNL     1     102.374 306.261 195.942  1.00  0.00     0.000 C 
BRANCH  12  13
ATOM     13  C   UNL     1     101.945 305.562 197.241  1.00  0.00     0.000 C 
BRANCH  13  14
ATOM     14  C   UNL     1     101.797 306.576 198.386  1.00  0.00     0.000 C 
BRANCH  14  15
ATOM     15  C   UNL     1     101.188 305.955 199.653  1.00  0.00     0.000 C 
BRANCH  15  16
ATOM     16  C   UNL     1     102.154 305.987 200.851  1.00  0.00     0.006 C 
BRANCH  16  17
ATOM     17  C   UNL     1     101.494 305.477 202.139  1.00  0.00     0.053 C 
BRANCH  17  18
ATOM     18  C   UNL     1     102.307 305.812 203.352  1.00  0.00     0.041 C 
ATOM     19  O   UNL     1     102.960 306.887 203.400  1.00  0.00    -0.550 OA
ATOM     20  O   UNL     1     102.367 304.923 204.418  1.00  0.00    -0.550 OA
ENDBRANCH  17  18
ENDBRANCH  16  17
ENDBRANCH  15  16
ENDBRANCH  14  15
ENDBRANCH  13  14
ENDBRANCH  12  13
ENDBRANCH  11  12
ENDBRANCH   1  11
TORSDOF 15
ENDMDL
MODEL 3
REMARK VINA RESULT:    -5.777      2.492      9.328
REMARK INTER + INTRA:         -11.747
REMARK INTER:                 -10.426
REMARK INTRA:                  -1.320
REMARK UNBOUND:                -0.904
REMARK SMILES O=C([O-])CCCCCCCCCCCCCCC(=O)[O-]
REMARK SMILES IDX 10 1 9 2 8 3 7 4 6 5 5 6 4 7 2 8 1 9 3 10 11 11 12 12 13 13
REMARK SMILES IDX 14 14 15 15 16 16 17 17 18 18 19 19 20 20
REMARK H PARENT
REMARK Flexibility Score: inf
ROOT
ATOM      1  C   UNL     1     101.493 306.150 194.543  1.00  0.00     0.000 C 
ENDROOT
BRANCH   1   2
ATOM      2  C   UNL     1     102.372 306.305 195.799  1.00  0.00     0.000 C 
BRANCH   2   3
ATOM      3  C   UNL     1     101.865 305.554 197.046  1.00  0.00     0.000 C 
BRANCH   3   4
ATOM      4  C   UNL     1     101.837 306.391 198.338  1.00  0.00     0.000 C 
BRANCH   4   5
ATOM      5  C   UNL     1     101.423 305.570 199.571  1.00  0.00     0.000 C 
BRANCH   5   6
ATOM      6  C   UNL     1     101.244 306.438 200.826  1.00  0.00     0.006 C 
BRANCH   6   7
ATOM      7  C   UNL     1     102.260 306.102 201.924  1.00  0.00     0.053 C 
BRANCH   7   8
ATOM      8  C   UNL     1     101.640 305.217 202.958  1.00  0.00     0.041 C 
ATOM      9  O   UNL     1     100.423 304.902 202.874  1.00  0.00    -0.550 OA
ATOM     10  O   UNL     1     102.391 304.780 204.041  1.00  0.00    -0.550 OA
ENDBRANCH   7   8
ENDBRANCH   6   7
ENDBRANCH   5   6
ENDBRANCH   4   5
ENDBRANCH   3   4
ENDBRANCH   2   3
ENDBRANCH   1   2
BRANCH   1  11
ATOM     11  C   UNL     1     102.258 305.805 193.249  1.00  0.00     0.000 C 
BRANCH  11  12
ATOM     12  C   UNL     1     103.726 306.268 193.219  1.00  0.00     0.000 C 
BRANCH  12  13
ATOM     13  C   UNL     1     103.983 307.370 192.180  1.00  0.00     0.000 C 
BRANCH  13  14
ATOM     14  C   UNL     1     102.659 307.956 191.665  1.00  0.00     0.000 C 
BRANCH  14  15
ATOM     15  C   UNL     1     102.449 309.416 192.098  1.00  0.00     0.000 C 
BRANCH  15  16
ATOM     16  C   UNL     1     101.775 309.533 193.476  1.00  0.00     0.006 C 
BRANCH  16  17
ATOM     17  C   UNL     1     102.767 309.943 194.572  1.00  0.00     0.053 C 
BRANCH  17  18
ATOM     18  C   UNL     1     102.137 309.925 195.931  1.00  0.00     0.041 C 
ATOM     19  O   UNL     1     100.941 309.556 196.069  1.00  0.00    -0.550 OA
ATOM     20  O   UNL     1     102.861 310.343 197.041  1.00  0.00    -0.550 OA
ENDBRANCH  17  18
ENDBRANCH  16  17
ENDBRANCH  15  16
ENDBRANCH  14  15
ENDBRANCH  13  14
ENDBRANCH  12  13
ENDBRANCH  11  12
ENDBRANCH   1  11
TORSDOF 15
ENDMDL
MODEL 4
REMARK VINA RESULT:    -5.743      1.045     10.970
REMARK INTER + INTRA:         -11.683
REMARK INTER:                 -10.765
REMARK INTRA:                  -0.918
REMARK UNBOUND:                -0.904
REMARK SMILES O=C([O-])CCCCCCCCCCCCCCC(=O)[O-]
REMARK SMILES IDX 10 1 9 2 8 3 7 4 6 5 5 6 4 7 2 8 1 9 3 10 11 11 12 12 13 13
REMARK SMILES IDX 14 14 15 15 16 16 17 17 18 18 19 19 20 20
REMARK H PARENT
REMARK Flexibility Score: inf
ROOT
ATOM      1  C   UNL     1     102.194 307.111 196.754  1.00  0.00     0.000 C 
ENDROOT
BRANCH   1   2
ATOM      2  C   UNL     1     101.876 305.738 197.377  1.00  0.00     0.000 C 
BRANCH   2   3
ATOM      3  C   UNL     1     101.855 305.710 198.918  1.00  0.00     0.000 C 
BRANCH   3   4
ATOM      4  C   UNL     1     100.751 306.565 199.566  1.00  0.00     0.000 C 
BRANCH   4   5
ATOM      5  C   UNL     1     100.846 306.598 201.101  1.00  0.00     0.000 C 
BRANCH   5   6
ATOM      6  C   UNL     1     102.185 306.057 201.622  1.00  0.00     0.006 C 
BRANCH   6   7
ATOM      7  C   UNL     1     102.008 305.049 202.765  1.00  0.00     0.053 C 
BRANCH   7   8
ATOM      8  C   UNL     1     102.430 305.654 204.066  1.00  0.00     0.041 C 
ATOM      9  O   UNL     1     103.088 306.727 204.082  1.00  0.00    -0.550 OA
ATOM     10  O   UNL     1     102.139 305.007 205.261  1.00  0.00    -0.550 OA
ENDBRANCH   7   8
ENDBRANCH   6   7
ENDBRANCH   5   6
ENDBRANCH   4   5
ENDBRANCH   3   4
ENDBRANCH   2   3
ENDBRANCH   1   2
BRANCH   1  11
ATOM     11  C   UNL     1     101.756 307.278 195.285  1.00  0.00     0.000 C 
BRANCH  11  12
ATOM     12  C   UNL     1     101.418 305.966 194.555  1.00  0.00     0.000 C 
BRANCH  12  13
ATOM     13  C   UNL     1     102.152 305.822 193.213  1.00  0.00     0.000 C 
BRANCH  13  14
ATOM     14  C   UNL     1     103.616 306.270 193.340  1.00  0.00     0.000 C 
BRANCH  14  15
ATOM     15  C   UNL     1     103.957 307.451 192.417  1.00  0.00     0.000 C 
BRANCH  15  16
ATOM     16  C   UNL     1     102.731 307.976 191.650  1.00  0.00     0.006 C 
BRANCH  16  17
ATOM     17  C   UNL     1     103.125 308.919 190.506  1.00  0.00     0.053 C 
BRANCH  17  18
ATOM     18  C   UNL     1     101.935 309.626 189.930  1.00  0.00     0.041 C 
ATOM     19  O   UNL     1     101.445 309.248 188.834  1.00  0.00    -0.550 OA
ATOM     20  O   UNL     1     101.388 310.719 190.589  1.00  0.00    -0.550 OA
ENDBRANCH  17  18
ENDBRANCH  16  17
ENDBRANCH  15  16
ENDBRANCH  14  15
ENDBRANCH  13  14
ENDBRANCH  12  13
ENDBRANCH  11  12
ENDBRANCH   1  11
TORSDOF 15
ENDMDL
MODEL 5
REMARK VINA RESULT:    -5.692     19.570     21.903
REMARK INTER + INTRA:         -11.588
REMARK INTER:                 -10.466
REMARK INTRA:                  -1.122
REMARK UNBOUND:                -0.904
REMARK SMILES O=C([O-])CCCCCCCCCCCCCCC(=O)[O-]
REMARK SMILES IDX 10 1 9 2 8 3 7 4 6 5 5 6 4 7 2 8 1 9 3 10 11 11 12 12 13 13
REMARK SMILES IDX 14 14 15 15 16 16 17 17 18 18 19 19 20 20
REMARK H PARENT
REMARK Flexibility Score: inf
ROOT
ATOM      1  C   UNL     1      87.287 320.334 195.793  1.00  0.00     0.000 C 
ENDROOT
BRANCH   1   2
ATOM      2  C   UNL     1      86.499 320.167 197.107  1.00  0.00     0.000 C 
BRANCH   2   3
ATOM      3  C   UNL     1      87.051 320.968 198.304  1.00  0.00     0.000 C 
BRANCH   3   4
ATOM      4  C   UNL     1      87.596 320.109 199.460  1.00  0.00     0.000 C 
BRANCH   4   5
ATOM      5  C   UNL     1      88.072 320.952 200.655  1.00  0.00     0.000 C 
BRANCH   5   6
ATOM      6  C   UNL     1      88.320 320.106 201.913  1.00  0.00     0.006 C 
BRANCH   6   7
ATOM      7  C   UNL     1      87.413 320.509 203.082  1.00  0.00     0.053 C 
BRANCH   7   8
ATOM      8  C   UNL     1      88.185 321.293 204.096  1.00  0.00     0.041 C 
ATOM      9  O   UNL     1      87.660 321.585 205.203  1.00  0.00    -0.550 OA
ATOM     10  O   UNL     1      89.465 321.744 203.800  1.00  0.00    -0.550 OA
ENDBRANCH   7   8
ENDBRANCH   6   7
ENDBRANCH   5   6
ENDBRANCH   4   5
ENDBRANCH   3   4
ENDBRANCH   2   3
ENDBRANCH   1   2
BRANCH   1  11
ATOM     11  C   UNL     1      86.451 320.802 194.585  1.00  0.00     0.000 C 
BRANCH  11  12
ATOM     12  C   UNL     1      85.038 320.196 194.499  1.00  0.00     0.000 C 
BRANCH  12  13
ATOM     13  C   UNL     1      84.815 319.379 193.218  1.00  0.00     0.000 C 
BRANCH  13  14
ATOM     14  C   UNL     1      86.151 319.087 192.516  1.00  0.00     0.000 C 
BRANCH  14  15
ATOM     15  C   UNL     1      86.181 317.700 191.853  1.00  0.00     0.000 C 
BRANCH  15  16
ATOM     16  C   UNL     1      85.996 316.556 192.865  1.00  0.00     0.006 C 
BRANCH  16  17
ATOM     17  C   UNL     1      86.825 316.770 194.139  1.00  0.00     0.053 C 
BRANCH  17  18
ATOM     18  C   UNL     1      86.009 316.562 195.378  1.00  0.00     0.041 C 
ATOM     19  O   UNL     1      84.780 316.302 195.290  1.00  0.00    -0.550 OA
ATOM     20  O   UNL     1      86.598 316.685 196.630  1.00  0.00    -0.550 OA
ENDBRANCH  17  18
ENDBRANCH  16  17
ENDBRANCH  15  16
ENDBRANCH  14  15
ENDBRANCH  13  14
ENDBRANCH  12  13
ENDBRANCH  11  12
ENDBRANCH   1  11
TORSDOF 15
ENDMDL
MODEL 6
REMARK VINA RESULT:    -5.669      1.034     10.880
REMARK INTER + INTRA:         -11.544
REMARK INTER:                 -10.609
REMARK INTRA:                  -0.935
REMARK UNBOUND:                -0.904
REMARK SMILES O=C([O-])CCCCCCCCCCCCCCC(=O)[O-]
REMARK SMILES IDX 10 1 9 2 8 3 7 4 6 5 5 6 4 7 2 8 1 9 3 10 11 11 12 12 13 13
REMARK SMILES IDX 14 14 15 15 16 16 17 17 18 18 19 19 20 20
REMARK H PARENT
REMARK Flexibility Score: inf
ROOT
ATOM      1  C   UNL     1     101.526 307.326 197.223  1.00  0.00     0.000 C 
ENDROOT
BRANCH   1   2
ATOM      2  C   UNL     1     101.814 305.963 197.881  1.00  0.00     0.000 C 
BRANCH   2   3
ATOM      3  C   UNL     1     102.006 306.005 199.411  1.00  0.00     0.000 C 
BRANCH   3   4
ATOM      4  C   UNL     1     100.709 306.186 200.220  1.00  0.00     0.000 C 
BRANCH   4   5
ATOM      5  C   UNL     1     100.767 305.506 201.598  1.00  0.00     0.000 C 
BRANCH   5   6
ATOM      6  C   UNL     1     102.096 305.759 202.327  1.00  0.00     0.006 C 
BRANCH   6   7
ATOM      7  C   UNL     1     102.197 304.991 203.651  1.00  0.00     0.053 C 
BRANCH   7   8
ATOM      8  C   UNL     1     101.087 305.387 204.571  1.00  0.00     0.041 C 
ATOM      9  O   UNL     1     100.294 304.517 205.019  1.00  0.00    -0.550 OA
ATOM     10  O   UNL     1     100.896 306.724 204.896  1.00  0.00    -0.550 OA
ENDBRANCH   7   8
ENDBRANCH   6   7
ENDBRANCH   5   6
ENDBRANCH   4   5
ENDBRANCH   3   4
ENDBRANCH   2   3
ENDBRANCH   1   2
BRANCH   1  11
ATOM     11  C   UNL     1     101.546 307.323 195.681  1.00  0.00     0.000 C 
BRANCH  11  12
ATOM     12  C   UNL     1     101.456 305.929 195.033  1.00  0.00     0.000 C 
BRANCH  12  13
ATOM     13  C   UNL     1     101.910 305.922 193.565  1.00  0.00     0.000 C 
BRANCH  13  14
ATOM     14  C   UNL     1     103.434 306.090 193.462  1.00  0.00     0.000 C 
BRANCH  14  15
ATOM     15  C   UNL     1     103.843 307.206 192.488  1.00  0.00     0.000 C 
BRANCH  15  16
ATOM     16  C   UNL     1     102.647 307.775 191.704  1.00  0.00     0.006 C 
BRANCH  16  17
ATOM     17  C   UNL     1     102.422 309.265 191.992  1.00  0.00     0.053 C 
BRANCH  17  18
ATOM     18  C   UNL     1     103.528 310.113 191.441  1.00  0.00     0.041 C 
ATOM     19  O   UNL     1     103.949 311.106 192.092  1.00  0.00    -0.550 OA
ATOM     20  O   UNL     1     104.072 309.826 190.196  1.00  0.00    -0.550 OA
ENDBRANCH  17  18
ENDBRANCH  16  17
ENDBRANCH  15  16
ENDBRANCH  14  15
ENDBRANCH  13  14
ENDBRANCH  12  13
ENDBRANCH  11  12
ENDBRANCH   1  11
TORSDOF 15
ENDMDL
MODEL 7
REMARK VINA RESULT:    -5.668      1.468      2.482
REMARK INTER + INTRA:         -11.543
REMARK INTER:                 -10.784
REMARK INTRA:                  -0.759
REMARK UNBOUND:                -0.904
REMARK SMILES O=C([O-])CCCCCCCCCCCCCCC(=O)[O-]
REMARK SMILES IDX 10 1 9 2 8 3 7 4 6 5 5 6 4 7 2 8 1 9 3 10 11 11 12 12 13 13
REMARK SMILES IDX 14 14 15 15 16 16 17 17 18 18 19 19 20 20
REMARK H PARENT
REMARK Flexibility Score: inf
ROOT
ATOM      1  C   UNL     1     101.482 305.867 194.599  1.00  0.00     0.000 C 
ENDROOT
BRANCH   1   2
ATOM      2  C   UNL     1     102.048 305.891 193.166  1.00  0.00     0.000 C 
BRANCH   2   3
ATOM      3  C   UNL     1     103.513 306.357 193.051  1.00  0.00     0.000 C 
BRANCH   3   4
ATOM      4  C   UNL     1     103.696 307.801 192.552  1.00  0.00     0.000 C 
BRANCH   4   5
ATOM      5  C   UNL     1     102.372 308.453 192.117  1.00  0.00     0.000 C 
BRANCH   5   6
ATOM      6  C   UNL     1     102.153 308.389 190.598  1.00  0.00     0.006 C 
BRANCH   6   7
ATOM      7  C   UNL     1     102.872 309.519 189.851  1.00  0.00     0.053 C 
BRANCH   7   8
ATOM      8  C   UNL     1     101.986 310.090 188.790  1.00  0.00     0.041 C 
ATOM      9  O   UNL     1     100.791 310.388 189.055  1.00  0.00    -0.550 OA
ATOM     10  O   UNL     1     102.464 310.248 187.495  1.00  0.00    -0.550 OA
ENDBRANCH   7   8
ENDBRANCH   6   7
ENDBRANCH   5   6
ENDBRANCH   4   5
ENDBRANCH   3   4
ENDBRANCH   2   3
ENDBRANCH   1   2
BRANCH   1  11
ATOM     11  C   UNL     1     102.456 306.348 195.693  1.00  0.00     0.000 C 
BRANCH  11  12
ATOM     12  C   UNL     1     101.945 306.185 197.136  1.00  0.00     0.000 C 
BRANCH  12  13
ATOM     13  C   UNL     1     101.807 307.524 197.876  1.00  0.00     0.000 C 
BRANCH  13  14
ATOM     14  C   UNL     1     101.000 307.352 199.173  1.00  0.00     0.000 C 
BRANCH  14  15
ATOM     15  C   UNL     1     101.230 305.986 199.837  1.00  0.00     0.000 C 
BRANCH  15  16
ATOM     16  C   UNL     1     102.465 305.974 200.755  1.00  0.00     0.006 C 
BRANCH  16  17
ATOM     17  C   UNL     1     102.167 306.579 202.134  1.00  0.00     0.053 C 
BRANCH  17  18
ATOM     18  C   UNL     1     101.872 305.522 203.155  1.00  0.00     0.041 C 
ATOM     19  O   UNL     1     100.829 304.824 203.059  1.00  0.00    -0.550 OA
ATOM     20  O   UNL     1     102.734 305.329 204.227  1.00  0.00    -0.550 OA
ENDBRANCH  17  18
ENDBRANCH  16  17
ENDBRANCH  15  16
ENDBRANCH  14  15
ENDBRANCH  13  14
ENDBRANCH  12  13
ENDBRANCH  11  12
ENDBRANCH   1  11
TORSDOF 15
ENDMDL
MODEL 8
REMARK VINA RESULT:    -5.658     19.485     20.179
REMARK INTER + INTRA:         -11.524
REMARK INTER:                 -10.712
REMARK INTRA:                  -0.811
REMARK UNBOUND:                -0.904
REMARK SMILES O=C([O-])CCCCCCCCCCCCCCC(=O)[O-]
REMARK SMILES IDX 10 1 9 2 8 3 7 4 6 5 5 6 4 7 2 8 1 9 3 10 11 11 12 12 13 13
REMARK SMILES IDX 14 14 15 15 16 16 17 17 18 18 19 19 20 20
REMARK H PARENT
REMARK Flexibility Score: inf
ROOT
ATOM      1  C   UNL     1      87.262 319.005 196.065  1.00  0.00     0.000 C 
ENDROOT
BRANCH   1   2
ATOM      2  C   UNL     1      87.201 320.518 195.779  1.00  0.00     0.000 C 
BRANCH   2   3
ATOM      3  C   UNL     1      86.553 320.902 194.433  1.00  0.00     0.000 C 
BRANCH   3   4
ATOM      4  C   UNL     1      85.078 320.488 194.284  1.00  0.00     0.000 C 
BRANCH   4   5
ATOM      5  C   UNL     1      84.887 319.289 193.341  1.00  0.00     0.000 C 
BRANCH   5   6
ATOM      6  C   UNL     1      86.107 319.046 192.440  1.00  0.00     0.006 C 
BRANCH   6   7
ATOM      7  C   UNL     1      86.062 317.679 191.744  1.00  0.00     0.053 C 
BRANCH   7   8
ATOM      8  C   UNL     1      85.940 316.582 192.754  1.00  0.00     0.041 C 
ATOM      9  O   UNL     1      86.914 316.295 193.498  1.00  0.00    -0.550 OA
ATOM     10  O   UNL     1      84.767 315.843 192.839  1.00  0.00    -0.550 OA
ENDBRANCH   7   8
ENDBRANCH   6   7
ENDBRANCH   5   6
ENDBRANCH   4   5
ENDBRANCH   3   4
ENDBRANCH   2   3
ENDBRANCH   1   2
BRANCH   1  11
ATOM     11  C   UNL     1      87.274 318.624 197.559  1.00  0.00     0.000 C 
BRANCH  11  12
ATOM     12  C   UNL     1      87.251 319.815 198.534  1.00  0.00     0.000 C 
BRANCH  12  13
ATOM     13  C   UNL     1      87.784 319.456 199.929  1.00  0.00     0.000 C 
BRANCH  13  14
ATOM     14  C   UNL     1      87.949 320.716 200.793  1.00  0.00     0.000 C 
BRANCH  14  15
ATOM     15  C   UNL     1      87.446 320.520 202.231  1.00  0.00     0.000 C 
BRANCH  15  16
ATOM     16  C   UNL     1      88.361 321.184 203.275  1.00  0.00     0.006 C 
BRANCH  16  17
ATOM     17  C   UNL     1      87.630 321.457 204.596  1.00  0.00     0.053 C 
BRANCH  17  18
ATOM     18  C   UNL     1      88.544 321.334 205.776  1.00  0.00     0.041 C 
ATOM     19  O   UNL     1      88.130 320.817 206.847  1.00  0.00    -0.550 OA
ATOM     20  O   UNL     1      89.844 321.819 205.704  1.00  0.00    -0.550 OA
ENDBRANCH  17  18
ENDBRANCH  16  17
ENDBRANCH  15  16
ENDBRANCH  14  15
ENDBRANCH  13  14
ENDBRANCH  12  13
ENDBRANCH  11  12
ENDBRANCH   1  11
TORSDOF 15
ENDMDL
MODEL 9
REMARK VINA RESULT:    -5.642      4.555      9.165
REMARK INTER + INTRA:         -11.494
REMARK INTER:                  -9.904
REMARK INTRA:                  -1.589
REMARK UNBOUND:                -0.904
REMARK SMILES O=C([O-])CCCCCCCCCCCCCCC(=O)[O-]
REMARK SMILES IDX 10 1 9 2 8 3 7 4 6 5 5 6 4 7 2 8 1 9 3 10 11 11 12 12 13 13
REMARK SMILES IDX 14 14 15 15 16 16 17 17 18 18 19 19 20 20
REMARK H PARENT
REMARK Flexibility Score: inf
ROOT
ATOM      1  C   UNL     1     102.422 306.206 196.175  1.00  0.00     0.000 C 
ENDROOT
BRANCH   1   2
ATOM      2  C   UNL     1     101.840 305.439 197.377  1.00  0.00     0.000 C 
BRANCH   2   3
ATOM      3  C   UNL     1     101.837 306.218 198.708  1.00  0.00     0.000 C 
BRANCH   3   4
ATOM      4  C   UNL     1     101.294 307.655 198.615  1.00  0.00     0.000 C 
BRANCH   4   5
ATOM      5  C   UNL     1     102.274 308.700 199.175  1.00  0.00     0.000 C 
BRANCH   5   6
ATOM      6  C   UNL     1     102.788 309.666 198.097  1.00  0.00     0.006 C 
BRANCH   6   7
ATOM      7  C   UNL     1     101.800 309.831 196.935  1.00  0.00     0.053 C 
BRANCH   7   8
ATOM      8  C   UNL     1     102.519 310.255 195.694  1.00  0.00     0.041 C 
ATOM      9  O   UNL     1     102.265 309.699 194.593  1.00  0.00    -0.550 OA
ATOM     10  O   UNL     1     103.505 311.232 195.761  1.00  0.00    -0.550 OA
ENDBRANCH   7   8
ENDBRANCH   6   7
ENDBRANCH   5   6
ENDBRANCH   4   5
ENDBRANCH   3   4
ENDBRANCH   2   3
ENDBRANCH   1   2
BRANCH   1  11
ATOM     11  C   UNL     1     101.477 306.334 194.963  1.00  0.00     0.000 C 
BRANCH  11  12
ATOM     12  C   UNL     1     102.074 305.872 193.621  1.00  0.00     0.000 C 
BRANCH  12  13
ATOM     13  C   UNL     1     103.537 306.303 193.439  1.00  0.00     0.000 C 
BRANCH  13  14
ATOM     14  C   UNL     1     103.668 307.332 192.305  1.00  0.00     0.000 C 
BRANCH  14  15
ATOM     15  C   UNL     1     102.313 307.704 191.683  1.00  0.00     0.000 C 
BRANCH  15  16
ATOM     16  C   UNL     1     102.444 308.740 190.553  1.00  0.00     0.006 C 
BRANCH  16  17
ATOM     17  C   UNL     1     103.881 309.261 190.411  1.00  0.00     0.053 C 
BRANCH  17  18
ATOM     18  C   UNL     1     103.985 310.713 190.766  1.00  0.00     0.041 C 
ATOM     19  O   UNL     1     104.086 311.580 189.859  1.00  0.00    -0.550 OA
ATOM     20  O   UNL     1     104.001 311.106 192.098  1.00  0.00    -0.550 OA
ENDBRANCH  17  18
ENDBRANCH  16  17
ENDBRANCH  15  16
ENDBRANCH  14  15
ENDBRANCH  13  14
ENDBRANCH  12  13
ENDBRANCH  11  12
ENDBRANCH   1  11
TORSDOF 15
ENDMDL
