MODEL 1
REMARK VINA RESULT:    -3.590      0.000      0.000
REMARK INTER + INTRA:          -5.791
REMARK INTER:                  -5.060
REMARK INTRA:                  -0.732
REMARK UNBOUND:                -0.732
REMARK SMILES CCCCCCCCC(=O)[O-]
REMARK SMILES IDX 6 1 7 2 8 3 9 4 10 5 11 6 5 7 4 8 3 9 2 10 1 11
REMARK H PARENT
REMARK Flexibility Score: inf
ROOT
ATOM      1  C   UNL     1      26.023  -4.206  51.714  1.00  0.00     0.000 C 
ENDROOT
BRANCH   1   2
ATOM      2  C   UNL     1      26.875  -5.465  51.952  1.00  0.00     0.006 C 
BRANCH   2   3
ATOM      3  C   UNL     1      28.117  -5.171  52.804  1.00  0.00     0.053 C 
BRANCH   3   4
ATOM      4  C   UNL     1      29.376  -5.240  51.994  1.00  0.00     0.041 C 
ATOM      5  O   UNL     1      29.387  -5.840  50.889  1.00  0.00    -0.550 OA
ATOM      6  O   UNL     1      30.544  -4.664  52.477  1.00  0.00    -0.550 OA
ENDBRANCH   3   4
ENDBRANCH   2   3
ENDBRANCH   1   2
BRANCH   1   7
ATOM      7  C   UNL     1      26.132  -3.190  52.864  1.00  0.00     0.000 C 
BRANCH   7   8
ATOM      8  C   UNL     1      24.800  -2.998  53.610  1.00  0.00    -0.000 C 
BRANCH   8   9
ATOM      9  C   UNL     1      24.609  -4.016  54.746  1.00  0.00    -0.000 C 
BRANCH   9  10
ATOM     10  C   UNL     1      25.894  -4.254  55.553  1.00  0.00    -0.003 C 
ATOM     11  C   UNL     1      26.118  -5.742  55.803  1.00  0.00     0.004 C 
ENDBRANCH   9  10
ENDBRANCH   8   9
ENDBRANCH   7   8
ENDBRANCH   1   7
TORSDOF 7
ENDMDL
MODEL 2
REMARK VINA RESULT:    -3.472      1.333      1.896
REMARK INTER + INTRA:          -5.625
REMARK INTER:                  -5.016
REMARK INTRA:                  -0.609
REMARK UNBOUND:                -0.732
REMARK SMILES CCCCCCCCC(=O)[O-]
REMARK SMILES IDX 6 1 7 2 8 3 9 4 10 5 11 6 5 7 4 8 3 9 2 10 1 11
REMARK H PARENT
REMARK Flexibility Score: inf
ROOT
ATOM      1  C   UNL     1      27.354  -2.103  52.154  1.00  0.00     0.000 C 
ENDROOT
BRANCH   1   2
ATOM      2  C   UNL     1      28.759  -2.653  52.455  1.00  0.00     0.006 C 
BRANCH   2   3
ATOM      3  C   UNL     1      29.292  -3.532  51.316  1.00  0.00     0.053 C 
BRANCH   3   4
ATOM      4  C   UNL     1      29.434  -4.963  51.739  1.00  0.00     0.041 C 
ATOM      5  O   UNL     1      29.543  -5.872  50.875  1.00  0.00    -0.550 OA
ATOM      6  O   UNL     1      29.416  -5.294  53.088  1.00  0.00    -0.550 OA
ENDBRANCH   3   4
ENDBRANCH   2   3
ENDBRANCH   1   2
BRANCH   1   7
ATOM      7  C   UNL     1      26.507  -3.069  51.309  1.00  0.00     0.000 C 
BRANCH   7   8
ATOM      8  C   UNL     1      25.711  -4.064  52.171  1.00  0.00    -0.000 C 
BRANCH   8   9
ATOM      9  C   UNL     1      24.852  -3.365  53.236  1.00  0.00    -0.000 C 
BRANCH   9  10
ATOM     10  C   UNL     1      25.027  -3.976  54.635  1.00  0.00    -0.003 C 
ATOM     11  C   UNL     1      26.166  -4.991  54.653  1.00  0.00     0.004 C 
ENDBRANCH   9  10
ENDBRANCH   8   9
ENDBRANCH   7   8
ENDBRANCH   1   7
TORSDOF 7
ENDMDL
MODEL 3
REMARK VINA RESULT:    -3.446      1.421      2.960
REMARK INTER + INTRA:          -5.588
REMARK INTER:                  -4.706
REMARK INTRA:                  -0.882
REMARK UNBOUND:                -0.732
REMARK SMILES CCCCCCCCC(=O)[O-]
REMARK SMILES IDX 6 1 7 2 8 3 9 4 10 5 11 6 5 7 4 8 3 9 2 10 1 11
REMARK H PARENT
REMARK Flexibility Score: inf
ROOT
ATOM      1  C   UNL     1      26.361  -4.148  55.030  1.00  0.00     0.000 C 
ENDROOT
BRANCH   1   2
ATOM      2  C   UNL     1      26.993  -5.448  54.501  1.00  0.00     0.006 C 
BRANCH   2   3
ATOM      3  C   UNL     1      28.227  -5.178  53.630  1.00  0.00     0.053 C 
BRANCH   3   4
ATOM      4  C   UNL     1      27.962  -5.470  52.184  1.00  0.00     0.041 C 
ATOM      5  O   UNL     1      26.783  -5.491  51.747  1.00  0.00    -0.550 OA
ATOM      6  O   UNL     1      29.019  -5.746  51.327  1.00  0.00    -0.550 OA
ENDBRANCH   3   4
ENDBRANCH   2   3
ENDBRANCH   1   2
BRANCH   1   7
ATOM      7  C   UNL     1      24.876  -4.015  54.652  1.00  0.00     0.000 C 
BRANCH   7   8
ATOM      8  C   UNL     1      24.667  -3.227  53.347  1.00  0.00    -0.000 C 
BRANCH   8   9
ATOM      9  C   UNL     1      25.617  -2.024  53.227  1.00  0.00    -0.000 C 
BRANCH   9  10
ATOM     10  C   UNL     1      26.439  -2.044  51.930  1.00  0.00    -0.003 C 
ATOM     11  C   UNL     1      27.906  -1.724  52.203  1.00  0.00     0.004 C 
ENDBRANCH   9  10
ENDBRANCH   8   9
ENDBRANCH   7   8
ENDBRANCH   1   7
TORSDOF 7
ENDMDL
MODEL 4
REMARK VINA RESULT:    -3.404      2.940      4.495
REMARK INTER + INTRA:          -5.528
REMARK INTER:                  -4.968
REMARK INTRA:                  -0.560
REMARK UNBOUND:                -0.732
REMARK SMILES CCCCCCCCC(=O)[O-]
REMARK SMILES IDX 6 1 7 2 8 3 9 4 10 5 11 6 5 7 4 8 3 9 2 10 1 11
REMARK H PARENT
REMARK Flexibility Score: inf
ROOT
ATOM      1  C   UNL     1      24.648  -3.527  53.255  1.00  0.00     0.000 C 
ENDROOT
BRANCH   1   2
ATOM      2  C   UNL     1      24.665  -3.474  54.793  1.00  0.00     0.006 C 
BRANCH   2   3
ATOM      3  C   UNL     1      25.950  -4.074  55.378  1.00  0.00     0.053 C 
BRANCH   3   4
ATOM      4  C   UNL     1      25.663  -5.258  56.252  1.00  0.00     0.041 C 
ATOM      5  O   UNL     1      26.256  -6.350  56.056  1.00  0.00    -0.550 OA
ATOM      6  O   UNL     1      24.717  -5.160  57.264  1.00  0.00    -0.550 OA
ENDBRANCH   3   4
ENDBRANCH   2   3
ENDBRANCH   1   2
BRANCH   1   7
ATOM      7  C   UNL     1      25.797  -2.725  52.621  1.00  0.00     0.000 C 
BRANCH   7   8
ATOM      8  C   UNL     1      26.556  -3.527  51.550  1.00  0.00    -0.000 C 
BRANCH   8   9
ATOM      9  C   UNL     1      26.483  -5.044  51.787  1.00  0.00    -0.000 C 
BRANCH   9  10
ATOM     10  C   UNL     1      27.741  -5.600  52.469  1.00  0.00    -0.003 C 
ATOM     11  C   UNL     1      28.941  -5.558  51.528  1.00  0.00     0.004 C 
ENDBRANCH   9  10
ENDBRANCH   8   9
ENDBRANCH   7   8
ENDBRANCH   1   7
TORSDOF 7
ENDMDL
MODEL 5
REMARK VINA RESULT:    -3.279      1.114      2.840
REMARK INTER + INTRA:          -5.353
REMARK INTER:                  -4.638
REMARK INTRA:                  -0.715
REMARK UNBOUND:                -0.732
REMARK SMILES CCCCCCCCC(=O)[O-]
REMARK SMILES IDX 6 1 7 2 8 3 9 4 10 5 11 6 5 7 4 8 3 9 2 10 1 11
REMARK H PARENT
REMARK Flexibility Score: inf
ROOT
ATOM      1  C   UNL     1      27.629  -3.998  55.057  1.00  0.00     0.000 C 
ENDROOT
BRANCH   1   2
ATOM      2  C   UNL     1      28.974  -4.590  54.598  1.00  0.00     0.006 C 
BRANCH   2   3
ATOM      3  C   UNL     1      28.803  -5.591  53.448  1.00  0.00     0.053 C 
BRANCH   3   4
ATOM      4  C   UNL     1      29.626  -5.212  52.255  1.00  0.00     0.041 C 
ATOM      5  O   UNL     1      30.526  -4.339  52.356  1.00  0.00    -0.550 OA
ATOM      6  O   UNL     1      29.378  -5.806  51.024  1.00  0.00    -0.550 OA
ENDBRANCH   3   4
ENDBRANCH   2   3
ENDBRANCH   1   2
BRANCH   1   7
ATOM      7  C   UNL     1      26.422  -4.787  54.525  1.00  0.00     0.000 C 
BRANCH   7   8
ATOM      8  C   UNL     1      25.141  -3.937  54.463  1.00  0.00    -0.000 C 
BRANCH   8   9
ATOM      9  C   UNL     1      24.898  -3.339  53.068  1.00  0.00    -0.000 C 
BRANCH   9  10
ATOM     10  C   UNL     1      25.766  -3.993  51.982  1.00  0.00    -0.003 C 
ATOM     11  C   UNL     1      26.722  -2.980  51.358  1.00  0.00     0.004 C 
ENDBRANCH   9  10
ENDBRANCH   8   9
ENDBRANCH   7   8
ENDBRANCH   1   7
TORSDOF 7
ENDMDL
MODEL 6
REMARK VINA RESULT:    -3.210      1.407      2.354
REMARK INTER + INTRA:          -5.255
REMARK INTER:                  -4.489
REMARK INTRA:                  -0.766
REMARK UNBOUND:                -0.732
REMARK SMILES CCCCCCCCC(=O)[O-]
REMARK SMILES IDX 6 1 7 2 8 3 9 4 10 5 11 6 5 7 4 8 3 9 2 10 1 11
REMARK H PARENT
REMARK Flexibility Score: inf
ROOT
ATOM      1  C   UNL     1      27.841  -5.470  51.987  1.00  0.00     0.000 C 
ENDROOT
BRANCH   1   2
ATOM      2  C   UNL     1      28.140  -5.593  53.492  1.00  0.00     0.006 C 
BRANCH   2   3
ATOM      3  C   UNL     1      28.855  -4.353  54.042  1.00  0.00     0.053 C 
BRANCH   3   4
ATOM      4  C   UNL     1      29.872  -3.822  53.078  1.00  0.00     0.041 C 
ATOM      5  O   UNL     1      29.684  -2.720  52.500  1.00  0.00    -0.550 OA
ATOM      6  O   UNL     1      31.014  -4.561  52.796  1.00  0.00    -0.550 OA
ENDBRANCH   3   4
ENDBRANCH   2   3
ENDBRANCH   1   2
BRANCH   1   7
ATOM      7  C   UNL     1      26.409  -4.987  51.705  1.00  0.00     0.000 C 
BRANCH   7   8
ATOM      8  C   UNL     1      26.336  -3.470  51.458  1.00  0.00    -0.000 C 
BRANCH   8   9
ATOM      9  C   UNL     1      25.832  -2.697  52.687  1.00  0.00    -0.000 C 
BRANCH   9  10
ATOM     10  C   UNL     1      24.644  -3.386  53.376  1.00  0.00    -0.003 C 
ATOM     11  C   UNL     1      24.943  -3.656  54.848  1.00  0.00     0.004 C 
ENDBRANCH   9  10
ENDBRANCH   8   9
ENDBRANCH   7   8
ENDBRANCH   1   7
TORSDOF 7
ENDMDL
MODEL 7
REMARK VINA RESULT:    -3.184      2.378      4.297
REMARK INTER + INTRA:          -5.219
REMARK INTER:                  -4.530
REMARK INTRA:                  -0.689
REMARK UNBOUND:                -0.732
REMARK SMILES CCCCCCCCC(=O)[O-]
REMARK SMILES IDX 6 1 7 2 8 3 9 4 10 5 11 6 5 7 4 8 3 9 2 10 1 11
REMARK H PARENT
REMARK Flexibility Score: inf
ROOT
ATOM      1  C   UNL     1      25.678  -3.919  52.186  1.00  0.00     0.000 C 
ENDROOT
BRANCH   1   2
ATOM      2  C   UNL     1      24.816  -3.222  53.254  1.00  0.00     0.006 C 
BRANCH   2   3
ATOM      3  C   UNL     1      24.772  -4.012  54.568  1.00  0.00     0.053 C 
BRANCH   3   4
ATOM      4  C   UNL     1      26.119  -4.082  55.221  1.00  0.00     0.041 C 
ATOM      5  O   UNL     1      26.618  -3.058  55.758  1.00  0.00    -0.550 OA
ATOM      6  O   UNL     1      26.836  -5.272  55.211  1.00  0.00    -0.550 OA
ENDBRANCH   3   4
ENDBRANCH   2   3
ENDBRANCH   1   2
BRANCH   1   7
ATOM      7  C   UNL     1      26.580  -2.938  51.419  1.00  0.00     0.000 C 
BRANCH   7   8
ATOM      8  C   UNL     1      27.725  -2.388  52.286  1.00  0.00    -0.000 C 
BRANCH   8   9
ATOM      9  C   UNL     1      28.761  -3.465  52.648  1.00  0.00    -0.000 C 
BRANCH   9  10
ATOM     10  C   UNL     1      29.395  -4.118  51.410  1.00  0.00    -0.003 C 
ATOM     11  C   UNL     1      29.178  -5.629  51.415  1.00  0.00     0.004 C 
ENDBRANCH   9  10
ENDBRANCH   8   9
ENDBRANCH   7   8
ENDBRANCH   1   7
TORSDOF 7
ENDMDL
MODEL 8
REMARK VINA RESULT:    -3.157      3.541      5.144
REMARK INTER + INTRA:          -5.180
REMARK INTER:                  -4.625
REMARK INTRA:                  -0.555
REMARK UNBOUND:                -0.732
REMARK SMILES CCCCCCCCC(=O)[O-]
REMARK SMILES IDX 6 1 7 2 8 3 9 4 10 5 11 6 5 7 4 8 3 9 2 10 1 11
REMARK H PARENT
REMARK Flexibility Score: inf
ROOT
ATOM      1  C   UNL     1      24.613  -3.551  54.863  1.00  0.00     0.000 C 
ENDROOT
BRANCH   1   2
ATOM      2  C   UNL     1      25.584  -4.626  55.380  1.00  0.00     0.006 C 
BRANCH   2   3
ATOM      3  C   UNL     1      25.235  -5.087  56.801  1.00  0.00     0.053 C 
BRANCH   3   4
ATOM      4  C   UNL     1      25.164  -3.935  57.758  1.00  0.00     0.041 C 
ATOM      5  O   UNL     1      24.090  -3.675  58.359  1.00  0.00    -0.550 OA
ATOM      6  O   UNL     1      26.279  -3.132  57.962  1.00  0.00    -0.550 OA
ENDBRANCH   3   4
ENDBRANCH   2   3
ENDBRANCH   1   2
BRANCH   1   7
ATOM      7  C   UNL     1      24.595  -3.456  53.329  1.00  0.00     0.000 C 
BRANCH   7   8
ATOM      8  C   UNL     1      25.877  -2.825  52.761  1.00  0.00    -0.000 C 
BRANCH   8   9
ATOM      9  C   UNL     1      26.393  -3.559  51.512  1.00  0.00    -0.000 C 
BRANCH   9  10
ATOM     10  C   UNL     1      26.480  -5.079  51.711  1.00  0.00    -0.003 C 
ATOM     11  C   UNL     1      27.776  -5.468  52.417  1.00  0.00     0.004 C 
ENDBRANCH   9  10
ENDBRANCH   8   9
ENDBRANCH   7   8
ENDBRANCH   1   7
TORSDOF 7
ENDMDL
MODEL 9
REMARK VINA RESULT:    -3.102      1.889      2.802
REMARK INTER + INTRA:          -5.102
REMARK INTER:                  -4.228
REMARK INTRA:                  -0.874
REMARK UNBOUND:                -0.732
REMARK SMILES CCCCCCCCC(=O)[O-]
REMARK SMILES IDX 6 1 7 2 8 3 9 4 10 5 11 6 5 7 4 8 3 9 2 10 1 11
REMARK H PARENT
REMARK Flexibility Score: inf
ROOT
ATOM      1  C   UNL     1      25.941  -4.301  51.667  1.00  0.00     0.000 C 
ENDROOT
BRANCH   1   2
ATOM      2  C   UNL     1      26.841  -5.471  52.102  1.00  0.00     0.006 C 
BRANCH   2   3
ATOM      3  C   UNL     1      28.311  -5.239  51.731  1.00  0.00     0.053 C 
BRANCH   3   4
ATOM      4  C   UNL     1      29.065  -4.569  52.839  1.00  0.00     0.041 C 
ATOM      5  O   UNL     1      28.675  -4.681  54.031  1.00  0.00    -0.550 OA
ATOM      6  O   UNL     1      30.182  -3.796  52.551  1.00  0.00    -0.550 OA
ENDBRANCH   3   4
ENDBRANCH   2   3
ENDBRANCH   1   2
BRANCH   1   7
ATOM      7  C   UNL     1      25.299  -3.572  52.859  1.00  0.00     0.000 C 
BRANCH   7   8
ATOM      8  C   UNL     1      25.663  -2.078  52.903  1.00  0.00    -0.000 C 
BRANCH   8   9
ATOM      9  C   UNL     1      26.811  -1.722  51.945  1.00  0.00    -0.000 C 
BRANCH   9  10
ATOM     10  C   UNL     1      27.941  -0.943  52.635  1.00  0.00    -0.003 C 
ATOM     11  C   UNL     1      27.950  -1.206  54.139  1.00  0.00     0.004 C 
ENDBRANCH   9  10
ENDBRANCH   8   9
ENDBRANCH   7   8
ENDBRANCH   1   7
TORSDOF 7
ENDMDL
