MODEL 1
REMARK VINA RESULT:    -3.113      0.000      0.000
REMARK INTER + INTRA:          -4.010
REMARK INTER:                  -3.841
REMARK INTRA:                  -0.169
REMARK UNBOUND:                -0.169
REMARK SMILES CCCCCC(=O)[O-]
REMARK SMILES IDX 4 1 5 2 6 3 7 4 8 5 3 6 2 7 1 8
REMARK H PARENT
REMARK Flexibility Score: inf
ROOT
ATOM      1  C   UNL     1     177.424 164.350 188.651  1.00  0.00     0.006 C 
ENDROOT
BRANCH   1   2
ATOM      2  C   UNL     1     176.555 163.843 187.496  1.00  0.00     0.053 C 
BRANCH   2   3
ATOM      3  C   UNL     1     177.126 162.585 186.924  1.00  0.00     0.041 C 
ATOM      4  O   UNL     1     176.834 161.469 187.428  1.00  0.00    -0.550 OA
ATOM      5  O   UNL     1     178.021 162.648 185.863  1.00  0.00    -0.550 OA
ENDBRANCH   2   3
ENDBRANCH   1   2
BRANCH   1   6
ATOM      6  C   UNL     1     176.791 164.012 190.006  1.00  0.00     0.000 C 
BRANCH   6   7
ATOM      7  C   UNL     1     175.262 164.105 189.936  1.00  0.00    -0.003 C 
ATOM      8  C   UNL     1     174.716 165.035 191.015  1.00  0.00     0.004 C 
ENDBRANCH   6   7
ENDBRANCH   1   6
TORSDOF 4
ENDMDL
MODEL 2
REMARK VINA RESULT:    -3.088      9.705     11.626
REMARK INTER + INTRA:          -3.980
REMARK INTER:                  -3.879
REMARK INTRA:                  -0.101
REMARK UNBOUND:                -0.169
REMARK SMILES CCCCCC(=O)[O-]
REMARK SMILES IDX 4 1 5 2 6 3 7 4 8 5 3 6 2 7 1 8
REMARK H PARENT
REMARK Flexibility Score: inf
ROOT
ATOM      1  C   UNL     1     177.293 161.776 177.280  1.00  0.00     0.006 C 
ENDROOT
BRANCH   1   2
ATOM      2  C   UNL     1     177.791 161.584 175.844  1.00  0.00     0.053 C 
BRANCH   2   3
ATOM      3  C   UNL     1     179.273 161.769 175.776  1.00  0.00     0.041 C 
ATOM      4  O   UNL     1     179.787 162.881 176.068  1.00  0.00    -0.550 OA
ATOM      5  O   UNL     1     180.085 160.728 175.343  1.00  0.00    -0.550 OA
ENDBRANCH   2   3
ENDBRANCH   1   2
BRANCH   1   6
ATOM      6  C   UNL     1     177.550 160.521 178.123  1.00  0.00     0.000 C 
BRANCH   6   7
ATOM      7  C   UNL     1     176.548 160.421 179.279  1.00  0.00    -0.003 C 
ATOM      8  C   UNL     1     177.192 160.823 180.603  1.00  0.00     0.004 C 
ENDBRANCH   6   7
ENDBRANCH   1   6
TORSDOF 4
ENDMDL
MODEL 3
REMARK VINA RESULT:    -3.042     13.702     14.733
REMARK INTER + INTRA:          -3.923
REMARK INTER:                  -3.810
REMARK INTRA:                  -0.113
REMARK UNBOUND:                -0.169
REMARK SMILES CCCCCC(=O)[O-]
REMARK SMILES IDX 4 1 5 2 6 3 7 4 8 5 3 6 2 7 1 8
REMARK H PARENT
REMARK Flexibility Score: inf
ROOT
ATOM      1  C   UNL     1     161.674 161.422 187.458  1.00  0.00     0.006 C 
ENDROOT
BRANCH   1   2
ATOM      2  C   UNL     1     162.705 161.193 188.568  1.00  0.00     0.053 C 
BRANCH   2   3
ATOM      3  C   UNL     1     163.935 160.547 188.014  1.00  0.00     0.041 C 
ATOM      4  O   UNL     1     163.973 160.188 186.808  1.00  0.00    -0.550 OA
ATOM      5  O   UNL     1     165.021 160.296 188.843  1.00  0.00    -0.550 OA
ENDBRANCH   2   3
ENDBRANCH   1   2
BRANCH   1   6
ATOM      6  C   UNL     1     160.246 161.377 188.016  1.00  0.00     0.000 C 
BRANCH   6   7
ATOM      7  C   UNL     1     160.034 162.466 189.074  1.00  0.00    -0.003 C 
ATOM      8  C   UNL     1     159.875 163.839 188.427  1.00  0.00     0.004 C 
ENDBRANCH   6   7
ENDBRANCH   1   6
TORSDOF 4
ENDMDL
MODEL 4
REMARK VINA RESULT:    -2.966     10.022     10.722
REMARK INTER + INTRA:          -3.829
REMARK INTER:                  -3.733
REMARK INTRA:                  -0.095
REMARK UNBOUND:                -0.169
REMARK SMILES CCCCCC(=O)[O-]
REMARK SMILES IDX 4 1 5 2 6 3 7 4 8 5 3 6 2 7 1 8
REMARK H PARENT
REMARK Flexibility Score: inf
ROOT
ATOM      1  C   UNL     1     177.661 175.033 189.240  1.00  0.00     0.006 C 
ENDROOT
BRANCH   1   2
ATOM      2  C   UNL     1     178.792 174.055 188.907  1.00  0.00     0.053 C 
BRANCH   2   3
ATOM      3  C   UNL     1     179.090 174.077 187.442  1.00  0.00     0.041 C 
ATOM      4  O   UNL     1     179.784 173.165 186.922  1.00  0.00    -0.550 OA
ATOM      5  O   UNL     1     178.640 175.132 186.657  1.00  0.00    -0.550 OA
ENDBRANCH   2   3
ENDBRANCH   1   2
BRANCH   1   6
ATOM      6  C   UNL     1     176.806 174.510 190.401  1.00  0.00     0.000 C 
BRANCH   6   7
ATOM      7  C   UNL     1     175.878 173.381 189.935  1.00  0.00    -0.003 C 
ATOM      8  C   UNL     1     175.263 172.649 191.124  1.00  0.00     0.004 C 
ENDBRANCH   6   7
ENDBRANCH   1   6
TORSDOF 4
ENDMDL
MODEL 5
REMARK VINA RESULT:    -2.963     12.551     14.823
REMARK INTER + INTRA:          -3.825
REMARK INTER:                  -3.675
REMARK INTRA:                  -0.150
REMARK UNBOUND:                -0.169
REMARK SMILES CCCCCC(=O)[O-]
REMARK SMILES IDX 4 1 5 2 6 3 7 4 8 5 3 6 2 7 1 8
REMARK H PARENT
REMARK Flexibility Score: inf
ROOT
ATOM      1  C   UNL     1     177.841 162.259 173.827  1.00  0.00     0.006 C 
ENDROOT
BRANCH   1   2
ATOM      2  C   UNL     1     178.242 161.343 174.987  1.00  0.00     0.053 C 
BRANCH   2   3
ATOM      3  C   UNL     1     178.638 162.153 176.180  1.00  0.00     0.041 C 
ATOM      4  O   UNL     1     177.899 162.182 177.199  1.00  0.00    -0.550 OA
ATOM      5  O   UNL     1     179.799 162.915 176.150  1.00  0.00    -0.550 OA
ENDBRANCH   2   3
ENDBRANCH   1   2
BRANCH   1   6
ATOM      6  C   UNL     1     178.835 162.142 172.665  1.00  0.00     0.000 C 
BRANCH   6   7
ATOM      7  C   UNL     1     179.950 161.142 172.993  1.00  0.00    -0.003 C 
ATOM      8  C   UNL     1     180.124 160.122 171.871  1.00  0.00     0.004 C 
ENDBRANCH   6   7
ENDBRANCH   1   6
TORSDOF 4
ENDMDL
MODEL 6
REMARK VINA RESULT:    -2.946     10.478     11.053
REMARK INTER + INTRA:          -3.804
REMARK INTER:                  -3.529
REMARK INTRA:                  -0.275
REMARK UNBOUND:                -0.169
REMARK SMILES CCCCCC(=O)[O-]
REMARK SMILES IDX 4 1 5 2 6 3 7 4 8 5 3 6 2 7 1 8
REMARK H PARENT
REMARK Flexibility Score: inf
ROOT
ATOM      1  C   UNL     1     178.525 173.222 188.460  1.00  0.00     0.006 C 
ENDROOT
BRANCH   1   2
ATOM      2  C   UNL     1     179.002 173.388 187.014  1.00  0.00     0.053 C 
BRANCH   2   3
ATOM      3  C   UNL     1     178.242 174.483 186.335  1.00  0.00     0.041 C 
ATOM      4  O   UNL     1     176.995 174.392 186.189  1.00  0.00    -0.550 OA
ATOM      5  O   UNL     1     178.917 175.582 185.820  1.00  0.00    -0.550 OA
ENDBRANCH   2   3
ENDBRANCH   1   2
BRANCH   1   6
ATOM      6  C   UNL     1     178.745 174.510 189.263  1.00  0.00     0.000 C 
BRANCH   6   7
ATOM      7  C   UNL     1     177.489 174.882 190.059  1.00  0.00    -0.003 C 
ATOM      8  C   UNL     1     176.308 173.996 189.671  1.00  0.00     0.004 C 
ENDBRANCH   6   7
ENDBRANCH   1   6
TORSDOF 4
ENDMDL
MODEL 7
REMARK VINA RESULT:    -2.925     14.133     15.188
REMARK INTER + INTRA:          -3.778
REMARK INTER:                  -3.566
REMARK INTRA:                  -0.212
REMARK UNBOUND:                -0.169
REMARK SMILES CCCCCC(=O)[O-]
REMARK SMILES IDX 4 1 5 2 6 3 7 4 8 5 3 6 2 7 1 8
REMARK H PARENT
REMARK Flexibility Score: inf
ROOT
ATOM      1  C   UNL     1     160.791 161.726 188.526  1.00  0.00     0.006 C 
ENDROOT
BRANCH   1   2
ATOM      2  C   UNL     1     162.308 161.544 188.420  1.00  0.00     0.053 C 
BRANCH   2   3
ATOM      3  C   UNL     1     162.693 161.158 187.027  1.00  0.00     0.041 C 
ATOM      4  O   UNL     1     163.650 160.364 186.832  1.00  0.00    -0.550 OA
ATOM      5  O   UNL     1     162.026 161.714 185.943  1.00  0.00    -0.550 OA
ENDBRANCH   2   3
ENDBRANCH   1   2
BRANCH   1   6
ATOM      6  C   UNL     1     160.442 163.086 189.144  1.00  0.00     0.000 C 
BRANCH   6   7
ATOM      7  C   UNL     1     159.878 164.042 188.086  1.00  0.00    -0.003 C 
ATOM      8  C   UNL     1     160.963 164.969 187.546  1.00  0.00     0.004 C 
ENDBRANCH   6   7
ENDBRANCH   1   6
TORSDOF 4
ENDMDL
MODEL 8
REMARK VINA RESULT:    -2.901     19.393     20.386
REMARK INTER + INTRA:          -3.749
REMARK INTER:                  -3.612
REMARK INTRA:                  -0.137
REMARK UNBOUND:                -0.169
REMARK SMILES CCCCCC(=O)[O-]
REMARK SMILES IDX 4 1 5 2 6 3 7 4 8 5 3 6 2 7 1 8
REMARK H PARENT
REMARK Flexibility Score: inf
ROOT
ATOM      1  C   UNL     1     160.183 177.060 187.886  1.00  0.00     0.006 C 
ENDROOT
BRANCH   1   2
ATOM      2  C   UNL     1     161.510 177.496 187.258  1.00  0.00     0.053 C 
BRANCH   2   3
ATOM      3  C   UNL     1     161.579 177.065 185.828  1.00  0.00     0.041 C 
ATOM      4  O   UNL     1     162.679 176.715 185.324  1.00  0.00    -0.550 OA
ATOM      5  O   UNL     1     160.438 177.095 185.037  1.00  0.00    -0.550 OA
ENDBRANCH   2   3
ENDBRANCH   1   2
BRANCH   1   6
ATOM      6  C   UNL     1     160.421 176.220 189.147  1.00  0.00     0.000 C 
BRANCH   6   7
ATOM      7  C   UNL     1     160.986 174.840 188.789  1.00  0.00    -0.003 C 
ATOM      8  C   UNL     1     159.887 173.906 188.292  1.00  0.00     0.004 C 
ENDBRANCH   6   7
ENDBRANCH   1   6
TORSDOF 4
ENDMDL
MODEL 9
REMARK VINA RESULT:    -2.870     12.189     13.135
REMARK INTER + INTRA:          -3.710
REMARK INTER:                  -3.587
REMARK INTRA:                  -0.123
REMARK UNBOUND:                -0.169
REMARK SMILES CCCCCC(=O)[O-]
REMARK SMILES IDX 4 1 5 2 6 3 7 4 8 5 3 6 2 7 1 8
REMARK H PARENT
REMARK Flexibility Score: inf
ROOT
ATOM      1  C   UNL     1     164.422 161.424 188.483  1.00  0.00     0.006 C 
ENDROOT
BRANCH   1   2
ATOM      2  C   UNL     1     162.893 161.396 188.407  1.00  0.00     0.053 C 
BRANCH   2   3
ATOM      3  C   UNL     1     162.444 161.142 187.003  1.00  0.00     0.041 C 
ATOM      4  O   UNL     1     161.276 161.449 186.647  1.00  0.00    -0.550 OA
ATOM      5  O   UNL     1     163.298 160.522 186.101  1.00  0.00    -0.550 OA
ENDBRANCH   2   3
ENDBRANCH   1   2
BRANCH   1   6
ATOM      6  C   UNL     1     164.958 160.191 189.221  1.00  0.00     0.000 C 
BRANCH   6   7
ATOM      7  C   UNL     1     166.215 160.537 190.029  1.00  0.00    -0.003 C 
ATOM      8  C   UNL     1     166.493 162.037 189.999  1.00  0.00     0.004 C 
ENDBRANCH   6   7
ENDBRANCH   1   6
TORSDOF 4
ENDMDL
