MODEL 1
REMARK VINA RESULT:    -4.696      0.000      0.000
REMARK INTER + INTRA:          -4.696
REMARK INTER:                  -4.696
REMARK INTRA:                   0.000
REMARK UNBOUND:                 0.000
REMARK SMILES CC(C)=C1CC[C@@H](C)CC1=O
REMARK SMILES IDX 8 1 7 2 6 3 5 4 4 5 2 6 1 7 3 8 10 9 11 10 9 11
REMARK H PARENT
REMARK Flexibility Score: inf
ROOT
ATOM      1  C   UNL     1      17.215  21.747  25.624  1.00  0.00     0.008 C 
ATOM      2  C   UNL     1      15.704  22.002  25.501  1.00  0.00    -0.006 C 
ATOM      3  C   UNL     1      15.337  23.473  25.764  1.00  0.00     0.008 C 
ATOM      4  C   UNL     1      15.583  23.904  27.219  1.00  0.00     0.039 C 
ATOM      5  C   UNL     1      14.987  22.937  28.233  1.00  0.00    -0.006 C 
ATOM      6  C   UNL     1      14.557  23.370  29.455  1.00  0.00    -0.070 C 
ATOM      7  C   UNL     1      14.670  24.824  29.855  1.00  0.00     0.039 C 
ATOM      8  C   UNL     1      13.913  22.434  30.451  1.00  0.00     0.039 C 
ATOM      9  C   UNL     1      15.015  21.490  27.865  1.00  0.00     0.159 C 
ATOM     10  O   UNL     1      15.151  20.594  28.739  1.00  0.00    -0.295 OA
ATOM     11  C   UNL     1      14.895  21.079  26.425  1.00  0.00     0.084 C 
ENDROOT
TORSDOF 0
ENDMDL
MODEL 2
REMARK VINA RESULT:    -4.532      6.445      7.809
REMARK INTER + INTRA:          -4.532
REMARK INTER:                  -4.532
REMARK INTRA:                   0.000
REMARK UNBOUND:                 0.000
REMARK SMILES CC(C)=C1CC[C@@H](C)CC1=O
REMARK SMILES IDX 8 1 7 2 6 3 5 4 4 5 2 6 1 7 3 8 10 9 11 10 9 11
REMARK H PARENT
REMARK Flexibility Score: inf
ROOT
ATOM      1  C   UNL     1      21.666  28.624  30.845  1.00  0.00     0.008 C 
ATOM      2  C   UNL     1      21.528  28.954  29.350  1.00  0.00    -0.006 C 
ATOM      3  C   UNL     1      20.058  29.095  28.918  1.00  0.00     0.008 C 
ATOM      4  C   UNL     1      19.278  27.773  28.993  1.00  0.00     0.039 C 
ATOM      5  C   UNL     1      20.003  26.617  28.317  1.00  0.00    -0.006 C 
ATOM      6  C   UNL     1      19.312  25.586  27.745  1.00  0.00    -0.070 C 
ATOM      7  C   UNL     1      17.801  25.544  27.776  1.00  0.00     0.039 C 
ATOM      8  C   UNL     1      20.015  24.460  27.022  1.00  0.00     0.039 C 
ATOM      9  C   UNL     1      21.492  26.617  28.423  1.00  0.00     0.159 C 
ATOM     10  O   UNL     1      22.144  25.541  28.486  1.00  0.00    -0.295 OA
ATOM     11  C   UNL     1      22.243  27.917  28.470  1.00  0.00     0.084 C 
ENDROOT
TORSDOF 0
ENDMDL
MODEL 3
REMARK VINA RESULT:    -4.347      7.360      9.569
REMARK INTER + INTRA:          -4.347
REMARK INTER:                  -4.347
REMARK INTRA:                   0.000
REMARK UNBOUND:                 0.000
REMARK SMILES CC(C)=C1CC[C@@H](C)CC1=O
REMARK SMILES IDX 8 1 7 2 6 3 5 4 4 5 2 6 1 7 3 8 10 9 11 10 9 11
REMARK H PARENT
REMARK Flexibility Score: inf
ROOT
ATOM      1  C   UNL     1      15.775  32.308  31.415  1.00  0.00     0.008 C 
ATOM      2  C   UNL     1      15.735  32.058  29.899  1.00  0.00    -0.006 C 
ATOM      3  C   UNL     1      15.406  30.594  29.557  1.00  0.00     0.008 C 
ATOM      4  C   UNL     1      16.512  29.615  29.978  1.00  0.00     0.039 C 
ATOM      5  C   UNL     1      17.898  30.050  29.521  1.00  0.00    -0.006 C 
ATOM      6  C   UNL     1      18.871  29.134  29.242  1.00  0.00    -0.070 C 
ATOM      7  C   UNL     1      18.618  27.651  29.394  1.00  0.00     0.039 C 
ATOM      8  C   UNL     1      20.233  29.547  28.734  1.00  0.00     0.039 C 
ATOM      9  C   UNL     1      18.160  31.520  29.513  1.00  0.00     0.159 C 
ATOM     10  O   UNL     1      19.305  31.982  29.762  1.00  0.00    -0.295 OA
ATOM     11  C   UNL     1      17.045  32.481  29.217  1.00  0.00     0.084 C 
ENDROOT
TORSDOF 0
ENDMDL
MODEL 4
REMARK VINA RESULT:    -4.333      7.134      9.217
REMARK INTER + INTRA:          -4.333
REMARK INTER:                  -4.333
REMARK INTRA:                   0.000
REMARK UNBOUND:                 0.000
REMARK SMILES CC(C)=C1CC[C@@H](C)CC1=O
REMARK SMILES IDX 8 1 7 2 6 3 5 4 4 5 2 6 1 7 3 8 10 9 11 10 9 11
REMARK H PARENT
REMARK Flexibility Score: inf
ROOT
ATOM      1  C   UNL     1      18.261  33.238  30.999  1.00  0.00     0.008 C 
ATOM      2  C   UNL     1      18.164  32.762  29.541  1.00  0.00    -0.006 C 
ATOM      3  C   UNL     1      16.732  32.862  28.988  1.00  0.00     0.008 C 
ATOM      4  C   UNL     1      15.754  31.893  29.671  1.00  0.00     0.039 C 
ATOM      5  C   UNL     1      16.281  30.466  29.739  1.00  0.00    -0.006 C 
ATOM      6  C   UNL     1      15.432  29.397  29.726  1.00  0.00    -0.070 C 
ATOM      7  C   UNL     1      13.934  29.587  29.659  1.00  0.00     0.039 C 
ATOM      8  C   UNL     1      15.942  27.974  29.737  1.00  0.00     0.039 C 
ATOM      9  C   UNL     1      17.753  30.314  29.942  1.00  0.00     0.159 C 
ATOM     10  O   UNL     1      18.227  29.348  30.597  1.00  0.00    -0.295 OA
ATOM     11  C   UNL     1      18.700  31.332  29.373  1.00  0.00     0.084 C 
ENDROOT
TORSDOF 0
ENDMDL
MODEL 5
REMARK VINA RESULT:    -4.329      9.139     11.189
REMARK INTER + INTRA:          -4.329
REMARK INTER:                  -4.329
REMARK INTRA:                   0.000
REMARK UNBOUND:                 0.000
REMARK SMILES CC(C)=C1CC[C@@H](C)CC1=O
REMARK SMILES IDX 8 1 7 2 6 3 5 4 4 5 2 6 1 7 3 8 10 9 11 10 9 11
REMARK H PARENT
REMARK Flexibility Score: inf
ROOT
ATOM      1  C   UNL     1      15.900  30.309  29.870  1.00  0.00     0.008 C 
ATOM      2  C   UNL     1      15.573  31.800  30.052  1.00  0.00    -0.006 C 
ATOM      3  C   UNL     1      16.216  32.676  28.963  1.00  0.00     0.008 C 
ATOM      4  C   UNL     1      17.749  32.708  29.043  1.00  0.00     0.039 C 
ATOM      5  C   UNL     1      18.265  33.006  30.445  1.00  0.00    -0.006 C 
ATOM      6  C   UNL     1      19.451  33.652  30.641  1.00  0.00    -0.070 C 
ATOM      7  C   UNL     1      20.309  34.084  29.473  1.00  0.00     0.039 C 
ATOM      8  C   UNL     1      19.949  34.004  32.024  1.00  0.00     0.039 C 
ATOM      9  C   UNL     1      17.465  32.446  31.576  1.00  0.00     0.159 C 
ATOM     10  O   UNL     1      18.016  32.075  32.646  1.00  0.00    -0.295 OA
ATOM     11  C   UNL     1      15.976  32.305  31.446  1.00  0.00     0.084 C 
ENDROOT
TORSDOF 0
ENDMDL
MODEL 6
REMARK VINA RESULT:    -4.229      6.307      7.243
REMARK INTER + INTRA:          -4.229
REMARK INTER:                  -4.229
REMARK INTRA:                   0.000
REMARK UNBOUND:                 0.000
REMARK SMILES CC(C)=C1CC[C@@H](C)CC1=O
REMARK SMILES IDX 8 1 7 2 6 3 5 4 4 5 2 6 1 7 3 8 10 9 11 10 9 11
REMARK H PARENT
REMARK Flexibility Score: inf
ROOT
ATOM      1  C   UNL     1      20.369  24.668  26.626  1.00  0.00     0.008 C 
ATOM      2  C   UNL     1      19.910  24.766  28.089  1.00  0.00    -0.006 C 
ATOM      3  C   UNL     1      18.603  25.565  28.238  1.00  0.00     0.008 C 
ATOM      4  C   UNL     1      18.764  27.053  27.888  1.00  0.00     0.039 C 
ATOM      5  C   UNL     1      19.955  27.701  28.581  1.00  0.00    -0.006 C 
ATOM      6  C   UNL     1      19.948  29.027  28.907  1.00  0.00    -0.070 C 
ATOM      7  C   UNL     1      18.764  29.908  28.578  1.00  0.00     0.039 C 
ATOM      8  C   UNL     1      21.099  29.672  29.644  1.00  0.00     0.039 C 
ATOM      9  C   UNL     1      21.161  26.839  28.767  1.00  0.00     0.159 C 
ATOM     10  O   UNL     1      22.323  27.323  28.731  1.00  0.00    -0.295 OA
ATOM     11  C   UNL     1      21.002  25.363  28.990  1.00  0.00     0.084 C 
ENDROOT
TORSDOF 0
ENDMDL
MODEL 7
REMARK VINA RESULT:    -4.228      6.027      7.646
REMARK INTER + INTRA:          -4.228
REMARK INTER:                  -4.228
REMARK INTRA:                   0.000
REMARK UNBOUND:                 0.000
REMARK SMILES CC(C)=C1CC[C@@H](C)CC1=O
REMARK SMILES IDX 8 1 7 2 6 3 5 4 4 5 2 6 1 7 3 8 10 9 11 10 9 11
REMARK H PARENT
REMARK Flexibility Score: inf
ROOT
ATOM      1  C   UNL     1      17.576  28.116  29.945  1.00  0.00     0.008 C 
ATOM      2  C   UNL     1      18.168  28.489  28.577  1.00  0.00    -0.006 C 
ATOM      3  C   UNL     1      18.000  27.363  27.542  1.00  0.00     0.008 C 
ATOM      4  C   UNL     1      18.823  26.110  27.877  1.00  0.00     0.039 C 
ATOM      5  C   UNL     1      20.277  26.424  28.205  1.00  0.00    -0.006 C 
ATOM      6  C   UNL     1      21.271  25.525  27.943  1.00  0.00    -0.070 C 
ATOM      7  C   UNL     1      20.966  24.175  27.334  1.00  0.00     0.039 C 
ATOM      8  C   UNL     1      22.724  25.844  28.210  1.00  0.00     0.039 C 
ATOM      9  C   UNL     1      20.530  27.704  28.930  1.00  0.00     0.159 C 
ATOM     10  O   UNL     1      21.471  27.812  29.760  1.00  0.00    -0.295 OA
ATOM     11  C   UNL     1      19.646  28.894  28.687  1.00  0.00     0.084 C 
ENDROOT
TORSDOF 0
ENDMDL
MODEL 8
REMARK VINA RESULT:    -4.210      8.906     10.800
REMARK INTER + INTRA:          -4.210
REMARK INTER:                  -4.210
REMARK INTRA:                   0.000
REMARK UNBOUND:                 0.000
REMARK SMILES CC(C)=C1CC[C@@H](C)CC1=O
REMARK SMILES IDX 8 1 7 2 6 3 5 4 4 5 2 6 1 7 3 8 10 9 11 10 9 11
REMARK H PARENT
REMARK Flexibility Score: inf
ROOT
ATOM      1  C   UNL     1      15.325  31.782  31.152  1.00  0.00     0.008 C 
ATOM      2  C   UNL     1      15.795  31.426  29.733  1.00  0.00    -0.006 C 
ATOM      3  C   UNL     1      16.752  30.220  29.720  1.00  0.00     0.008 C 
ATOM      4  C   UNL     1      18.097  30.512  30.403  1.00  0.00     0.039 C 
ATOM      5  C   UNL     1      18.741  31.804  29.919  1.00  0.00    -0.006 C 
ATOM      6  C   UNL     1      20.098  31.955  29.900  1.00  0.00    -0.070 C 
ATOM      7  C   UNL     1      21.015  30.850  30.376  1.00  0.00     0.039 C 
ATOM      8  C   UNL     1      20.754  33.210  29.371  1.00  0.00     0.039 C 
ATOM      9  C   UNL     1      17.810  32.923  29.587  1.00  0.00     0.159 C 
ATOM     10  O   UNL     1      18.137  34.125  29.774  1.00  0.00    -0.295 OA
ATOM     11  C   UNL     1      16.447  32.627  29.030  1.00  0.00     0.084 C 
ENDROOT
TORSDOF 0
ENDMDL
MODEL 9
REMARK VINA RESULT:    -4.112      3.003      4.556
REMARK INTER + INTRA:          -4.112
REMARK INTER:                  -4.112
REMARK INTRA:                   0.000
REMARK UNBOUND:                 0.000
REMARK SMILES CC(C)=C1CC[C@@H](C)CC1=O
REMARK SMILES IDX 8 1 7 2 6 3 5 4 4 5 2 6 1 7 3 8 10 9 11 10 9 11
REMARK H PARENT
REMARK Flexibility Score: inf
ROOT
ATOM      1  C   UNL     1      14.649  22.861  29.280  1.00  0.00     0.008 C 
ATOM      2  C   UNL     1      14.107  23.986  28.385  1.00  0.00    -0.006 C 
ATOM      3  C   UNL     1      15.000  24.237  27.158  1.00  0.00     0.008 C 
ATOM      4  C   UNL     1      16.381  24.803  27.523  1.00  0.00     0.039 C 
ATOM      5  C   UNL     1      16.303  25.992  28.472  1.00  0.00    -0.006 C 
ATOM      6  C   UNL     1      17.250  26.976  28.453  1.00  0.00    -0.070 C 
ATOM      7  C   UNL     1      18.422  26.916  27.500  1.00  0.00     0.039 C 
ATOM      8  C   UNL     1      17.157  28.189  29.350  1.00  0.00     0.039 C 
ATOM      9  C   UNL     1      15.213  25.953  29.493  1.00  0.00     0.159 C 
ATOM     10  O   UNL     1      15.368  26.459  30.636  1.00  0.00    -0.295 OA
ATOM     11  C   UNL     1      13.904  25.291  29.170  1.00  0.00     0.084 C 
ENDROOT
TORSDOF 0
ENDMDL
