MODEL 1
REMARK VINA RESULT:    -3.832      0.000      0.000
REMARK INTER + INTRA:          -4.627
REMARK INTER:                  -4.504
REMARK INTRA:                  -0.122
REMARK UNBOUND:                -0.122
REMARK SMILES O=C([O-])CCC(=O)[O-]
REMARK SMILES IDX 4 1 2 2 1 3 3 4 5 5 6 6 7 7 8 8
REMARK H PARENT
REMARK Flexibility Score: inf
ROOT
ATOM      1  C   UNL     1      -4.785  35.747  21.306  1.00  0.00     0.059 C 
ENDROOT
BRANCH   1   2
ATOM      2  C   UNL     1      -5.001  37.140  20.798  1.00  0.00     0.042 C 
ATOM      3  O   UNL     1      -4.987  37.372  19.562  1.00  0.00    -0.550 OA
ATOM      4  O   UNL     1      -5.259  38.173  21.690  1.00  0.00    -0.550 OA
ENDBRANCH   1   2
BRANCH   1   5
ATOM      5  C   UNL     1      -6.049  35.182  21.963  1.00  0.00     0.059 C 
BRANCH   5   6
ATOM      6  C   UNL     1      -5.845  34.932  23.427  1.00  0.00     0.042 C 
ATOM      7  O   UNL     1      -5.386  35.842  24.167  1.00  0.00    -0.550 OA
ATOM      8  O   UNL     1      -6.125  33.683  23.964  1.00  0.00    -0.550 OA
ENDBRANCH   5   6
ENDBRANCH   1   5
TORSDOF 3
ENDMDL
MODEL 2
REMARK VINA RESULT:    -3.826      0.170      1.625
REMARK INTER + INTRA:          -4.619
REMARK INTER:                  -4.500
REMARK INTRA:                  -0.120
REMARK UNBOUND:                -0.122
REMARK SMILES O=C([O-])CCC(=O)[O-]
REMARK SMILES IDX 4 1 2 2 1 3 3 4 5 5 6 6 7 7 8 8
REMARK H PARENT
REMARK Flexibility Score: inf
ROOT
ATOM      1  C   UNL     1      -4.814  35.771  21.432  1.00  0.00     0.059 C 
ENDROOT
BRANCH   1   2
ATOM      2  C   UNL     1      -4.973  37.179  20.942  1.00  0.00     0.042 C 
ATOM      3  O   UNL     1      -5.051  38.129  21.762  1.00  0.00    -0.550 OA
ATOM      4  O   UNL     1      -4.993  37.441  19.578  1.00  0.00    -0.550 OA
ENDBRANCH   1   2
BRANCH   1   5
ATOM      5  C   UNL     1      -6.090  35.260  22.109  1.00  0.00     0.059 C 
BRANCH   5   6
ATOM      6  C   UNL     1      -5.860  34.952  23.558  1.00  0.00     0.042 C 
ATOM      7  O   UNL     1      -6.125  33.808  24.012  1.00  0.00    -0.550 OA
ATOM      8  O   UNL     1      -5.393  35.941  24.413  1.00  0.00    -0.550 OA
ENDBRANCH   5   6
ENDBRANCH   1   5
TORSDOF 3
ENDMDL
MODEL 3
REMARK VINA RESULT:    -3.812      1.114      1.611
REMARK INTER + INTRA:          -4.603
REMARK INTER:                  -4.574
REMARK INTRA:                  -0.029
REMARK UNBOUND:                -0.122
REMARK SMILES O=C([O-])CCC(=O)[O-]
REMARK SMILES IDX 4 1 2 2 1 3 3 4 5 5 6 6 7 7 8 8
REMARK H PARENT
REMARK Flexibility Score: inf
ROOT
ATOM      1  C   UNL     1      -4.634  35.660  21.479  1.00  0.00     0.059 C 
ENDROOT
BRANCH   1   2
ATOM      2  C   UNL     1      -4.989  35.945  20.050  1.00  0.00     0.042 C 
ATOM      3  O   UNL     1      -4.910  37.117  19.601  1.00  0.00    -0.550 OA
ATOM      4  O   UNL     1      -5.365  34.907  19.207  1.00  0.00    -0.550 OA
ENDBRANCH   1   2
BRANCH   1   5
ATOM      5  C   UNL     1      -5.768  36.053  22.432  1.00  0.00     0.059 C 
BRANCH   5   6
ATOM      6  C   UNL     1      -5.712  35.268  23.708  1.00  0.00     0.042 C 
ATOM      7  O   UNL     1      -5.378  35.832  24.784  1.00  0.00    -0.550 OA
ATOM      8  O   UNL     1      -5.989  33.908  23.700  1.00  0.00    -0.550 OA
ENDBRANCH   5   6
ENDBRANCH   1   5
TORSDOF 3
ENDMDL
MODEL 4
REMARK VINA RESULT:    -3.799      0.146      3.967
REMARK INTER + INTRA:          -4.588
REMARK INTER:                  -4.476
REMARK INTRA:                  -0.112
REMARK UNBOUND:                -0.122
REMARK SMILES O=C([O-])CCC(=O)[O-]
REMARK SMILES IDX 4 1 2 2 1 3 3 4 5 5 6 6 7 7 8 8
REMARK H PARENT
REMARK Flexibility Score: inf
ROOT
ATOM      1  C   UNL     1      -6.125  35.250  22.093  1.00  0.00     0.059 C 
ENDROOT
BRANCH   1   2
ATOM      2  C   UNL     1      -5.893  34.959  23.545  1.00  0.00     0.042 C 
ATOM      3  O   UNL     1      -6.123  33.811  24.005  1.00  0.00    -0.550 OA
ATOM      4  O   UNL     1      -5.384  35.946  24.379  1.00  0.00    -0.550 OA
ENDBRANCH   1   2
BRANCH   1   5
ATOM      5  C   UNL     1      -4.841  35.716  21.398  1.00  0.00     0.059 C 
BRANCH   5   6
ATOM      6  C   UNL     1      -4.998  37.088  20.815  1.00  0.00     0.042 C 
ATOM      7  O   UNL     1      -4.988  37.251  19.566  1.00  0.00    -0.550 OA
ATOM      8  O   UNL     1      -5.114  38.189  21.652  1.00  0.00    -0.550 OA
ENDBRANCH   5   6
ENDBRANCH   1   5
TORSDOF 3
ENDMDL
MODEL 5
REMARK VINA RESULT:    -3.780      0.992      4.253
REMARK INTER + INTRA:          -4.566
REMARK INTER:                  -4.538
REMARK INTRA:                  -0.028
REMARK UNBOUND:                -0.122
REMARK SMILES O=C([O-])CCC(=O)[O-]
REMARK SMILES IDX 4 1 2 2 1 3 3 4 5 5 6 6 7 7 8 8
REMARK H PARENT
REMARK Flexibility Score: inf
ROOT
ATOM      1  C   UNL     1      -6.114  35.272  22.161  1.00  0.00     0.059 C 
ENDROOT
BRANCH   1   2
ATOM      2  C   UNL     1      -5.844  34.877  23.582  1.00  0.00     0.042 C 
ATOM      3  O   UNL     1      -5.399  35.724  24.400  1.00  0.00    -0.550 OA
ATOM      4  O   UNL     1      -6.125  33.586  24.010  1.00  0.00    -0.550 OA
ENDBRANCH   1   2
BRANCH   1   5
ATOM      5  C   UNL     1      -4.829  35.681  21.434  1.00  0.00     0.059 C 
BRANCH   5   6
ATOM      6  C   UNL     1      -5.083  35.968  19.985  1.00  0.00     0.042 C 
ATOM      7  O   UNL     1      -5.337  35.027  19.188  1.00  0.00    -0.550 OA
ATOM      8  O   UNL     1      -4.999  37.269  19.509  1.00  0.00    -0.550 OA
ENDBRANCH   5   6
ENDBRANCH   1   5
TORSDOF 3
ENDMDL
MODEL 6
REMARK VINA RESULT:    -3.713      1.315      2.005
REMARK INTER + INTRA:          -4.487
REMARK INTER:                  -4.401
REMARK INTRA:                  -0.086
REMARK UNBOUND:                -0.122
REMARK SMILES O=C([O-])CCC(=O)[O-]
REMARK SMILES IDX 4 1 2 2 1 3 3 4 5 5 6 6 7 7 8 8
REMARK H PARENT
REMARK Flexibility Score: inf
ROOT
ATOM      1  C   UNL     1      -4.653  35.406  21.454  1.00  0.00     0.059 C 
ENDROOT
BRANCH   1   2
ATOM      2  C   UNL     1      -5.048  35.827  20.071  1.00  0.00     0.042 C 
ATOM      3  O   UNL     1      -5.404  34.966  19.225  1.00  0.00    -0.550 OA
ATOM      4  O   UNL     1      -5.062  37.174  19.731  1.00  0.00    -0.550 OA
ENDBRANCH   1   2
BRANCH   1   5
ATOM      5  C   UNL     1      -5.855  35.388  22.404  1.00  0.00     0.059 C 
BRANCH   5   6
ATOM      6  C   UNL     1      -5.623  36.258  23.602  1.00  0.00     0.042 C 
ATOM      7  O   UNL     1      -5.624  35.758  24.758  1.00  0.00    -0.550 OA
ATOM      8  O   UNL     1      -5.448  37.626  23.444  1.00  0.00    -0.550 OA
ENDBRANCH   5   6
ENDBRANCH   1   5
TORSDOF 3
ENDMDL
MODEL 7
REMARK VINA RESULT:    -3.643      1.467      3.746
REMARK INTER + INTRA:          -4.404
REMARK INTER:                  -4.365
REMARK INTRA:                  -0.039
REMARK UNBOUND:                -0.122
REMARK SMILES O=C([O-])CCC(=O)[O-]
REMARK SMILES IDX 4 1 2 2 1 3 3 4 5 5 6 6 7 7 8 8
REMARK H PARENT
REMARK Flexibility Score: inf
ROOT
ATOM      1  C   UNL     1      -5.514  36.528  22.703  1.00  0.00     0.059 C 
ENDROOT
BRANCH   1   2
ATOM      2  C   UNL     1      -5.648  36.100  24.133  1.00  0.00     0.042 C 
ATOM      3  O   UNL     1      -6.089  34.955  24.412  1.00  0.00    -0.550 OA
ATOM      4  O   UNL     1      -5.246  36.951  25.154  1.00  0.00    -0.550 OA
ENDBRANCH   1   2
BRANCH   1   5
ATOM      5  C   UNL     1      -5.713  35.353  21.740  1.00  0.00     0.059 C 
BRANCH   5   6
ATOM      6  C   UNL     1      -5.511  35.769  20.314  1.00  0.00     0.042 C 
ATOM      7  O   UNL     1      -5.279  36.974  20.032  1.00  0.00    -0.550 OA
ATOM      8  O   UNL     1      -5.618  34.831  19.295  1.00  0.00    -0.550 OA
ENDBRANCH   5   6
ENDBRANCH   1   5
TORSDOF 3
ENDMDL
MODEL 8
REMARK VINA RESULT:    -3.505      2.413      3.637
REMARK INTER + INTRA:          -4.242
REMARK INTER:                  -4.200
REMARK INTRA:                  -0.042
REMARK UNBOUND:                -0.122
REMARK SMILES O=C([O-])CCC(=O)[O-]
REMARK SMILES IDX 4 1 2 2 1 3 3 4 5 5 6 6 7 7 8 8
REMARK H PARENT
REMARK Flexibility Score: inf
ROOT
ATOM      1  C   UNL     1      -5.315  37.432  20.542  1.00  0.00     0.059 C 
ENDROOT
BRANCH   1   2
ATOM      2  C   UNL     1      -5.009  35.966  20.471  1.00  0.00     0.042 C 
ATOM      3  O   UNL     1      -5.484  35.265  19.541  1.00  0.00    -0.550 OA
ATOM      4  O   UNL     1      -4.166  35.385  21.410  1.00  0.00    -0.550 OA
ENDBRANCH   1   2
BRANCH   1   5
ATOM      5  C   UNL     1      -4.390  38.155  21.527  1.00  0.00     0.059 C 
BRANCH   5   6
ATOM      6  C   UNL     1      -5.133  39.180  22.330  1.00  0.00     0.042 C 
ATOM      7  O   UNL     1      -5.819  40.062  21.751  1.00  0.00    -0.550 OA
ATOM      8  O   UNL     1      -5.033  39.184  23.714  1.00  0.00    -0.550 OA
ENDBRANCH   5   6
ENDBRANCH   1   5
TORSDOF 3
ENDMDL
MODEL 9
REMARK VINA RESULT:    -3.498      2.443      3.258
REMARK INTER + INTRA:          -4.234
REMARK INTER:                  -4.191
REMARK INTRA:                  -0.043
REMARK UNBOUND:                -0.122
REMARK SMILES O=C([O-])CCC(=O)[O-]
REMARK SMILES IDX 4 1 2 2 1 3 3 4 5 5 6 6 7 7 8 8
REMARK H PARENT
REMARK Flexibility Score: inf
ROOT
ATOM      1  C   UNL     1      -4.387  38.206  21.475  1.00  0.00     0.059 C 
ENDROOT
BRANCH   1   2
ATOM      2  C   UNL     1      -5.118  39.194  22.333  1.00  0.00     0.042 C 
ATOM      3  O   UNL     1      -5.837  40.081  21.805  1.00  0.00    -0.550 OA
ATOM      4  O   UNL     1      -5.037  39.107  23.717  1.00  0.00    -0.550 OA
ENDBRANCH   1   2
BRANCH   1   5
ATOM      5  C   UNL     1      -5.344  37.439  20.556  1.00  0.00     0.059 C 
BRANCH   5   6
ATOM      6  C   UNL     1      -4.960  35.994  20.445  1.00  0.00     0.042 C 
ATOM      7  O   UNL     1      -5.427  35.284  19.516  1.00  0.00    -0.550 OA
ATOM      8  O   UNL     1      -4.119  35.424  21.391  1.00  0.00    -0.550 OA
ENDBRANCH   5   6
ENDBRANCH   1   5
TORSDOF 3
ENDMDL
