MODEL 1
REMARK VINA RESULT:    -2.136      0.000      0.000
REMARK INTER + INTRA:          -2.136
REMARK INTER:                  -2.136
REMARK INTRA:                   0.000
REMARK UNBOUND:                 0.000
REMARK SMILES CC(=O)[O-]
REMARK SMILES IDX 1 1 2 2 3 3 4 4
REMARK H PARENT
REMARK Flexibility Score: inf
ROOT
ATOM      1  C   UNL     1      59.003  36.027  79.285  1.00  0.00     0.063 C 
ATOM      2  C   UNL     1      58.668  36.193  80.728  1.00  0.00     0.038 C 
ATOM      3  O   UNL     1      59.111  35.375  81.577  1.00  0.00    -0.550 OA
ATOM      4  O   UNL     1      57.913  37.280  81.147  1.00  0.00    -0.550 OA
ENDROOT
TORSDOF 0
ENDMDL
MODEL 2
REMARK VINA RESULT:    -2.129      1.611      2.033
REMARK INTER + INTRA:          -2.129
REMARK INTER:                  -2.129
REMARK INTRA:                   0.000
REMARK UNBOUND:                 0.000
REMARK SMILES CC(=O)[O-]
REMARK SMILES IDX 1 1 2 2 3 3 4 4
REMARK H PARENT
REMARK Flexibility Score: inf
ROOT
ATOM      1  C   UNL     1      59.042  33.868  79.638  1.00  0.00     0.063 C 
ATOM      2  C   UNL     1      58.527  35.075  80.346  1.00  0.00     0.038 C 
ATOM      3  O   UNL     1      57.570  35.732  79.858  1.00  0.00    -0.550 OA
ATOM      4  O   UNL     1      59.064  35.445  81.572  1.00  0.00    -0.550 OA
ENDROOT
TORSDOF 0
ENDMDL
MODEL 3
REMARK VINA RESULT:    -2.121      1.788      1.895
REMARK INTER + INTRA:          -2.121
REMARK INTER:                  -2.121
REMARK INTRA:                   0.000
REMARK UNBOUND:                 0.000
REMARK SMILES CC(=O)[O-]
REMARK SMILES IDX 1 1 2 2 3 3 4 4
REMARK H PARENT
REMARK Flexibility Score: inf
ROOT
ATOM      1  C   UNL     1      58.090  33.805  80.156  1.00  0.00     0.063 C 
ATOM      2  C   UNL     1      58.782  35.095  80.434  1.00  0.00     0.038 C 
ATOM      3  O   UNL     1      59.066  35.418  81.618  1.00  0.00    -0.550 OA
ATOM      4  O   UNL     1      59.165  35.921  79.384  1.00  0.00    -0.550 OA
ENDROOT
TORSDOF 0
ENDMDL
MODEL 4
REMARK VINA RESULT:    -2.064      1.389      1.943
REMARK INTER + INTRA:          -2.064
REMARK INTER:                  -2.064
REMARK INTRA:                   0.000
REMARK UNBOUND:                 0.000
REMARK SMILES CC(=O)[O-]
REMARK SMILES IDX 1 1 2 2 3 3 4 4
REMARK H PARENT
REMARK Flexibility Score: inf
ROOT
ATOM      1  C   UNL     1      59.107  35.025  81.185  1.00  0.00     0.063 C 
ATOM      2  C   UNL     1      58.741  36.303  80.509  1.00  0.00     0.038 C 
ATOM      3  O   UNL     1      58.019  37.147  81.103  1.00  0.00    -0.550 OA
ATOM      4  O   UNL     1      59.240  36.590  79.245  1.00  0.00    -0.550 OA
ENDROOT
TORSDOF 0
ENDMDL
MODEL 5
REMARK VINA RESULT:    -1.971      3.126      3.583
REMARK INTER + INTRA:          -1.971
REMARK INTER:                  -1.971
REMARK INTRA:                   0.000
REMARK UNBOUND:                 0.000
REMARK SMILES CC(=O)[O-]
REMARK SMILES IDX 1 1 2 2 3 3 4 4
REMARK H PARENT
REMARK Flexibility Score: inf
ROOT
ATOM      1  C   UNL     1      58.779  34.182  80.318  1.00  0.00     0.063 C 
ATOM      2  C   UNL     1      57.935  34.046  79.096  1.00  0.00     0.038 C 
ATOM      3  O   UNL     1      57.471  35.072  78.532  1.00  0.00    -0.550 OA
ATOM      4  O   UNL     1      57.704  32.792  78.545  1.00  0.00    -0.550 OA
ENDROOT
TORSDOF 0
ENDMDL
MODEL 6
REMARK VINA RESULT:    -1.965      1.845      2.128
REMARK INTER + INTRA:          -1.965
REMARK INTER:                  -1.965
REMARK INTRA:                   0.000
REMARK UNBOUND:                 0.000
REMARK SMILES CC(=O)[O-]
REMARK SMILES IDX 1 1 2 2 3 3 4 4
REMARK H PARENT
REMARK Flexibility Score: inf
ROOT
ATOM      1  C   UNL     1      56.865  37.286  79.110  1.00  0.00     0.063 C 
ATOM      2  C   UNL     1      58.102  37.092  79.920  1.00  0.00     0.038 C 
ATOM      3  O   UNL     1      58.055  37.179  81.175  1.00  0.00    -0.550 OA
ATOM      4  O   UNL     1      59.298  36.761  79.296  1.00  0.00    -0.550 OA
ENDROOT
TORSDOF 0
ENDMDL
MODEL 7
REMARK VINA RESULT:    -1.951      1.590      2.211
REMARK INTER + INTRA:          -1.951
REMARK INTER:                  -1.951
REMARK INTRA:                   0.000
REMARK UNBOUND:                 0.000
REMARK SMILES CC(=O)[O-]
REMARK SMILES IDX 1 1 2 2 3 3 4 4
REMARK H PARENT
REMARK Flexibility Score: inf
ROOT
ATOM      1  C   UNL     1      58.007  37.124  80.812  1.00  0.00     0.063 C 
ATOM      2  C   UNL     1      58.809  36.066  80.135  1.00  0.00     0.038 C 
ATOM      3  O   UNL     1      59.425  36.325  79.067  1.00  0.00    -0.550 OA
ATOM      4  O   UNL     1      58.925  34.806  80.708  1.00  0.00    -0.550 OA
ENDROOT
TORSDOF 0
ENDMDL
MODEL 8
REMARK VINA RESULT:    -1.946      1.673      2.419
REMARK INTER + INTRA:          -1.946
REMARK INTER:                  -1.946
REMARK INTRA:                   0.000
REMARK UNBOUND:                 0.000
REMARK SMILES CC(=O)[O-]
REMARK SMILES IDX 1 1 2 2 3 3 4 4
REMARK H PARENT
REMARK Flexibility Score: inf
ROOT
ATOM      1  C   UNL     1      57.580  35.758  79.134  1.00  0.00     0.063 C 
ATOM      2  C   UNL     1      57.191  36.969  79.913  1.00  0.00     0.038 C 
ATOM      3  O   UNL     1      56.225  37.681  79.532  1.00  0.00    -0.550 OA
ATOM      4  O   UNL     1      57.858  37.284  81.090  1.00  0.00    -0.550 OA
ENDROOT
TORSDOF 0
ENDMDL
MODEL 9
REMARK VINA RESULT:    -1.911      8.681      9.068
REMARK INTER + INTRA:          -1.911
REMARK INTER:                  -1.911
REMARK INTRA:                   0.000
REMARK UNBOUND:                 0.000
REMARK SMILES CC(=O)[O-]
REMARK SMILES IDX 1 1 2 2 3 3 4 4
REMARK H PARENT
REMARK Flexibility Score: inf
ROOT
ATOM      1  C   UNL     1      57.410  28.765  75.507  1.00  0.00     0.063 C 
ATOM      2  C   UNL     1      56.610  29.859  74.886  1.00  0.00     0.038 C 
ATOM      3  O   UNL     1      57.086  31.022  74.808  1.00  0.00    -0.550 OA
ATOM      4  O   UNL     1      55.361  29.587  74.343  1.00  0.00    -0.550 OA
ENDROOT
TORSDOF 0
ENDMDL
