MODEL 1
REMARK VINA RESULT:    -5.753      0.000      0.000
REMARK INTER + INTRA:          -6.184
REMARK INTER:                  -6.089
REMARK INTRA:                  -0.095
REMARK UNBOUND:                -0.095
REMARK SMILES C=C(C)[C@@H]1CC=C(C)C(=O)C1
REMARK SMILES IDX 8 1 7 2 6 3 5 4 4 5 11 6 9 7 10 8 2 9 1 10 3 11
REMARK H PARENT
REMARK Flexibility Score: inf
ROOT
ATOM      1  C   UNL     1     120.433 179.383 122.152  1.00  0.00     0.048 C 
ATOM      2  C   UNL     1     120.821 179.152 123.587  1.00  0.00    -0.012 C 
ATOM      3  C   UNL     1     120.269 179.900 124.558  1.00  0.00    -0.019 C 
ATOM      4  C   UNL     1     120.608 179.699 126.011  1.00  0.00     0.036 C 
ATOM      5  C   UNL     1     122.067 179.236 126.181  1.00  0.00     0.025 C 
ATOM      6  C   UNL     1     122.328 177.972 125.340  1.00  0.00     0.089 C 
ATOM      7  C   UNL     1     121.900 178.187 123.915  1.00  0.00     0.158 C 
ATOM      8  O   UNL     1     122.445 177.510 123.001  1.00  0.00    -0.295 OA
ENDROOT
BRANCH   5   9
ATOM      9  C   UNL     1     122.421 179.019 127.647  1.00  0.00    -0.077 C 
ATOM     10  C   UNL     1     121.479 178.711 128.556  1.00  0.00     0.008 C 
ATOM     11  C   UNL     1     123.850 179.147 128.106  1.00  0.00     0.039 C 
ENDBRANCH   5   9
TORSDOF 1
ENDMDL
MODEL 2
REMARK VINA RESULT:    -5.602      1.720      2.494
REMARK INTER + INTRA:          -6.024
REMARK INTER:                  -5.927
REMARK INTRA:                  -0.097
REMARK UNBOUND:                -0.095
REMARK SMILES C=C(C)[C@@H]1CC=C(C)C(=O)C1
REMARK SMILES IDX 8 1 7 2 6 3 5 4 4 5 11 6 9 7 10 8 2 9 1 10 3 11
REMARK H PARENT
REMARK Flexibility Score: inf
ROOT
ATOM      1  C   UNL     1     117.645 180.108 125.312  1.00  0.00     0.048 C 
ATOM      2  C   UNL     1     119.020 179.622 125.679  1.00  0.00    -0.012 C 
ATOM      3  C   UNL     1     119.436 179.691 126.956  1.00  0.00    -0.019 C 
ATOM      4  C   UNL     1     120.795 179.202 127.381  1.00  0.00     0.036 C 
ATOM      5  C   UNL     1     121.832 179.404 126.259  1.00  0.00     0.025 C 
ATOM      6  C   UNL     1     121.350 178.733 124.960  1.00  0.00     0.089 C 
ATOM      7  C   UNL     1     119.958 179.185 124.615  1.00  0.00     0.158 C 
ATOM      8  O   UNL     1     119.582 179.154 123.412  1.00  0.00    -0.295 OA
ENDROOT
BRANCH   5   9
ATOM      9  C   UNL     1     123.211 178.905 126.672  1.00  0.00    -0.077 C 
ATOM     10  C   UNL     1     123.978 178.191 125.829  1.00  0.00     0.008 C 
ATOM     11  C   UNL     1     123.743 179.207 128.049  1.00  0.00     0.039 C 
ENDBRANCH   5   9
TORSDOF 1
ENDMDL
MODEL 3
REMARK VINA RESULT:    -5.447      1.502      4.442
REMARK INTER + INTRA:          -5.860
REMARK INTER:                  -5.765
REMARK INTRA:                  -0.095
REMARK UNBOUND:                -0.095
REMARK SMILES C=C(C)[C@@H]1CC=C(C)C(=O)C1
REMARK SMILES IDX 8 1 7 2 6 3 5 4 4 5 11 6 9 7 10 8 2 9 1 10 3 11
REMARK H PARENT
REMARK Flexibility Score: inf
ROOT
ATOM      1  C   UNL     1     121.576 178.835 128.622  1.00  0.00     0.048 C 
ATOM      2  C   UNL     1     121.268 179.056 127.166  1.00  0.00    -0.012 C 
ATOM      3  C   UNL     1     120.196 179.786 126.812  1.00  0.00    -0.019 C 
ATOM      4  C   UNL     1     119.853 180.054 125.371  1.00  0.00     0.036 C 
ATOM      5  C   UNL     1     120.265 178.871 124.474  1.00  0.00     0.025 C 
ATOM      6  C   UNL     1     121.758 178.547 124.668  1.00  0.00     0.089 C 
ATOM      7  C   UNL     1     122.075 178.368 126.127  1.00  0.00     0.158 C 
ATOM      8  O   UNL     1     123.059 177.654 126.459  1.00  0.00    -0.295 OA
ENDROOT
BRANCH   5   9
ATOM      9  C   UNL     1     119.932 179.132 123.011  1.00  0.00    -0.077 C 
ATOM     10  C   UNL     1     120.855 179.612 122.158  1.00  0.00     0.008 C 
ATOM     11  C   UNL     1     118.546 178.854 122.489  1.00  0.00     0.039 C 
ENDBRANCH   5   9
TORSDOF 1
ENDMDL
MODEL 4
REMARK VINA RESULT:    -5.409      4.104      5.632
REMARK INTER + INTRA:          -5.820
REMARK INTER:                  -5.725
REMARK INTRA:                  -0.095
REMARK UNBOUND:                -0.095
REMARK SMILES C=C(C)[C@@H]1CC=C(C)C(=O)C1
REMARK SMILES IDX 8 1 7 2 6 3 5 4 4 5 11 6 9 7 10 8 2 9 1 10 3 11
REMARK H PARENT
REMARK Flexibility Score: inf
ROOT
ATOM      1  C   UNL     1     123.874 179.366 128.548  1.00  0.00     0.048 C 
ATOM      2  C   UNL     1     122.806 178.357 128.871  1.00  0.00    -0.012 C 
ATOM      3  C   UNL     1     121.569 178.508 128.367  1.00  0.00    -0.019 C 
ATOM      4  C   UNL     1     120.468 177.519 128.644  1.00  0.00     0.036 C 
ATOM      5  C   UNL     1     120.619 176.899 130.046  1.00  0.00     0.025 C 
ATOM      6  C   UNL     1     122.018 176.275 130.207  1.00  0.00     0.089 C 
ATOM      7  C   UNL     1     123.086 177.270 129.842  1.00  0.00     0.158 C 
ATOM      8  O   UNL     1     124.236 177.148 130.344  1.00  0.00    -0.295 OA
ENDROOT
BRANCH   5   9
ATOM      9  C   UNL     1     119.517 175.889 130.336  1.00  0.00    -0.077 C 
ATOM     10  C   UNL     1     118.235 176.139 130.012  1.00  0.00     0.008 C 
ATOM     11  C   UNL     1     119.848 174.576 130.997  1.00  0.00     0.039 C 
ENDBRANCH   5   9
TORSDOF 1
ENDMDL
MODEL 5
REMARK VINA RESULT:    -5.377      1.894      2.380
REMARK INTER + INTRA:          -5.787
REMARK INTER:                  -5.689
REMARK INTRA:                  -0.098
REMARK UNBOUND:                -0.095
REMARK SMILES C=C(C)[C@@H]1CC=C(C)C(=O)C1
REMARK SMILES IDX 8 1 7 2 6 3 5 4 4 5 11 6 9 7 10 8 2 9 1 10 3 11
REMARK H PARENT
REMARK Flexibility Score: inf
ROOT
ATOM      1  C   UNL     1     117.154 179.142 123.419  1.00  0.00     0.048 C 
ATOM      2  C   UNL     1     118.348 178.990 124.321  1.00  0.00    -0.012 C 
ATOM      3  C   UNL     1     118.176 178.924 125.652  1.00  0.00    -0.019 C 
ATOM      4  C   UNL     1     119.334 178.753 126.599  1.00  0.00     0.036 C 
ATOM      5  C   UNL     1     120.601 179.440 126.055  1.00  0.00     0.025 C 
ATOM      6  C   UNL     1     120.923 178.924 124.640  1.00  0.00     0.089 C 
ATOM      7  C   UNL     1     119.717 179.036 123.749  1.00  0.00     0.158 C 
ATOM      8  O   UNL     1     119.881 179.134 122.503  1.00  0.00    -0.295 OA
ENDROOT
BRANCH   5   9
ATOM      9  C   UNL     1     121.784 179.267 126.999  1.00  0.00    -0.077 C 
ATOM     10  C   UNL     1     123.050 179.422 126.571  1.00  0.00     0.008 C 
ATOM     11  C   UNL     1     121.551 178.916 128.446  1.00  0.00     0.039 C 
ENDBRANCH   5   9
TORSDOF 1
ENDMDL
MODEL 6
REMARK VINA RESULT:    -5.312      2.441      3.276
REMARK INTER + INTRA:          -5.718
REMARK INTER:                  -5.622
REMARK INTRA:                  -0.096
REMARK UNBOUND:                -0.095
REMARK SMILES C=C(C)[C@@H]1CC=C(C)C(=O)C1
REMARK SMILES IDX 8 1 7 2 6 3 5 4 4 5 11 6 9 7 10 8 2 9 1 10 3 11
REMARK H PARENT
REMARK Flexibility Score: inf
ROOT
ATOM      1  C   UNL     1     117.026 178.849 122.274  1.00  0.00     0.048 C 
ATOM      2  C   UNL     1     118.270 178.996 123.108  1.00  0.00    -0.012 C 
ATOM      3  C   UNL     1     119.476 179.006 122.514  1.00  0.00    -0.019 C 
ATOM      4  C   UNL     1     120.751 179.170 123.299  1.00  0.00     0.036 C 
ATOM      5  C   UNL     1     120.625 178.536 124.698  1.00  0.00     0.025 C 
ATOM      6  C   UNL     1     119.406 179.115 125.439  1.00  0.00     0.089 C 
ATOM      7  C   UNL     1     118.170 179.007 124.589  1.00  0.00     0.158 C 
ATOM      8  O   UNL     1     117.041 178.961 125.149  1.00  0.00    -0.295 OA
ENDROOT
BRANCH   5   9
ATOM      9  C   UNL     1     121.906 178.703 125.506  1.00  0.00    -0.077 C 
ATOM     10  C   UNL     1     121.948 179.491 126.595  1.00  0.00     0.008 C 
ATOM     11  C   UNL     1     123.160 177.977 125.094  1.00  0.00     0.039 C 
ENDBRANCH   5   9
TORSDOF 1
ENDMDL
MODEL 7
REMARK VINA RESULT:    -5.286      1.978      4.593
REMARK INTER + INTRA:          -5.690
REMARK INTER:                  -5.594
REMARK INTRA:                  -0.095
REMARK UNBOUND:                -0.095
REMARK SMILES C=C(C)[C@@H]1CC=C(C)C(=O)C1
REMARK SMILES IDX 8 1 7 2 6 3 5 4 4 5 11 6 9 7 10 8 2 9 1 10 3 11
REMARK H PARENT
REMARK Flexibility Score: inf
ROOT
ATOM      1  C   UNL     1     122.240 178.899 130.097  1.00  0.00     0.048 C 
ATOM      2  C   UNL     1     122.163 178.917 128.595  1.00  0.00    -0.012 C 
ATOM      3  C   UNL     1     120.969 179.028 127.988  1.00  0.00    -0.019 C 
ATOM      4  C   UNL     1     120.836 179.069 126.489  1.00  0.00     0.036 C 
ATOM      5  C   UNL     1     121.927 178.218 125.812  1.00  0.00     0.025 C 
ATOM      6  C   UNL     1     123.323 178.663 126.287  1.00  0.00     0.089 C 
ATOM      7  C   UNL     1     123.388 178.688 127.789  1.00  0.00     0.158 C 
ATOM      8  O   UNL     1     124.504 178.547 128.358  1.00  0.00    -0.295 OA
ENDROOT
BRANCH   5   9
ATOM      9  C   UNL     1     121.810 178.258 124.294  1.00  0.00    -0.077 C 
ATOM     10  C   UNL     1     122.616 177.519 123.510  1.00  0.00     0.008 C 
ATOM     11  C   UNL     1     120.777 179.138 123.638  1.00  0.00     0.039 C 
ENDBRANCH   5   9
TORSDOF 1
ENDMDL
MODEL 8
REMARK VINA RESULT:    -5.266      2.056      4.610
REMARK INTER + INTRA:          -5.668
REMARK INTER:                  -5.572
REMARK INTRA:                  -0.097
REMARK UNBOUND:                -0.095
REMARK SMILES C=C(C)[C@@H]1CC=C(C)C(=O)C1
REMARK SMILES IDX 8 1 7 2 6 3 5 4 4 5 11 6 9 7 10 8 2 9 1 10 3 11
REMARK H PARENT
REMARK Flexibility Score: inf
ROOT
ATOM      1  C   UNL     1     124.116 178.622 128.244  1.00  0.00     0.048 C 
ATOM      2  C   UNL     1     123.046 178.601 127.187  1.00  0.00    -0.012 C 
ATOM      3  C   UNL     1     123.375 178.349 125.908  1.00  0.00    -0.019 C 
ATOM      4  C   UNL     1     122.342 178.298 124.813  1.00  0.00     0.036 C 
ATOM      5  C   UNL     1     121.187 179.277 125.095  1.00  0.00     0.025 C 
ATOM      6  C   UNL     1     120.580 179.002 126.483  1.00  0.00     0.089 C 
ATOM      7  C   UNL     1     121.654 178.979 127.536  1.00  0.00     0.158 C 
ATOM      8  O   UNL     1     121.351 179.252 128.729  1.00  0.00    -0.295 OA
ENDROOT
BRANCH   5   9
ATOM      9  C   UNL     1     120.129 179.229 124.000  1.00  0.00    -0.077 C 
ATOM     10  C   UNL     1     118.830 179.035 124.289  1.00  0.00     0.008 C 
ATOM     11  C   UNL     1     120.527 179.401 122.557  1.00  0.00     0.039 C 
ENDBRANCH   5   9
TORSDOF 1
ENDMDL
MODEL 9
REMARK VINA RESULT:    -5.225      3.700      5.593
REMARK INTER + INTRA:          -5.625
REMARK INTER:                  -5.530
REMARK INTRA:                  -0.095
REMARK UNBOUND:                -0.095
REMARK SMILES C=C(C)[C@@H]1CC=C(C)C(=O)C1
REMARK SMILES IDX 8 1 7 2 6 3 5 4 4 5 11 6 9 7 10 8 2 9 1 10 3 11
REMARK H PARENT
REMARK Flexibility Score: inf
ROOT
ATOM      1  C   UNL     1     123.783 179.365 128.812  1.00  0.00     0.048 C 
ATOM      2  C   UNL     1     122.607 178.552 129.279  1.00  0.00    -0.012 C 
ATOM      3  C   UNL     1     122.644 177.953 130.482  1.00  0.00    -0.019 C 
ATOM      4  C   UNL     1     121.489 177.142 131.007  1.00  0.00     0.036 C 
ATOM      5  C   UNL     1     120.738 176.440 129.859  1.00  0.00     0.025 C 
ATOM      6  C   UNL     1     120.298 177.468 128.800  1.00  0.00     0.089 C 
ATOM      7  C   UNL     1     121.464 178.311 128.363  1.00  0.00     0.158 C 
ATOM      8  O   UNL     1     121.444 178.843 127.220  1.00  0.00    -0.295 OA
ENDROOT
BRANCH   5   9
ATOM      9  C   UNL     1     119.560 175.624 130.374  1.00  0.00    -0.077 C 
ATOM     10  C   UNL     1     118.298 176.079 130.278  1.00  0.00     0.008 C 
ATOM     11  C   UNL     1     119.793 174.277 131.008  1.00  0.00     0.039 C 
ENDBRANCH   5   9
TORSDOF 1
ENDMDL
