MODEL 1
REMARK VINA RESULT:    -4.035      0.000      0.000
REMARK INTER + INTRA:          -4.515
REMARK INTER:                  -4.507
REMARK INTRA:                  -0.008
REMARK UNBOUND:                -0.008
REMARK SMILES COc1cc2ccc(=O)oc2cc1OC
REMARK SMILES IDX 3 1 13 2 12 3 11 4 5 5 4 6 6 7 7 8 8 9 9 10 10 11 2 12 1 13
REMARK SMILES IDX 14 14 15 15
REMARK H PARENT
REMARK Flexibility Score: inf
ROOT
ATOM      1  C   UNL     1      12.179  20.293  -2.408  1.00  0.00     0.161 A 
ATOM      2  C   UNL     1      13.417  20.389  -3.066  1.00  0.00     0.164 A 
ATOM      3  C   UNL     1      14.254  21.496  -2.826  1.00  0.00     0.098 A 
ATOM      4  C   UNL     1      13.861  22.500  -1.938  1.00  0.00     0.142 A 
ATOM      5  C   UNL     1      12.619  22.406  -1.278  1.00  0.00     0.022 A 
ATOM      6  C   UNL     1      11.783  21.308  -1.513  1.00  0.00     0.062 A 
ATOM      7  C   UNL     1      12.255  23.428  -0.395  1.00  0.00     0.019 A 
ATOM      8  C   UNL     1      13.121  24.502  -0.194  1.00  0.00     0.094 A 
ATOM      9  C   UNL     1      14.337  24.527  -0.884  1.00  0.00     0.336 A 
ATOM     10  O   UNL     1      15.134  25.487  -0.717  1.00  0.00    -0.246 OA
ATOM     11  O   UNL     1      14.659  23.542  -1.718  1.00  0.00    -0.423 OA
ENDROOT
BRANCH   1  12
ATOM     12  O   UNL     1      11.370  19.176  -2.671  1.00  0.00    -0.493 OA
ATOM     13  C   UNL     1      10.549  19.027  -3.826  1.00  0.00     0.278 C 
ENDBRANCH   1  12
BRANCH   2  14
ATOM     14  O   UNL     1      13.779  19.361  -3.952  1.00  0.00    -0.493 OA
ATOM     15  C   UNL     1      15.106  18.875  -4.124  1.00  0.00     0.278 C 
ENDBRANCH   2  14
TORSDOF 2
ENDMDL
MODEL 2
REMARK VINA RESULT:    -2.526     14.973     17.154
REMARK INTER + INTRA:          -2.829
REMARK INTER:                  -2.714
REMARK INTRA:                  -0.115
REMARK UNBOUND:                -0.008
REMARK SMILES COc1cc2ccc(=O)oc2cc1OC
REMARK SMILES IDX 3 1 13 2 12 3 11 4 5 5 4 6 6 7 7 8 8 9 9 10 10 11 2 12 1 13
REMARK SMILES IDX 14 14 15 15
REMARK H PARENT
REMARK Flexibility Score: inf
ROOT
ATOM      1  C   UNL     1      21.084  22.918  13.871  1.00  0.00     0.161 A 
ATOM      2  C   UNL     1      21.111  24.306  14.089  1.00  0.00     0.164 A 
ATOM      3  C   UNL     1      21.124  25.187  12.990  1.00  0.00     0.098 A 
ATOM      4  C   UNL     1      21.110  24.690  11.685  1.00  0.00     0.142 A 
ATOM      5  C   UNL     1      21.084  23.298  11.465  1.00  0.00     0.022 A 
ATOM      6  C   UNL     1      21.071  22.417  12.553  1.00  0.00     0.062 A 
ATOM      7  C   UNL     1      21.071  22.832  10.146  1.00  0.00     0.019 A 
ATOM      8  C   UNL     1      21.085  23.748   9.095  1.00  0.00     0.094 A 
ATOM      9  C   UNL     1      21.111  25.115   9.390  1.00  0.00     0.336 A 
ATOM     10  O   UNL     1      21.125  25.958   8.456  1.00  0.00    -0.246 OA
ATOM     11  O   UNL     1      21.123  25.531  10.654  1.00  0.00    -0.423 OA
ENDROOT
BRANCH   1  12
ATOM     12  O   UNL     1      21.071  22.069  14.990  1.00  0.00    -0.493 OA
ATOM     13  C   UNL     1      20.928  20.654  14.928  1.00  0.00     0.278 C 
ENDBRANCH   1  12
BRANCH   2  14
ATOM     14  O   UNL     1      21.123  24.770  15.415  1.00  0.00    -0.493 OA
ATOM     15  C   UNL     1      20.111  25.588  15.992  1.00  0.00     0.278 C 
ENDBRANCH   2  14
TORSDOF 2
ENDMDL
MODEL 3
REMARK VINA RESULT:    -2.413     15.550     17.372
REMARK INTER + INTRA:          -2.702
REMARK INTER:                  -2.601
REMARK INTRA:                  -0.101
REMARK UNBOUND:                -0.008
REMARK SMILES COc1cc2ccc(=O)oc2cc1OC
REMARK SMILES IDX 3 1 13 2 12 3 11 4 5 5 4 6 6 7 7 8 8 9 9 10 10 11 2 12 1 13
REMARK SMILES IDX 14 14 15 15
REMARK H PARENT
REMARK Flexibility Score: inf
ROOT
ATOM      1  C   UNL     1      21.123  22.775  12.009  1.00  0.00     0.161 A 
ATOM      2  C   UNL     1      21.120  23.980  11.286  1.00  0.00     0.164 A 
ATOM      3  C   UNL     1      21.118  25.209  11.974  1.00  0.00     0.098 A 
ATOM      4  C   UNL     1      21.119  25.238  13.370  1.00  0.00     0.142 A 
ATOM      5  C   UNL     1      21.122  24.030  14.097  1.00  0.00     0.022 A 
ATOM      6  C   UNL     1      21.124  22.805  13.418  1.00  0.00     0.062 A 
ATOM      7  C   UNL     1      21.124  24.093  15.494  1.00  0.00     0.019 A 
ATOM      8  C   UNL     1      21.121  25.336  16.125  1.00  0.00     0.094 A 
ATOM      9  C   UNL     1      21.118  26.493  15.338  1.00  0.00     0.336 A 
ATOM     10  O   UNL     1      21.116  27.625  15.887  1.00  0.00    -0.246 OA
ATOM     11  O   UNL     1      21.117  26.405  14.010  1.00  0.00    -0.423 OA
ENDROOT
BRANCH   1  12
ATOM     12  O   UNL     1      21.125  21.568  11.291  1.00  0.00    -0.493 OA
ATOM     13  C   UNL     1      21.125  20.274  11.886  1.00  0.00     0.278 C 
ENDBRANCH   1  12
BRANCH   2  14
ATOM     14  O   UNL     1      21.119  23.912   9.883  1.00  0.00    -0.493 OA
ATOM     15  C   UNL     1      21.004  25.040   9.022  1.00  0.00     0.278 C 
ENDBRANCH   2  14
TORSDOF 2
ENDMDL
MODEL 4
REMARK VINA RESULT:    -2.023      1.015      2.627
REMARK INTER + INTRA:          -2.267
REMARK INTER:                  -2.453
REMARK INTRA:                   0.186
REMARK UNBOUND:                -0.008
REMARK SMILES COc1cc2ccc(=O)oc2cc1OC
REMARK SMILES IDX 3 1 13 2 12 3 11 4 5 5 4 6 6 7 7 8 8 9 9 10 10 11 2 12 1 13
REMARK SMILES IDX 14 14 15 15
REMARK H PARENT
REMARK Flexibility Score: inf
ROOT
ATOM      1  C   UNL     1      13.350  20.448  -2.687  1.00  0.00     0.161 A 
ATOM      2  C   UNL     1      12.127  20.691  -2.041  1.00  0.00     0.164 A 
ATOM      3  C   UNL     1      11.928  21.903  -1.350  1.00  0.00     0.098 A 
ATOM      4  C   UNL     1      12.940  22.864  -1.304  1.00  0.00     0.142 A 
ATOM      5  C   UNL     1      14.169  22.621  -1.952  1.00  0.00     0.022 A 
ATOM      6  C   UNL     1      14.371  21.418  -2.639  1.00  0.00     0.062 A 
ATOM      7  C   UNL     1      15.162  23.604  -1.887  1.00  0.00     0.019 A 
ATOM      8  C   UNL     1      14.913  24.785  -1.190  1.00  0.00     0.094 A 
ATOM      9  C   UNL     1      13.670  24.957  -0.572  1.00  0.00     0.336 A 
ATOM     10  O   UNL     1      13.425  26.016   0.063  1.00  0.00    -0.246 OA
ATOM     11  O   UNL     1      12.743  24.005  -0.649  1.00  0.00    -0.423 OA
ENDROOT
BRANCH   1  12
ATOM     12  O   UNL     1      13.514  19.229  -3.365  1.00  0.00    -0.493 OA
ATOM     13  C   UNL     1      14.665  18.875  -4.125  1.00  0.00     0.278 C 
ENDBRANCH   1  12
BRANCH   2  14
ATOM     14  O   UNL     1      11.132  19.702  -2.108  1.00  0.00    -0.493 OA
ATOM     15  C   UNL     1      10.503  19.271  -3.311  1.00  0.00     0.278 C 
ENDBRANCH   2  14
TORSDOF 2
ENDMDL
MODEL 5
REMARK VINA RESULT:    -1.161      1.855      1.871
REMARK INTER + INTRA:          -1.305
REMARK INTER:                  -1.252
REMARK INTRA:                  -0.053
REMARK UNBOUND:                -0.008
REMARK SMILES COc1cc2ccc(=O)oc2cc1OC
REMARK SMILES IDX 3 1 13 2 12 3 11 4 5 5 4 6 6 7 7 8 8 9 9 10 10 11 2 12 1 13
REMARK SMILES IDX 14 14 15 15
REMARK H PARENT
REMARK Flexibility Score: inf
ROOT
ATOM      1  C   UNL     1      12.406  21.060  -1.912  1.00  0.00     0.161 A 
ATOM      2  C   UNL     1      13.585  20.883  -2.655  1.00  0.00     0.164 A 
ATOM      3  C   UNL     1      14.811  21.355  -2.145  1.00  0.00     0.098 A 
ATOM      4  C   UNL     1      14.861  21.998  -0.906  1.00  0.00     0.142 A 
ATOM      5  C   UNL     1      13.678  22.176  -0.160  1.00  0.00     0.022 A 
ATOM      6  C   UNL     1      12.457  21.709  -0.662  1.00  0.00     0.062 A 
ATOM      7  C   UNL     1      13.762  22.823   1.077  1.00  0.00     0.019 A 
ATOM      8  C   UNL     1      15.001  23.271   1.534  1.00  0.00     0.094 A 
ATOM      9  C   UNL     1      16.132  23.059   0.739  1.00  0.00     0.336 A 
ATOM     10  O   UNL     1      17.259  23.455   1.133  1.00  0.00    -0.246 OA
ATOM     11  O   UNL     1      16.024  22.440  -0.434  1.00  0.00    -0.423 OA
ENDROOT
BRANCH   1  12
ATOM     12  O   UNL     1      11.202  20.577  -2.450  1.00  0.00    -0.493 OA
ATOM     13  C   UNL     1      10.751  19.231  -2.343  1.00  0.00     0.278 C 
ENDBRANCH   1  12
BRANCH   2  14
ATOM     14  O   UNL     1      13.497  20.233  -3.896  1.00  0.00    -0.493 OA
ATOM     15  C   UNL     1      13.870  18.877  -4.125  1.00  0.00     0.278 C 
ENDBRANCH   2  14
TORSDOF 2
ENDMDL
MODEL 6
REMARK VINA RESULT:    -1.122      1.772      5.223
REMARK INTER + INTRA:          -1.260
REMARK INTER:                  -1.391
REMARK INTRA:                   0.131
REMARK UNBOUND:                -0.008
REMARK SMILES COc1cc2ccc(=O)oc2cc1OC
REMARK SMILES IDX 3 1 13 2 12 3 11 4 5 5 4 6 6 7 7 8 8 9 9 10 10 11 2 12 1 13
REMARK SMILES IDX 14 14 15 15
REMARK H PARENT
REMARK Flexibility Score: inf
ROOT
ATOM      1  C   UNL     1      14.468  22.297  -0.375  1.00  0.00     0.161 A 
ATOM      2  C   UNL     1      14.388  22.917  -1.633  1.00  0.00     0.164 A 
ATOM      3  C   UNL     1      13.580  22.355  -2.641  1.00  0.00     0.098 A 
ATOM      4  C   UNL     1      12.857  21.185  -2.397  1.00  0.00     0.142 A 
ATOM      5  C   UNL     1      12.936  20.562  -1.135  1.00  0.00     0.022 A 
ATOM      6  C   UNL     1      13.737  21.116  -0.130  1.00  0.00     0.062 A 
ATOM      7  C   UNL     1      12.199  19.392  -0.922  1.00  0.00     0.019 A 
ATOM      8  C   UNL     1      11.415  18.878  -1.954  1.00  0.00     0.094 A 
ATOM      9  C   UNL     1      11.386  19.551  -3.180  1.00  0.00     0.336 A 
ATOM     10  O   UNL     1      10.685  19.104  -4.125  1.00  0.00    -0.246 OA
ATOM     11  O   UNL     1      12.097  20.662  -3.356  1.00  0.00    -0.423 OA
ENDROOT
BRANCH   1  12
ATOM     12  O   UNL     1      15.283  22.884   0.606  1.00  0.00    -0.493 OA
ATOM     13  C   UNL     1      16.677  22.632   0.755  1.00  0.00     0.278 C 
ENDBRANCH   1  12
BRANCH   2  14
ATOM     14  O   UNL     1      15.129  24.091  -1.843  1.00  0.00    -0.493 OA
ATOM     15  C   UNL     1      14.855  25.340  -1.217  1.00  0.00     0.278 C 
ENDBRANCH   2  14
TORSDOF 2
ENDMDL
