MODEL 1
REMARK VINA RESULT:     1.349      0.000      0.000
REMARK INTER + INTRA:           4.137
REMARK INTER:                   2.058
REMARK INTRA:                   2.079
REMARK UNBOUND:                 2.079
REMARK SMILES CC1=CCC[C@@H](C)C(=O)C[C@@H](C(C)C)C(=O)C1
REMARK SMILES IDX 8 1 9 2 6 3 7 4 5 5 4 6 3 7 2 8 1 9 10 11 11 12 15 13 16 14
REMARK SMILES IDX 17 15 12 17 13 18 14 19
REMARK H PARENT
REMARK Flexibility Score: 70.00
ROOT
ATOM      1  C   UNL     1      24.871 -19.710   0.409  1.00  0.00     0.136 C 
ATOM      2  O   UNL     1      25.150 -20.449  -0.525  1.00  0.00    -0.299 OA
ENDROOT
BRANCH   1   3
ATOM      3  C   UNL     1      25.517 -19.961   1.755  1.00  0.00     0.053 C 
ATOM      4  C   UNL     1      26.289 -21.286   1.744  1.00  0.00     0.016 C 
BRANCH   3   5
ATOM      5  C   UNL     1      24.436 -19.946   2.867  1.00  0.00     0.015 C 
BRANCH   5   6
ATOM      6  C   UNL     1      24.433 -18.644   3.697  1.00  0.00     0.028 C 
BRANCH   6   7
ATOM      7  C   UNL     1      23.124 -17.901   3.558  1.00  0.00    -0.028 C 
ATOM      8  C   UNL     1      22.965 -16.718   2.921  1.00  0.00    -0.070 CG0
ATOM      9  C   UNL     1      21.574 -16.145   2.819  1.00  0.00     0.039 C 
ATOM     10  G   UNL     1      24.118 -15.936   2.316  1.00  0.00     0.000 G0
ENDBRANCH   6   7
ENDBRANCH   5   6
ENDBRANCH   3   5
ENDBRANCH   1   3
BRANCH   1  11
ATOM     11  C   UNL     1      23.921 -18.558   0.149  1.00  0.00     0.087 C 
BRANCH  11  12
ATOM     12  C   UNL     1      24.553 -17.141   0.017  1.00  0.00     0.066 C 
BRANCH  12  13
ATOM     13  C   UNL     1      25.045 -16.622   1.362  1.00  0.00     0.140 C 
ATOM     14  O   UNL     1      26.176 -16.896   1.738  1.00  0.00    -0.299 OA
BRANCH  13  15
ATOM     15  C   UNL     1      24.100 -15.876   2.280  1.00  0.00     0.106 CG0
ATOM     16  G   UNL     1      23.016 -16.761   2.871  1.00  0.00     0.000 G0
ENDBRANCH  13  15
ENDBRANCH  12  13
BRANCH  12  17
ATOM     17  C   UNL     1      23.547 -16.129  -0.622  1.00  0.00    -0.006 C 
ATOM     18  C   UNL     1      22.120 -16.313  -0.074  1.00  0.00     0.008 C 
ATOM     19  C   UNL     1      23.510 -16.255  -2.157  1.00  0.00     0.008 C 
ENDBRANCH  12  17
ENDBRANCH  11  12
ENDBRANCH   1  11
TORSDOF 1
ENDMDL
MODEL 2
REMARK VINA RESULT:     3.486      1.556      2.048
REMARK INTER + INTRA:           7.400
REMARK INTER:                   3.006
REMARK INTRA:                   4.394
REMARK UNBOUND:                 2.079
REMARK SMILES CC1=CCC[C@@H](C)C(=O)C[C@@H](C(C)C)C(=O)C1
REMARK SMILES IDX 8 1 9 2 6 3 7 4 5 5 4 6 3 7 2 8 1 9 10 11 11 12 15 13 16 14
REMARK SMILES IDX 17 15 12 17 13 18 14 19
REMARK H PARENT
REMARK Flexibility Score: 70.00
ROOT
ATOM      1  C   UNL     1      24.637 -18.349   0.088  1.00  0.00     0.136 C 
ATOM      2  O   UNL     1      23.465 -18.698   0.095  1.00  0.00    -0.299 OA
ENDROOT
BRANCH   1   3
ATOM      3  C   UNL     1      25.703 -19.369   0.426  1.00  0.00     0.053 C 
ATOM      4  C   UNL     1      25.121 -20.490   1.295  1.00  0.00     0.016 C 
BRANCH   3   5
ATOM      5  C   UNL     1      26.895 -18.670   1.130  1.00  0.00     0.015 C 
BRANCH   5   6
ATOM      6  C   UNL     1      26.467 -17.480   2.017  1.00  0.00     0.028 C 
BRANCH   6   7
ATOM      7  C   UNL     1      25.372 -17.873   2.980  1.00  0.00    -0.028 C 
ATOM      8  C   UNL     1      24.218 -17.190   3.169  1.00  0.00    -0.070 CG0
ATOM      9  C   UNL     1      23.201 -17.759   4.125  1.00  0.00     0.039 C 
ATOM     10  G   UNL     1      23.905 -15.877   2.473  1.00  0.00     0.000 G0
ENDBRANCH   6   7
ENDBRANCH   5   6
ENDBRANCH   3   5
ENDBRANCH   1   3
BRANCH   1  11
ATOM     11  C   UNL     1      24.953 -16.918  -0.300  1.00  0.00     0.087 C 
BRANCH  11  12
ATOM     12  C   UNL     1      23.809 -15.875  -0.135  1.00  0.00     0.066 C 
BRANCH  12  13
ATOM     13  C   UNL     1      23.116 -16.015   1.214  1.00  0.00     0.140 C 
ATOM     14  O   UNL     1      21.900 -16.139   1.259  1.00  0.00    -0.299 OA
BRANCH  13  15
ATOM     15  C   UNL     1      23.913 -15.878   2.495  1.00  0.00     0.106 CG0
ATOM     16  G   UNL     1      24.182 -17.209   3.176  1.00  0.00     0.000 G0
ENDBRANCH  13  15
ENDBRANCH  12  13
BRANCH  12  17
ATOM     17  C   UNL     1      22.768 -15.990  -1.296  1.00  0.00    -0.006 C 
ATOM     18  C   UNL     1      21.568 -16.874  -0.909  1.00  0.00     0.008 C 
ATOM     19  C   UNL     1      23.406 -16.551  -2.581  1.00  0.00     0.008 C 
ENDBRANCH  12  17
ENDBRANCH  11  12
ENDBRANCH   1  11
TORSDOF 1
ENDMDL
