MODEL 1
REMARK VINA RESULT:    -3.108      0.000      0.000
REMARK INTER + INTRA:          -8.178
REMARK INTER:                  -6.016
REMARK INTRA:                  -2.162
REMARK UNBOUND:                -2.162
REMARK SMILES CCCCCCCCCCCCCCCCCC(=O)[O-]
REMARK SMILES IDX 10 1 11 2 12 3 13 4 14 5 15 6 16 7 17 8 18 9 19 10 20 11
REMARK SMILES IDX 9 12 8 13 7 14 6 15 5 16 4 17 3 18 2 19 1 20
REMARK H PARENT
REMARK Flexibility Score: inf
ROOT
ATOM      1  C   UNL     1      32.876  13.652  21.594  1.00  0.00     0.000 C 
ENDROOT
BRANCH   1   2
ATOM      2  C   UNL     1      33.073  14.891  22.485  1.00  0.00     0.000 C 
BRANCH   2   3
ATOM      3  C   UNL     1      33.200  16.189  21.671  1.00  0.00     0.000 C 
BRANCH   3   4
ATOM      4  C   UNL     1      31.892  17.001  21.645  1.00  0.00     0.000 C 
BRANCH   4   5
ATOM      5  C   UNL     1      31.261  17.068  20.244  1.00  0.00     0.000 C 
BRANCH   5   6
ATOM      6  C   UNL     1      32.066  16.366  19.132  1.00  0.00     0.000 C 
BRANCH   6   7
ATOM      7  C   UNL     1      31.516  16.615  17.712  1.00  0.00     0.006 C 
BRANCH   7   8
ATOM      8  C   UNL     1      30.274  15.764  17.411  1.00  0.00     0.053 C 
BRANCH   8   9
ATOM      9  C   UNL     1      30.621  14.638  16.491  1.00  0.00     0.041 C 
ATOM     10  O   UNL     1      30.251  13.464  16.759  1.00  0.00    -0.550 OA
ATOM     11  O   UNL     1      31.398  14.874  15.364  1.00  0.00    -0.550 OA
ENDBRANCH   8   9
ENDBRANCH   7   8
ENDBRANCH   6   7
ENDBRANCH   5   6
ENDBRANCH   4   5
ENDBRANCH   3   4
ENDBRANCH   2   3
ENDBRANCH   1   2
BRANCH   1  12
ATOM     12  C   UNL     1      31.468  13.049  21.721  1.00  0.00     0.000 C 
BRANCH  12  13
ATOM     13  C   UNL     1      30.722  12.995  20.376  1.00  0.00    -0.000 C 
BRANCH  13  14
ATOM     14  C   UNL     1      29.528  13.963  20.326  1.00  0.00    -0.000 C 
BRANCH  14  15
ATOM     15  C   UNL     1      28.198  13.246  20.037  1.00  0.00    -0.000 C 
BRANCH  15  16
ATOM     16  C   UNL     1      27.290  13.162  21.274  1.00  0.00    -0.000 C 
BRANCH  16  17
ATOM     17  C   UNL     1      27.611  11.954  22.167  1.00  0.00    -0.000 C 
BRANCH  17  18
ATOM     18  C   UNL     1      28.000  10.735  21.321  1.00  0.00    -0.000 C 
BRANCH  18  19
ATOM     19  C   UNL     1      28.602   9.628  22.194  1.00  0.00    -0.003 C 
ATOM     20  C   UNL     1      27.624   8.469  22.366  1.00  0.00     0.004 C 
ENDBRANCH  18  19
ENDBRANCH  17  18
ENDBRANCH  16  17
ENDBRANCH  15  16
ENDBRANCH  14  15
ENDBRANCH  13  14
ENDBRANCH  12  13
ENDBRANCH   1  12
TORSDOF 16
ENDMDL
MODEL 2
REMARK VINA RESULT:    -2.991      1.195      2.880
REMARK INTER + INTRA:          -7.950
REMARK INTER:                  -5.488
REMARK INTRA:                  -2.462
REMARK UNBOUND:                -2.162
REMARK SMILES CCCCCCCCCCCCCCCCCC(=O)[O-]
REMARK SMILES IDX 10 1 11 2 12 3 13 4 14 5 15 6 16 7 17 8 18 9 19 10 20 11
REMARK SMILES IDX 9 12 8 13 7 14 6 15 5 16 4 17 3 18 2 19 1 20
REMARK H PARENT
REMARK Flexibility Score: inf
ROOT
ATOM      1  C   UNL     1      31.320  12.610  21.502  1.00  0.00     0.000 C 
ENDROOT
BRANCH   1   2
ATOM      2  C   UNL     1      32.537  13.355  22.078  1.00  0.00     0.000 C 
BRANCH   2   3
ATOM      3  C   UNL     1      32.245  14.838  22.356  1.00  0.00     0.000 C 
BRANCH   3   4
ATOM      4  C   UNL     1      33.319  15.772  21.770  1.00  0.00     0.000 C 
BRANCH   4   5
ATOM      5  C   UNL     1      32.798  16.612  20.591  1.00  0.00     0.000 C 
BRANCH   5   6
ATOM      6  C   UNL     1      31.440  16.159  20.018  1.00  0.00     0.000 C 
BRANCH   6   7
ATOM      7  C   UNL     1      31.458  15.908  18.495  1.00  0.00     0.006 C 
BRANCH   7   8
ATOM      8  C   UNL     1      30.446  14.835  18.070  1.00  0.00     0.053 C 
BRANCH   8   9
ATOM      9  C   UNL     1      30.644  14.467  16.635  1.00  0.00     0.041 C 
ATOM     10  O   UNL     1      30.924  15.354  15.786  1.00  0.00    -0.550 OA
ATOM     11  O   UNL     1      30.469  13.152  16.224  1.00  0.00    -0.550 OA
ENDBRANCH   8   9
ENDBRANCH   7   8
ENDBRANCH   6   7
ENDBRANCH   5   6
ENDBRANCH   4   5
ENDBRANCH   3   4
ENDBRANCH   2   3
ENDBRANCH   1   2
BRANCH   1  12
ATOM     12  C   UNL     1      30.588  11.767  22.558  1.00  0.00     0.000 C 
BRANCH  12  13
ATOM     13  C   UNL     1      30.001  10.468  21.978  1.00  0.00    -0.000 C 
BRANCH  13  14
ATOM     14  C   UNL     1      28.571  10.194  22.476  1.00  0.00    -0.000 C 
BRANCH  14  15
ATOM     15  C   UNL     1      27.571  11.271  22.021  1.00  0.00    -0.000 C 
BRANCH  15  16
ATOM     16  C   UNL     1      27.590  11.492  20.500  1.00  0.00    -0.000 C 
BRANCH  16  17
ATOM     17  C   UNL     1      28.028  12.911  20.111  1.00  0.00    -0.000 C 
BRANCH  17  18
ATOM     18  C   UNL     1      27.455  13.949  21.084  1.00  0.00    -0.000 C 
BRANCH  18  19
ATOM     19  C   UNL     1      28.494  15.027  21.415  1.00  0.00    -0.003 C 
ATOM     20  C   UNL     1      28.611  15.237  22.921  1.00  0.00     0.004 C 
ENDBRANCH  18  19
ENDBRANCH  17  18
ENDBRANCH  16  17
ENDBRANCH  15  16
ENDBRANCH  14  15
ENDBRANCH  13  14
ENDBRANCH  12  13
ENDBRANCH   1  12
TORSDOF 16
ENDMDL
MODEL 3
REMARK VINA RESULT:    -2.765      2.446      3.967
REMARK INTER + INTRA:          -7.514
REMARK INTER:                  -5.178
REMARK INTRA:                  -2.336
REMARK UNBOUND:                -2.162
REMARK SMILES CCCCCCCCCCCCCCCCCC(=O)[O-]
REMARK SMILES IDX 10 1 11 2 12 3 13 4 14 5 15 6 16 7 17 8 18 9 19 10 20 11
REMARK SMILES IDX 9 12 8 13 7 14 6 15 5 16 4 17 3 18 2 19 1 20
REMARK H PARENT
REMARK Flexibility Score: inf
ROOT
ATOM      1  C   UNL     1      29.954  13.860  17.447  1.00  0.00     0.000 C 
ENDROOT
BRANCH   1   2
ATOM      2  C   UNL     1      30.665  14.834  16.491  1.00  0.00     0.000 C 
BRANCH   2   3
ATOM      3  C   UNL     1      30.251  16.297  16.723  1.00  0.00     0.000 C 
BRANCH   3   4
ATOM      4  C   UNL     1      29.132  16.435  17.770  1.00  0.00     0.000 C 
BRANCH   4   5
ATOM      5  C   UNL     1      29.646  16.943  19.128  1.00  0.00     0.000 C 
BRANCH   5   6
ATOM      6  C   UNL     1      31.178  17.089  19.232  1.00  0.00     0.000 C 
BRANCH   6   7
ATOM      7  C   UNL     1      31.717  16.998  20.675  1.00  0.00     0.006 C 
BRANCH   7   8
ATOM      8  C   UNL     1      32.761  15.884  20.837  1.00  0.00     0.053 C 
BRANCH   8   9
ATOM      9  C   UNL     1      32.515  15.115  22.096  1.00  0.00     0.041 C 
ATOM     10  O   UNL     1      31.528  15.396  22.827  1.00  0.00    -0.550 OA
ATOM     11  O   UNL     1      33.403  14.123  22.489  1.00  0.00    -0.550 OA
ENDBRANCH   8   9
ENDBRANCH   7   8
ENDBRANCH   6   7
ENDBRANCH   5   6
ENDBRANCH   4   5
ENDBRANCH   3   4
ENDBRANCH   2   3
ENDBRANCH   1   2
BRANCH   1  12
ATOM     12  C   UNL     1      30.854  13.405  18.606  1.00  0.00     0.000 C 
BRANCH  12  13
ATOM     13  C   UNL     1      30.098  13.313  19.944  1.00  0.00    -0.000 C 
BRANCH  13  14
ATOM     14  C   UNL     1      28.573  13.247  19.755  1.00  0.00    -0.000 C 
BRANCH  14  15
ATOM     15  C   UNL     1      27.803  13.680  21.014  1.00  0.00    -0.000 C 
BRANCH  15  16
ATOM     16  C   UNL     1      28.625  13.502  22.301  1.00  0.00    -0.000 C 
BRANCH  16  17
ATOM     17  C   UNL     1      28.285  12.205  23.050  1.00  0.00    -0.000 C 
BRANCH  17  18
ATOM     18  C   UNL     1      27.460  11.261  22.166  1.00  0.00    -0.000 C 
BRANCH  18  19
ATOM     19  C   UNL     1      28.115   9.877  22.077  1.00  0.00    -0.003 C 
ATOM     20  C   UNL     1      29.633   9.991  21.974  1.00  0.00     0.004 C 
ENDBRANCH  18  19
ENDBRANCH  17  18
ENDBRANCH  16  17
ENDBRANCH  15  16
ENDBRANCH  14  15
ENDBRANCH  13  14
ENDBRANCH  12  13
ENDBRANCH   1  12
TORSDOF 16
ENDMDL
MODEL 4
REMARK VINA RESULT:    -2.652      2.486      5.994
REMARK INTER + INTRA:          -7.294
REMARK INTER:                  -4.872
REMARK INTRA:                  -2.422
REMARK UNBOUND:                -2.162
REMARK SMILES CCCCCCCCCCCCCCCCCC(=O)[O-]
REMARK SMILES IDX 10 1 11 2 12 3 13 4 14 5 15 6 16 7 17 8 18 9 19 10 20 11
REMARK SMILES IDX 9 12 8 13 7 14 6 15 5 16 4 17 3 18 2 19 1 20
REMARK H PARENT
REMARK Flexibility Score: inf
ROOT
ATOM      1  C   UNL     1      30.291  13.383  17.306  1.00  0.00     0.000 C 
ENDROOT
BRANCH   1   2
ATOM      2  C   UNL     1      30.268  13.584  18.832  1.00  0.00     0.000 C 
BRANCH   2   3
ATOM      3  C   UNL     1      28.862  13.412  19.430  1.00  0.00     0.000 C 
BRANCH   3   4
ATOM      4  C   UNL     1      28.498  14.538  20.415  1.00  0.00     0.000 C 
BRANCH   4   5
ATOM      5  C   UNL     1      27.281  14.192  21.290  1.00  0.00     0.000 C 
BRANCH   5   6
ATOM      6  C   UNL     1      27.601  13.915  22.773  1.00  0.00     0.000 C 
BRANCH   6   7
ATOM      7  C   UNL     1      27.674  12.414  23.125  1.00  0.00     0.006 C 
BRANCH   7   8
ATOM      8  C   UNL     1      29.033  11.798  22.766  1.00  0.00     0.053 C 
BRANCH   8   9
ATOM      9  C   UNL     1      28.849  10.592  21.900  1.00  0.00     0.041 C 
ATOM     10  O   UNL     1      27.806  10.464  21.205  1.00  0.00    -0.550 OA
ATOM     11  O   UNL     1      29.805   9.585  21.899  1.00  0.00    -0.550 OA
ENDBRANCH   8   9
ENDBRANCH   7   8
ENDBRANCH   6   7
ENDBRANCH   5   6
ENDBRANCH   4   5
ENDBRANCH   3   4
ENDBRANCH   2   3
ENDBRANCH   1   2
BRANCH   1  12
ATOM     12  C   UNL     1      30.522  14.695  16.540  1.00  0.00     0.000 C 
BRANCH  12  13
ATOM     13  C   UNL     1      30.094  15.935  17.343  1.00  0.00    -0.000 C 
BRANCH  13  14
ATOM     14  C   UNL     1      31.227  16.966  17.484  1.00  0.00    -0.000 C 
BRANCH  14  15
ATOM     15  C   UNL     1      32.020  16.797  18.791  1.00  0.00    -0.000 C 
BRANCH  15  16
ATOM     16  C   UNL     1      31.172  17.087  20.040  1.00  0.00    -0.000 C 
BRANCH  16  17
ATOM     17  C   UNL     1      31.906  16.756  21.348  1.00  0.00    -0.000 C 
BRANCH  17  18
ATOM     18  C   UNL     1      32.549  15.366  21.279  1.00  0.00    -0.000 C 
BRANCH  18  19
ATOM     19  C   UNL     1      31.712  14.333  22.043  1.00  0.00    -0.003 C 
ATOM     20  C   UNL     1      32.533  13.090  22.370  1.00  0.00     0.004 C 
ENDBRANCH  18  19
ENDBRANCH  17  18
ENDBRANCH  16  17
ENDBRANCH  15  16
ENDBRANCH  14  15
ENDBRANCH  13  14
ENDBRANCH  12  13
ENDBRANCH   1  12
TORSDOF 16
ENDMDL
MODEL 5
REMARK VINA RESULT:    -2.522      2.786      6.485
REMARK INTER + INTRA:          -7.043
REMARK INTER:                  -4.808
REMARK INTRA:                  -2.235
REMARK UNBOUND:                -2.162
REMARK SMILES CCCCCCCCCCCCCCCCCC(=O)[O-]
REMARK SMILES IDX 10 1 11 2 12 3 13 4 14 5 15 6 16 7 17 8 18 9 19 10 20 11
REMARK SMILES IDX 9 12 8 13 7 14 6 15 5 16 4 17 3 18 2 19 1 20
REMARK H PARENT
REMARK Flexibility Score: inf
ROOT
ATOM      1  C   UNL     1      30.574  13.252  18.271  1.00  0.00     0.000 C 
ENDROOT
BRANCH   1   2
ATOM      2  C   UNL     1      30.188  13.301  19.760  1.00  0.00     0.000 C 
BRANCH   2   3
ATOM      3  C   UNL     1      28.671  13.185  19.981  1.00  0.00     0.000 C 
BRANCH   3   4
ATOM      4  C   UNL     1      28.090  14.394  20.735  1.00  0.00     0.000 C 
BRANCH   4   5
ATOM      5  C   UNL     1      29.128  15.092  21.631  1.00  0.00     0.000 C 
BRANCH   5   6
ATOM      6  C   UNL     1      29.466  16.542  21.231  1.00  0.00     0.000 C 
BRANCH   6   7
ATOM      7  C   UNL     1      30.835  17.029  21.751  1.00  0.00     0.006 C 
BRANCH   7   8
ATOM      8  C   UNL     1      31.667  15.889  22.354  1.00  0.00     0.053 C 
BRANCH   8   9
ATOM      9  C   UNL     1      32.802  15.533  21.447  1.00  0.00     0.041 C 
ATOM     10  O   UNL     1      33.127  14.327  21.283  1.00  0.00    -0.550 OA
ATOM     11  O   UNL     1      33.534  16.534  20.823  1.00  0.00    -0.550 OA
ENDBRANCH   8   9
ENDBRANCH   7   8
ENDBRANCH   6   7
ENDBRANCH   5   6
ENDBRANCH   4   5
ENDBRANCH   3   4
ENDBRANCH   2   3
ENDBRANCH   1   2
BRANCH   1  12
ATOM     12  C   UNL     1      30.085  14.482  17.491  1.00  0.00     0.000 C 
BRANCH  12  13
ATOM     13  C   UNL     1      30.676  15.798  18.025  1.00  0.00    -0.000 C 
BRANCH  13  14
ATOM     14  C   UNL     1      29.940  17.037  17.487  1.00  0.00    -0.000 C 
BRANCH  14  15
ATOM     15  C   UNL     1      28.728  16.670  16.613  1.00  0.00    -0.000 C 
BRANCH  15  16
ATOM     16  C   UNL     1      28.897  17.114  15.151  1.00  0.00    -0.000 C 
BRANCH  16  17
ATOM     17  C   UNL     1      30.364  17.125  14.699  1.00  0.00    -0.000 C 
BRANCH  17  18
ATOM     18  C   UNL     1      30.470  16.981  13.175  1.00  0.00    -0.000 C 
BRANCH  18  19
ATOM     19  C   UNL     1      31.217  15.698  12.793  1.00  0.00    -0.003 C 
ATOM     20  C   UNL     1      31.418  14.795  14.005  1.00  0.00     0.004 C 
ENDBRANCH  18  19
ENDBRANCH  17  18
ENDBRANCH  16  17
ENDBRANCH  15  16
ENDBRANCH  14  15
ENDBRANCH  13  14
ENDBRANCH  12  13
ENDBRANCH   1  12
TORSDOF 16
ENDMDL
MODEL 6
REMARK VINA RESULT:    -2.192      2.511      5.843
REMARK INTER + INTRA:          -6.405
REMARK INTER:                  -4.113
REMARK INTRA:                  -2.292
REMARK UNBOUND:                -2.162
REMARK SMILES CCCCCCCCCCCCCCCCCC(=O)[O-]
REMARK SMILES IDX 10 1 11 2 12 3 13 4 14 5 15 6 16 7 17 8 18 9 19 10 20 11
REMARK SMILES IDX 9 12 8 13 7 14 6 15 5 16 4 17 3 18 2 19 1 20
REMARK H PARENT
REMARK Flexibility Score: inf
ROOT
ATOM      1  C   UNL     1      30.243  13.218  18.299  1.00  0.00     0.000 C 
ENDROOT
BRANCH   1   2
ATOM      2  C   UNL     1      29.111  13.498  19.304  1.00  0.00     0.000 C 
BRANCH   2   3
ATOM      3  C   UNL     1      28.372  12.220  19.733  1.00  0.00     0.000 C 
BRANCH   3   4
ATOM      4  C   UNL     1      27.777  12.329  21.149  1.00  0.00     0.000 C 
BRANCH   4   5
ATOM      5  C   UNL     1      28.833  12.674  22.213  1.00  0.00     0.000 C 
BRANCH   5   6
ATOM      6  C   UNL     1      28.476  13.867  23.123  1.00  0.00     0.000 C 
BRANCH   6   7
ATOM      7  C   UNL     1      27.231  14.654  22.661  1.00  0.00     0.006 C 
BRANCH   7   8
ATOM      8  C   UNL     1      27.404  16.169  22.832  1.00  0.00     0.053 C 
BRANCH   8   9
ATOM      9  C   UNL     1      28.461  16.684  21.907  1.00  0.00     0.041 C 
ATOM     10  O   UNL     1      29.547  17.124  22.369  1.00  0.00    -0.550 OA
ATOM     11  O   UNL     1      28.227  16.726  20.539  1.00  0.00    -0.550 OA
ENDBRANCH   8   9
ENDBRANCH   7   8
ENDBRANCH   6   7
ENDBRANCH   5   6
ENDBRANCH   4   5
ENDBRANCH   3   4
ENDBRANCH   2   3
ENDBRANCH   1   2
BRANCH   1  12
ATOM     12  C   UNL     1      30.215  14.172  17.094  1.00  0.00     0.000 C 
BRANCH  12  13
ATOM     13  C   UNL     1      29.343  15.416  17.342  1.00  0.00    -0.000 C 
BRANCH  13  14
ATOM     14  C   UNL     1      30.169  16.713  17.393  1.00  0.00    -0.000 C 
BRANCH  14  15
ATOM     15  C   UNL     1      31.542  16.513  18.058  1.00  0.00    -0.000 C 
BRANCH  15  16
ATOM     16  C   UNL     1      31.563  16.980  19.522  1.00  0.00    -0.000 C 
BRANCH  16  17
ATOM     17  C   UNL     1      32.586  16.215  20.375  1.00  0.00    -0.000 C 
BRANCH  17  18
ATOM     18  C   UNL     1      31.988  14.906  20.907  1.00  0.00    -0.000 C 
BRANCH  18  19
ATOM     19  C   UNL     1      33.046  14.076  21.643  1.00  0.00    -0.003 C 
ATOM     20  C   UNL     1      32.397  13.051  22.569  1.00  0.00     0.004 C 
ENDBRANCH  18  19
ENDBRANCH  17  18
ENDBRANCH  16  17
ENDBRANCH  15  16
ENDBRANCH  14  15
ENDBRANCH  13  14
ENDBRANCH  12  13
ENDBRANCH   1  12
TORSDOF 16
ENDMDL
MODEL 7
REMARK VINA RESULT:    -2.184      1.378      2.036
REMARK INTER + INTRA:          -6.390
REMARK INTER:                  -4.407
REMARK INTRA:                  -1.983
REMARK UNBOUND:                -2.162
REMARK SMILES CCCCCCCCCCCCCCCCCC(=O)[O-]
REMARK SMILES IDX 10 1 11 2 12 3 13 4 14 5 15 6 16 7 17 8 18 9 19 10 20 11
REMARK SMILES IDX 9 12 8 13 7 14 6 15 5 16 4 17 3 18 2 19 1 20
REMARK H PARENT
REMARK Flexibility Score: inf
ROOT
ATOM      1  C   UNL     1      31.375  13.774  20.024  1.00  0.00     0.000 C 
ENDROOT
BRANCH   1   2
ATOM      2  C   UNL     1      32.307  13.380  21.183  1.00  0.00     0.000 C 
BRANCH   2   3
ATOM      3  C   UNL     1      33.243  14.524  21.605  1.00  0.00     0.000 C 
BRANCH   3   4
ATOM      4  C   UNL     1      32.526  15.590  22.453  1.00  0.00     0.000 C 
BRANCH   4   5
ATOM      5  C   UNL     1      32.600  16.995  21.830  1.00  0.00     0.000 C 
BRANCH   5   6
ATOM      6  C   UNL     1      32.780  17.020  20.298  1.00  0.00     0.000 C 
BRANCH   6   7
ATOM      7  C   UNL     1      31.451  17.063  19.515  1.00  0.00     0.006 C 
BRANCH   7   8
ATOM      8  C   UNL     1      31.645  16.761  18.022  1.00  0.00     0.053 C 
BRANCH   8   9
ATOM      9  C   UNL     1      30.332  16.463  17.372  1.00  0.00     0.041 C 
ATOM     10  O   UNL     1      30.269  15.648  16.414  1.00  0.00    -0.550 OA
ATOM     11  O   UNL     1      29.184  17.125  17.789  1.00  0.00    -0.550 OA
ENDBRANCH   8   9
ENDBRANCH   7   8
ENDBRANCH   6   7
ENDBRANCH   5   6
ENDBRANCH   4   5
ENDBRANCH   3   4
ENDBRANCH   2   3
ENDBRANCH   1   2
BRANCH   1  12
ATOM     12  C   UNL     1      30.195  12.804  19.857  1.00  0.00     0.000 C 
BRANCH  12  13
ATOM     13  C   UNL     1      28.954  13.479  19.245  1.00  0.00    -0.000 C 
BRANCH  13  14
ATOM     14  C   UNL     1      28.376  14.581  20.150  1.00  0.00    -0.000 C 
BRANCH  14  15
ATOM     15  C   UNL     1      27.075  14.149  20.848  1.00  0.00    -0.000 C 
BRANCH  15  16
ATOM     16  C   UNL     1      27.204  14.127  22.380  1.00  0.00    -0.000 C 
BRANCH  16  17
ATOM     17  C   UNL     1      26.920  12.742  22.981  1.00  0.00    -0.000 C 
BRANCH  17  18
ATOM     18  C   UNL     1      28.212  11.927  23.118  1.00  0.00    -0.000 C 
BRANCH  18  19
ATOM     19  C   UNL     1      28.034  10.513  22.554  1.00  0.00    -0.003 C 
ATOM     20  C   UNL     1      29.332   9.996  21.941  1.00  0.00     0.004 C 
ENDBRANCH  18  19
ENDBRANCH  17  18
ENDBRANCH  16  17
ENDBRANCH  15  16
ENDBRANCH  14  15
ENDBRANCH  13  14
ENDBRANCH  12  13
ENDBRANCH   1  12
TORSDOF 16
ENDMDL
MODEL 8
REMARK VINA RESULT:    -2.012      2.913      6.896
REMARK INTER + INTRA:          -6.056
REMARK INTER:                  -4.752
REMARK INTRA:                  -1.304
REMARK UNBOUND:                -2.162
REMARK SMILES CCCCCCCCCCCCCCCCCC(=O)[O-]
REMARK SMILES IDX 10 1 11 2 12 3 13 4 14 5 15 6 16 7 17 8 18 9 19 10 20 11
REMARK SMILES IDX 9 12 8 13 7 14 6 15 5 16 4 17 3 18 2 19 1 20
REMARK H PARENT
REMARK Flexibility Score: inf
ROOT
ATOM      1  C   UNL     1      29.948  14.703  18.711  1.00  0.00     0.000 C 
ENDROOT
BRANCH   1   2
ATOM      2  C   UNL     1      28.799  14.135  19.562  1.00  0.00     0.000 C 
BRANCH   2   3
ATOM      3  C   UNL     1      28.938  12.625  19.811  1.00  0.00     0.000 C 
BRANCH   3   4
ATOM      4  C   UNL     1      28.949  12.272  21.310  1.00  0.00     0.000 C 
BRANCH   4   5
ATOM      5  C   UNL     1      30.282  11.656  21.766  1.00  0.00     0.000 C 
BRANCH   5   6
ATOM      6  C   UNL     1      31.057  12.480  22.814  1.00  0.00     0.000 C 
BRANCH   6   7
ATOM      7  C   UNL     1      31.159  13.982  22.474  1.00  0.00     0.006 C 
BRANCH   7   8
ATOM      8  C   UNL     1      32.613  14.444  22.309  1.00  0.00     0.053 C 
BRANCH   8   9
ATOM      9  C   UNL     1      32.668  15.909  22.013  1.00  0.00     0.041 C 
ATOM     10  O   UNL     1      31.809  16.688  22.508  1.00  0.00    -0.550 OA
ATOM     11  O   UNL     1      33.634  16.409  21.151  1.00  0.00    -0.550 OA
ENDBRANCH   8   9
ENDBRANCH   7   8
ENDBRANCH   6   7
ENDBRANCH   5   6
ENDBRANCH   4   5
ENDBRANCH   3   4
ENDBRANCH   2   3
ENDBRANCH   1   2
BRANCH   1  12
ATOM     12  C   UNL     1      30.251  16.175  19.031  1.00  0.00     0.000 C 
BRANCH  12  13
ATOM     13  C   UNL     1      30.070  17.097  17.812  1.00  0.00    -0.000 C 
BRANCH  13  14
ATOM     14  C   UNL     1      28.634  17.069  17.261  1.00  0.00    -0.000 C 
BRANCH  14  15
ATOM     15  C   UNL     1      28.516  16.255  15.961  1.00  0.00    -0.000 C 
BRANCH  15  16
ATOM     16  C   UNL     1      28.671  17.125  14.703  1.00  0.00    -0.000 C 
BRANCH  16  17
ATOM     17  C   UNL     1      30.099  17.107  14.139  1.00  0.00    -0.000 C 
BRANCH  17  18
ATOM     18  C   UNL     1      30.942  16.018  14.814  1.00  0.00    -0.000 C 
BRANCH  18  19
ATOM     19  C   UNL     1      31.467  15.011  13.785  1.00  0.00    -0.003 C 
ATOM     20  C   UNL     1      31.139  15.453  12.362  1.00  0.00     0.004 C 
ENDBRANCH  18  19
ENDBRANCH  17  18
ENDBRANCH  16  17
ENDBRANCH  15  16
ENDBRANCH  14  15
ENDBRANCH  13  14
ENDBRANCH  12  13
ENDBRANCH   1  12
TORSDOF 16
ENDMDL
