MODEL 1
REMARK VINA RESULT:    -3.979      0.000      0.000
REMARK INTER + INTRA:         -14.690
REMARK INTER:                 -10.026
REMARK INTRA:                  -4.664
REMARK UNBOUND:                -4.664
REMARK SMILES CCCCCCCCCCCCCCCCCCCCCCCCCCCC(=O)[O-]
REMARK SMILES IDX 15 1 16 2 17 3 18 4 19 5 20 6 21 7 22 8 23 9 24 10 25 11
REMARK SMILES IDX 26 12 27 13 28 14 29 15 30 16 14 17 13 18 12 19 11 20 10 21
REMARK SMILES IDX 9 22 8 23 7 24 6 25 5 26 4 27 3 28 2 29 1 30
REMARK H PARENT
REMARK Flexibility Score: inf
ROOT
ATOM      1  C   UNL     1       1.239 127.591 114.117  1.00  0.00     0.000 C 
ENDROOT
BRANCH   1   2
ATOM      2  C   UNL     1       1.083 126.255 113.366  1.00  0.00     0.000 C 
BRANCH   2   3
ATOM      3  C   UNL     1       0.521 125.137 114.258  1.00  0.00     0.000 C 
BRANCH   3   4
ATOM      4  C   UNL     1       1.338 123.836 114.162  1.00  0.00     0.000 C 
BRANCH   4   5
ATOM      5  C   UNL     1       2.800 124.034 114.591  1.00  0.00     0.000 C 
BRANCH   5   6
ATOM      6  C   UNL     1       2.949 124.482 116.062  1.00  0.00     0.000 C 
BRANCH   6   7
ATOM      7  C   UNL     1       3.829 125.735 116.196  1.00  0.00     0.000 C 
BRANCH   7   8
ATOM      8  C   UNL     1       4.574 126.075 114.886  1.00  0.00     0.000 C 
BRANCH   8   9
ATOM      9  C   UNL     1       5.374 127.391 114.956  1.00  0.00     0.000 C 
BRANCH   9  10
ATOM     10  C   UNL     1       4.596 128.591 115.527  1.00  0.00     0.000 C 
BRANCH  10  11
ATOM     11  C   UNL     1       5.305 129.333 116.676  1.00  0.00     0.000 C 
BRANCH  11  12
ATOM     12  C   UNL     1       5.904 130.695 116.259  1.00  0.00     0.006 C 
BRANCH  12  13
ATOM     13  C   UNL     1       6.039 130.863 114.737  1.00  0.00     0.053 C 
BRANCH  13  14
ATOM     14  C   UNL     1       7.440 130.616 114.268  1.00  0.00     0.041 C 
ATOM     15  O   UNL     1       7.733 130.751 113.051  1.00  0.00    -0.550 OA
ATOM     16  O   UNL     1       8.424 130.243 115.177  1.00  0.00    -0.550 OA
ENDBRANCH  13  14
ENDBRANCH  12  13
ENDBRANCH  11  12
ENDBRANCH  10  11
ENDBRANCH   9  10
ENDBRANCH   8   9
ENDBRANCH   7   8
ENDBRANCH   6   7
ENDBRANCH   5   6
ENDBRANCH   4   5
ENDBRANCH   3   4
ENDBRANCH   2   3
ENDBRANCH   1   2
BRANCH   1  17
ATOM     17  C   UNL     1       1.176 128.811 113.184  1.00  0.00     0.000 C 
BRANCH  17  18
ATOM     18  C   UNL     1       2.568 129.406 112.891  1.00  0.00     0.000 C 
BRANCH  18  19
ATOM     19  C   UNL     1       2.946 129.346 111.396  1.00  0.00     0.000 C 
BRANCH  19  20
ATOM     20  C   UNL     1       1.957 128.550 110.521  1.00  0.00     0.000 C 
BRANCH  20  21
ATOM     21  C   UNL     1       2.518 127.261 109.895  1.00  0.00     0.000 C 
BRANCH  21  22
ATOM     22  C   UNL     1       3.610 126.550 110.720  1.00  0.00    -0.000 C 
BRANCH  22  23
ATOM     23  C   UNL     1       3.465 125.013 110.761  1.00  0.00    -0.000 C 
BRANCH  23  24
ATOM     24  C   UNL     1       4.661 124.325 111.444  1.00  0.00    -0.000 C 
BRANCH  24  25
ATOM     25  C   UNL     1       5.844 125.281 111.667  1.00  0.00    -0.000 C 
BRANCH  25  26
ATOM     26  C   UNL     1       7.044 124.591 112.340  1.00  0.00    -0.000 C 
BRANCH  26  27
ATOM     27  C   UNL     1       8.220 124.358 111.377  1.00  0.00    -0.000 C 
BRANCH  27  28
ATOM     28  C   UNL     1       8.196 125.272 110.134  1.00  0.00    -0.000 C 
BRANCH  28  29
ATOM     29  C   UNL     1       7.828 124.506 108.854  1.00  0.00    -0.003 C 
ATOM     30  C   UNL     1       6.836 125.297 108.006  1.00  0.00     0.004 C 
ENDBRANCH  28  29
ENDBRANCH  27  28
ENDBRANCH  26  27
ENDBRANCH  25  26
ENDBRANCH  24  25
ENDBRANCH  23  24
ENDBRANCH  22  23
ENDBRANCH  21  22
ENDBRANCH  20  21
ENDBRANCH  19  20
ENDBRANCH  18  19
ENDBRANCH  17  18
ENDBRANCH   1  17
TORSDOF 26
ENDMDL
MODEL 2
REMARK VINA RESULT:    -3.887      2.559      6.742
REMARK INTER + INTRA:         -14.459
REMARK INTER:                  -9.207
REMARK INTRA:                  -5.252
REMARK UNBOUND:                -4.664
REMARK SMILES CCCCCCCCCCCCCCCCCCCCCCCCCCCC(=O)[O-]
REMARK SMILES IDX 15 1 16 2 17 3 18 4 19 5 20 6 21 7 22 8 23 9 24 10 25 11
REMARK SMILES IDX 26 12 27 13 28 14 29 15 30 16 14 17 13 18 12 19 11 20 10 21
REMARK SMILES IDX 9 22 8 23 7 24 6 25 5 26 4 27 3 28 2 29 1 30
REMARK H PARENT
REMARK Flexibility Score: inf
ROOT
ATOM      1  C   UNL     1      -0.067 129.897 114.291  1.00  0.00     0.000 C 
ENDROOT
BRANCH   1   2
ATOM      2  C   UNL     1       0.349 130.111 112.823  1.00  0.00     0.000 C 
BRANCH   2   3
ATOM      3  C   UNL     1       1.040 128.880 112.217  1.00  0.00     0.000 C 
BRANCH   3   4
ATOM      4  C   UNL     1       0.368 128.405 110.916  1.00  0.00     0.000 C 
BRANCH   4   5
ATOM      5  C   UNL     1       1.383 127.844 109.908  1.00  0.00     0.000 C 
BRANCH   5   6
ATOM      6  C   UNL     1       2.718 127.419 110.560  1.00  0.00     0.000 C 
BRANCH   6   7
ATOM      7  C   UNL     1       2.871 125.890 110.615  1.00  0.00     0.000 C 
BRANCH   7   8
ATOM      8  C   UNL     1       2.307 125.289 111.922  1.00  0.00     0.000 C 
BRANCH   8   9
ATOM      9  C   UNL     1       3.136 125.646 113.172  1.00  0.00     0.000 C 
BRANCH   9  10
ATOM     10  C   UNL     1       4.381 124.767 113.395  1.00  0.00     0.000 C 
BRANCH  10  11
ATOM     11  C   UNL     1       4.251 123.320 112.883  1.00  0.00     0.000 C 
BRANCH  11  12
ATOM     12  C   UNL     1       5.290 122.950 111.800  1.00  0.00     0.006 C 
BRANCH  12  13
ATOM     13  C   UNL     1       6.184 124.128 111.382  1.00  0.00     0.053 C 
BRANCH  13  14
ATOM     14  C   UNL     1       7.585 123.975 111.890  1.00  0.00     0.041 C 
ATOM     15  O   UNL     1       7.842 123.146 112.801  1.00  0.00    -0.550 OA
ATOM     16  O   UNL     1       8.610 124.745 111.349  1.00  0.00    -0.550 OA
ENDBRANCH  13  14
ENDBRANCH  12  13
ENDBRANCH  11  12
ENDBRANCH  10  11
ENDBRANCH   9  10
ENDBRANCH   8   9
ENDBRANCH   7   8
ENDBRANCH   6   7
ENDBRANCH   5   6
ENDBRANCH   4   5
ENDBRANCH   3   4
ENDBRANCH   2   3
ENDBRANCH   1   2
BRANCH   1  17
ATOM     17  C   UNL     1       0.810 128.863 115.016  1.00  0.00     0.000 C 
BRANCH  17  18
ATOM     18  C   UNL     1       1.171 129.294 116.451  1.00  0.00     0.000 C 
BRANCH  18  19
ATOM     19  C   UNL     1       2.637 128.983 116.822  1.00  0.00     0.000 C 
BRANCH  19  20
ATOM     20  C   UNL     1       3.042 127.507 116.633  1.00  0.00     0.000 C 
BRANCH  20  21
ATOM     21  C   UNL     1       4.507 127.272 116.224  1.00  0.00     0.000 C 
BRANCH  21  22
ATOM     22  C   UNL     1       5.457 128.463 116.466  1.00  0.00    -0.000 C 
BRANCH  22  23
ATOM     23  C   UNL     1       6.016 129.092 115.171  1.00  0.00    -0.000 C 
BRANCH  23  24
ATOM     24  C   UNL     1       5.271 128.614 113.912  1.00  0.00    -0.000 C 
BRANCH  24  25
ATOM     25  C   UNL     1       4.365 129.702 113.314  1.00  0.00    -0.000 C 
BRANCH  25  26
ATOM     26  C   UNL     1       4.511 131.055 114.034  1.00  0.00    -0.000 C 
BRANCH  26  27
ATOM     27  C   UNL     1       3.162 131.753 114.278  1.00  0.00    -0.000 C 
BRANCH  27  28
ATOM     28  C   UNL     1       3.152 132.670 115.518  1.00  0.00    -0.000 C 
BRANCH  28  29
ATOM     29  C   UNL     1       4.396 132.474 116.399  1.00  0.00    -0.003 C 
ATOM     30  C   UNL     1       4.007 132.059 117.816  1.00  0.00     0.004 C 
ENDBRANCH  28  29
ENDBRANCH  27  28
ENDBRANCH  26  27
ENDBRANCH  25  26
ENDBRANCH  24  25
ENDBRANCH  23  24
ENDBRANCH  22  23
ENDBRANCH  21  22
ENDBRANCH  20  21
ENDBRANCH  19  20
ENDBRANCH  18  19
ENDBRANCH  17  18
ENDBRANCH   1  17
TORSDOF 26
ENDMDL
MODEL 3
REMARK VINA RESULT:    -3.829      2.216      5.452
REMARK INTER + INTRA:         -14.314
REMARK INTER:                  -9.187
REMARK INTRA:                  -5.127
REMARK UNBOUND:                -4.664
REMARK SMILES CCCCCCCCCCCCCCCCCCCCCCCCCCCC(=O)[O-]
REMARK SMILES IDX 15 1 16 2 17 3 18 4 19 5 20 6 21 7 22 8 23 9 24 10 25 11
REMARK SMILES IDX 26 12 27 13 28 14 29 15 30 16 14 17 13 18 12 19 11 20 10 21
REMARK SMILES IDX 9 22 8 23 7 24 6 25 5 26 4 27 3 28 2 29 1 30
REMARK H PARENT
REMARK Flexibility Score: inf
ROOT
ATOM      1  C   UNL     1       4.447 124.516 111.461  1.00  0.00     0.000 C 
ENDROOT
BRANCH   1   2
ATOM      2  C   UNL     1       2.991 124.528 110.954  1.00  0.00     0.000 C 
BRANCH   2   3
ATOM      3  C   UNL     1       2.347 125.920 111.037  1.00  0.00     0.000 C 
BRANCH   3   4
ATOM      4  C   UNL     1       3.013 126.938 110.094  1.00  0.00     0.000 C 
BRANCH   4   5
ATOM      5  C   UNL     1       2.185 128.223 109.946  1.00  0.00     0.000 C 
BRANCH   5   6
ATOM      6  C   UNL     1       0.905 128.228 110.813  1.00  0.00     0.000 C 
BRANCH   6   7
ATOM      7  C   UNL     1       0.840 129.454 111.737  1.00  0.00     0.000 C 
BRANCH   7   8
ATOM      8  C   UNL     1       1.214 129.113 113.197  1.00  0.00     0.000 C 
BRANCH   8   9
ATOM      9  C   UNL     1       2.480 129.838 113.695  1.00  0.00     0.000 C 
BRANCH   9  10
ATOM     10  C   UNL     1       3.613 129.945 112.658  1.00  0.00     0.000 C 
BRANCH  10  11
ATOM     11  C   UNL     1       5.018 129.614 113.199  1.00  0.00     0.000 C 
BRANCH  11  12
ATOM     12  C   UNL     1       5.565 130.668 114.187  1.00  0.00     0.006 C 
BRANCH  12  13
ATOM     13  C   UNL     1       6.141 130.058 115.474  1.00  0.00     0.053 C 
BRANCH  13  14
ATOM     14  C   UNL     1       5.420 130.543 116.696  1.00  0.00     0.041 C 
ATOM     15  O   UNL     1       5.854 130.255 117.842  1.00  0.00    -0.550 OA
ATOM     16  O   UNL     1       4.273 131.318 116.566  1.00  0.00    -0.550 OA
ENDBRANCH  13  14
ENDBRANCH  12  13
ENDBRANCH  11  12
ENDBRANCH  10  11
ENDBRANCH   9  10
ENDBRANCH   8   9
ENDBRANCH   7   8
ENDBRANCH   6   7
ENDBRANCH   5   6
ENDBRANCH   4   5
ENDBRANCH   3   4
ENDBRANCH   2   3
ENDBRANCH   1   2
BRANCH   1  17
ATOM     17  C   UNL     1       4.804 123.229 112.221  1.00  0.00     0.000 C 
BRANCH  17  18
ATOM     18  C   UNL     1       3.978 123.052 113.510  1.00  0.00     0.000 C 
BRANCH  18  19
ATOM     19  C   UNL     1       3.450 121.613 113.696  1.00  0.00     0.000 C 
BRANCH  19  20
ATOM     20  C   UNL     1       1.954 121.527 114.061  1.00  0.00     0.000 C 
BRANCH  20  21
ATOM     21  C   UNL     1       1.100 122.735 113.639  1.00  0.00     0.000 C 
BRANCH  21  22
ATOM     22  C   UNL     1      -0.012 123.132 114.631  1.00  0.00    -0.000 C 
BRANCH  22  23
ATOM     23  C   UNL     1       0.053 124.605 115.090  1.00  0.00    -0.000 C 
BRANCH  23  24
ATOM     24  C   UNL     1       1.118 125.415 114.329  1.00  0.00    -0.000 C 
BRANCH  24  25
ATOM     25  C   UNL     1       2.241 125.924 115.246  1.00  0.00    -0.000 C 
BRANCH  25  26
ATOM     26  C   UNL     1       3.449 126.463 114.460  1.00  0.00    -0.000 C 
BRANCH  26  27
ATOM     27  C   UNL     1       4.686 126.695 115.345  1.00  0.00    -0.000 C 
BRANCH  27  28
ATOM     28  C   UNL     1       5.960 125.994 114.829  1.00  0.00    -0.000 C 
BRANCH  28  29
ATOM     29  C   UNL     1       6.494 124.950 115.822  1.00  0.00    -0.003 C 
ATOM     30  C   UNL     1       7.138 123.774 115.090  1.00  0.00     0.004 C 
ENDBRANCH  28  29
ENDBRANCH  27  28
ENDBRANCH  26  27
ENDBRANCH  25  26
ENDBRANCH  24  25
ENDBRANCH  23  24
ENDBRANCH  22  23
ENDBRANCH  21  22
ENDBRANCH  20  21
ENDBRANCH  19  20
ENDBRANCH  18  19
ENDBRANCH  17  18
ENDBRANCH   1  17
TORSDOF 26
ENDMDL
MODEL 4
REMARK VINA RESULT:    -3.823      2.429      6.720
REMARK INTER + INTRA:         -14.298
REMARK INTER:                  -9.064
REMARK INTRA:                  -5.233
REMARK UNBOUND:                -4.664
REMARK SMILES CCCCCCCCCCCCCCCCCCCCCCCCCCCC(=O)[O-]
REMARK SMILES IDX 15 1 16 2 17 3 18 4 19 5 20 6 21 7 22 8 23 9 24 10 25 11
REMARK SMILES IDX 26 12 27 13 28 14 29 15 30 16 14 17 13 18 12 19 11 20 10 21
REMARK SMILES IDX 9 22 8 23 7 24 6 25 5 26 4 27 3 28 2 29 1 30
REMARK H PARENT
REMARK Flexibility Score: inf
ROOT
ATOM      1  C   UNL     1       5.178 130.084 113.294  1.00  0.00     0.000 C 
ENDROOT
BRANCH   1   2
ATOM      2  C   UNL     1       5.043 128.601 112.896  1.00  0.00     0.000 C 
BRANCH   2   3
ATOM      3  C   UNL     1       3.860 127.907 113.589  1.00  0.00     0.000 C 
BRANCH   3   4
ATOM      4  C   UNL     1       4.310 126.807 114.567  1.00  0.00     0.000 C 
BRANCH   4   5
ATOM      5  C   UNL     1       3.150 126.285 115.428  1.00  0.00     0.000 C 
BRANCH   5   6
ATOM      6  C   UNL     1       2.519 124.985 114.880  1.00  0.00     0.000 C 
BRANCH   6   7
ATOM      7  C   UNL     1       1.150 125.239 114.229  1.00  0.00     0.000 C 
BRANCH   7   8
ATOM      8  C   UNL     1       1.256 125.460 112.703  1.00  0.00     0.000 C 
BRANCH   8   9
ATOM      9  C   UNL     1       2.363 124.622 112.034  1.00  0.00     0.000 C 
BRANCH   9  10
ATOM     10  C   UNL     1       2.988 125.259 110.780  1.00  0.00     0.000 C 
BRANCH  10  11
ATOM     11  C   UNL     1       4.521 125.411 110.827  1.00  0.00     0.000 C 
BRANCH  11  12
ATOM     12  C   UNL     1       5.246 124.194 111.445  1.00  0.00     0.006 C 
BRANCH  12  13
ATOM     13  C   UNL     1       6.774 124.253 111.297  1.00  0.00     0.053 C 
BRANCH  13  14
ATOM     14  C   UNL     1       7.471 124.087 112.612  1.00  0.00     0.041 C 
ATOM     15  O   UNL     1       8.313 123.164 112.770  1.00  0.00    -0.550 OA
ATOM     16  O   UNL     1       7.197 124.957 113.661  1.00  0.00    -0.550 OA
ENDBRANCH  13  14
ENDBRANCH  12  13
ENDBRANCH  11  12
ENDBRANCH  10  11
ENDBRANCH   9  10
ENDBRANCH   8   9
ENDBRANCH   7   8
ENDBRANCH   6   7
ENDBRANCH   5   6
ENDBRANCH   4   5
ENDBRANCH   3   4
ENDBRANCH   2   3
ENDBRANCH   1   2
BRANCH   1  17
ATOM     17  C   UNL     1       6.585 130.442 113.797  1.00  0.00     0.000 C 
BRANCH  17  18
ATOM     18  C   UNL     1       6.663 130.522 115.334  1.00  0.00     0.000 C 
BRANCH  18  19
ATOM     19  C   UNL     1       7.121 131.906 115.843  1.00  0.00     0.000 C 
BRANCH  19  20
ATOM     20  C   UNL     1       6.063 133.018 115.699  1.00  0.00     0.000 C 
BRANCH  20  21
ATOM     21  C   UNL     1       4.699 132.721 116.347  1.00  0.00     0.000 C 
BRANCH  21  22
ATOM     22  C   UNL     1       3.482 132.853 115.408  1.00  0.00    -0.000 C 
BRANCH  22  23
ATOM     23  C   UNL     1       2.786 131.512 115.091  1.00  0.00    -0.000 C 
BRANCH  23  24
ATOM     24  C   UNL     1       2.969 130.471 116.211  1.00  0.00    -0.000 C 
BRANCH  24  25
ATOM     25  C   UNL     1       1.732 129.579 116.395  1.00  0.00    -0.000 C 
BRANCH  25  26
ATOM     26  C   UNL     1       0.620 129.890 115.377  1.00  0.00    -0.000 C 
BRANCH  26  27
ATOM     27  C   UNL     1       0.432 128.774 114.335  1.00  0.00    -0.000 C 
BRANCH  27  28
ATOM     28  C   UNL     1       0.066 129.292 112.929  1.00  0.00    -0.000 C 
BRANCH  28  29
ATOM     29  C   UNL     1       1.308 129.623 112.087  1.00  0.00    -0.003 C 
ATOM     30  C   UNL     1       1.417 128.696 110.879  1.00  0.00     0.004 C 
ENDBRANCH  28  29
ENDBRANCH  27  28
ENDBRANCH  26  27
ENDBRANCH  25  26
ENDBRANCH  24  25
ENDBRANCH  23  24
ENDBRANCH  22  23
ENDBRANCH  21  22
ENDBRANCH  20  21
ENDBRANCH  19  20
ENDBRANCH  18  19
ENDBRANCH  17  18
ENDBRANCH   1  17
TORSDOF 26
ENDMDL
MODEL 5
REMARK VINA RESULT:    -3.823      1.895      4.492
REMARK INTER + INTRA:         -14.298
REMARK INTER:                  -8.341
REMARK INTRA:                  -5.957
REMARK UNBOUND:                -4.664
REMARK SMILES CCCCCCCCCCCCCCCCCCCCCCCCCCCC(=O)[O-]
REMARK SMILES IDX 15 1 16 2 17 3 18 4 19 5 20 6 21 7 22 8 23 9 24 10 25 11
REMARK SMILES IDX 26 12 27 13 28 14 29 15 30 16 14 17 13 18 12 19 11 20 10 21
REMARK SMILES IDX 9 22 8 23 7 24 6 25 5 26 4 27 3 28 2 29 1 30
REMARK H PARENT
REMARK Flexibility Score: inf
ROOT
ATOM      1  C   UNL     1       3.565 126.527 114.734  1.00  0.00     0.000 C 
ENDROOT
BRANCH   1   2
ATOM      2  C   UNL     1       4.314 126.696 116.070  1.00  0.00     0.000 C 
BRANCH   2   3
ATOM      3  C   UNL     1       3.422 127.270 117.182  1.00  0.00     0.000 C 
BRANCH   3   4
ATOM      4  C   UNL     1       3.702 128.759 117.455  1.00  0.00     0.000 C 
BRANCH   4   5
ATOM      5  C   UNL     1       2.791 129.682 116.633  1.00  0.00     0.000 C 
BRANCH   5   6
ATOM      6  C   UNL     1       1.347 129.149 116.492  1.00  0.00     0.000 C 
BRANCH   6   7
ATOM      7  C   UNL     1       0.708 129.563 115.157  1.00  0.00     0.000 C 
BRANCH   7   8
ATOM      8  C   UNL     1       1.679 130.363 114.262  1.00  0.00     0.000 C 
BRANCH   8   9
ATOM      9  C   UNL     1       1.887 129.741 112.867  1.00  0.00     0.000 C 
BRANCH   9  10
ATOM     10  C   UNL     1       3.335 129.323 112.554  1.00  0.00     0.000 C 
BRANCH  10  11
ATOM     11  C   UNL     1       4.417 130.198 113.215  1.00  0.00     0.000 C 
BRANCH  11  12
ATOM     12  C   UNL     1       5.666 129.406 113.663  1.00  0.00     0.006 C 
BRANCH  12  13
ATOM     13  C   UNL     1       6.188 129.818 115.048  1.00  0.00     0.053 C 
BRANCH  13  14
ATOM     14  C   UNL     1       7.374 130.730 114.951  1.00  0.00     0.041 C 
ATOM     15  O   UNL     1       7.663 131.495 115.908  1.00  0.00    -0.550 OA
ATOM     16  O   UNL     1       8.164 130.728 113.806  1.00  0.00    -0.550 OA
ENDBRANCH  13  14
ENDBRANCH  12  13
ENDBRANCH  11  12
ENDBRANCH  10  11
ENDBRANCH   9  10
ENDBRANCH   8   9
ENDBRANCH   7   8
ENDBRANCH   6   7
ENDBRANCH   5   6
ENDBRANCH   4   5
ENDBRANCH   3   4
ENDBRANCH   2   3
ENDBRANCH   1   2
BRANCH   1  17
ATOM     17  C   UNL     1       2.155 125.942 114.910  1.00  0.00     0.000 C 
BRANCH  17  18
ATOM     18  C   UNL     1       1.237 126.232 113.706  1.00  0.00     0.000 C 
BRANCH  18  19
ATOM     19  C   UNL     1       1.551 125.347 112.482  1.00  0.00     0.000 C 
BRANCH  19  20
ATOM     20  C   UNL     1       2.009 126.128 111.233  1.00  0.00     0.000 C 
BRANCH  20  21
ATOM     21  C   UNL     1       3.321 125.640 110.594  1.00  0.00     0.000 C 
BRANCH  21  22
ATOM     22  C   UNL     1       4.609 126.075 111.322  1.00  0.00    -0.000 C 
BRANCH  22  23
ATOM     23  C   UNL     1       5.430 124.901 111.899  1.00  0.00    -0.000 C 
BRANCH  23  24
ATOM     24  C   UNL     1       4.739 123.540 111.695  1.00  0.00    -0.000 C 
BRANCH  24  25
ATOM     25  C   UNL     1       4.783 122.662 112.955  1.00  0.00    -0.000 C 
BRANCH  25  26
ATOM     26  C   UNL     1       3.407 122.525 113.630  1.00  0.00    -0.000 C 
BRANCH  26  27
ATOM     27  C   UNL     1       3.484 122.573 115.165  1.00  0.00    -0.000 C 
BRANCH  27  28
ATOM     28  C   UNL     1       4.836 123.085 115.704  1.00  0.00    -0.000 C 
BRANCH  28  29
ATOM     29  C   UNL     1       5.476 122.105 116.699  1.00  0.00    -0.003 C 
ATOM     30  C   UNL     1       6.956 122.417 116.904  1.00  0.00     0.004 C 
ENDBRANCH  28  29
ENDBRANCH  27  28
ENDBRANCH  26  27
ENDBRANCH  25  26
ENDBRANCH  24  25
ENDBRANCH  23  24
ENDBRANCH  22  23
ENDBRANCH  21  22
ENDBRANCH  20  21
ENDBRANCH  19  20
ENDBRANCH  18  19
ENDBRANCH  17  18
ENDBRANCH   1  17
TORSDOF 26
ENDMDL
MODEL 6
REMARK VINA RESULT:    -3.806      2.628      7.410
REMARK INTER + INTRA:         -14.254
REMARK INTER:                  -9.608
REMARK INTRA:                  -4.646
REMARK UNBOUND:                -4.664
REMARK SMILES CCCCCCCCCCCCCCCCCCCCCCCCCCCC(=O)[O-]
REMARK SMILES IDX 15 1 16 2 17 3 18 4 19 5 20 6 21 7 22 8 23 9 24 10 25 11
REMARK SMILES IDX 26 12 27 13 28 14 29 15 30 16 14 17 13 18 12 19 11 20 10 21
REMARK SMILES IDX 9 22 8 23 7 24 6 25 5 26 4 27 3 28 2 29 1 30
REMARK H PARENT
REMARK Flexibility Score: inf
ROOT
ATOM      1  C   UNL     1       2.708 127.438 114.103  1.00  0.00     0.000 C 
ENDROOT
BRANCH   1   2
ATOM      2  C   UNL     1       1.833 128.661 114.441  1.00  0.00     0.000 C 
BRANCH   2   3
ATOM      3  C   UNL     1       0.486 128.648 113.701  1.00  0.00     0.000 C 
BRANCH   3   4
ATOM      4  C   UNL     1       0.647 128.467 112.181  1.00  0.00     0.000 C 
BRANCH   4   5
ATOM      5  C   UNL     1       1.625 129.485 111.575  1.00  0.00     0.000 C 
BRANCH   5   6
ATOM      6  C   UNL     1       2.590 128.864 110.540  1.00  0.00     0.000 C 
BRANCH   6   7
ATOM      7  C   UNL     1       2.273 127.384 110.274  1.00  0.00     0.000 C 
BRANCH   7   8
ATOM      8  C   UNL     1       3.501 126.471 110.488  1.00  0.00     0.000 C 
BRANCH   8   9
ATOM      9  C   UNL     1       3.143 124.976 110.608  1.00  0.00     0.000 C 
BRANCH   9  10
ATOM     10  C   UNL     1       2.765 124.513 112.027  1.00  0.00     0.000 C 
BRANCH  10  11
ATOM     11  C   UNL     1       3.960 124.151 112.929  1.00  0.00     0.000 C 
BRANCH  11  12
ATOM     12  C   UNL     1       5.166 123.570 112.156  1.00  0.00     0.006 C 
BRANCH  12  13
ATOM     13  C   UNL     1       6.483 124.312 112.431  1.00  0.00     0.053 C 
BRANCH  13  14
ATOM     14  C   UNL     1       6.959 125.073 111.232  1.00  0.00     0.041 C 
ATOM     15  O   UNL     1       6.762 124.618 110.074  1.00  0.00    -0.550 OA
ATOM     16  O   UNL     1       7.615 126.289 111.393  1.00  0.00    -0.550 OA
ENDBRANCH  13  14
ENDBRANCH  12  13
ENDBRANCH  11  12
ENDBRANCH  10  11
ENDBRANCH   9  10
ENDBRANCH   8   9
ENDBRANCH   7   8
ENDBRANCH   6   7
ENDBRANCH   5   6
ENDBRANCH   4   5
ENDBRANCH   3   4
ENDBRANCH   2   3
ENDBRANCH   1   2
BRANCH   1  17
ATOM     17  C   UNL     1       4.166 127.602 114.560  1.00  0.00     0.000 C 
BRANCH  17  18
ATOM     18  C   UNL     1       5.148 127.715 113.377  1.00  0.00     0.000 C 
BRANCH  18  19
ATOM     19  C   UNL     1       5.745 129.130 113.222  1.00  0.00     0.000 C 
BRANCH  19  20
ATOM     20  C   UNL     1       4.776 130.273 113.587  1.00  0.00     0.000 C 
BRANCH  20  21
ATOM     21  C   UNL     1       5.225 131.172 114.753  1.00  0.00     0.000 C 
BRANCH  21  22
ATOM     22  C   UNL     1       6.202 130.517 115.751  1.00  0.00    -0.000 C 
BRANCH  22  23
ATOM     23  C   UNL     1       5.578 130.211 117.130  1.00  0.00    -0.000 C 
BRANCH  23  24
ATOM     24  C   UNL     1       4.044 130.099 117.074  1.00  0.00    -0.000 C 
BRANCH  24  25
ATOM     25  C   UNL     1       3.348 131.021 118.087  1.00  0.00    -0.000 C 
BRANCH  25  26
ATOM     26  C   UNL     1       2.870 132.341 117.455  1.00  0.00    -0.000 C 
BRANCH  26  27
ATOM     27  C   UNL     1       3.992 133.384 117.325  1.00  0.00    -0.000 C 
BRANCH  27  28
ATOM     28  C   UNL     1       3.480 134.824 117.107  1.00  0.00    -0.000 C 
BRANCH  28  29
ATOM     29  C   UNL     1       4.243 135.551 115.989  1.00  0.00    -0.003 C 
ATOM     30  C   UNL     1       5.661 135.004 115.844  1.00  0.00     0.004 C 
ENDBRANCH  28  29
ENDBRANCH  27  28
ENDBRANCH  26  27
ENDBRANCH  25  26
ENDBRANCH  24  25
ENDBRANCH  23  24
ENDBRANCH  22  23
ENDBRANCH  21  22
ENDBRANCH  20  21
ENDBRANCH  19  20
ENDBRANCH  18  19
ENDBRANCH  17  18
ENDBRANCH   1  17
TORSDOF 26
ENDMDL
MODEL 7
REMARK VINA RESULT:    -3.764      2.632      6.394
REMARK INTER + INTRA:         -14.148
REMARK INTER:                  -8.069
REMARK INTRA:                  -6.079
REMARK UNBOUND:                -4.664
REMARK SMILES CCCCCCCCCCCCCCCCCCCCCCCCCCCC(=O)[O-]
REMARK SMILES IDX 15 1 16 2 17 3 18 4 19 5 20 6 21 7 22 8 23 9 24 10 25 11
REMARK SMILES IDX 26 12 27 13 28 14 29 15 30 16 14 17 13 18 12 19 11 20 10 21
REMARK SMILES IDX 9 22 8 23 7 24 6 25 5 26 4 27 3 28 2 29 1 30
REMARK H PARENT
REMARK Flexibility Score: inf
ROOT
ATOM      1  C   UNL     1       4.714 127.513 117.945  1.00  0.00     0.000 C 
ENDROOT
BRANCH   1   2
ATOM      2  C   UNL     1       5.666 126.362 117.567  1.00  0.00     0.000 C 
BRANCH   2   3
ATOM      3  C   UNL     1       6.146 126.445 116.109  1.00  0.00     0.000 C 
BRANCH   3   4
ATOM      4  C   UNL     1       5.518 127.624 115.345  1.00  0.00     0.000 C 
BRANCH   4   5
ATOM      5  C   UNL     1       4.962 127.201 113.977  1.00  0.00     0.000 C 
BRANCH   5   6
ATOM      6  C   UNL     1       4.211 128.336 113.245  1.00  0.00     0.000 C 
BRANCH   6   7
ATOM      7  C   UNL     1       3.475 127.827 111.996  1.00  0.00     0.000 C 
BRANCH   7   8
ATOM      8  C   UNL     1       2.361 126.813 112.340  1.00  0.00     0.000 C 
BRANCH   8   9
ATOM      9  C   UNL     1       2.502 125.469 111.598  1.00  0.00     0.000 C 
BRANCH   9  10
ATOM     10  C   UNL     1       3.637 125.419 110.559  1.00  0.00     0.000 C 
BRANCH  10  11
ATOM     11  C   UNL     1       4.822 124.512 110.939  1.00  0.00     0.000 C 
BRANCH  11  12
ATOM     12  C   UNL     1       6.172 125.260 111.029  1.00  0.00     0.006 C 
BRANCH  12  13
ATOM     13  C   UNL     1       6.945 124.973 112.325  1.00  0.00     0.053 C 
BRANCH  13  14
ATOM     14  C   UNL     1       8.184 124.170 112.072  1.00  0.00     0.041 C 
ATOM     15  O   UNL     1       8.392 123.107 112.715  1.00  0.00    -0.550 OA
ATOM     16  O   UNL     1       9.106 124.592 111.121  1.00  0.00    -0.550 OA
ENDBRANCH  13  14
ENDBRANCH  12  13
ENDBRANCH  11  12
ENDBRANCH  10  11
ENDBRANCH   9  10
ENDBRANCH   8   9
ENDBRANCH   7   8
ENDBRANCH   6   7
ENDBRANCH   5   6
ENDBRANCH   4   5
ENDBRANCH   3   4
ENDBRANCH   2   3
ENDBRANCH   1   2
BRANCH   1  17
ATOM     17  C   UNL     1       3.416 127.022 118.604  1.00  0.00     0.000 C 
BRANCH  17  18
ATOM     18  C   UNL     1       2.156 127.644 117.969  1.00  0.00     0.000 C 
BRANCH  18  19
ATOM     19  C   UNL     1       2.095 127.452 116.438  1.00  0.00     0.000 C 
BRANCH  19  20
ATOM     20  C   UNL     1       1.531 126.089 115.990  1.00  0.00     0.000 C 
BRANCH  20  21
ATOM     21  C   UNL     1       2.572 125.078 115.480  1.00  0.00     0.000 C 
BRANCH  21  22
ATOM     22  C   UNL     1       2.982 123.988 116.492  1.00  0.00    -0.000 C 
BRANCH  22  23
ATOM     23  C   UNL     1       4.144 123.092 116.012  1.00  0.00    -0.000 C 
BRANCH  23  24
ATOM     24  C   UNL     1       4.554 123.383 114.557  1.00  0.00    -0.000 C 
BRANCH  24  25
ATOM     25  C   UNL     1       3.941 122.386 113.561  1.00  0.00    -0.000 C 
BRANCH  25  26
ATOM     26  C   UNL     1       3.522 121.064 114.228  1.00  0.00    -0.000 C 
BRANCH  26  27
ATOM     27  C   UNL     1       2.018 120.775 114.096  1.00  0.00    -0.000 C 
BRANCH  27  28
ATOM     28  C   UNL     1       1.173 122.022 113.759  1.00  0.00    -0.000 C 
BRANCH  28  29
ATOM     29  C   UNL     1       0.130 122.331 114.844  1.00  0.00    -0.003 C 
ATOM     30  C   UNL     1       0.278 121.386 116.035  1.00  0.00     0.004 C 
ENDBRANCH  28  29
ENDBRANCH  27  28
ENDBRANCH  26  27
ENDBRANCH  25  26
ENDBRANCH  24  25
ENDBRANCH  23  24
ENDBRANCH  22  23
ENDBRANCH  21  22
ENDBRANCH  20  21
ENDBRANCH  19  20
ENDBRANCH  18  19
ENDBRANCH  17  18
ENDBRANCH   1  17
TORSDOF 26
ENDMDL
MODEL 8
REMARK VINA RESULT:    -3.761      1.976      5.523
REMARK INTER + INTRA:         -14.140
REMARK INTER:                  -8.519
REMARK INTRA:                  -5.622
REMARK UNBOUND:                -4.664
REMARK SMILES CCCCCCCCCCCCCCCCCCCCCCCCCCCC(=O)[O-]
REMARK SMILES IDX 15 1 16 2 17 3 18 4 19 5 20 6 21 7 22 8 23 9 24 10 25 11
REMARK SMILES IDX 26 12 27 13 28 14 29 15 30 16 14 17 13 18 12 19 11 20 10 21
REMARK SMILES IDX 9 22 8 23 7 24 6 25 5 26 4 27 3 28 2 29 1 30
REMARK H PARENT
REMARK Flexibility Score: inf
ROOT
ATOM      1  C   UNL     1       3.358 124.894 111.093  1.00  0.00     0.000 C 
ENDROOT
BRANCH   1   2
ATOM      2  C   UNL     1       2.288 126.003 111.082  1.00  0.00     0.000 C 
BRANCH   2   3
ATOM      3  C   UNL     1       2.583 127.101 110.048  1.00  0.00     0.000 C 
BRANCH   3   4
ATOM      4  C   UNL     1       1.747 128.372 110.280  1.00  0.00     0.000 C 
BRANCH   4   5
ATOM      5  C   UNL     1       0.545 128.117 111.202  1.00  0.00     0.000 C 
BRANCH   5   6
ATOM      6  C   UNL     1       0.537 129.019 112.457  1.00  0.00     0.000 C 
BRANCH   6   7
ATOM      7  C   UNL     1       0.842 128.226 113.738  1.00  0.00     0.000 C 
BRANCH   7   8
ATOM      8  C   UNL     1       2.130 128.713 114.439  1.00  0.00     0.000 C 
BRANCH   8   9
ATOM      9  C   UNL     1       3.388 127.916 114.039  1.00  0.00     0.000 C 
BRANCH   9  10
ATOM     10  C   UNL     1       4.222 128.548 112.910  1.00  0.00     0.000 C 
BRANCH  10  11
ATOM     11  C   UNL     1       5.697 128.815 113.268  1.00  0.00     0.000 C 
BRANCH  11  12
ATOM     12  C   UNL     1       5.893 129.997 114.245  1.00  0.00     0.006 C 
BRANCH  12  13
ATOM     13  C   UNL     1       6.268 129.557 115.669  1.00  0.00     0.053 C 
BRANCH  13  14
ATOM     14  C   UNL     1       5.431 130.242 116.706  1.00  0.00     0.041 C 
ATOM     15  O   UNL     1       4.338 130.777 116.385  1.00  0.00    -0.550 OA
ATOM     16  O   UNL     1       5.857 130.283 118.029  1.00  0.00    -0.550 OA
ENDBRANCH  13  14
ENDBRANCH  12  13
ENDBRANCH  11  12
ENDBRANCH  10  11
ENDBRANCH   9  10
ENDBRANCH   8   9
ENDBRANCH   7   8
ENDBRANCH   6   7
ENDBRANCH   5   6
ENDBRANCH   4   5
ENDBRANCH   3   4
ENDBRANCH   2   3
ENDBRANCH   1   2
BRANCH   1  17
ATOM     17  C   UNL     1       4.610 125.264 110.283  1.00  0.00     0.000 C 
BRANCH  17  18
ATOM     18  C   UNL     1       5.807 125.638 111.179  1.00  0.00     0.000 C 
BRANCH  18  19
ATOM     19  C   UNL     1       6.095 124.584 112.270  1.00  0.00     0.000 C 
BRANCH  19  20
ATOM     20  C   UNL     1       5.945 125.106 113.713  1.00  0.00     0.000 C 
BRANCH  20  21
ATOM     21  C   UNL     1       4.773 124.509 114.512  1.00  0.00     0.000 C 
BRANCH  21  22
ATOM     22  C   UNL     1       5.150 123.370 115.481  1.00  0.00    -0.000 C 
BRANCH  22  23
ATOM     23  C   UNL     1       4.402 122.045 115.214  1.00  0.00    -0.000 C 
BRANCH  23  24
ATOM     24  C   UNL     1       3.741 122.011 113.824  1.00  0.00    -0.000 C 
BRANCH  24  25
ATOM     25  C   UNL     1       2.468 121.149 113.798  1.00  0.00    -0.000 C 
BRANCH  25  26
ATOM     26  C   UNL     1       1.201 121.955 114.133  1.00  0.00    -0.000 C 
BRANCH  26  27
ATOM     27  C   UNL     1       1.083 123.254 113.318  1.00  0.00    -0.000 C 
BRANCH  27  28
ATOM     28  C   UNL     1       0.777 124.500 114.175  1.00  0.00    -0.000 C 
BRANCH  28  29
ATOM     29  C   UNL     1       1.364 124.393 115.591  1.00  0.00    -0.003 C 
ATOM     30  C   UNL     1       0.987 125.607 116.436  1.00  0.00     0.004 C 
ENDBRANCH  28  29
ENDBRANCH  27  28
ENDBRANCH  26  27
ENDBRANCH  25  26
ENDBRANCH  24  25
ENDBRANCH  23  24
ENDBRANCH  22  23
ENDBRANCH  21  22
ENDBRANCH  20  21
ENDBRANCH  19  20
ENDBRANCH  18  19
ENDBRANCH  17  18
ENDBRANCH   1  17
TORSDOF 26
ENDMDL
MODEL 9
REMARK VINA RESULT:    -3.749      1.811      4.999
REMARK INTER + INTRA:         -14.110
REMARK INTER:                  -8.556
REMARK INTRA:                  -5.554
REMARK UNBOUND:                -4.664
REMARK SMILES CCCCCCCCCCCCCCCCCCCCCCCCCCCC(=O)[O-]
REMARK SMILES IDX 15 1 16 2 17 3 18 4 19 5 20 6 21 7 22 8 23 9 24 10 25 11
REMARK SMILES IDX 26 12 27 13 28 14 29 15 30 16 14 17 13 18 12 19 11 20 10 21
REMARK SMILES IDX 9 22 8 23 7 24 6 25 5 26 4 27 3 28 2 29 1 30
REMARK H PARENT
REMARK Flexibility Score: inf
ROOT
ATOM      1  C   UNL     1       3.368 124.838 110.597  1.00  0.00     0.000 C 
ENDROOT
BRANCH   1   2
ATOM      2  C   UNL     1       2.365 125.937 110.998  1.00  0.00     0.000 C 
BRANCH   2   3
ATOM      3  C   UNL     1       2.792 127.333 110.518  1.00  0.00     0.000 C 
BRANCH   3   4
ATOM      4  C   UNL     1       2.801 128.372 111.654  1.00  0.00     0.000 C 
BRANCH   4   5
ATOM      5  C   UNL     1       1.564 129.282 111.619  1.00  0.00     0.000 C 
BRANCH   5   6
ATOM      6  C   UNL     1       0.684 129.165 112.885  1.00  0.00     0.000 C 
BRANCH   6   7
ATOM      7  C   UNL     1       1.136 128.012 113.795  1.00  0.00     0.000 C 
BRANCH   7   8
ATOM      8  C   UNL     1       0.764 128.251 115.276  1.00  0.00     0.000 C 
BRANCH   8   9
ATOM      9  C   UNL     1       1.983 128.502 116.185  1.00  0.00     0.000 C 
BRANCH   9  10
ATOM     10  C   UNL     1       2.682 129.857 115.970  1.00  0.00     0.000 C 
BRANCH  10  11
ATOM     11  C   UNL     1       4.136 129.762 115.469  1.00  0.00     0.000 C 
BRANCH  11  12
ATOM     12  C   UNL     1       4.406 130.585 114.189  1.00  0.00     0.006 C 
BRANCH  12  13
ATOM     13  C   UNL     1       5.636 130.108 113.403  1.00  0.00     0.053 C 
BRANCH  13  14
ATOM     14  C   UNL     1       6.905 130.703 113.933  1.00  0.00     0.041 C 
ATOM     15  O   UNL     1       6.883 131.430 114.960  1.00  0.00    -0.550 OA
ATOM     16  O   UNL     1       8.114 130.447 113.295  1.00  0.00    -0.550 OA
ENDBRANCH  13  14
ENDBRANCH  12  13
ENDBRANCH  11  12
ENDBRANCH  10  11
ENDBRANCH   9  10
ENDBRANCH   8   9
ENDBRANCH   7   8
ENDBRANCH   6   7
ENDBRANCH   5   6
ENDBRANCH   4   5
ENDBRANCH   3   4
ENDBRANCH   2   3
ENDBRANCH   1   2
BRANCH   1  17
ATOM     17  C   UNL     1       4.830 125.300 110.696  1.00  0.00     0.000 C 
BRANCH  17  18
ATOM     18  C   UNL     1       5.678 124.392 111.609  1.00  0.00     0.000 C 
BRANCH  18  19
ATOM     19  C   UNL     1       5.030 123.014 111.859  1.00  0.00     0.000 C 
BRANCH  19  20
ATOM     20  C   UNL     1       4.685 122.731 113.335  1.00  0.00     0.000 C 
BRANCH  20  21
ATOM     21  C   UNL     1       3.185 122.755 113.679  1.00  0.00     0.000 C 
BRANCH  21  22
ATOM     22  C   UNL     1       2.653 124.103 114.208  1.00  0.00    -0.000 C 
BRANCH  22  23
ATOM     23  C   UNL     1       3.675 124.891 115.057  1.00  0.00    -0.000 C 
BRANCH  23  24
ATOM     24  C   UNL     1       4.154 126.178 114.362  1.00  0.00    -0.000 C 
BRANCH  24  25
ATOM     25  C   UNL     1       5.620 126.511 114.680  1.00  0.00    -0.000 C 
BRANCH  25  26
ATOM     26  C   UNL     1       5.862 126.739 116.183  1.00  0.00    -0.000 C 
BRANCH  26  27
ATOM     27  C   UNL     1       6.992 125.862 116.748  1.00  0.00    -0.000 C 
BRANCH  27  28
ATOM     28  C   UNL     1       6.509 124.794 117.752  1.00  0.00    -0.000 C 
BRANCH  28  29
ATOM     29  C   UNL     1       6.897 123.371 117.322  1.00  0.00    -0.003 C 
ATOM     30  C   UNL     1       7.264 123.325 115.840  1.00  0.00     0.004 C 
ENDBRANCH  28  29
ENDBRANCH  27  28
ENDBRANCH  26  27
ENDBRANCH  25  26
ENDBRANCH  24  25
ENDBRANCH  23  24
ENDBRANCH  22  23
ENDBRANCH  21  22
ENDBRANCH  20  21
ENDBRANCH  19  20
ENDBRANCH  18  19
ENDBRANCH  17  18
ENDBRANCH   1  17
TORSDOF 26
ENDMDL
