MODEL 1
REMARK VINA RESULT:    -5.289      0.000      0.000
REMARK INTER + INTRA:          -6.024
REMARK INTER:                  -5.598
REMARK INTRA:                  -0.426
REMARK UNBOUND:                -0.426
REMARK SMILES CC1=CC[C@@H]2[C@H]3[C@H](C(C)C)CC[C@]2(C)[C@@H]13
REMARK SMILES IDX 1 1 2 2 3 3 4 4 5 5 6 6 15 7 13 8 12 9 11 10 7 11 14 12 8 13
REMARK SMILES IDX 9 14 10 15
REMARK H PARENT
REMARK Flexibility Score: inf
ROOT
ATOM      1  C   UNL     1     168.303 166.424 199.714  1.00  0.00     0.039 C 
ATOM      2  C   UNL     1     167.809 167.777 199.297  1.00  0.00    -0.073 C 
ATOM      3  C   UNL     1     168.671 168.749 198.900  1.00  0.00    -0.027 C 
ATOM      4  C   UNL     1     168.107 170.107 198.466  1.00  0.00     0.031 C 
ATOM      5  C   UNL     1     166.550 170.120 198.610  1.00  0.00     0.003 C 
ATOM      6  C   UNL     1     166.205 169.525 199.994  1.00  0.00     0.004 C 
ATOM      7  C   UNL     1     166.320 168.133 199.319  1.00  0.00     0.024 C 
ATOM      8  C   UNL     1     165.913 168.845 198.006  1.00  0.00    -0.022 C 
ATOM      9  C   UNL     1     164.365 169.031 197.941  1.00  0.00     0.008 C 
ATOM     10  C   UNL     1     163.733 169.248 199.342  1.00  0.00     0.005 C 
ATOM     11  C   UNL     1     164.733 169.880 200.361  1.00  0.00    -0.005 C 
ATOM     12  C   UNL     1     166.461 168.305 196.664  1.00  0.00     0.012 C 
ENDROOT
BRANCH  11  13
ATOM     13  C   UNL     1     164.405 169.578 201.854  1.00  0.00    -0.014 C 
ATOM     14  C   UNL     1     165.645 169.413 202.751  1.00  0.00     0.007 C 
ATOM     15  C   UNL     1     163.479 168.361 201.995  1.00  0.00     0.007 C 
ENDBRANCH  11  13
TORSDOF 1
ENDMDL
MODEL 2
REMARK VINA RESULT:    -5.283      4.657      6.917
REMARK INTER + INTRA:          -6.018
REMARK INTER:                  -5.591
REMARK INTRA:                  -0.427
REMARK UNBOUND:                -0.426
REMARK SMILES CC1=CC[C@@H]2[C@H]3[C@H](C(C)C)CC[C@]2(C)[C@@H]13
REMARK SMILES IDX 1 1 2 2 3 3 4 4 5 5 6 6 15 7 13 8 12 9 11 10 7 11 14 12 8 13
REMARK SMILES IDX 9 14 10 15
REMARK H PARENT
REMARK Flexibility Score: inf
ROOT
ATOM      1  C   UNL     1     163.757 165.626 199.620  1.00  0.00     0.039 C 
ATOM      2  C   UNL     1     164.215 164.252 199.232  1.00  0.00    -0.073 C 
ATOM      3  C   UNL     1     163.328 163.290 198.868  1.00  0.00    -0.027 C 
ATOM      4  C   UNL     1     163.856 161.910 198.463  1.00  0.00     0.031 C 
ATOM      5  C   UNL     1     165.414 161.865 198.590  1.00  0.00     0.003 C 
ATOM      6  C   UNL     1     165.788 162.487 199.956  1.00  0.00     0.004 C 
ATOM      7  C   UNL     1     165.696 163.864 199.247  1.00  0.00     0.024 C 
ATOM      8  C   UNL     1     166.073 163.110 197.948  1.00  0.00    -0.022 C 
ATOM      9  C   UNL     1     167.616 162.888 197.871  1.00  0.00     0.008 C 
ATOM     10  C   UNL     1     168.258 162.691 199.271  1.00  0.00     0.005 C 
ATOM     11  C   UNL     1     167.256 162.108 200.316  1.00  0.00    -0.005 C 
ATOM     12  C   UNL     1     165.522 163.629 196.599  1.00  0.00     0.012 C 
ENDROOT
BRANCH  11  13
ATOM     13  C   UNL     1     167.607 162.440 201.797  1.00  0.00    -0.014 C 
ATOM     14  C   UNL     1     166.381 162.621 202.710  1.00  0.00     0.007 C 
ATOM     15  C   UNL     1     168.533 163.660 201.900  1.00  0.00     0.007 C 
ENDBRANCH  11  13
TORSDOF 1
ENDMDL
MODEL 3
REMARK VINA RESULT:    -5.273      4.325      6.592
REMARK INTER + INTRA:          -6.008
REMARK INTER:                  -5.587
REMARK INTRA:                  -0.421
REMARK UNBOUND:                -0.426
REMARK SMILES CC1=CC[C@@H]2[C@H]3[C@H](C(C)C)CC[C@]2(C)[C@@H]13
REMARK SMILES IDX 1 1 2 2 3 3 4 4 5 5 6 6 15 7 13 8 12 9 11 10 7 11 14 12 8 13
REMARK SMILES IDX 9 14 10 15
REMARK H PARENT
REMARK Flexibility Score: inf
ROOT
ATOM      1  C   UNL     1     165.169 167.145 199.785  1.00  0.00     0.039 C 
ATOM      2  C   UNL     1     164.631 165.842 200.298  1.00  0.00    -0.073 C 
ATOM      3  C   UNL     1     163.808 165.796 201.378  1.00  0.00    -0.027 C 
ATOM      4  C   UNL     1     163.275 164.438 201.845  1.00  0.00     0.031 C 
ATOM      5  C   UNL     1     163.849 163.290 200.950  1.00  0.00     0.003 C 
ATOM      6  C   UNL     1     165.369 163.535 200.798  1.00  0.00     0.004 C 
ATOM      7  C   UNL     1     165.000 164.507 199.646  1.00  0.00     0.024 C 
ATOM      8  C   UNL     1     163.737 163.634 199.444  1.00  0.00    -0.022 C 
ATOM      9  C   UNL     1     164.078 162.363 198.605  1.00  0.00     0.008 C 
ATOM     10  C   UNL     1     165.521 161.852 198.860  1.00  0.00     0.005 C 
ATOM     11  C   UNL     1     166.055 162.238 200.275  1.00  0.00    -0.005 C 
ATOM     12  C   UNL     1     162.441 164.304 198.930  1.00  0.00     0.012 C 
ENDROOT
BRANCH  11  13
ATOM     13  C   UNL     1     167.608 162.306 200.379  1.00  0.00    -0.014 C 
ATOM     14  C   UNL     1     168.125 163.246 201.483  1.00  0.00     0.007 C 
ATOM     15  C   UNL     1     168.251 162.663 199.031  1.00  0.00     0.007 C 
ENDBRANCH  11  13
TORSDOF 1
ENDMDL
MODEL 4
REMARK VINA RESULT:    -5.272      2.696      5.240
REMARK INTER + INTRA:          -6.006
REMARK INTER:                  -5.579
REMARK INTRA:                  -0.427
REMARK UNBOUND:                -0.426
REMARK SMILES CC1=CC[C@@H]2[C@H]3[C@H](C(C)C)CC[C@]2(C)[C@@H]13
REMARK SMILES IDX 1 1 2 2 3 3 4 4 5 5 6 6 15 7 13 8 12 9 11 10 7 11 14 12 8 13
REMARK SMILES IDX 9 14 10 15
REMARK H PARENT
REMARK Flexibility Score: inf
ROOT
ATOM      1  C   UNL     1     166.125 167.112 197.387  1.00  0.00     0.039 C 
ATOM      2  C   UNL     1     167.466 167.269 198.039  1.00  0.00    -0.073 C 
ATOM      3  C   UNL     1     168.452 167.999 197.455  1.00  0.00    -0.027 C 
ATOM      4  C   UNL     1     169.796 168.140 198.176  1.00  0.00     0.031 C 
ATOM      5  C   UNL     1     169.781 167.333 199.516  1.00  0.00     0.003 C 
ATOM      6  C   UNL     1     169.187 165.938 199.213  1.00  0.00     0.004 C 
ATOM      7  C   UNL     1     167.794 166.600 199.376  1.00  0.00     0.024 C 
ATOM      8  C   UNL     1     168.491 167.603 200.328  1.00  0.00    -0.022 C 
ATOM      9  C   UNL     1     168.648 166.987 201.753  1.00  0.00     0.008 C 
ATOM     10  C   UNL     1     168.861 165.450 201.716  1.00  0.00     0.005 C 
ATOM     11  C   UNL     1     169.517 164.966 200.385  1.00  0.00    -0.005 C 
ATOM     12  C   UNL     1     167.954 169.051 200.409  1.00  0.00     0.012 C 
ENDROOT
BRANCH  11  13
ATOM     13  C   UNL     1     169.217 163.480 200.024  1.00  0.00    -0.014 C 
ATOM     14  C   UNL     1     169.108 163.208 198.513  1.00  0.00     0.007 C 
ATOM     15  C   UNL     1     167.967 162.962 200.751  1.00  0.00     0.007 C 
ENDBRANCH  11  13
TORSDOF 1
ENDMDL
MODEL 5
REMARK VINA RESULT:    -5.271      1.306      2.802
REMARK INTER + INTRA:          -6.005
REMARK INTER:                  -5.585
REMARK INTRA:                  -0.419
REMARK UNBOUND:                -0.426
REMARK SMILES CC1=CC[C@@H]2[C@H]3[C@H](C(C)C)CC[C@]2(C)[C@@H]13
REMARK SMILES IDX 1 1 2 2 3 3 4 4 5 5 6 6 15 7 13 8 12 9 11 10 7 11 14 12 8 13
REMARK SMILES IDX 9 14 10 15
REMARK H PARENT
REMARK Flexibility Score: inf
ROOT
ATOM      1  C   UNL     1     166.819 164.855 199.786  1.00  0.00     0.039 C 
ATOM      2  C   UNL     1     167.351 166.155 200.310  1.00  0.00    -0.073 C 
ATOM      3  C   UNL     1     168.158 166.197 201.402  1.00  0.00    -0.027 C 
ATOM      4  C   UNL     1     168.686 167.553 201.881  1.00  0.00     0.031 C 
ATOM      5  C   UNL     1     168.127 168.704 200.980  1.00  0.00     0.003 C 
ATOM      6  C   UNL     1     166.610 168.462 200.804  1.00  0.00     0.004 C 
ATOM      7  C   UNL     1     166.995 167.492 199.655  1.00  0.00     0.024 C 
ATOM      8  C   UNL     1     168.262 168.363 199.476  1.00  0.00    -0.022 C 
ATOM      9  C   UNL     1     167.937 169.637 198.635  1.00  0.00     0.008 C 
ATOM     10  C   UNL     1     166.491 170.150 198.868  1.00  0.00     0.005 C 
ATOM     11  C   UNL     1     165.934 169.762 200.274  1.00  0.00    -0.005 C 
ATOM     12  C   UNL     1     169.564 167.692 198.980  1.00  0.00     0.012 C 
ENDROOT
BRANCH  11  13
ATOM     13  C   UNL     1     164.380 169.696 200.354  1.00  0.00    -0.014 C 
ATOM     14  C   UNL     1     163.844 168.764 201.456  1.00  0.00     0.007 C 
ATOM     15  C   UNL     1     163.758 169.331 198.998  1.00  0.00     0.007 C 
ENDBRANCH  11  13
TORSDOF 1
ENDMDL
MODEL 6
REMARK VINA RESULT:    -5.249      3.580      5.176
REMARK INTER + INTRA:          -5.982
REMARK INTER:                  -5.555
REMARK INTRA:                  -0.427
REMARK UNBOUND:                -0.426
REMARK SMILES CC1=CC[C@@H]2[C@H]3[C@H](C(C)C)CC[C@]2(C)[C@@H]13
REMARK SMILES IDX 1 1 2 2 3 3 4 4 5 5 6 6 15 7 13 8 12 9 11 10 7 11 14 12 8 13
REMARK SMILES IDX 9 14 10 15
REMARK H PARENT
REMARK Flexibility Score: inf
ROOT
ATOM      1  C   UNL     1     166.024 164.881 197.561  1.00  0.00     0.039 C 
ATOM      2  C   UNL     1     164.662 164.769 198.179  1.00  0.00    -0.073 C 
ATOM      3  C   UNL     1     163.683 164.029 197.596  1.00  0.00    -0.027 C 
ATOM      4  C   UNL     1     162.316 163.938 198.283  1.00  0.00     0.031 C 
ATOM      5  C   UNL     1     162.304 164.799 199.588  1.00  0.00     0.003 C 
ATOM      6  C   UNL     1     162.927 166.172 199.245  1.00  0.00     0.004 C 
ATOM      7  C   UNL     1     164.305 165.498 199.477  1.00  0.00     0.024 C 
ATOM      8  C   UNL     1     163.566 164.546 200.448  1.00  0.00    -0.022 C 
ATOM      9  C   UNL     1     163.376 165.223 201.842  1.00  0.00     0.008 C 
ATOM     10  C   UNL     1     163.187 166.760 201.735  1.00  0.00     0.005 C 
ATOM     11  C   UNL     1     162.578 167.197 200.365  1.00  0.00    -0.005 C 
ATOM     12  C   UNL     1     164.078 163.095 200.605  1.00  0.00     0.012 C 
ENDROOT
BRANCH  11  13
ATOM     13  C   UNL     1     162.910 168.662 199.953  1.00  0.00    -0.014 C 
ATOM     14  C   UNL     1     163.077 168.867 198.436  1.00  0.00     0.007 C 
ATOM     15  C   UNL     1     164.140 169.196 200.702  1.00  0.00     0.007 C 
ENDBRANCH  11  13
TORSDOF 1
ENDMDL
MODEL 7
REMARK VINA RESULT:    -5.174      3.757      6.385
REMARK INTER + INTRA:          -5.902
REMARK INTER:                  -5.475
REMARK INTRA:                  -0.427
REMARK UNBOUND:                -0.426
REMARK SMILES CC1=CC[C@@H]2[C@H]3[C@H](C(C)C)CC[C@]2(C)[C@@H]13
REMARK SMILES IDX 1 1 2 2 3 3 4 4 5 5 6 6 15 7 13 8 12 9 11 10 7 11 14 12 8 13
REMARK SMILES IDX 9 14 10 15
REMARK H PARENT
REMARK Flexibility Score: inf
ROOT
ATOM      1  C   UNL     1     164.614 165.046 201.496  1.00  0.00     0.039 C 
ATOM      2  C   UNL     1     165.861 164.215 201.438  1.00  0.00    -0.073 C 
ATOM      3  C   UNL     1     166.148 163.307 202.407  1.00  0.00    -0.027 C 
ATOM      4  C   UNL     1     167.427 162.473 202.285  1.00  0.00     0.031 C 
ATOM      5  C   UNL     1     168.224 162.883 201.002  1.00  0.00     0.003 C 
ATOM      6  C   UNL     1     168.278 164.428 200.962  1.00  0.00     0.004 C 
ATOM      7  C   UNL     1     166.876 164.365 200.302  1.00  0.00     0.024 C 
ATOM      8  C   UNL     1     167.299 162.976 199.765  1.00  0.00    -0.022 C 
ATOM      9  C   UNL     1     168.177 163.127 198.483  1.00  0.00     0.008 C 
ATOM     10  C   UNL     1     169.049 164.410 198.509  1.00  0.00     0.005 C 
ATOM     11  C   UNL     1     169.381 164.883 199.960  1.00  0.00    -0.005 C 
ATOM     12  C   UNL     1     166.213 161.892 199.565  1.00  0.00     0.012 C 
ENDROOT
BRANCH  11  13
ATOM     13  C   UNL     1     169.701 166.403 200.083  1.00  0.00    -0.014 C 
ATOM     14  C   UNL     1     169.256 167.035 201.414  1.00  0.00     0.007 C 
ATOM     15  C   UNL     1     169.134 167.199 198.898  1.00  0.00     0.007 C 
ENDBRANCH  11  13
TORSDOF 1
ENDMDL
MODEL 8
REMARK VINA RESULT:    -5.171      4.204      6.608
REMARK INTER + INTRA:          -5.899
REMARK INTER:                  -5.481
REMARK INTRA:                  -0.419
REMARK UNBOUND:                -0.426
REMARK SMILES CC1=CC[C@@H]2[C@H]3[C@H](C(C)C)CC[C@]2(C)[C@@H]13
REMARK SMILES IDX 1 1 2 2 3 3 4 4 5 5 6 6 15 7 13 8 12 9 11 10 7 11 14 12 8 13
REMARK SMILES IDX 9 14 10 15
REMARK H PARENT
REMARK Flexibility Score: inf
ROOT
ATOM      1  C   UNL     1     167.881 166.256 198.054  1.00  0.00     0.039 C 
ATOM      2  C   UNL     1     168.036 164.948 198.769  1.00  0.00    -0.073 C 
ATOM      3  C   UNL     1     169.242 164.327 198.847  1.00  0.00    -0.027 C 
ATOM      4  C   UNL     1     169.344 163.001 199.607  1.00  0.00     0.031 C 
ATOM      5  C   UNL     1     167.941 162.575 200.151  1.00  0.00     0.003 C 
ATOM      6  C   UNL     1     166.923 162.752 199.000  1.00  0.00     0.004 C 
ATOM      7  C   UNL     1     166.846 164.243 199.425  1.00  0.00     0.024 C 
ATOM      8  C   UNL     1     167.219 163.756 200.847  1.00  0.00    -0.022 C 
ATOM      9  C   UNL     1     165.958 163.215 201.590  1.00  0.00     0.008 C 
ATOM     10  C   UNL     1     164.940 162.550 200.625  1.00  0.00     0.005 C 
ATOM     11  C   UNL     1     165.615 161.977 199.339  1.00  0.00    -0.005 C 
ATOM     12  C   UNL     1     168.042 164.691 201.764  1.00  0.00     0.012 C 
ENDROOT
BRANCH  11  13
ATOM     13  C   UNL     1     164.662 161.857 198.113  1.00  0.00    -0.014 C 
ATOM     14  C   UNL     1     165.318 162.220 196.768  1.00  0.00     0.007 C 
ATOM     15  C   UNL     1     163.375 162.670 198.314  1.00  0.00     0.007 C 
ENDBRANCH  11  13
TORSDOF 1
ENDMDL
MODEL 9
REMARK VINA RESULT:    -5.124      1.557      4.439
REMARK INTER + INTRA:          -5.850
REMARK INTER:                  -5.425
REMARK INTRA:                  -0.425
REMARK UNBOUND:                -0.426
REMARK SMILES CC1=CC[C@@H]2[C@H]3[C@H](C(C)C)CC[C@]2(C)[C@@H]13
REMARK SMILES IDX 1 1 2 2 3 3 4 4 5 5 6 6 15 7 13 8 12 9 11 10 7 11 14 12 8 13
REMARK SMILES IDX 9 14 10 15
REMARK H PARENT
REMARK Flexibility Score: inf
ROOT
ATOM      1  C   UNL     1     164.095 165.703 198.036  1.00  0.00     0.039 C 
ATOM      2  C   UNL     1     163.971 167.021 198.740  1.00  0.00    -0.073 C 
ATOM      3  C   UNL     1     162.778 167.665 198.825  1.00  0.00    -0.027 C 
ATOM      4  C   UNL     1     162.709 169.000 199.573  1.00  0.00     0.031 C 
ATOM      5  C   UNL     1     164.126 169.405 200.097  1.00  0.00     0.003 C 
ATOM      6  C   UNL     1     165.127 169.198 198.937  1.00  0.00     0.004 C 
ATOM      7  C   UNL     1     165.181 167.711 199.375  1.00  0.00     0.024 C 
ATOM      8  C   UNL     1     164.833 168.218 200.796  1.00  0.00    -0.022 C 
ATOM      9  C   UNL     1     166.113 168.743 201.519  1.00  0.00     0.008 C 
ATOM     10  C   UNL     1     167.132 169.380 200.537  1.00  0.00     0.005 C 
ATOM     11  C   UNL     1     166.453 169.953 199.253  1.00  0.00    -0.005 C 
ATOM     12  C   UNL     1     164.005 167.307 201.731  1.00  0.00     0.012 C 
ENDROOT
BRANCH  11  13
ATOM     13  C   UNL     1     167.393 170.043 198.014  1.00  0.00    -0.014 C 
ATOM     14  C   UNL     1     166.698 169.750 196.672  1.00  0.00     0.007 C 
ATOM     15  C   UNL     1     168.633 169.152 198.179  1.00  0.00     0.007 C 
ENDBRANCH  11  13
TORSDOF 1
ENDMDL
