MODEL 1
REMARK VINA RESULT:    -4.552      0.000      0.000
REMARK INTER + INTRA:          -5.263
REMARK INTER:                  -5.217
REMARK INTRA:                  -0.046
REMARK UNBOUND:                -0.046
REMARK SMILES O=C([O-])c1cc(O)c(O)c(O)c1
REMARK SMILES IDX 4 1 5 2 12 3 6 4 10 5 8 6 2 7 1 8 3 9 7 10 11 12 9 14
REMARK H PARENT 7 11 11 13 9 15
REMARK Flexibility Score: inf
ROOT
ATOM      1  C   UNL     1      17.403 -21.110  20.024  1.00  0.00     0.005 A 
ATOM      2  C   UNL     1      18.197 -19.980  19.781  1.00  0.00     0.060 A 
ATOM      3  C   UNL     1      16.564 -21.123  21.151  1.00  0.00     0.060 A 
ATOM      4  C   UNL     1      18.157 -18.880  20.647  1.00  0.00     0.162 A 
ATOM      5  C   UNL     1      16.514 -20.031  22.026  1.00  0.00     0.162 A 
ATOM      6  C   UNL     1      17.319 -18.895  21.772  1.00  0.00     0.200 A 
ENDROOT
BRANCH   1   7
ATOM      7  C   UNL     1      17.449 -22.269  19.105  1.00  0.00     0.072 C 
ATOM      8  O   UNL     1      18.498 -22.957  18.993  1.00  0.00    -0.545 OA
ATOM      9  O   UNL     1      16.333 -22.613  18.349  1.00  0.00    -0.545 OA
ENDBRANCH   1   7
BRANCH   4  10
ATOM     10  O   UNL     1      18.951 -17.763  20.397  1.00  0.00    -0.504 OA
ATOM     11  H   UNL     1      19.523 -17.693  19.564  1.00  0.00     0.293 HD
ENDBRANCH   4  10
BRANCH   5  12
ATOM     12  O   UNL     1      15.656 -20.116  23.125  1.00  0.00    -0.504 OA
ATOM     13  H   UNL     1      15.141 -19.335  23.503  1.00  0.00     0.293 HD
ENDBRANCH   5  12
BRANCH   6  14
ATOM     14  O   UNL     1      17.318 -17.772  22.603  1.00  0.00    -0.502 OA
ATOM     15  H   UNL     1      18.031 -17.058  22.591  1.00  0.00     0.293 HD
ENDBRANCH   6  14
TORSDOF 4
ENDMDL
MODEL 2
REMARK VINA RESULT:    -4.500      0.218      2.444
REMARK INTER + INTRA:          -5.203
REMARK INTER:                  -5.156
REMARK INTRA:                  -0.047
REMARK UNBOUND:                -0.046
REMARK SMILES O=C([O-])c1cc(O)c(O)c(O)c1
REMARK SMILES IDX 4 1 5 2 12 3 6 4 10 5 8 6 2 7 1 8 3 9 7 10 11 12 9 14
REMARK H PARENT 7 11 11 13 9 15
REMARK Flexibility Score: inf
ROOT
ATOM      1  C   UNL     1      17.307 -21.062  20.138  1.00  0.00     0.005 A 
ATOM      2  C   UNL     1      16.405 -21.047  21.211  1.00  0.00     0.060 A 
ATOM      3  C   UNL     1      18.132 -19.945  19.926  1.00  0.00     0.060 A 
ATOM      4  C   UNL     1      16.326 -19.936  22.061  1.00  0.00     0.162 A 
ATOM      5  C   UNL     1      18.064 -18.828  20.768  1.00  0.00     0.162 A 
ATOM      6  C   UNL     1      17.151 -18.823  21.849  1.00  0.00     0.200 A 
ENDROOT
BRANCH   1   7
ATOM      7  C   UNL     1      17.386 -22.238  19.243  1.00  0.00     0.072 C 
ATOM      8  O   UNL     1      18.495 -22.784  18.998  1.00  0.00    -0.545 OA
ATOM      9  O   UNL     1      16.236 -22.757  18.659  1.00  0.00    -0.545 OA
ENDBRANCH   1   7
BRANCH   4  10
ATOM     10  O   UNL     1      15.426 -19.931  23.125  1.00  0.00    -0.504 OA
ATOM     11  H   UNL     1      14.481 -20.284  23.023  1.00  0.00     0.293 HD
ENDBRANCH   4  10
BRANCH   5  12
ATOM     12  O   UNL     1      18.917 -17.756  20.495  1.00  0.00    -0.504 OA
ATOM     13  H   UNL     1      18.913 -17.236  19.630  1.00  0.00     0.293 HD
ENDBRANCH   5  12
BRANCH   6  14
ATOM     14  O   UNL     1      17.032 -17.741  22.726  1.00  0.00    -0.502 OA
ATOM     15  H   UNL     1      16.741 -16.816  22.447  1.00  0.00     0.293 HD
ENDBRANCH   6  14
TORSDOF 4
ENDMDL
MODEL 3
REMARK VINA RESULT:    -3.851      1.651      3.149
REMARK INTER + INTRA:          -4.460
REMARK INTER:                  -4.414
REMARK INTRA:                  -0.046
REMARK UNBOUND:                -0.046
REMARK SMILES O=C([O-])c1cc(O)c(O)c(O)c1
REMARK SMILES IDX 4 1 5 2 12 3 6 4 10 5 8 6 2 7 1 8 3 9 7 10 11 12 9 14
REMARK H PARENT 7 11 11 13 9 15
REMARK Flexibility Score: inf
ROOT
ATOM      1  C   UNL     1      16.582 -20.936  21.795  1.00  0.00     0.005 A 
ATOM      2  C   UNL     1      16.486 -19.678  22.408  1.00  0.00     0.060 A 
ATOM      3  C   UNL     1      17.441 -21.093  20.695  1.00  0.00     0.060 A 
ATOM      4  C   UNL     1      17.234 -18.594  21.933  1.00  0.00     0.162 A 
ATOM      5  C   UNL     1      18.195 -20.018  20.208  1.00  0.00     0.162 A 
ATOM      6  C   UNL     1      18.091 -18.753  20.834  1.00  0.00     0.200 A 
ENDROOT
BRANCH   1   7
ATOM      7  C   UNL     1      15.790 -22.078  22.302  1.00  0.00     0.072 C 
ATOM      8  O   UNL     1      16.362 -23.106  22.752  1.00  0.00    -0.545 OA
ATOM      9  O   UNL     1      14.400 -22.033  22.287  1.00  0.00    -0.545 OA
ENDBRANCH   1   7
BRANCH   4  10
ATOM     10  O   UNL     1      17.131 -17.348  22.549  1.00  0.00    -0.504 OA
ATOM     11  H   UNL     1      17.630 -17.136  23.406  1.00  0.00     0.293 HD
ENDBRANCH   4  10
BRANCH   5  12
ATOM     12  O   UNL     1      19.027 -20.250  19.111  1.00  0.00    -0.504 OA
ATOM     13  H   UNL     1      19.133 -21.147  18.661  1.00  0.00     0.293 HD
ENDBRANCH   5  12
BRANCH   6  14
ATOM     14  O   UNL     1      18.814 -17.638  20.400  1.00  0.00    -0.502 OA
ATOM     15  H   UNL     1      18.838 -17.317  19.443  1.00  0.00     0.293 HD
ENDBRANCH   6  14
TORSDOF 4
ENDMDL
MODEL 4
REMARK VINA RESULT:    -3.493      1.130      2.672
REMARK INTER + INTRA:          -4.050
REMARK INTER:                  -3.997
REMARK INTRA:                  -0.053
REMARK UNBOUND:                -0.046
REMARK SMILES O=C([O-])c1cc(O)c(O)c(O)c1
REMARK SMILES IDX 4 1 5 2 12 3 6 4 10 5 8 6 2 7 1 8 3 9 7 10 11 12 9 14
REMARK H PARENT 7 11 11 13 9 15
REMARK Flexibility Score: inf
ROOT
ATOM      1  C   UNL     1      16.945 -21.293  20.145  1.00  0.00     0.005 A 
ATOM      2  C   UNL     1      15.654 -21.156  20.678  1.00  0.00     0.060 A 
ATOM      3  C   UNL     1      17.867 -20.248  20.316  1.00  0.00     0.060 A 
ATOM      4  C   UNL     1      15.289 -19.994  21.370  1.00  0.00     0.162 A 
ATOM      5  C   UNL     1      17.515 -19.081  21.006  1.00  0.00     0.162 A 
ATOM      6  C   UNL     1      16.211 -18.952  21.540  1.00  0.00     0.200 A 
ENDROOT
BRANCH   1   7
ATOM      7  C   UNL     1      17.325 -22.523  19.415  1.00  0.00     0.072 C 
ATOM      8  O   UNL     1      16.527 -23.494  19.334  1.00  0.00    -0.545 OA
ATOM      9  O   UNL     1      18.573 -22.624  18.808  1.00  0.00    -0.545 OA
ENDBRANCH   1   7
BRANCH   4  10
ATOM     10  O   UNL     1      14.004 -19.867  21.895  1.00  0.00    -0.504 OA
ATOM     11  H   UNL     1      13.191 -20.217  21.400  1.00  0.00     0.293 HD
ENDBRANCH   4  10
BRANCH   5  12
ATOM     12  O   UNL     1      18.486 -18.085  21.137  1.00  0.00    -0.504 OA
ATOM     13  H   UNL     1      19.209 -17.907  20.455  1.00  0.00     0.293 HD
ENDBRANCH   5  12
BRANCH   6  14
ATOM     14  O   UNL     1      15.795 -17.815  22.238  1.00  0.00    -0.502 OA
ATOM     15  H   UNL     1      15.136 -17.831  23.003  1.00  0.00     0.293 HD
ENDBRANCH   6  14
TORSDOF 4
ENDMDL
MODEL 5
REMARK VINA RESULT:    -3.487      1.548      4.361
REMARK INTER + INTRA:          -4.043
REMARK INTER:                  -3.993
REMARK INTRA:                  -0.049
REMARK UNBOUND:                -0.046
REMARK SMILES O=C([O-])c1cc(O)c(O)c(O)c1
REMARK SMILES IDX 4 1 5 2 12 3 6 4 10 5 8 6 2 7 1 8 3 9 7 10 11 12 9 14
REMARK H PARENT 7 11 11 13 9 15
REMARK Flexibility Score: inf
ROOT
ATOM      1  C   UNL     1      17.102 -19.875  20.445  1.00  0.00     0.005 A 
ATOM      2  C   UNL     1      17.813 -21.012  20.035  1.00  0.00     0.060 A 
ATOM      3  C   UNL     1      15.752 -19.747  20.079  1.00  0.00     0.060 A 
ATOM      4  C   UNL     1      17.188 -22.006  19.272  1.00  0.00     0.162 A 
ATOM      5  C   UNL     1      15.115 -20.733  19.316  1.00  0.00     0.162 A 
ATOM      6  C   UNL     1      15.841 -21.877  18.907  1.00  0.00     0.200 A 
ENDROOT
BRANCH   1   7
ATOM      7  C   UNL     1      17.767 -18.827  21.252  1.00  0.00     0.072 C 
ATOM      8  O   UNL     1      18.956 -18.489  21.010  1.00  0.00    -0.545 OA
ATOM      9  O   UNL     1      17.087 -18.201  22.292  1.00  0.00    -0.545 OA
ENDBRANCH   1   7
BRANCH   4  10
ATOM     10  O   UNL     1      17.904 -23.132  18.869  1.00  0.00    -0.504 OA
ATOM     11  H   UNL     1      17.436 -23.985  18.584  1.00  0.00     0.293 HD
ENDBRANCH   4  10
BRANCH   5  12
ATOM     12  O   UNL     1      13.770 -20.537  18.991  1.00  0.00    -0.504 OA
ATOM     13  H   UNL     1      13.122 -21.284  18.790  1.00  0.00     0.293 HD
ENDBRANCH   5  12
BRANCH   6  14
ATOM     14  O   UNL     1      15.266 -22.898  18.145  1.00  0.00    -0.502 OA
ATOM     15  H   UNL     1      14.313 -22.889  17.814  1.00  0.00     0.293 HD
ENDBRANCH   6  14
TORSDOF 4
ENDMDL
MODEL 6
REMARK VINA RESULT:    -3.482      1.521      4.590
REMARK INTER + INTRA:          -4.036
REMARK INTER:                  -3.987
REMARK INTRA:                  -0.049
REMARK UNBOUND:                -0.046
REMARK SMILES O=C([O-])c1cc(O)c(O)c(O)c1
REMARK SMILES IDX 4 1 5 2 12 3 6 4 10 5 8 6 2 7 1 8 3 9 7 10 11 12 9 14
REMARK H PARENT 7 11 11 13 9 15
REMARK Flexibility Score: inf
ROOT
ATOM      1  C   UNL     1      17.122 -19.880  20.444  1.00  0.00     0.005 A 
ATOM      2  C   UNL     1      15.766 -19.769  20.100  1.00  0.00     0.060 A 
ATOM      3  C   UNL     1      17.845 -21.001  20.005  1.00  0.00     0.060 A 
ATOM      4  C   UNL     1      15.142 -20.759  19.331  1.00  0.00     0.162 A 
ATOM      5  C   UNL     1      17.234 -21.998  19.235  1.00  0.00     0.162 A 
ATOM      6  C   UNL     1      15.866 -21.876  18.893  1.00  0.00     0.200 A 
ENDROOT
BRANCH   1   7
ATOM      7  C   UNL     1      17.776 -18.831  21.257  1.00  0.00     0.072 C 
ATOM      8  O   UNL     1      18.949 -18.455  20.994  1.00  0.00    -0.545 OA
ATOM      9  O   UNL     1      17.104 -18.246  22.325  1.00  0.00    -0.545 OA
ENDBRANCH   1   7
BRANCH   4  10
ATOM     10  O   UNL     1      13.795 -20.639  18.995  1.00  0.00    -0.504 OA
ATOM     11  H   UNL     1      13.232 -19.863  19.326  1.00  0.00     0.293 HD
ENDBRANCH   4  10
BRANCH   5  12
ATOM     12  O   UNL     1      18.018 -23.083  18.835  1.00  0.00    -0.504 OA
ATOM     13  H   UNL     1      17.712 -23.793  18.186  1.00  0.00     0.293 HD
ENDBRANCH   5  12
BRANCH   6  14
ATOM     14  O   UNL     1      15.195 -22.835  18.129  1.00  0.00    -0.502 OA
ATOM     15  H   UNL     1      14.759 -23.660  18.513  1.00  0.00     0.293 HD
ENDBRANCH   6  14
TORSDOF 4
ENDMDL
MODEL 7
REMARK VINA RESULT:    -3.468     14.528     16.261
REMARK INTER + INTRA:          -4.020
REMARK INTER:                  -3.972
REMARK INTRA:                  -0.048
REMARK UNBOUND:                -0.046
REMARK SMILES O=C([O-])c1cc(O)c(O)c(O)c1
REMARK SMILES IDX 4 1 5 2 12 3 6 4 10 5 8 6 2 7 1 8 3 9 7 10 11 12 9 14
REMARK H PARENT 7 11 11 13 9 15
REMARK Flexibility Score: inf
ROOT
ATOM      1  C   UNL     1      22.730  -5.231  20.467  1.00  0.00     0.005 A 
ATOM      2  C   UNL     1      23.691  -4.326  20.942  1.00  0.00     0.060 A 
ATOM      3  C   UNL     1      22.907  -6.603  20.709  1.00  0.00     0.060 A 
ATOM      4  C   UNL     1      24.811  -4.782  21.648  1.00  0.00     0.162 A 
ATOM      5  C   UNL     1      24.022  -7.073  21.414  1.00  0.00     0.162 A 
ATOM      6  C   UNL     1      24.986  -6.152  21.890  1.00  0.00     0.200 A 
ENDROOT
BRANCH   1   7
ATOM      7  C   UNL     1      21.548  -4.744  19.721  1.00  0.00     0.072 C 
ATOM      8  O   UNL     1      21.672  -3.875  18.817  1.00  0.00    -0.545 OA
ATOM      9  O   UNL     1      20.280  -5.238  20.010  1.00  0.00    -0.545 OA
ENDBRANCH   1   7
BRANCH   4  10
ATOM     10  O   UNL     1      25.760  -3.875  22.116  1.00  0.00    -0.504 OA
ATOM     11  H   UNL     1      26.475  -3.494  21.508  1.00  0.00     0.293 HD
ENDBRANCH   4  10
BRANCH   5  12
ATOM     12  O   UNL     1      24.131  -8.450  21.617  1.00  0.00    -0.504 OA
ATOM     13  H   UNL     1      23.773  -8.933  22.428  1.00  0.00     0.293 HD
ENDBRANCH   5  12
BRANCH   6  14
ATOM     14  O   UNL     1      26.122  -6.553  22.599  1.00  0.00    -0.502 OA
ATOM     15  H   UNL     1      26.492  -6.061  23.399  1.00  0.00     0.293 HD
ENDBRANCH   6  14
TORSDOF 4
ENDMDL
MODEL 8
REMARK VINA RESULT:    -3.393      1.854      2.322
REMARK INTER + INTRA:          -3.934
REMARK INTER:                  -3.882
REMARK INTRA:                  -0.052
REMARK UNBOUND:                -0.046
REMARK SMILES O=C([O-])c1cc(O)c(O)c(O)c1
REMARK SMILES IDX 4 1 5 2 12 3 6 4 10 5 8 6 2 7 1 8 3 9 7 10 11 12 9 14
REMARK H PARENT 7 11 11 13 9 15
REMARK Flexibility Score: inf
ROOT
ATOM      1  C   UNL     1      16.944 -21.900  19.300  1.00  0.00     0.005 A 
ATOM      2  C   UNL     1      17.719 -21.149  20.196  1.00  0.00     0.060 A 
ATOM      3  C   UNL     1      15.625 -21.496  19.035  1.00  0.00     0.060 A 
ATOM      4  C   UNL     1      17.188 -20.012  20.817  1.00  0.00     0.162 A 
ATOM      5  C   UNL     1      15.081 -20.361  19.650  1.00  0.00     0.162 A 
ATOM      6  C   UNL     1      15.871 -19.609  20.551  1.00  0.00     0.200 A 
ENDROOT
BRANCH   1   7
ATOM      7  C   UNL     1      17.510 -23.101  18.646  1.00  0.00     0.072 C 
ATOM      8  O   UNL     1      16.761 -23.923  18.056  1.00  0.00    -0.545 OA
ATOM      9  O   UNL     1      18.880 -23.338  18.675  1.00  0.00    -0.545 OA
ENDBRANCH   1   7
BRANCH   4  10
ATOM     10  O   UNL     1      17.966 -19.272  21.706  1.00  0.00    -0.504 OA
ATOM     11  H   UNL     1      18.926 -19.526  21.910  1.00  0.00     0.293 HD
ENDBRANCH   4  10
BRANCH   5  12
ATOM     12  O   UNL     1      13.764 -20.020  19.337  1.00  0.00    -0.504 OA
ATOM     13  H   UNL     1      13.116 -20.636  18.869  1.00  0.00     0.293 HD
ENDBRANCH   5  12
BRANCH   6  14
ATOM     14  O   UNL     1      15.391 -18.468  21.199  1.00  0.00    -0.502 OA
ATOM     15  H   UNL     1      15.979 -17.794  21.668  1.00  0.00     0.293 HD
ENDBRANCH   6  14
TORSDOF 4
ENDMDL
MODEL 9
REMARK VINA RESULT:    -3.367      1.397      4.119
REMARK INTER + INTRA:          -3.905
REMARK INTER:                  -3.854
REMARK INTRA:                  -0.051
REMARK UNBOUND:                -0.046
REMARK SMILES O=C([O-])c1cc(O)c(O)c(O)c1
REMARK SMILES IDX 4 1 5 2 12 3 6 4 10 5 8 6 2 7 1 8 3 9 7 10 11 12 9 14
REMARK H PARENT 7 11 11 13 9 15
REMARK Flexibility Score: inf
ROOT
ATOM      1  C   UNL     1      17.436 -20.203  21.048  1.00  0.00     0.005 A 
ATOM      2  C   UNL     1      17.750 -20.771  19.804  1.00  0.00     0.060 A 
ATOM      3  C   UNL     1      16.708 -20.962  21.978  1.00  0.00     0.060 A 
ATOM      4  C   UNL     1      17.343 -22.074  19.493  1.00  0.00     0.162 A 
ATOM      5  C   UNL     1      16.295 -22.266  21.680  1.00  0.00     0.162 A 
ATOM      6  C   UNL     1      16.616 -22.830  20.423  1.00  0.00     0.200 A 
ENDROOT
BRANCH   1   7
ATOM      7  C   UNL     1      17.869 -18.825  21.371  1.00  0.00     0.072 C 
ATOM      8  O   UNL     1      18.924 -18.350  20.872  1.00  0.00    -0.545 OA
ATOM      9  O   UNL     1      17.117 -18.035  22.234  1.00  0.00    -0.545 OA
ENDBRANCH   1   7
BRANCH   4  10
ATOM     10  O   UNL     1      17.659 -22.629  18.254  1.00  0.00    -0.504 OA
ATOM     11  H   UNL     1      17.411 -23.584  18.020  1.00  0.00     0.293 HD
ENDBRANCH   4  10
BRANCH   5  12
ATOM     12  O   UNL     1      15.574 -22.959  22.656  1.00  0.00    -0.504 OA
ATOM     13  H   UNL     1      14.891 -23.674  22.453  1.00  0.00     0.293 HD
ENDBRANCH   5  12
BRANCH   6  14
ATOM     14  O   UNL     1      16.235 -24.125  20.061  1.00  0.00    -0.502 OA
ATOM     15  H   UNL     1      15.786 -24.359  19.188  1.00  0.00     0.293 HD
ENDBRANCH   6  14
TORSDOF 4
ENDMDL
