MODEL 1
REMARK VINA RESULT:    -5.916      0.000      0.000
REMARK INTER + INTRA:          -7.181
REMARK INTER:                  -7.300
REMARK INTRA:                   0.118
REMARK UNBOUND:                 0.118
REMARK SMILES O=c1c(O)c(-c2cc(O)c(O)c(O)c2)oc2cc(O)cc(O)c12
REMARK SMILES IDX 5 1 3 2 2 3 1 4 23 5 21 6 20 7 18 8 17 9 16 10 15 11 6 12
REMARK SMILES IDX 7 13 8 14 14 15 10 16 12 17 9 18 11 20 13 22 4 24 22 26
REMARK SMILES IDX 19 28
REMARK H PARENT 9 19 11 21 13 23 4 25 22 27 19 29
REMARK Flexibility Score: inf
ROOT
ATOM      1  C   UNL     1      -5.238  90.475 -15.247  1.00  0.00     0.180 A 
ATOM      2  C   UNL     1      -3.830  90.474 -15.241  1.00  0.00     0.208 A 
ATOM      3  C   UNL     1      -3.147  91.089 -16.302  1.00  0.00     0.238 A 
ATOM      4  O   UNL     1      -1.885  91.103 -16.302  1.00  0.00    -0.285 OA
ATOM      5  C   UNL     1      -3.878  91.675 -17.356  1.00  0.00     0.111 A 
ATOM      6  C   UNL     1      -3.266  92.311 -18.463  1.00  0.00     0.134 A 
ATOM      7  C   UNL     1      -4.064  92.862 -19.477  1.00  0.00     0.093 A 
ATOM      8  C   UNL     1      -5.457  92.790 -19.406  1.00  0.00     0.123 A 
ATOM      9  C   UNL     1      -6.067  92.163 -18.314  1.00  0.00     0.094 A 
ATOM     10  C   UNL     1      -5.289  91.609 -17.293  1.00  0.00     0.146 A 
ATOM     11  O   UNL     1      -5.894  91.024 -16.265  1.00  0.00    -0.452 OA
ENDROOT
BRANCH   1  12
ATOM     12  C   UNL     1      -6.029  89.863 -14.155  1.00  0.00     0.029 A 
ATOM     13  C   UNL     1      -5.617  89.951 -12.815  1.00  0.00     0.062 A 
ATOM     14  C   UNL     1      -6.392  89.387 -11.792  1.00  0.00     0.162 A 
ATOM     15  C   UNL     1      -7.246  89.231 -14.456  1.00  0.00     0.062 A 
ATOM     16  C   UNL     1      -7.597  88.736 -12.106  1.00  0.00     0.200 A 
ATOM     17  C   UNL     1      -8.024  88.663 -13.438  1.00  0.00     0.162 A 
BRANCH  14  18
ATOM     18  O   UNL     1      -5.972  89.474 -10.466  1.00  0.00    -0.504 OA
ATOM     19  H   UNL     1      -5.265  90.141 -10.176  1.00  0.00     0.293 HD
ENDBRANCH  14  18
BRANCH  16  20
ATOM     20  O   UNL     1      -8.383  88.162 -11.106  1.00  0.00    -0.502 OA
ATOM     21  H   UNL     1      -8.730  87.212 -11.172  1.00  0.00     0.293 HD
ENDBRANCH  16  20
BRANCH  17  22
ATOM     22  O   UNL     1      -9.224  88.024 -13.743  1.00  0.00    -0.504 OA
ATOM     23  H   UNL     1      -9.272  87.021 -13.879  1.00  0.00     0.293 HD
ENDBRANCH  17  22
ENDBRANCH   1  12
BRANCH   2  24
ATOM     24  O   UNL     1      -3.128  89.843 -14.210  1.00  0.00    -0.502 OA
ATOM     25  H   UNL     1      -2.258  90.209 -13.842  1.00  0.00     0.293 HD
ENDBRANCH   2  24
BRANCH   6  26
ATOM     26  O   UNL     1      -1.877  92.398 -18.564  1.00  0.00    -0.507 OA
ATOM     27  H   UNL     1      -1.346  93.086 -18.043  1.00  0.00     0.293 HD
ENDBRANCH   6  26
BRANCH   8  28
ATOM     28  O   UNL     1      -6.226  93.344 -20.426  1.00  0.00    -0.508 OA
ATOM     29  H   UNL     1      -6.286  94.347 -20.559  1.00  0.00     0.293 HD
ENDBRANCH   8  28
TORSDOF 7
ENDMDL
MODEL 2
REMARK VINA RESULT:    -5.913      9.700     11.726
REMARK INTER + INTRA:          -7.177
REMARK INTER:                  -6.844
REMARK INTRA:                  -0.334
REMARK UNBOUND:                 0.118
REMARK SMILES O=c1c(O)c(-c2cc(O)c(O)c(O)c2)oc2cc(O)cc(O)c12
REMARK SMILES IDX 5 1 3 2 2 3 1 4 23 5 21 6 20 7 18 8 17 9 16 10 15 11 6 12
REMARK SMILES IDX 7 13 8 14 14 15 10 16 12 17 9 18 11 20 13 22 4 24 22 26
REMARK SMILES IDX 19 28
REMARK H PARENT 9 19 11 21 13 23 4 25 22 27 19 29
REMARK Flexibility Score: inf
ROOT
ATOM      1  C   UNL     1      -7.555  83.666  -8.717  1.00  0.00     0.180 A 
ATOM      2  C   UNL     1      -8.000  85.001  -8.667  1.00  0.00     0.208 A 
ATOM      3  C   UNL     1      -9.376  85.261  -8.752  1.00  0.00     0.238 A 
ATOM      4  O   UNL     1      -9.787  86.452  -8.698  1.00  0.00    -0.285 OA
ATOM      5  C   UNL     1     -10.280  84.190  -8.905  1.00  0.00     0.111 A 
ATOM      6  C   UNL     1     -11.681  84.366  -9.003  1.00  0.00     0.134 A 
ATOM      7  C   UNL     1     -12.514  83.248  -9.163  1.00  0.00     0.093 A 
ATOM      8  C   UNL     1     -11.975  81.962  -9.228  1.00  0.00     0.123 A 
ATOM      9  C   UNL     1     -10.591  81.781  -9.132  1.00  0.00     0.094 A 
ATOM     10  C   UNL     1      -9.744  82.882  -8.970  1.00  0.00     0.146 A 
ATOM     11  O   UNL     1      -8.435  82.682  -8.877  1.00  0.00    -0.452 OA
ENDROOT
BRANCH   1  12
ATOM     12  C   UNL     1      -6.121  83.311  -8.614  1.00  0.00     0.029 A 
ATOM     13  C   UNL     1      -5.459  83.291  -7.375  1.00  0.00     0.062 A 
ATOM     14  C   UNL     1      -4.107  82.929  -7.295  1.00  0.00     0.162 A 
ATOM     15  C   UNL     1      -5.421  82.929  -9.769  1.00  0.00     0.062 A 
ATOM     16  C   UNL     1      -3.408  82.570  -8.461  1.00  0.00     0.200 A 
ATOM     17  C   UNL     1      -4.069  82.567  -9.696  1.00  0.00     0.162 A 
BRANCH  14  18
ATOM     18  O   UNL     1      -3.456  82.918  -6.062  1.00  0.00    -0.504 OA
ATOM     19  H   UNL     1      -2.656  82.320  -5.889  1.00  0.00     0.293 HD
ENDBRANCH  14  18
BRANCH  16  20
ATOM     20  O   UNL     1      -2.062  82.210  -8.408  1.00  0.00    -0.502 OA
ATOM     21  H   UNL     1      -1.698  81.586  -7.696  1.00  0.00     0.293 HD
ENDBRANCH  16  20
BRANCH  17  22
ATOM     22  O   UNL     1      -3.375  82.202 -10.848  1.00  0.00    -0.504 OA
ATOM     23  H   UNL     1      -3.805  82.250 -11.765  1.00  0.00     0.293 HD
ENDBRANCH  17  22
ENDBRANCH   1  12
BRANCH   2  24
ATOM     24  O   UNL     1      -7.080  86.049  -8.564  1.00  0.00    -0.502 OA
ATOM     25  H   UNL     1      -7.351  87.020  -8.661  1.00  0.00     0.293 HD
ENDBRANCH   2  24
BRANCH   6  26
ATOM     26  O   UNL     1     -12.251  85.639  -8.943  1.00  0.00    -0.507 OA
ATOM     27  H   UNL     1     -12.398  86.198  -9.774  1.00  0.00     0.293 HD
ENDBRANCH   6  26
BRANCH   8  28
ATOM     28  O   UNL     1     -12.824  80.869  -9.389  1.00  0.00    -0.508 OA
ATOM     29  H   UNL     1     -13.027  80.487 -10.305  1.00  0.00     0.293 HD
ENDBRANCH   8  28
TORSDOF 7
ENDMDL
MODEL 3
REMARK VINA RESULT:    -5.891      2.429      6.858
REMARK INTER + INTRA:          -7.150
REMARK INTER:                  -6.896
REMARK INTRA:                  -0.254
REMARK UNBOUND:                 0.118
REMARK SMILES O=c1c(O)c(-c2cc(O)c(O)c(O)c2)oc2cc(O)cc(O)c12
REMARK SMILES IDX 5 1 3 2 2 3 1 4 23 5 21 6 20 7 18 8 17 9 16 10 15 11 6 12
REMARK SMILES IDX 7 13 8 14 14 15 10 16 12 17 9 18 11 20 13 22 4 24 22 26
REMARK SMILES IDX 19 28
REMARK H PARENT 9 19 11 21 13 23 4 25 22 27 19 29
REMARK Flexibility Score: inf
ROOT
ATOM      1  C   UNL     1      -4.788  91.243 -14.847  1.00  0.00     0.180 A 
ATOM      2  C   UNL     1      -5.309  90.092 -14.224  1.00  0.00     0.208 A 
ATOM      3  C   UNL     1      -5.481  90.093 -12.831  1.00  0.00     0.238 A 
ATOM      4  O   UNL     1      -5.956  89.072 -12.264  1.00  0.00    -0.285 OA
ATOM      5  C   UNL     1      -5.113  91.231 -12.084  1.00  0.00     0.111 A 
ATOM      6  C   UNL     1      -5.250  91.311 -10.677  1.00  0.00     0.134 A 
ATOM      7  C   UNL     1      -4.851  92.477 -10.005  1.00  0.00     0.093 A 
ATOM      8  C   UNL     1      -4.320  93.559 -10.709  1.00  0.00     0.123 A 
ATOM      9  C   UNL     1      -4.182  93.485 -12.099  1.00  0.00     0.094 A 
ATOM     10  C   UNL     1      -4.575  92.333 -12.788  1.00  0.00     0.146 A 
ATOM     11  O   UNL     1      -4.438  92.292 -14.108  1.00  0.00    -0.452 OA
ENDROOT
BRANCH   1  12
ATOM     12  C   UNL     1      -4.596  91.325 -16.312  1.00  0.00     0.029 A 
ATOM     13  C   UNL     1      -3.314  91.285 -16.885  1.00  0.00     0.062 A 
ATOM     14  C   UNL     1      -3.152  91.339 -18.277  1.00  0.00     0.162 A 
ATOM     15  C   UNL     1      -5.718  91.385 -17.153  1.00  0.00     0.062 A 
ATOM     16  C   UNL     1      -4.282  91.423 -19.109  1.00  0.00     0.200 A 
ATOM     17  C   UNL     1      -5.563  91.441 -18.545  1.00  0.00     0.162 A 
BRANCH  14  18
ATOM     18  O   UNL     1      -1.876  91.306 -18.835  1.00  0.00    -0.504 OA
ATOM     19  H   UNL     1      -1.241  90.534 -18.662  1.00  0.00     0.293 HD
ENDBRANCH  14  18
BRANCH  16  20
ATOM     20  O   UNL     1      -4.147  91.483 -20.496  1.00  0.00    -0.502 OA
ATOM     21  H   UNL     1      -3.779  90.708 -21.036  1.00  0.00     0.293 HD
ENDBRANCH  16  20
BRANCH  17  22
ATOM     22  O   UNL     1      -6.680  91.514 -19.375  1.00  0.00    -0.504 OA
ATOM     23  H   UNL     1      -7.564  91.091 -19.114  1.00  0.00     0.293 HD
ENDBRANCH  17  22
ENDBRANCH   1  12
BRANCH   2  24
ATOM     24  O   UNL     1      -5.620  88.959 -14.981  1.00  0.00    -0.502 OA
ATOM     25  H   UNL     1      -6.575  88.671 -15.160  1.00  0.00     0.293 HD
ENDBRANCH   2  24
BRANCH   6  26
ATOM     26  O   UNL     1      -5.776  90.247  -9.944  1.00  0.00    -0.507 OA
ATOM     27  H   UNL     1      -5.185  89.520  -9.559  1.00  0.00     0.293 HD
ENDBRANCH   6  26
BRANCH   8  28
ATOM     28  O   UNL     1      -3.930  94.704 -10.017  1.00  0.00    -0.508 OA
ATOM     29  H   UNL     1      -4.188  94.851  -9.049  1.00  0.00     0.293 HD
ENDBRANCH   8  28
TORSDOF 7
ENDMDL
MODEL 4
REMARK VINA RESULT:    -5.747      0.134      1.753
REMARK INTER + INTRA:          -6.972
REMARK INTER:                  -7.222
REMARK INTRA:                   0.249
REMARK UNBOUND:                 0.118
REMARK SMILES O=c1c(O)c(-c2cc(O)c(O)c(O)c2)oc2cc(O)cc(O)c12
REMARK SMILES IDX 5 1 3 2 2 3 1 4 23 5 21 6 20 7 18 8 17 9 16 10 15 11 6 12
REMARK SMILES IDX 7 13 8 14 14 15 10 16 12 17 9 18 11 20 13 22 4 24 22 26
REMARK SMILES IDX 19 28
REMARK H PARENT 9 19 11 21 13 23 4 25 22 27 19 29
REMARK Flexibility Score: inf
ROOT
ATOM      1  C   UNL     1      -5.345  90.475 -15.189  1.00  0.00     0.180 A 
ATOM      2  C   UNL     1      -3.938  90.453 -15.149  1.00  0.00     0.208 A 
ATOM      3  C   UNL     1      -3.220  91.034 -16.206  1.00  0.00     0.238 A 
ATOM      4  O   UNL     1      -1.959  91.029 -16.177  1.00  0.00    -0.285 OA
ATOM      5  C   UNL     1      -3.916  91.608 -17.290  1.00  0.00     0.111 A 
ATOM      6  C   UNL     1      -3.269  92.210 -18.395  1.00  0.00     0.134 A 
ATOM      7  C   UNL     1      -4.033  92.752 -19.439  1.00  0.00     0.093 A 
ATOM      8  C   UNL     1      -5.428  92.703 -19.400  1.00  0.00     0.123 A 
ATOM      9  C   UNL     1      -6.074  92.109 -18.310  1.00  0.00     0.094 A 
ATOM     10  C   UNL     1      -5.330  91.565 -17.259  1.00  0.00     0.146 A 
ATOM     11  O   UNL     1      -5.968  91.012 -16.234  1.00  0.00    -0.452 OA
ENDROOT
BRANCH   1  12
ATOM     12  C   UNL     1      -6.171  89.900 -14.103  1.00  0.00     0.029 A 
ATOM     13  C   UNL     1      -7.400  89.274 -14.373  1.00  0.00     0.062 A 
ATOM     14  C   UNL     1      -8.157  88.713 -13.335  1.00  0.00     0.162 A 
ATOM     15  C   UNL     1      -5.693  89.926 -12.784  1.00  0.00     0.062 A 
ATOM     16  C   UNL     1      -7.680  88.765 -12.014  1.00  0.00     0.200 A 
ATOM     17  C   UNL     1      -6.446  89.369 -11.742  1.00  0.00     0.162 A 
BRANCH  14  18
ATOM     18  O   UNL     1      -9.378  88.100 -13.611  1.00  0.00    -0.504 OA
ATOM     19  H   UNL     1     -10.254  88.605 -13.538  1.00  0.00     0.293 HD
ENDBRANCH  14  18
BRANCH  16  20
ATOM     20  O   UNL     1      -8.417  88.218 -10.963  1.00  0.00    -0.502 OA
ATOM     21  H   UNL     1      -8.870  87.314 -11.036  1.00  0.00     0.293 HD
ENDBRANCH  16  20
BRANCH  17  22
ATOM     22  O   UNL     1      -5.973  89.410 -10.432  1.00  0.00    -0.504 OA
ATOM     23  H   UNL     1      -6.602  89.361  -9.638  1.00  0.00     0.293 HD
ENDBRANCH  17  22
ENDBRANCH   1  12
BRANCH   2  24
ATOM     24  O   UNL     1      -3.271  89.834 -14.088  1.00  0.00    -0.502 OA
ATOM     25  H   UNL     1      -3.360  88.843 -13.895  1.00  0.00     0.293 HD
ENDBRANCH   2  24
BRANCH   6  26
ATOM     26  O   UNL     1      -1.876  92.274 -18.465  1.00  0.00    -0.507 OA
ATOM     27  H   UNL     1      -1.326  91.523 -18.862  1.00  0.00     0.293 HD
ENDBRANCH   6  26
BRANCH   8  28
ATOM     28  O   UNL     1      -6.164  93.247 -20.451  1.00  0.00    -0.508 OA
ATOM     29  H   UNL     1      -5.755  93.913 -21.095  1.00  0.00     0.293 HD
ENDBRANCH   8  28
TORSDOF 7
ENDMDL
MODEL 5
REMARK VINA RESULT:    -5.681     10.058     11.863
REMARK INTER + INTRA:          -6.891
REMARK INTER:                  -6.556
REMARK INTRA:                  -0.335
REMARK UNBOUND:                 0.118
REMARK SMILES O=c1c(O)c(-c2cc(O)c(O)c(O)c2)oc2cc(O)cc(O)c12
REMARK SMILES IDX 5 1 3 2 2 3 1 4 23 5 21 6 20 7 18 8 17 9 16 10 15 11 6 12
REMARK SMILES IDX 7 13 8 14 14 15 10 16 12 17 9 18 11 20 13 22 4 24 22 26
REMARK SMILES IDX 19 28
REMARK H PARENT 9 19 11 21 13 23 4 25 22 27 19 29
REMARK Flexibility Score: inf
ROOT
ATOM      1  C   UNL     1      -9.522  83.616  -8.817  1.00  0.00     0.180 A 
ATOM      2  C   UNL     1     -10.376  82.496  -8.838  1.00  0.00     0.208 A 
ATOM      3  C   UNL     1     -11.746  82.691  -9.070  1.00  0.00     0.238 A 
ATOM      4  O   UNL     1     -12.518  81.694  -9.102  1.00  0.00    -0.285 OA
ATOM      5  C   UNL     1     -12.243  83.998  -9.257  1.00  0.00     0.111 A 
ATOM      6  C   UNL     1     -13.609  84.280  -9.492  1.00  0.00     0.134 A 
ATOM      7  C   UNL     1     -14.026  85.610  -9.659  1.00  0.00     0.093 A 
ATOM      8  C   UNL     1     -13.106  86.658  -9.596  1.00  0.00     0.123 A 
ATOM      9  C   UNL     1     -11.754  86.385  -9.364  1.00  0.00     0.094 A 
ATOM     10  C   UNL     1     -11.318  85.066  -9.196  1.00  0.00     0.146 A 
ATOM     11  O   UNL     1     -10.028  84.835  -8.982  1.00  0.00    -0.452 OA
ENDROOT
BRANCH   1  12
ATOM     12  C   UNL     1      -8.064  83.489  -8.597  1.00  0.00     0.029 A 
ATOM     13  C   UNL     1      -7.200  83.087  -9.629  1.00  0.00     0.062 A 
ATOM     14  C   UNL     1      -5.819  82.996  -9.409  1.00  0.00     0.162 A 
ATOM     15  C   UNL     1      -7.522  83.833  -7.348  1.00  0.00     0.062 A 
ATOM     16  C   UNL     1      -5.289  83.320  -8.148  1.00  0.00     0.200 A 
ATOM     17  C   UNL     1      -6.143  83.743  -7.121  1.00  0.00     0.162 A 
BRANCH  14  18
ATOM     18  O   UNL     1      -4.971  82.589 -10.438  1.00  0.00    -0.504 OA
ATOM     19  H   UNL     1      -3.971  82.497 -10.296  1.00  0.00     0.293 HD
ENDBRANCH  14  18
BRANCH  16  20
ATOM     20  O   UNL     1      -3.918  83.233  -7.903  1.00  0.00    -0.502 OA
ATOM     21  H   UNL     1      -3.250  83.038  -8.639  1.00  0.00     0.293 HD
ENDBRANCH  16  20
BRANCH  17  22
ATOM     22  O   UNL     1      -5.611  84.072  -5.876  1.00  0.00    -0.504 OA
ATOM     23  H   UNL     1      -4.687  84.479  -5.783  1.00  0.00     0.293 HD
ENDBRANCH  17  22
ENDBRANCH   1  12
BRANCH   2  24
ATOM     24  O   UNL     1      -9.866  81.216  -8.601  1.00  0.00    -0.502 OA
ATOM     25  H   UNL     1     -10.419  80.378  -8.740  1.00  0.00     0.293 HD
ENDBRANCH   2  24
BRANCH   6  26
ATOM     26  O   UNL     1     -14.554  83.256  -9.561  1.00  0.00    -0.507 OA
ATOM     27  H   UNL     1     -14.287  82.293  -9.729  1.00  0.00     0.293 HD
ENDBRANCH   6  26
BRANCH   8  28
ATOM     28  O   UNL     1     -13.546  87.970  -9.763  1.00  0.00    -0.508 OA
ATOM     29  H   UNL     1     -14.373  88.185 -10.306  1.00  0.00     0.293 HD
ENDBRANCH   8  28
TORSDOF 7
ENDMDL
MODEL 6
REMARK VINA RESULT:    -5.652      1.809      6.951
REMARK INTER + INTRA:          -6.856
REMARK INTER:                  -6.495
REMARK INTRA:                  -0.361
REMARK UNBOUND:                 0.118
REMARK SMILES O=c1c(O)c(-c2cc(O)c(O)c(O)c2)oc2cc(O)cc(O)c12
REMARK SMILES IDX 5 1 3 2 2 3 1 4 23 5 21 6 20 7 18 8 17 9 16 10 15 11 6 12
REMARK SMILES IDX 7 13 8 14 14 15 10 16 12 17 9 18 11 20 13 22 4 24 22 26
REMARK SMILES IDX 19 28
REMARK H PARENT 9 19 11 21 13 23 4 25 22 27 19 29
REMARK Flexibility Score: inf
ROOT
ATOM      1  C   UNL     1      -5.414  91.241 -14.498  1.00  0.00     0.180 A 
ATOM      2  C   UNL     1      -4.802  92.101 -13.566  1.00  0.00     0.208 A 
ATOM      3  C   UNL     1      -4.907  91.804 -12.199  1.00  0.00     0.238 A 
ATOM      4  O   UNL     1      -4.354  92.561 -11.355  1.00  0.00    -0.285 OA
ATOM      5  C   UNL     1      -5.634  90.668 -11.785  1.00  0.00     0.111 A 
ATOM      6  C   UNL     1      -5.791  90.301 -10.427  1.00  0.00     0.134 A 
ATOM      7  C   UNL     1      -6.538  89.161 -10.097  1.00  0.00     0.093 A 
ATOM      8  C   UNL     1      -7.131  88.383 -11.094  1.00  0.00     0.123 A 
ATOM      9  C   UNL     1      -6.979  88.741 -12.438  1.00  0.00     0.094 A 
ATOM     10  C   UNL     1      -6.237  89.873 -12.788  1.00  0.00     0.146 A 
ATOM     11  O   UNL     1      -6.105  90.187 -14.071  1.00  0.00    -0.452 OA
ENDROOT
BRANCH   1  12
ATOM     12  C   UNL     1      -5.332  91.477 -15.958  1.00  0.00     0.029 A 
ATOM     13  C   UNL     1      -4.230  91.038 -16.710  1.00  0.00     0.062 A 
ATOM     14  C   UNL     1      -4.181  91.249 -18.095  1.00  0.00     0.162 A 
ATOM     15  C   UNL     1      -6.403  92.101 -16.617  1.00  0.00     0.062 A 
ATOM     16  C   UNL     1      -5.248  91.896 -18.741  1.00  0.00     0.200 A 
ATOM     17  C   UNL     1      -6.360  92.317 -18.000  1.00  0.00     0.162 A 
BRANCH  14  18
ATOM     18  O   UNL     1      -3.080  90.815 -18.831  1.00  0.00    -0.504 OA
ATOM     19  H   UNL     1      -2.538  90.007 -18.548  1.00  0.00     0.293 HD
ENDBRANCH  14  18
BRANCH  16  20
ATOM     20  O   UNL     1      -5.221  92.121 -20.118  1.00  0.00    -0.502 OA
ATOM     21  H   UNL     1      -6.067  92.158 -20.675  1.00  0.00     0.293 HD
ENDBRANCH  16  20
BRANCH  17  22
ATOM     22  O   UNL     1      -7.420  92.949 -18.648  1.00  0.00    -0.504 OA
ATOM     23  H   UNL     1      -8.382  92.670 -18.488  1.00  0.00     0.293 HD
ENDBRANCH  17  22
ENDBRANCH   1  12
BRANCH   2  24
ATOM     24  O   UNL     1      -4.129  93.247 -13.999  1.00  0.00    -0.502 OA
ATOM     25  H   UNL     1      -3.381  93.671 -13.463  1.00  0.00     0.293 HD
ENDBRANCH   2  24
BRANCH   6  26
ATOM     26  O   UNL     1      -5.212  91.057  -9.407  1.00  0.00    -0.507 OA
ATOM     27  H   UNL     1      -4.208  91.158  -9.320  1.00  0.00     0.293 HD
ENDBRANCH   6  26
BRANCH   8  28
ATOM     28  O   UNL     1      -7.869  87.256 -10.739  1.00  0.00    -0.508 OA
ATOM     29  H   UNL     1      -8.714  87.330 -10.185  1.00  0.00     0.293 HD
ENDBRANCH   8  28
TORSDOF 7
ENDMDL
MODEL 7
REMARK VINA RESULT:    -5.633      2.980      4.334
REMARK INTER + INTRA:          -6.832
REMARK INTER:                  -6.813
REMARK INTRA:                  -0.019
REMARK UNBOUND:                 0.118
REMARK SMILES O=c1c(O)c(-c2cc(O)c(O)c(O)c2)oc2cc(O)cc(O)c12
REMARK SMILES IDX 5 1 3 2 2 3 1 4 23 5 21 6 20 7 18 8 17 9 16 10 15 11 6 12
REMARK SMILES IDX 7 13 8 14 14 15 10 16 12 17 9 18 11 20 13 22 4 24 22 26
REMARK SMILES IDX 19 28
REMARK H PARENT 9 19 11 21 13 23 4 25 22 27 19 29
REMARK Flexibility Score: inf
ROOT
ATOM      1  C   UNL     1      -8.034  90.772 -14.107  1.00  0.00     0.180 A 
ATOM      2  C   UNL     1      -7.240  89.764 -13.528  1.00  0.00     0.208 A 
ATOM      3  C   UNL     1      -5.864  89.743 -13.803  1.00  0.00     0.238 A 
ATOM      4  O   UNL     1      -5.140  88.851 -13.282  1.00  0.00    -0.285 OA
ATOM      5  C   UNL     1      -5.310  90.712 -14.665  1.00  0.00     0.111 A 
ATOM      6  C   UNL     1      -3.935  90.758 -14.996  1.00  0.00     0.134 A 
ATOM      7  C   UNL     1      -3.462  91.750 -15.869  1.00  0.00     0.093 A 
ATOM      8  C   UNL     1      -4.335  92.693 -16.415  1.00  0.00     0.123 A 
ATOM      9  C   UNL     1      -5.695  92.653 -16.091  1.00  0.00     0.094 A 
ATOM     10  C   UNL     1      -6.185  91.673 -15.222  1.00  0.00     0.146 A 
ATOM     11  O   UNL     1      -7.480  91.661 -14.927  1.00  0.00    -0.452 OA
ENDROOT
BRANCH   1  12
ATOM     12  C   UNL     1      -9.489  90.871 -13.850  1.00  0.00     0.029 A 
ATOM     13  C   UNL     1     -10.082  92.084 -13.461  1.00  0.00     0.062 A 
ATOM     14  C   UNL     1     -11.465  92.164 -13.245  1.00  0.00     0.162 A 
ATOM     15  C   UNL     1     -10.304  89.747 -14.054  1.00  0.00     0.062 A 
ATOM     16  C   UNL     1     -12.269  91.027 -13.430  1.00  0.00     0.200 A 
ATOM     17  C   UNL     1     -11.687  89.821 -13.838  1.00  0.00     0.162 A 
BRANCH  14  18
ATOM     18  O   UNL     1     -12.043  93.371 -12.853  1.00  0.00    -0.504 OA
ATOM     19  H   UNL     1     -11.822  94.242 -13.322  1.00  0.00     0.293 HD
ENDBRANCH  14  18
BRANCH  16  20
ATOM     20  O   UNL     1     -13.647  91.081 -13.217  1.00  0.00    -0.502 OA
ATOM     21  H   UNL     1     -14.314  90.876 -13.952  1.00  0.00     0.293 HD
ENDBRANCH  16  20
BRANCH  17  22
ATOM     22  O   UNL     1     -12.490  88.698 -14.029  1.00  0.00    -0.504 OA
ATOM     23  H   UNL     1     -12.126  87.758 -13.910  1.00  0.00     0.293 HD
ENDBRANCH  17  22
ENDBRANCH   1  12
BRANCH   2  24
ATOM     24  O   UNL     1      -7.821  88.785 -12.717  1.00  0.00    -0.502 OA
ATOM     25  H   UNL     1      -7.838  88.857 -11.707  1.00  0.00     0.293 HD
ENDBRANCH   2  24
BRANCH   6  26
ATOM     26  O   UNL     1      -3.036  89.830 -14.468  1.00  0.00    -0.507 OA
ATOM     27  H   UNL     1      -2.123  90.104 -14.129  1.00  0.00     0.293 HD
ENDBRANCH   6  26
BRANCH   8  28
ATOM     28  O   UNL     1      -3.841  93.667 -17.280  1.00  0.00    -0.508 OA
ATOM     29  H   UNL     1      -4.004  94.653 -17.116  1.00  0.00     0.293 HD
ENDBRANCH   8  28
TORSDOF 7
ENDMDL
MODEL 8
REMARK VINA RESULT:    -5.617      9.715     12.724
REMARK INTER + INTRA:          -6.812
REMARK INTER:                  -6.453
REMARK INTRA:                  -0.358
REMARK UNBOUND:                 0.118
REMARK SMILES O=c1c(O)c(-c2cc(O)c(O)c(O)c2)oc2cc(O)cc(O)c12
REMARK SMILES IDX 5 1 3 2 2 3 1 4 23 5 21 6 20 7 18 8 17 9 16 10 15 11 6 12
REMARK SMILES IDX 7 13 8 14 14 15 10 16 12 17 9 18 11 20 13 22 4 24 22 26
REMARK SMILES IDX 19 28
REMARK H PARENT 9 19 11 21 13 23 4 25 22 27 19 29
REMARK Flexibility Score: inf
ROOT
ATOM      1  C   UNL     1      -8.586  83.482  -8.430  1.00  0.00     0.180 A 
ATOM      2  C   UNL     1      -9.514  84.441  -8.877  1.00  0.00     0.208 A 
ATOM      3  C   UNL     1     -10.885  84.186  -8.715  1.00  0.00     0.238 A 
ATOM      4  O   UNL     1     -11.726  85.042  -9.102  1.00  0.00    -0.285 OA
ATOM      5  C   UNL     1     -11.304  82.972  -8.131  1.00  0.00     0.111 A 
ATOM      6  C   UNL     1     -12.665  82.636  -7.935  1.00  0.00     0.134 A 
ATOM      7  C   UNL     1     -13.001  81.404  -7.355  1.00  0.00     0.093 A 
ATOM      8  C   UNL     1     -12.006  80.504  -6.967  1.00  0.00     0.123 A 
ATOM      9  C   UNL     1     -10.659  80.832  -7.157  1.00  0.00     0.094 A 
ATOM     10  C   UNL     1     -10.303  82.055  -7.733  1.00  0.00     0.146 A 
ATOM     11  O   UNL     1      -9.017  82.342  -7.898  1.00  0.00    -0.452 OA
ENDROOT
BRANCH   1  12
ATOM     12  C   UNL     1      -7.124  83.688  -8.549  1.00  0.00     0.029 A 
ATOM     13  C   UNL     1      -6.409  84.429  -7.593  1.00  0.00     0.062 A 
ATOM     14  C   UNL     1      -5.022  84.592  -7.710  1.00  0.00     0.162 A 
ATOM     15  C   UNL     1      -6.426  83.082  -9.606  1.00  0.00     0.062 A 
ATOM     16  C   UNL     1      -4.335  84.001  -8.785  1.00  0.00     0.200 A 
ATOM     17  C   UNL     1      -5.040  83.244  -9.729  1.00  0.00     0.162 A 
BRANCH  14  18
ATOM     18  O   UNL     1      -4.322  85.335  -6.760  1.00  0.00    -0.504 OA
ATOM     19  H   UNL     1      -3.666  84.897  -6.122  1.00  0.00     0.293 HD
ENDBRANCH  14  18
BRANCH  16  20
ATOM     20  O   UNL     1      -2.956  84.153  -8.924  1.00  0.00    -0.502 OA
ATOM     21  H   UNL     1      -2.423  84.793  -8.347  1.00  0.00     0.293 HD
ENDBRANCH  16  20
BRANCH  17  22
ATOM     22  O   UNL     1      -4.353  82.652 -10.788  1.00  0.00    -0.504 OA
ATOM     23  H   UNL     1      -4.634  81.755 -11.167  1.00  0.00     0.293 HD
ENDBRANCH  17  22
ENDBRANCH   1  12
BRANCH   2  24
ATOM     24  O   UNL     1      -9.075  85.614  -9.498  1.00  0.00    -0.502 OA
ATOM     25  H   UNL     1      -8.597  85.609 -10.391  1.00  0.00     0.293 HD
ENDBRANCH   2  24
BRANCH   6  26
ATOM     26  O   UNL     1     -13.683  83.513  -8.313  1.00  0.00    -0.507 OA
ATOM     27  H   UNL     1     -14.653  83.224  -8.338  1.00  0.00     0.293 HD
ENDBRANCH   6  26
BRANCH   8  28
ATOM     28  O   UNL     1     -12.366  79.287  -6.393  1.00  0.00    -0.508 OA
ATOM     29  H   UNL     1     -13.201  79.194  -5.828  1.00  0.00     0.293 HD
ENDBRANCH   8  28
TORSDOF 7
ENDMDL
MODEL 9
REMARK VINA RESULT:    -5.513      7.118      9.605
REMARK INTER + INTRA:          -6.684
REMARK INTER:                  -6.326
REMARK INTRA:                  -0.358
REMARK UNBOUND:                 0.118
REMARK SMILES O=c1c(O)c(-c2cc(O)c(O)c(O)c2)oc2cc(O)cc(O)c12
REMARK SMILES IDX 5 1 3 2 2 3 1 4 23 5 21 6 20 7 18 8 17 9 16 10 15 11 6 12
REMARK SMILES IDX 7 13 8 14 14 15 10 16 12 17 9 18 11 20 13 22 4 24 22 26
REMARK SMILES IDX 19 28
REMARK H PARENT 9 19 11 21 13 23 4 25 22 27 19 29
REMARK Flexibility Score: inf
ROOT
ATOM      1  C   UNL     1      -4.638  87.974  -8.103  1.00  0.00     0.180 A 
ATOM      2  C   UNL     1      -3.499  87.740  -7.309  1.00  0.00     0.208 A 
ATOM      3  C   UNL     1      -2.932  86.457  -7.297  1.00  0.00     0.238 A 
ATOM      4  O   UNL     1      -1.905  86.238  -6.597  1.00  0.00    -0.285 OA
ATOM      5  C   UNL     1      -3.521  85.427  -8.060  1.00  0.00     0.111 A 
ATOM      6  C   UNL     1      -3.014  84.106  -8.099  1.00  0.00     0.134 A 
ATOM      7  C   UNL     1      -3.664  83.135  -8.877  1.00  0.00     0.093 A 
ATOM      8  C   UNL     1      -4.806  83.457  -9.612  1.00  0.00     0.123 A 
ATOM      9  C   UNL     1      -5.311  84.762  -9.576  1.00  0.00     0.094 A 
ATOM     10  C   UNL     1      -4.677  85.744  -8.809  1.00  0.00     0.146 A 
ATOM     11  O   UNL     1      -5.175  86.975  -8.798  1.00  0.00    -0.452 OA
ENDROOT
BRANCH   1  12
ATOM     12  C   UNL     1      -5.281  89.305  -8.182  1.00  0.00     0.029 A 
ATOM     13  C   UNL     1      -6.308  89.675  -7.298  1.00  0.00     0.062 A 
ATOM     14  C   UNL     1      -6.889  90.949  -7.372  1.00  0.00     0.162 A 
ATOM     15  C   UNL     1      -4.819  90.240  -9.122  1.00  0.00     0.062 A 
ATOM     16  C   UNL     1      -6.434  91.870  -8.332  1.00  0.00     0.200 A 
ATOM     17  C   UNL     1      -5.396  91.514  -9.202  1.00  0.00     0.162 A 
BRANCH  14  18
ATOM     18  O   UNL     1      -7.911  91.305  -6.494  1.00  0.00    -0.504 OA
ATOM     19  H   UNL     1      -8.388  92.196  -6.569  1.00  0.00     0.293 HD
ENDBRANCH  14  18
BRANCH  16  20
ATOM     20  O   UNL     1      -6.999  93.142  -8.428  1.00  0.00    -0.502 OA
ATOM     21  H   UNL     1      -7.979  93.282  -8.647  1.00  0.00     0.293 HD
ENDBRANCH  16  20
BRANCH  17  22
ATOM     22  O   UNL     1      -4.943  92.434 -10.146  1.00  0.00    -0.504 OA
ATOM     23  H   UNL     1      -5.524  93.205 -10.458  1.00  0.00     0.293 HD
ENDBRANCH  17  22
ENDBRANCH   1  12
BRANCH   2  24
ATOM     24  O   UNL     1      -2.963  88.765  -6.524  1.00  0.00    -0.502 OA
ATOM     25  H   UNL     1      -3.319  88.984  -5.601  1.00  0.00     0.293 HD
ENDBRANCH   2  24
BRANCH   6  26
ATOM     26  O   UNL     1      -1.875  83.750  -7.375  1.00  0.00    -0.507 OA
ATOM     27  H   UNL     1      -1.856  83.777  -6.363  1.00  0.00     0.293 HD
ENDBRANCH   6  26
BRANCH   8  28
ATOM     28  O   UNL     1      -5.433  82.474 -10.374  1.00  0.00    -0.508 OA
ATOM     29  H   UNL     1      -5.666  82.628 -11.348  1.00  0.00     0.293 HD
ENDBRANCH   8  28
TORSDOF 7
ENDMDL
