MODEL 1
REMARK VINA RESULT:    -8.261      0.000      0.000
REMARK INTER + INTRA:         -12.070
REMARK INTER:                 -11.400
REMARK INTRA:                  -0.670
REMARK UNBOUND:                -0.670
REMARK SMILES O=C([O-])[C@@H]1O[C@H](Oc2cc3oc(-c4ccccc4)cc(=O)c3c(O)c2O)[C@@H](O)[C@@H](O)[C@H]1O
REMARK SMILES IDX 7 1 6 2 4 3 31 4 5 5 29 6 27 7 2 8 1 9 3 10 32 11 30 13
REMARK SMILES IDX 28 15 8 17 25 18 9 19 23 20 10 21 22 22 11 23 20 24 12 25
REMARK SMILES IDX 19 26 21 27 26 28 24 30 13 32 14 33 18 34 15 35 17 36 16 37
REMARK H PARENT 32 12 30 14 28 16 26 29 24 31
REMARK Flexibility Score: inf
ROOT
ATOM      1  O   UNL     1      -8.325 -67.978 -28.269  1.00  0.00    -0.458 OA
ENDROOT
BRANCH   1   2
ATOM      2  C   UNL     1      -8.591 -67.420 -26.980  1.00  0.00     0.339 C 
ATOM      3  C   UNL     1      -8.248 -69.437 -25.748  1.00  0.00     0.199 C 
ATOM      4  C   UNL     1      -6.899 -68.937 -25.175  1.00  0.00     0.180 C 
ATOM      5  O   UNL     1      -9.141 -68.378 -26.083  1.00  0.00    -0.328 OA
ATOM      6  C   UNL     1      -6.276 -67.866 -26.087  1.00  0.00     0.181 C 
ATOM      7  C   UNL     1      -7.305 -66.779 -26.425  1.00  0.00     0.214 C 
BRANCH   3   8
ATOM      8  C   UNL     1      -8.118 -70.441 -26.869  1.00  0.00     0.073 C 
ATOM      9  O   UNL     1      -7.049 -71.097 -26.997  1.00  0.00    -0.547 OA
ATOM     10  O   UNL     1      -9.155 -70.653 -27.771  1.00  0.00    -0.547 OA
ENDBRANCH   3   8
BRANCH   4  11
ATOM     11  O   UNL     1      -7.119 -68.404 -23.890  1.00  0.00    -0.387 OA
ATOM     12  H   UNL     1      -6.548 -67.599 -23.799  1.00  0.00     0.211 HD
ENDBRANCH   4  11
BRANCH   6  13
ATOM     13  O   UNL     1      -5.152 -67.284 -25.476  1.00  0.00    -0.387 OA
ATOM     14  H   UNL     1      -4.576 -68.031 -25.167  1.00  0.00     0.211 HD
ENDBRANCH   6  13
BRANCH   7  15
ATOM     15  O   UNL     1      -7.592 -66.009 -25.284  1.00  0.00    -0.384 OA
ATOM     16  H   UNL     1      -8.170 -65.259 -25.584  1.00  0.00     0.211 HD
ENDBRANCH   7  15
ENDBRANCH   1   2
BRANCH   1  17
ATOM     17  C   UNL     1      -8.399 -67.340 -29.525  1.00  0.00     0.172 A 
ATOM     18  C   UNL     1      -7.345 -66.592 -30.113  1.00  0.00     0.201 A 
ATOM     19  C   UNL     1      -9.616 -67.458 -30.197  1.00  0.00     0.098 A 
ATOM     20  C   UNL     1      -7.565 -65.922 -31.351  1.00  0.00     0.176 A 
ATOM     21  C   UNL     1      -9.822 -66.856 -31.434  1.00  0.00     0.146 A 
ATOM     22  C   UNL     1      -8.806 -66.075 -32.023  1.00  0.00     0.111 A 
ATOM     23  O   UNL     1     -10.992 -67.021 -32.042  1.00  0.00    -0.456 OA
ATOM     24  C   UNL     1      -9.098 -65.459 -33.260  1.00  0.00     0.197 A 
ATOM     25  C   UNL     1     -11.288 -66.475 -33.218  1.00  0.00     0.138 A 
ATOM     26  C   UNL     1     -10.338 -65.665 -33.861  1.00  0.00     0.100 A 
ATOM     27  O   UNL     1      -8.258 -64.721 -33.847  1.00  0.00    -0.289 OA
BRANCH  18  28
ATOM     28  O   UNL     1      -6.110 -66.532 -29.468  1.00  0.00    -0.502 OA
ATOM     29  H   UNL     1      -5.662 -67.308 -28.990  1.00  0.00     0.293 HD
ENDBRANCH  18  28
BRANCH  20  30
ATOM     30  O   UNL     1      -6.594 -65.090 -31.919  1.00  0.00    -0.504 OA
ATOM     31  H   UNL     1      -5.598 -65.159 -31.751  1.00  0.00     0.293 HD
ENDBRANCH  20  30
BRANCH  25  32
ATOM     32  C   UNL     1     -12.620 -66.739 -33.816  1.00  0.00     0.017 A 
ATOM     33  C   UNL     1     -13.809 -66.313 -33.187  1.00  0.00     0.012 A 
ATOM     34  C   UNL     1     -12.703 -67.395 -35.059  1.00  0.00     0.012 A 
ATOM     35  C   UNL     1     -15.051 -66.562 -33.781  1.00  0.00     0.001 A 
ATOM     36  C   UNL     1     -13.947 -67.645 -35.643  1.00  0.00     0.001 A 
ATOM     37  C   UNL     1     -15.121 -67.234 -35.003  1.00  0.00     0.000 A 
ENDBRANCH  25  32
ENDBRANCH   1  17
TORSDOF 9
ENDMDL
MODEL 2
REMARK VINA RESULT:    -8.121      3.421      7.859
REMARK INTER + INTRA:         -11.876
REMARK INTER:                 -10.871
REMARK INTRA:                  -1.005
REMARK UNBOUND:                -0.670
REMARK SMILES O=C([O-])[C@@H]1O[C@H](Oc2cc3oc(-c4ccccc4)cc(=O)c3c(O)c2O)[C@@H](O)[C@@H](O)[C@H]1O
REMARK SMILES IDX 7 1 6 2 4 3 31 4 5 5 29 6 27 7 2 8 1 9 3 10 32 11 30 13
REMARK SMILES IDX 28 15 8 17 25 18 9 19 23 20 10 21 22 22 11 23 20 24 12 25
REMARK SMILES IDX 19 26 21 27 26 28 24 30 13 32 14 33 18 34 15 35 17 36 16 37
REMARK H PARENT 32 12 30 14 28 16 26 29 24 31
REMARK Flexibility Score: inf
ROOT
ATOM      1  O   UNL     1      -6.083 -64.079 -34.258  1.00  0.00    -0.458 OA
ENDROOT
BRANCH   1   2
ATOM      2  C   UNL     1      -5.125 -64.569 -35.199  1.00  0.00     0.339 C 
ATOM      3  C   UNL     1      -5.759 -63.122 -36.990  1.00  0.00     0.199 C 
ATOM      4  C   UNL     1      -4.481 -62.261 -36.837  1.00  0.00     0.180 C 
ATOM      5  O   UNL     1      -5.589 -64.463 -36.541  1.00  0.00    -0.328 OA
ATOM      6  C   UNL     1      -3.911 -62.370 -35.411  1.00  0.00     0.181 C 
ATOM      7  C   UNL     1      -3.784 -63.839 -34.991  1.00  0.00     0.214 C 
BRANCH   3   8
ATOM      8  C   UNL     1      -7.009 -62.492 -36.423  1.00  0.00     0.073 C 
ATOM      9  O   UNL     1      -8.116 -63.083 -36.547  1.00  0.00    -0.547 OA
ATOM     10  O   UNL     1      -6.967 -61.265 -35.770  1.00  0.00    -0.547 OA
ENDBRANCH   3   8
BRANCH   4  11
ATOM     11  O   UNL     1      -3.522 -62.699 -37.771  1.00  0.00    -0.387 OA
ATOM     12  H   UNL     1      -3.119 -63.532 -37.418  1.00  0.00     0.211 HD
ENDBRANCH   4  11
BRANCH   6  13
ATOM     13  O   UNL     1      -2.658 -61.741 -35.327  1.00  0.00    -0.387 OA
ATOM     14  H   UNL     1      -2.743 -60.870 -35.796  1.00  0.00     0.211 HD
ENDBRANCH   6  13
BRANCH   7  15
ATOM     15  O   UNL     1      -2.763 -64.469 -35.725  1.00  0.00    -0.384 OA
ATOM     16  H   UNL     1      -3.204 -65.144 -36.305  1.00  0.00     0.211 HD
ENDBRANCH   7  15
ENDBRANCH   1   2
BRANCH   1  17
ATOM     17  C   UNL     1      -6.882 -64.823 -33.364  1.00  0.00     0.172 A 
ATOM     18  C   UNL     1      -6.408 -65.424 -32.167  1.00  0.00     0.201 A 
ATOM     19  C   UNL     1      -8.221 -64.976 -33.726  1.00  0.00     0.098 A 
ATOM     20  C   UNL     1      -7.291 -66.223 -31.385  1.00  0.00     0.176 A 
ATOM     21  C   UNL     1      -9.106 -65.705 -32.938  1.00  0.00     0.146 A 
ATOM     22  C   UNL     1      -8.653 -66.344 -31.765  1.00  0.00     0.111 A 
ATOM     23  O   UNL     1     -10.376 -65.797 -33.316  1.00  0.00    -0.456 OA
ATOM     24  C   UNL     1      -9.595 -67.102 -31.036  1.00  0.00     0.197 A 
ATOM     25  C   UNL     1     -11.292 -66.482 -32.638  1.00  0.00     0.138 A 
ATOM     26  C   UNL     1     -10.918 -67.166 -31.470  1.00  0.00     0.100 A 
ATOM     27  O   UNL     1      -9.273 -67.729 -29.989  1.00  0.00    -0.289 OA
BRANCH  18  28
ATOM     28  O   UNL     1      -5.085 -65.215 -31.777  1.00  0.00    -0.502 OA
ATOM     29  H   UNL     1      -4.603 -65.730 -31.046  1.00  0.00     0.293 HD
ENDBRANCH  18  28
BRANCH  20  30
ATOM     30  O   UNL     1      -6.846 -66.917 -30.255  1.00  0.00    -0.504 OA
ATOM     31  H   UNL     1      -7.099 -66.697 -29.300  1.00  0.00     0.293 HD
ENDBRANCH  20  30
BRANCH  25  32
ATOM     32  C   UNL     1     -12.688 -66.504 -33.141  1.00  0.00     0.017 A 
ATOM     33  C   UNL     1     -13.026 -67.142 -34.354  1.00  0.00     0.012 A 
ATOM     34  C   UNL     1     -13.710 -65.912 -32.375  1.00  0.00     0.012 A 
ATOM     35  C   UNL     1     -14.353 -67.161 -34.797  1.00  0.00     0.001 A 
ATOM     36  C   UNL     1     -15.031 -65.930 -32.826  1.00  0.00     0.001 A 
ATOM     37  C   UNL     1     -15.352 -66.549 -34.039  1.00  0.00     0.000 A 
ENDBRANCH  25  32
ENDBRANCH   1  17
TORSDOF 9
ENDMDL
MODEL 3
REMARK VINA RESULT:    -7.634      2.636      4.509
REMARK INTER + INTRA:         -11.205
REMARK INTER:                  -9.955
REMARK INTRA:                  -1.249
REMARK UNBOUND:                -0.670
REMARK SMILES O=C([O-])[C@@H]1O[C@H](Oc2cc3oc(-c4ccccc4)cc(=O)c3c(O)c2O)[C@@H](O)[C@@H](O)[C@H]1O
REMARK SMILES IDX 7 1 6 2 4 3 31 4 5 5 29 6 27 7 2 8 1 9 3 10 32 11 30 13
REMARK SMILES IDX 28 15 8 17 25 18 9 19 23 20 10 21 22 22 11 23 20 24 12 25
REMARK SMILES IDX 19 26 21 27 26 28 24 30 13 32 14 33 18 34 15 35 17 36 16 37
REMARK H PARENT 32 12 30 14 28 16 26 29 24 31
REMARK Flexibility Score: inf
ROOT
ATOM      1  O   UNL     1      -4.939 -66.675 -26.052  1.00  0.00    -0.458 OA
ENDROOT
BRANCH   1   2
ATOM      2  C   UNL     1      -5.781 -67.682 -25.486  1.00  0.00     0.339 C 
ATOM      3  C   UNL     1      -4.104 -68.679 -24.110  1.00  0.00     0.199 C 
ATOM      4  C   UNL     1      -4.720 -68.091 -22.816  1.00  0.00     0.180 C 
ATOM      5  O   UNL     1      -5.058 -68.861 -25.152  1.00  0.00    -0.328 OA
ATOM      6  C   UNL     1      -5.549 -66.832 -23.123  1.00  0.00     0.181 C 
ATOM      7  C   UNL     1      -6.530 -67.100 -24.272  1.00  0.00     0.214 C 
BRANCH   3   8
ATOM      8  C   UNL     1      -2.867 -67.961 -24.596  1.00  0.00     0.073 C 
ATOM      9  O   UNL     1      -2.284 -68.361 -25.640  1.00  0.00    -0.547 OA
ATOM     10  O   UNL     1      -2.351 -66.867 -23.910  1.00  0.00    -0.547 OA
ENDBRANCH   3   8
BRANCH   4  11
ATOM     11  O   UNL     1      -5.536 -69.069 -22.215  1.00  0.00    -0.387 OA
ATOM     12  H   UNL     1      -5.248 -69.159 -21.271  1.00  0.00     0.211 HD
ENDBRANCH   4  11
BRANCH   6  13
ATOM     13  O   UNL     1      -6.255 -66.410 -21.984  1.00  0.00    -0.387 OA
ATOM     14  H   UNL     1      -6.694 -65.552 -22.222  1.00  0.00     0.211 HD
ENDBRANCH   6  13
BRANCH   7  15
ATOM     15  O   UNL     1      -7.544 -67.979 -23.851  1.00  0.00    -0.384 OA
ATOM     16  H   UNL     1      -7.707 -68.607 -24.604  1.00  0.00     0.211 HD
ENDBRANCH   7  15
ENDBRANCH   1   2
BRANCH   1  17
ATOM     17  C   UNL     1      -4.828 -66.295 -27.405  1.00  0.00     0.172 A 
ATOM     18  C   UNL     1      -3.630 -65.843 -28.021  1.00  0.00     0.201 A 
ATOM     19  C   UNL     1      -6.003 -66.361 -28.155  1.00  0.00     0.098 A 
ATOM     20  C   UNL     1      -3.659 -65.407 -29.377  1.00  0.00     0.176 A 
ATOM     21  C   UNL     1      -6.028 -65.993 -29.497  1.00  0.00     0.146 A 
ATOM     22  C   UNL     1      -4.862 -65.504 -30.122  1.00  0.00     0.111 A 
ATOM     23  O   UNL     1      -7.168 -66.100 -30.171  1.00  0.00    -0.456 OA
ATOM     24  C   UNL     1      -4.970 -65.110 -31.474  1.00  0.00     0.197 A 
ATOM     25  C   UNL     1      -7.295 -65.761 -31.450  1.00  0.00     0.138 A 
ATOM     26  C   UNL     1      -6.186 -65.245 -32.141  1.00  0.00     0.100 A 
ATOM     27  O   UNL     1      -3.985 -64.636 -32.106  1.00  0.00    -0.289 OA
BRANCH  18  28
ATOM     28  O   UNL     1      -2.445 -65.840 -27.285  1.00  0.00    -0.502 OA
ATOM     29  H   UNL     1      -2.374 -66.043 -26.291  1.00  0.00     0.293 HD
ENDBRANCH  18  28
BRANCH  20  30
ATOM     30  O   UNL     1      -2.530 -64.858 -29.996  1.00  0.00    -0.504 OA
ATOM     31  H   UNL     1      -2.462 -63.912 -30.349  1.00  0.00     0.293 HD
ENDBRANCH  20  30
BRANCH  25  32
ATOM     32  C   UNL     1      -8.612 -65.938 -32.111  1.00  0.00     0.017 A 
ATOM     33  C   UNL     1      -9.018 -65.112 -33.181  1.00  0.00     0.012 A 
ATOM     34  C   UNL     1      -9.463 -66.978 -31.692  1.00  0.00     0.012 A 
ATOM     35  C   UNL     1     -10.259 -65.311 -33.796  1.00  0.00     0.001 A 
ATOM     36  C   UNL     1     -10.702 -67.167 -32.307  1.00  0.00     0.001 A 
ATOM     37  C   UNL     1     -11.103 -66.331 -33.355  1.00  0.00     0.000 A 
ENDBRANCH  25  32
ENDBRANCH   1  17
TORSDOF 9
ENDMDL
MODEL 4
REMARK VINA RESULT:    -7.472      5.192      9.256
REMARK INTER + INTRA:         -10.981
REMARK INTER:                 -10.094
REMARK INTRA:                  -0.887
REMARK UNBOUND:                -0.670
REMARK SMILES O=C([O-])[C@@H]1O[C@H](Oc2cc3oc(-c4ccccc4)cc(=O)c3c(O)c2O)[C@@H](O)[C@@H](O)[C@H]1O
REMARK SMILES IDX 7 1 6 2 4 3 31 4 5 5 29 6 27 7 2 8 1 9 3 10 32 11 30 13
REMARK SMILES IDX 28 15 8 17 25 18 9 19 23 20 10 21 22 22 11 23 20 24 12 25
REMARK SMILES IDX 19 26 21 27 26 28 24 30 13 32 14 33 18 34 15 35 17 36 16 37
REMARK H PARENT 32 12 30 14 28 16 26 29 24 31
REMARK Flexibility Score: inf
ROOT
ATOM      1  O   UNL     1      -2.311 -64.190 -34.949  1.00  0.00    -0.458 OA
ENDROOT
BRANCH   1   2
ATOM      2  C   UNL     1      -1.508 -63.048 -35.258  1.00  0.00     0.339 C 
ATOM      3  C   UNL     1      -2.347 -62.732 -37.471  1.00  0.00     0.199 C 
ATOM      4  C   UNL     1      -3.155 -61.477 -37.059  1.00  0.00     0.180 C 
ATOM      5  O   UNL     1      -1.209 -62.962 -36.647  1.00  0.00    -0.328 OA
ATOM      6  C   UNL     1      -3.474 -61.497 -35.554  1.00  0.00     0.181 C 
ATOM      7  C   UNL     1      -2.206 -61.777 -34.737  1.00  0.00     0.214 C 
BRANCH   3   8
ATOM      8  C   UNL     1      -3.178 -63.981 -37.646  1.00  0.00     0.073 C 
ATOM      9  O   UNL     1      -2.640 -65.030 -38.093  1.00  0.00    -0.547 OA
ATOM     10  O   UNL     1      -4.532 -63.997 -37.329  1.00  0.00    -0.547 OA
ENDBRANCH   3   8
BRANCH   4  11
ATOM     11  O   UNL     1      -2.404 -60.328 -37.375  1.00  0.00    -0.387 OA
ATOM     12  H   UNL     1      -2.546 -59.669 -36.649  1.00  0.00     0.211 HD
ENDBRANCH   4  11
BRANCH   6  13
ATOM     13  O   UNL     1      -4.041 -60.277 -35.148  1.00  0.00    -0.387 OA
ATOM     14  H   UNL     1      -5.005 -60.319 -35.382  1.00  0.00     0.211 HD
ENDBRANCH   6  13
BRANCH   7  15
ATOM     15  O   UNL     1      -1.333 -60.676 -34.800  1.00  0.00    -0.384 OA
ATOM     16  H   UNL     1      -1.532 -60.109 -34.008  1.00  0.00     0.211 HD
ENDBRANCH   7  15
ENDBRANCH   1   2
BRANCH   1  17
ATOM     17  C   UNL     1      -2.965 -64.490 -33.736  1.00  0.00     0.172 A 
ATOM     18  C   UNL     1      -2.336 -64.504 -32.462  1.00  0.00     0.201 A 
ATOM     19  C   UNL     1      -4.319 -64.809 -33.837  1.00  0.00     0.098 A 
ATOM     20  C   UNL     1      -3.080 -64.904 -31.316  1.00  0.00     0.176 A 
ATOM     21  C   UNL     1      -5.070 -65.144 -32.714  1.00  0.00     0.146 A 
ATOM     22  C   UNL     1      -4.461 -65.204 -31.443  1.00  0.00     0.111 A 
ATOM     23  O   UNL     1      -6.362 -65.415 -32.863  1.00  0.00    -0.456 OA
ATOM     24  C   UNL     1      -5.274 -65.591 -30.354  1.00  0.00     0.197 A 
ATOM     25  C   UNL     1      -7.158 -65.757 -31.855  1.00  0.00     0.138 A 
ATOM     26  C   UNL     1      -6.625 -65.861 -30.559  1.00  0.00     0.100 A 
ATOM     27  O   UNL     1      -4.808 -65.697 -29.186  1.00  0.00    -0.289 OA
BRANCH  18  28
ATOM     28  O   UNL     1      -0.998 -64.121 -32.359  1.00  0.00    -0.502 OA
ATOM     29  H   UNL     1      -0.651 -63.362 -31.780  1.00  0.00     0.293 HD
ENDBRANCH  18  28
BRANCH  20  30
ATOM     30  O   UNL     1      -2.480 -65.033 -30.059  1.00  0.00    -0.504 OA
ATOM     31  H   UNL     1      -1.655 -64.532 -29.753  1.00  0.00     0.293 HD
ENDBRANCH  20  30
BRANCH  25  32
ATOM     32  C   UNL     1      -8.592 -66.022 -32.131  1.00  0.00     0.017 A 
ATOM     33  C   UNL     1      -9.299 -65.303 -33.118  1.00  0.00     0.012 A 
ATOM     34  C   UNL     1      -9.257 -67.041 -31.423  1.00  0.00     0.012 A 
ATOM     35  C   UNL     1     -10.646 -65.584 -33.369  1.00  0.00     0.001 A 
ATOM     36  C   UNL     1     -10.603 -67.312 -31.674  1.00  0.00     0.001 A 
ATOM     37  C   UNL     1     -11.300 -66.581 -32.642  1.00  0.00     0.000 A 
ENDBRANCH  25  32
ENDBRANCH   1  17
TORSDOF 9
ENDMDL
MODEL 5
REMARK VINA RESULT:    -7.294      8.255     12.896
REMARK INTER + INTRA:         -10.735
REMARK INTER:                 -10.157
REMARK INTRA:                  -0.578
REMARK UNBOUND:                -0.670
REMARK SMILES O=C([O-])[C@@H]1O[C@H](Oc2cc3oc(-c4ccccc4)cc(=O)c3c(O)c2O)[C@@H](O)[C@@H](O)[C@H]1O
REMARK SMILES IDX 7 1 6 2 4 3 31 4 5 5 29 6 27 7 2 8 1 9 3 10 32 11 30 13
REMARK SMILES IDX 28 15 8 17 25 18 9 19 23 20 10 21 22 22 11 23 20 24 12 25
REMARK SMILES IDX 19 26 21 27 26 28 24 30 13 32 14 33 18 34 15 35 17 36 16 37
REMARK H PARENT 32 12 30 14 28 16 26 29 24 31
REMARK Flexibility Score: inf
ROOT
ATOM      1  O   UNL     1      -6.634 -57.364 -36.550  1.00  0.00    -0.458 OA
ENDROOT
BRANCH   1   2
ATOM      2  C   UNL     1      -7.031 -56.747 -37.777  1.00  0.00     0.339 C 
ATOM      3  C   UNL     1      -5.648 -54.813 -37.554  1.00  0.00     0.199 C 
ATOM      4  C   UNL     1      -4.671 -55.302 -38.653  1.00  0.00     0.180 C 
ATOM      5  O   UNL     1      -6.967 -55.327 -37.709  1.00  0.00    -0.328 OA
ATOM      6  C   UNL     1      -4.727 -56.832 -38.798  1.00  0.00     0.181 C 
ATOM      7  C   UNL     1      -6.179 -57.309 -38.931  1.00  0.00     0.214 C 
BRANCH   3   8
ATOM      8  C   UNL     1      -5.138 -54.984 -36.143  1.00  0.00     0.073 C 
ATOM      9  O   UNL     1      -5.847 -54.600 -35.173  1.00  0.00    -0.547 OA
ATOM     10  O   UNL     1      -3.895 -55.553 -35.888  1.00  0.00    -0.547 OA
ENDBRANCH   3   8
BRANCH   4  11
ATOM     11  O   UNL     1      -5.016 -54.690 -39.874  1.00  0.00    -0.387 OA
ATOM     12  H   UNL     1      -5.353 -55.400 -40.478  1.00  0.00     0.211 HD
ENDBRANCH   4  11
BRANCH   6  13
ATOM     13  O   UNL     1      -3.984 -57.254 -39.914  1.00  0.00    -0.387 OA
ATOM     14  H   UNL     1      -4.634 -57.403 -40.650  1.00  0.00     0.211 HD
ENDBRANCH   6  13
BRANCH   7  15
ATOM     15  O   UNL     1      -6.710 -56.913 -40.172  1.00  0.00    -0.384 OA
ATOM     16  H   UNL     1      -7.520 -56.372 -39.976  1.00  0.00     0.211 HD
ENDBRANCH   7  15
ENDBRANCH   1   2
BRANCH   1  17
ATOM     17  C   UNL     1      -6.951 -58.657 -36.086  1.00  0.00     0.172 A 
ATOM     18  C   UNL     1      -7.497 -58.944 -34.806  1.00  0.00     0.201 A 
ATOM     19  C   UNL     1      -6.676 -59.705 -36.965  1.00  0.00     0.098 A 
ATOM     20  C   UNL     1      -7.699 -60.299 -34.416  1.00  0.00     0.176 A 
ATOM     21  C   UNL     1      -6.925 -61.029 -36.616  1.00  0.00     0.146 A 
ATOM     22  C   UNL     1      -7.430 -61.344 -35.337  1.00  0.00     0.111 A 
ATOM     23  O   UNL     1      -6.668 -61.985 -37.501  1.00  0.00    -0.456 OA
ATOM     24  C   UNL     1      -7.619 -62.711 -35.035  1.00  0.00     0.197 A 
ATOM     25  C   UNL     1      -6.859 -63.279 -37.256  1.00  0.00     0.138 A 
ATOM     26  C   UNL     1      -7.340 -63.678 -35.998  1.00  0.00     0.100 A 
ATOM     27  O   UNL     1      -8.043 -63.087 -33.907  1.00  0.00    -0.289 OA
BRANCH  18  28
ATOM     28  O   UNL     1      -7.830 -57.889 -33.956  1.00  0.00    -0.502 OA
ATOM     29  H   UNL     1      -8.777 -57.623 -33.698  1.00  0.00     0.293 HD
ENDBRANCH  18  28
BRANCH  20  30
ATOM     30  O   UNL     1      -8.138 -60.635 -33.131  1.00  0.00    -0.504 OA
ATOM     31  H   UNL     1      -7.615 -60.479 -32.278  1.00  0.00     0.293 HD
ENDBRANCH  20  30
BRANCH  25  32
ATOM     32  C   UNL     1      -6.555 -64.263 -38.323  1.00  0.00     0.017 A 
ATOM     33  C   UNL     1      -7.516 -64.622 -39.292  1.00  0.00     0.012 A 
ATOM     34  C   UNL     1      -5.266 -64.826 -38.400  1.00  0.00     0.012 A 
ATOM     35  C   UNL     1      -7.198 -65.542 -40.297  1.00  0.00     0.001 A 
ATOM     36  C   UNL     1      -4.957 -65.747 -39.402  1.00  0.00     0.001 A 
ATOM     37  C   UNL     1      -5.924 -66.110 -40.347  1.00  0.00     0.000 A 
ENDBRANCH  25  32
ENDBRANCH   1  17
TORSDOF 9
ENDMDL
MODEL 6
REMARK VINA RESULT:    -7.279      6.119      9.836
REMARK INTER + INTRA:         -10.714
REMARK INTER:                  -9.662
REMARK INTRA:                  -1.053
REMARK UNBOUND:                -0.670
REMARK SMILES O=C([O-])[C@@H]1O[C@H](Oc2cc3oc(-c4ccccc4)cc(=O)c3c(O)c2O)[C@@H](O)[C@@H](O)[C@H]1O
REMARK SMILES IDX 7 1 6 2 4 3 31 4 5 5 29 6 27 7 2 8 1 9 3 10 32 11 30 13
REMARK SMILES IDX 28 15 8 17 25 18 9 19 23 20 10 21 22 22 11 23 20 24 12 25
REMARK SMILES IDX 19 26 21 27 26 28 24 30 13 32 14 33 18 34 15 35 17 36 16 37
REMARK H PARENT 32 12 30 14 28 16 26 29 24 31
REMARK Flexibility Score: inf
ROOT
ATOM      1  O   UNL     1     -10.784 -65.654 -24.321  1.00  0.00    -0.458 OA
ENDROOT
BRANCH   1   2
ATOM      2  C   UNL     1     -11.286 -65.384 -23.010  1.00  0.00     0.339 C 
ATOM      3  C   UNL     1     -13.336 -64.385 -23.718  1.00  0.00     0.199 C 
ATOM      4  C   UNL     1     -14.167 -65.617 -23.280  1.00  0.00     0.180 C 
ATOM      5  O   UNL     1     -12.126 -64.235 -22.982  1.00  0.00    -0.328 OA
ATOM      6  C   UNL     1     -13.297 -66.886 -23.254  1.00  0.00     0.181 C 
ATOM      7  C   UNL     1     -12.003 -66.637 -22.469  1.00  0.00     0.214 C 
BRANCH   3   8
ATOM      8  C   UNL     1     -13.107 -64.281 -25.207  1.00  0.00     0.073 C 
ATOM      9  O   UNL     1     -13.610 -65.145 -25.976  1.00  0.00    -0.547 OA
ATOM     10  O   UNL     1     -12.345 -63.253 -25.750  1.00  0.00    -0.547 OA
ENDBRANCH   3   8
BRANCH   4  11
ATOM     11  O   UNL     1     -14.702 -65.375 -22.000  1.00  0.00    -0.387 OA
ATOM     12  H   UNL     1     -13.953 -65.107 -21.409  1.00  0.00     0.211 HD
ENDBRANCH   4  11
BRANCH   6  13
ATOM     13  O   UNL     1     -14.000 -67.960 -22.682  1.00  0.00    -0.387 OA
ATOM     14  H   UNL     1     -13.394 -68.375 -22.014  1.00  0.00     0.211 HD
ENDBRANCH   6  13
BRANCH   7  15
ATOM     15  O   UNL     1     -12.284 -66.490 -21.099  1.00  0.00    -0.384 OA
ATOM     16  H   UNL     1     -11.687 -65.771 -20.761  1.00  0.00     0.211 HD
ENDBRANCH   7  15
ENDBRANCH   1   2
BRANCH   1  17
ATOM     17  C   UNL     1      -9.818 -66.607 -24.702  1.00  0.00     0.172 A 
ATOM     18  C   UNL     1     -10.092 -67.771 -25.470  1.00  0.00     0.201 A 
ATOM     19  C   UNL     1      -8.517 -66.368 -24.259  1.00  0.00     0.098 A 
ATOM     20  C   UNL     1      -9.048 -68.707 -25.724  1.00  0.00     0.176 A 
ATOM     21  C   UNL     1      -7.478 -67.246 -24.552  1.00  0.00     0.146 A 
ATOM     22  C   UNL     1      -7.730 -68.429 -25.279  1.00  0.00     0.111 A 
ATOM     23  O   UNL     1      -6.253 -66.957 -24.126  1.00  0.00    -0.456 OA
ATOM     24  C   UNL     1      -6.637 -69.295 -25.504  1.00  0.00     0.197 A 
ATOM     25  C   UNL     1      -5.200 -67.739 -24.343  1.00  0.00     0.138 A 
ATOM     26  C   UNL     1      -5.370 -68.946 -25.042  1.00  0.00     0.100 A 
ATOM     27  O   UNL     1      -6.775 -70.387 -26.122  1.00  0.00    -0.289 OA
BRANCH  18  28
ATOM     28  O   UNL     1     -11.380 -67.972 -25.965  1.00  0.00    -0.502 OA
ATOM     29  H   UNL     1     -12.232 -67.620 -25.538  1.00  0.00     0.293 HD
ENDBRANCH  18  28
BRANCH  20  30
ATOM     30  O   UNL     1      -9.290 -69.915 -26.386  1.00  0.00    -0.504 OA
ATOM     31  H   UNL     1     -10.029 -70.567 -26.155  1.00  0.00     0.293 HD
ENDBRANCH  20  30
BRANCH  25  32
ATOM     32  C   UNL     1      -3.873 -67.311 -23.838  1.00  0.00     0.017 A 
ATOM     33  C   UNL     1      -2.744 -67.251 -24.684  1.00  0.00     0.012 A 
ATOM     34  C   UNL     1      -3.738 -66.915 -22.493  1.00  0.00     0.012 A 
ATOM     35  C   UNL     1      -1.508 -66.828 -24.184  1.00  0.00     0.001 A 
ATOM     36  C   UNL     1      -2.500 -66.500 -22.000  1.00  0.00     0.001 A 
ATOM     37  C   UNL     1      -1.383 -66.462 -22.843  1.00  0.00     0.000 A 
ENDBRANCH  25  32
ENDBRANCH   1  17
TORSDOF 9
ENDMDL
MODEL 7
REMARK VINA RESULT:    -7.207      2.418      4.289
REMARK INTER + INTRA:         -10.616
REMARK INTER:                  -9.739
REMARK INTRA:                  -0.877
REMARK UNBOUND:                -0.670
REMARK SMILES O=C([O-])[C@@H]1O[C@H](Oc2cc3oc(-c4ccccc4)cc(=O)c3c(O)c2O)[C@@H](O)[C@@H](O)[C@H]1O
REMARK SMILES IDX 7 1 6 2 4 3 31 4 5 5 29 6 27 7 2 8 1 9 3 10 32 11 30 13
REMARK SMILES IDX 28 15 8 17 25 18 9 19 23 20 10 21 22 22 11 23 20 24 12 25
REMARK SMILES IDX 19 26 21 27 26 28 24 30 13 32 14 33 18 34 15 35 17 36 16 37
REMARK H PARENT 32 12 30 14 28 16 26 29 24 31
REMARK Flexibility Score: inf
ROOT
ATOM      1  O   UNL     1      -5.210 -66.521 -25.920  1.00  0.00    -0.458 OA
ENDROOT
BRANCH   1   2
ATOM      2  C   UNL     1      -4.416 -67.406 -25.127  1.00  0.00     0.339 C 
ATOM      3  C   UNL     1      -6.188 -68.140 -23.705  1.00  0.00     0.199 C 
ATOM      4  C   UNL     1      -6.242 -69.534 -24.377  1.00  0.00     0.180 C 
ATOM      5  O   UNL     1      -4.908 -67.522 -23.797  1.00  0.00    -0.328 OA
ATOM      6  C   UNL     1      -5.683 -69.476 -25.810  1.00  0.00     0.181 C 
ATOM      7  C   UNL     1      -4.320 -68.774 -25.829  1.00  0.00     0.214 C 
BRANCH   3   8
ATOM      8  C   UNL     1      -7.297 -67.202 -24.119  1.00  0.00     0.073 C 
ATOM      9  O   UNL     1      -7.453 -66.111 -23.506  1.00  0.00    -0.547 OA
ATOM     10  O   UNL     1      -8.159 -67.521 -25.162  1.00  0.00    -0.547 OA
ENDBRANCH   3   8
BRANCH   4  11
ATOM     11  O   UNL     1      -5.491 -70.442 -23.605  1.00  0.00    -0.387 OA
ATOM     12  H   UNL     1      -5.372 -70.042 -22.707  1.00  0.00     0.211 HD
ENDBRANCH   4  11
BRANCH   6  13
ATOM     13  O   UNL     1      -5.561 -70.768 -26.350  1.00  0.00    -0.387 OA
ATOM     14  H   UNL     1      -5.775 -70.695 -27.316  1.00  0.00     0.211 HD
ENDBRANCH   6  13
BRANCH   7  15
ATOM     15  O   UNL     1      -3.349 -69.579 -25.208  1.00  0.00    -0.384 OA
ATOM     16  H   UNL     1      -3.302 -69.288 -24.259  1.00  0.00     0.211 HD
ENDBRANCH   7  15
ENDBRANCH   1   2
BRANCH   1  17
ATOM     17  C   UNL     1      -5.041 -66.184 -27.280  1.00  0.00     0.172 A 
ATOM     18  C   UNL     1      -3.817 -65.754 -27.859  1.00  0.00     0.201 A 
ATOM     19  C   UNL     1      -6.183 -66.273 -28.076  1.00  0.00     0.098 A 
ATOM     20  C   UNL     1      -3.787 -65.362 -29.227  1.00  0.00     0.176 A 
ATOM     21  C   UNL     1      -6.151 -65.948 -29.429  1.00  0.00     0.146 A 
ATOM     22  C   UNL     1      -4.958 -65.481 -30.019  1.00  0.00     0.111 A 
ATOM     23  O   UNL     1      -7.262 -66.075 -30.146  1.00  0.00    -0.456 OA
ATOM     24  C   UNL     1      -5.008 -65.130 -31.386  1.00  0.00     0.197 A 
ATOM     25  C   UNL     1      -7.334 -65.776 -31.440  1.00  0.00     0.138 A 
ATOM     26  C   UNL     1      -6.196 -65.284 -32.099  1.00  0.00     0.100 A 
ATOM     27  O   UNL     1      -3.996 -64.678 -31.991  1.00  0.00    -0.289 OA
BRANCH  18  28
ATOM     28  O   UNL     1      -2.664 -65.729 -27.073  1.00  0.00    -0.502 OA
ATOM     29  H   UNL     1      -1.713 -65.771 -27.430  1.00  0.00     0.293 HD
ENDBRANCH  18  28
BRANCH  20  30
ATOM     30  O   UNL     1      -2.632 -64.835 -29.815  1.00  0.00    -0.504 OA
ATOM     31  H   UNL     1      -2.443 -63.849 -29.946  1.00  0.00     0.293 HD
ENDBRANCH  20  30
BRANCH  25  32
ATOM     32  C   UNL     1      -8.622 -65.972 -32.150  1.00  0.00     0.017 A 
ATOM     33  C   UNL     1      -9.526 -66.988 -31.773  1.00  0.00     0.012 A 
ATOM     34  C   UNL     1      -8.974 -65.100 -33.199  1.00  0.00     0.012 A 
ATOM     35  C   UNL     1     -10.741 -67.140 -32.450  1.00  0.00     0.001 A 
ATOM     36  C   UNL     1     -10.186 -65.262 -33.873  1.00  0.00     0.001 A 
ATOM     37  C   UNL     1     -11.067 -66.284 -33.504  1.00  0.00     0.000 A 
ENDBRANCH  25  32
ENDBRANCH   1  17
TORSDOF 9
ENDMDL
MODEL 8
REMARK VINA RESULT:    -6.820     11.552     15.503
REMARK INTER + INTRA:         -10.082
REMARK INTER:                  -9.124
REMARK INTRA:                  -0.957
REMARK UNBOUND:                -0.670
REMARK SMILES O=C([O-])[C@@H]1O[C@H](Oc2cc3oc(-c4ccccc4)cc(=O)c3c(O)c2O)[C@@H](O)[C@@H](O)[C@H]1O
REMARK SMILES IDX 7 1 6 2 4 3 31 4 5 5 29 6 27 7 2 8 1 9 3 10 32 11 30 13
REMARK SMILES IDX 28 15 8 17 25 18 9 19 23 20 10 21 22 22 11 23 20 24 12 25
REMARK SMILES IDX 19 26 21 27 26 28 24 30 13 32 14 33 18 34 15 35 17 36 16 37
REMARK H PARENT 32 12 30 14 28 16 26 29 24 31
REMARK Flexibility Score: inf
ROOT
ATOM      1  O   UNL     1      -4.691 -55.452 -36.458  1.00  0.00    -0.458 OA
ENDROOT
BRANCH   1   2
ATOM      2  C   UNL     1      -4.649 -56.549 -37.373  1.00  0.00     0.339 C 
ATOM      3  C   UNL     1      -7.012 -56.728 -37.671  1.00  0.00     0.199 C 
ATOM      4  C   UNL     1      -6.945 -56.133 -39.099  1.00  0.00     0.180 C 
ATOM      5  O   UNL     1      -5.805 -57.374 -37.276  1.00  0.00    -0.328 OA
ATOM      6  C   UNL     1      -5.690 -55.261 -39.275  1.00  0.00     0.181 C 
ATOM      7  C   UNL     1      -4.440 -56.014 -38.803  1.00  0.00     0.214 C 
BRANCH   3   8
ATOM      8  C   UNL     1      -7.509 -55.768 -36.616  1.00  0.00     0.073 C 
ATOM      9  O   UNL     1      -7.905 -54.620 -36.955  1.00  0.00    -0.547 OA
ATOM     10  O   UNL     1      -7.532 -56.122 -35.272  1.00  0.00    -0.547 OA
ENDBRANCH   3   8
BRANCH   4  11
ATOM     11  O   UNL     1      -6.931 -57.188 -40.032  1.00  0.00    -0.387 OA
ATOM     12  H   UNL     1      -7.045 -56.791 -40.933  1.00  0.00     0.211 HD
ENDBRANCH   4  11
BRANCH   6  13
ATOM     13  O   UNL     1      -5.534 -54.876 -40.617  1.00  0.00    -0.387 OA
ATOM     14  H   UNL     1      -5.548 -53.883 -40.633  1.00  0.00     0.211 HD
ENDBRANCH   6  13
BRANCH   7  15
ATOM     15  O   UNL     1      -4.145 -57.069 -39.685  1.00  0.00    -0.384 OA
ATOM     16  H   UNL     1      -3.595 -57.722 -39.175  1.00  0.00     0.211 HD
ENDBRANCH   7  15
ENDBRANCH   1   2
BRANCH   1  17
ATOM     17  C   UNL     1      -3.947 -55.282 -35.271  1.00  0.00     0.172 A 
ATOM     18  C   UNL     1      -3.556 -54.025 -34.737  1.00  0.00     0.201 A 
ATOM     19  C   UNL     1      -3.571 -56.454 -34.615  1.00  0.00     0.098 A 
ATOM     20  C   UNL     1      -2.734 -53.981 -33.575  1.00  0.00     0.176 A 
ATOM     21  C   UNL     1      -2.817 -56.420 -33.445  1.00  0.00     0.146 A 
ATOM     22  C   UNL     1      -2.382 -55.187 -32.915  1.00  0.00     0.111 A 
ATOM     23  O   UNL     1      -2.508 -57.566 -32.847  1.00  0.00    -0.456 OA
ATOM     24  C   UNL     1      -1.586 -55.230 -31.750  1.00  0.00     0.197 A 
ATOM     25  C   UNL     1      -1.782 -57.636 -31.736  1.00  0.00     0.138 A 
ATOM     26  C   UNL     1      -1.292 -56.455 -31.155  1.00  0.00     0.100 A 
ATOM     27  O   UNL     1      -1.131 -54.178 -31.221  1.00  0.00    -0.289 OA
BRANCH  18  28
ATOM     28  O   UNL     1      -3.989 -52.855 -35.362  1.00  0.00    -0.502 OA
ATOM     29  H   UNL     1      -4.919 -52.708 -35.745  1.00  0.00     0.293 HD
ENDBRANCH  18  28
BRANCH  20  30
ATOM     30  O   UNL     1      -2.238 -52.774 -33.071  1.00  0.00    -0.504 OA
ATOM     31  H   UNL     1      -1.586 -52.688 -32.301  1.00  0.00     0.293 HD
ENDBRANCH  20  30
BRANCH  25  32
ATOM     32  C   UNL     1      -1.510 -58.968 -31.141  1.00  0.00     0.017 A 
ATOM     33  C   UNL     1      -1.175 -60.081 -31.943  1.00  0.00     0.012 A 
ATOM     34  C   UNL     1      -1.545 -59.122 -29.742  1.00  0.00     0.012 A 
ATOM     35  C   UNL     1      -0.908 -61.321 -31.354  1.00  0.00     0.001 A 
ATOM     36  C   UNL     1      -1.283 -60.365 -29.162  1.00  0.00     0.001 A 
ATOM     37  C   UNL     1      -0.970 -61.466 -29.967  1.00  0.00     0.000 A 
ENDBRANCH  25  32
ENDBRANCH   1  17
TORSDOF 9
ENDMDL
MODEL 9
REMARK VINA RESULT:    -6.788     10.593     14.130
REMARK INTER + INTRA:         -10.037
REMARK INTER:                  -8.837
REMARK INTRA:                  -1.200
REMARK UNBOUND:                -0.670
REMARK SMILES O=C([O-])[C@@H]1O[C@H](Oc2cc3oc(-c4ccccc4)cc(=O)c3c(O)c2O)[C@@H](O)[C@@H](O)[C@H]1O
REMARK SMILES IDX 7 1 6 2 4 3 31 4 5 5 29 6 27 7 2 8 1 9 3 10 32 11 30 13
REMARK SMILES IDX 28 15 8 17 25 18 9 19 23 20 10 21 22 22 11 23 20 24 12 25
REMARK SMILES IDX 19 26 21 27 26 28 24 30 13 32 14 33 18 34 15 35 17 36 16 37
REMARK H PARENT 32 12 30 14 28 16 26 29 24 31
REMARK Flexibility Score: inf
ROOT
ATOM      1  O   UNL     1      -3.340 -56.028 -34.545  1.00  0.00    -0.458 OA
ENDROOT
BRANCH   1   2
ATOM      2  C   UNL     1      -4.419 -55.497 -35.319  1.00  0.00     0.339 C 
ATOM      3  C   UNL     1      -4.756 -53.544 -33.986  1.00  0.00     0.199 C 
ATOM      4  C   UNL     1      -4.138 -52.619 -35.064  1.00  0.00     0.180 C 
ATOM      5  O   UNL     1      -5.323 -54.734 -34.527  1.00  0.00    -0.328 OA
ATOM      6  C   UNL     1      -3.179 -53.402 -35.977  1.00  0.00     0.181 C 
ATOM      7  C   UNL     1      -3.850 -54.680 -36.495  1.00  0.00     0.214 C 
BRANCH   3   8
ATOM      8  C   UNL     1      -3.848 -53.834 -32.815  1.00  0.00     0.073 C 
ATOM      9  O   UNL     1      -4.262 -54.560 -31.870  1.00  0.00    -0.547 OA
ATOM     10  O   UNL     1      -2.562 -53.309 -32.751  1.00  0.00    -0.547 OA
ENDBRANCH   3   8
BRANCH   4  11
ATOM     11  O   UNL     1      -5.176 -52.054 -35.830  1.00  0.00    -0.387 OA
ATOM     12  H   UNL     1      -4.782 -51.328 -36.377  1.00  0.00     0.211 HD
ENDBRANCH   4  11
BRANCH   6  13
ATOM     13  O   UNL     1      -2.764 -52.610 -37.061  1.00  0.00    -0.387 OA
ATOM     14  H   UNL     1      -2.630 -51.692 -36.708  1.00  0.00     0.211 HD
ENDBRANCH   6  13
BRANCH   7  15
ATOM     15  O   UNL     1      -4.870 -54.359 -37.409  1.00  0.00    -0.384 OA
ATOM     16  H   UNL     1      -5.487 -53.737 -36.940  1.00  0.00     0.211 HD
ENDBRANCH   7  15
ENDBRANCH   1   2
BRANCH   1  17
ATOM     17  C   UNL     1      -3.034 -57.382 -34.296  1.00  0.00     0.172 A 
ATOM     18  C   UNL     1      -2.803 -57.934 -33.008  1.00  0.00     0.201 A 
ATOM     19  C   UNL     1      -2.941 -58.202 -35.421  1.00  0.00     0.098 A 
ATOM     20  C   UNL     1      -2.420 -59.300 -32.887  1.00  0.00     0.176 A 
ATOM     21  C   UNL     1      -2.624 -59.553 -35.309  1.00  0.00     0.146 A 
ATOM     22  C   UNL     1      -2.351 -60.117 -34.045  1.00  0.00     0.111 A 
ATOM     23  O   UNL     1      -2.573 -60.293 -36.411  1.00  0.00    -0.456 OA
ATOM     24  C   UNL     1      -1.996 -61.483 -34.010  1.00  0.00     0.197 A 
ATOM     25  C   UNL     1      -2.266 -61.588 -36.407  1.00  0.00     0.138 A 
ATOM     26  C   UNL     1      -1.960 -62.221 -35.192  1.00  0.00     0.100 A 
ATOM     27  O   UNL     1      -1.710 -62.065 -32.927  1.00  0.00    -0.289 OA
BRANCH  18  28
ATOM     28  O   UNL     1      -2.962 -57.125 -31.882  1.00  0.00    -0.502 OA
ATOM     29  H   UNL     1      -3.842 -56.723 -31.570  1.00  0.00     0.293 HD
ENDBRANCH  18  28
BRANCH  20  30
ATOM     30  O   UNL     1      -2.082 -59.862 -31.651  1.00  0.00    -0.504 OA
ATOM     31  H   UNL     1      -1.748 -60.807 -31.513  1.00  0.00     0.293 HD
ENDBRANCH  20  30
BRANCH  25  32
ATOM     32  C   UNL     1      -2.255 -62.325 -37.695  1.00  0.00     0.017 A 
ATOM     33  C   UNL     1      -1.368 -61.978 -38.737  1.00  0.00     0.012 A 
ATOM     34  C   UNL     1      -3.119 -63.422 -37.872  1.00  0.00     0.012 A 
ATOM     35  C   UNL     1      -1.369 -62.701 -39.935  1.00  0.00     0.001 A 
ATOM     36  C   UNL     1      -3.118 -64.135 -39.073  1.00  0.00     0.001 A 
ATOM     37  C   UNL     1      -2.248 -63.772 -40.106  1.00  0.00     0.000 A 
ENDBRANCH  25  32
ENDBRANCH   1  17
TORSDOF 9
ENDMDL
