MODEL 1
REMARK VINA RESULT:    -8.479      0.000      0.000
REMARK INTER + INTRA:          -9.714
REMARK INTER:                  -9.966
REMARK INTRA:                   0.252
REMARK UNBOUND:                 0.252
REMARK SMILES O=c1c(O)c(-c2ccc(O)cc2)oc2cc(O)cc(O)c12
REMARK SMILES IDX 5 1 3 2 2 3 1 4 21 5 19 6 18 7 16 8 15 9 14 10 13 11 6 12
REMARK SMILES IDX 7 13 8 14 9 15 12 16 11 17 10 18 4 20 20 22 17 24
REMARK H PARENT 10 19 4 21 20 23 17 25
REMARK Flexibility Score: inf
ROOT
ATOM      1  C   UNL     1     139.933 -18.556  80.773  1.00  0.00     0.180 A 
ATOM      2  C   UNL     1     139.514 -17.212  80.703  1.00  0.00     0.208 A 
ATOM      3  C   UNL     1     139.355 -16.617  79.442  1.00  0.00     0.238 A 
ATOM      4  O   UNL     1     138.970 -15.418  79.366  1.00  0.00    -0.285 OA
ATOM      5  C   UNL     1     139.635 -17.363  78.278  1.00  0.00     0.111 A 
ATOM      6  C   UNL     1     139.502 -16.836  76.971  1.00  0.00     0.134 A 
ATOM      7  C   UNL     1     139.810 -17.640  75.863  1.00  0.00     0.093 A 
ATOM      8  C   UNL     1     140.244 -18.956  76.036  1.00  0.00     0.123 A 
ATOM      9  C   UNL     1     140.376 -19.483  77.326  1.00  0.00     0.094 A 
ATOM     10  C   UNL     1     140.075 -18.698  78.442  1.00  0.00     0.146 A 
ATOM     11  O   UNL     1     140.202 -19.223  79.655  1.00  0.00    -0.452 OA
ENDROOT
BRANCH   1  12
ATOM     12  C   UNL     1     140.107 -19.259  82.065  1.00  0.00     0.021 A 
ATOM     13  C   UNL     1     139.755 -20.615  82.165  1.00  0.00     0.016 A 
ATOM     14  C   UNL     1     139.889 -21.293  83.381  1.00  0.00     0.047 A 
ATOM     15  C   UNL     1     140.361 -20.620  84.515  1.00  0.00     0.115 A 
ATOM     16  C   UNL     1     140.561 -18.584  83.213  1.00  0.00     0.016 A 
ATOM     17  C   UNL     1     140.693 -19.264  84.427  1.00  0.00     0.047 A 
BRANCH  15  18
ATOM     18  O   UNL     1     140.499 -21.284  85.730  1.00  0.00    -0.508 OA
ATOM     19  H   UNL     1     141.408 -21.565  86.080  1.00  0.00     0.293 HD
ENDBRANCH  15  18
ENDBRANCH   1  12
BRANCH   2  20
ATOM     20  O   UNL     1     139.291 -16.481  81.872  1.00  0.00    -0.502 OA
ATOM     21  H   UNL     1     140.007 -16.358  82.580  1.00  0.00     0.293 HD
ENDBRANCH   2  20
BRANCH   6  22
ATOM     22  O   UNL     1     139.072 -15.525  76.765  1.00  0.00    -0.507 OA
ATOM     23  H   UNL     1     138.857 -15.174  75.839  1.00  0.00     0.293 HD
ENDBRANCH   6  22
BRANCH   8  24
ATOM     24  O   UNL     1     140.544 -19.733  74.919  1.00  0.00    -0.508 OA
ATOM     25  H   UNL     1     139.816 -20.182  74.375  1.00  0.00     0.293 HD
ENDBRANCH   8  24
TORSDOF 5
ENDMDL
MODEL 2
REMARK VINA RESULT:    -8.341      2.126      6.859
REMARK INTER + INTRA:          -9.553
REMARK INTER:                  -9.324
REMARK INTRA:                  -0.228
REMARK UNBOUND:                 0.252
REMARK SMILES O=c1c(O)c(-c2ccc(O)cc2)oc2cc(O)cc(O)c12
REMARK SMILES IDX 5 1 3 2 2 3 1 4 21 5 19 6 18 7 16 8 15 9 14 10 13 11 6 12
REMARK SMILES IDX 7 13 8 14 9 15 12 16 11 17 10 18 4 20 20 22 17 24
REMARK H PARENT 10 19 4 21 20 23 17 25
REMARK Flexibility Score: inf
ROOT
ATOM      1  C   UNL     1     139.844 -17.851  80.315  1.00  0.00     0.180 A 
ATOM      2  C   UNL     1     139.323 -19.051  79.790  1.00  0.00     0.208 A 
ATOM      3  C   UNL     1     139.218 -20.169  80.632  1.00  0.00     0.238 A 
ATOM      4  O   UNL     1     138.742 -21.245  80.178  1.00  0.00    -0.285 OA
ATOM      5  C   UNL     1     139.651 -20.077  81.971  1.00  0.00     0.111 A 
ATOM      6  C   UNL     1     139.582 -21.158  82.884  1.00  0.00     0.134 A 
ATOM      7  C   UNL     1     140.043 -20.988  84.198  1.00  0.00     0.093 A 
ATOM      8  C   UNL     1     140.569 -19.765  84.617  1.00  0.00     0.123 A 
ATOM      9  C   UNL     1     140.639 -18.693  83.721  1.00  0.00     0.094 A 
ATOM     10  C   UNL     1     140.184 -18.841  82.407  1.00  0.00     0.146 A 
ATOM     11  O   UNL     1     140.257 -17.806  81.577  1.00  0.00    -0.452 OA
ENDROOT
BRANCH   1  12
ATOM     12  C   UNL     1     139.970 -16.624  79.495  1.00  0.00     0.021 A 
ATOM     13  C   UNL     1     141.246 -16.165  79.130  1.00  0.00     0.016 A 
ATOM     14  C   UNL     1     141.389 -14.996  78.376  1.00  0.00     0.047 A 
ATOM     15  C   UNL     1     140.260 -14.264  77.991  1.00  0.00     0.115 A 
ATOM     16  C   UNL     1     138.841 -15.872  79.122  1.00  0.00     0.016 A 
ATOM     17  C   UNL     1     138.986 -14.704  78.368  1.00  0.00     0.047 A 
BRANCH  15  18
ATOM     18  O   UNL     1     140.390 -13.099  77.239  1.00  0.00    -0.508 OA
ATOM     19  H   UNL     1     141.278 -12.620  77.155  1.00  0.00     0.293 HD
ENDBRANCH  15  18
ENDBRANCH   1  12
BRANCH   2  20
ATOM     20  O   UNL     1     138.947 -19.130  78.447  1.00  0.00    -0.502 OA
ATOM     21  H   UNL     1     138.512 -19.956  78.054  1.00  0.00     0.293 HD
ENDBRANCH   2  20
BRANCH   6  22
ATOM     22  O   UNL     1     139.063 -22.393  82.496  1.00  0.00    -0.507 OA
ATOM     23  H   UNL     1     139.586 -23.030  81.907  1.00  0.00     0.293 HD
ENDBRANCH   6  22
BRANCH   8  24
ATOM     24  O   UNL     1     141.020 -19.624  85.927  1.00  0.00    -0.508 OA
ATOM     25  H   UNL     1     141.127 -20.424  86.540  1.00  0.00     0.293 HD
ENDBRANCH   8  24
TORSDOF 5
ENDMDL
MODEL 3
REMARK VINA RESULT:    -8.224      1.110      1.535
REMARK INTER + INTRA:          -9.415
REMARK INTER:                  -9.427
REMARK INTRA:                   0.012
REMARK UNBOUND:                 0.252
REMARK SMILES O=c1c(O)c(-c2ccc(O)cc2)oc2cc(O)cc(O)c12
REMARK SMILES IDX 5 1 3 2 2 3 1 4 21 5 19 6 18 7 16 8 15 9 14 10 13 11 6 12
REMARK SMILES IDX 7 13 8 14 9 15 12 16 11 17 10 18 4 20 20 22 17 24
REMARK H PARENT 10 19 4 21 20 23 17 25
REMARK Flexibility Score: inf
ROOT
ATOM      1  C   UNL     1     140.189 -18.943  80.467  1.00  0.00     0.180 A 
ATOM      2  C   UNL     1     140.024 -17.544  80.467  1.00  0.00     0.208 A 
ATOM      3  C   UNL     1     140.278 -16.832  79.285  1.00  0.00     0.238 A 
ATOM      4  O   UNL     1     140.123 -15.580  79.269  1.00  0.00    -0.285 OA
ATOM      5  C   UNL     1     140.710 -17.522  78.134  1.00  0.00     0.111 A 
ATOM      6  C   UNL     1     140.991 -16.879  76.904  1.00  0.00     0.134 A 
ATOM      7  C   UNL     1     141.426 -17.637  75.807  1.00  0.00     0.093 A 
ATOM      8  C   UNL     1     141.586 -19.020  75.913  1.00  0.00     0.123 A 
ATOM      9  C   UNL     1     141.309 -19.662  77.125  1.00  0.00     0.094 A 
ATOM     10  C   UNL     1     140.874 -18.925  78.231  1.00  0.00     0.146 A 
ATOM     11  O   UNL     1     140.612 -19.559  79.368  1.00  0.00    -0.452 OA
ENDROOT
BRANCH   1  12
ATOM     12  C   UNL     1     139.922 -19.766  81.669  1.00  0.00     0.021 A 
ATOM     13  C   UNL     1     140.573 -19.458  82.875  1.00  0.00     0.016 A 
ATOM     14  C   UNL     1     140.353 -20.236  84.017  1.00  0.00     0.047 A 
ATOM     15  C   UNL     1     139.494 -21.340  83.962  1.00  0.00     0.115 A 
ATOM     16  C   UNL     1     139.076 -20.889  81.617  1.00  0.00     0.016 A 
ATOM     17  C   UNL     1     138.859 -21.666  82.759  1.00  0.00     0.047 A 
BRANCH  15  18
ATOM     18  O   UNL     1     139.268 -22.121  85.092  1.00  0.00    -0.508 OA
ATOM     19  H   UNL     1     140.003 -22.303  85.766  1.00  0.00     0.293 HD
ENDBRANCH  15  18
ENDBRANCH   1  12
BRANCH   2  20
ATOM     20  O   UNL     1     139.642 -16.878  81.634  1.00  0.00    -0.502 OA
ATOM     21  H   UNL     1     138.884 -17.205  82.222  1.00  0.00     0.293 HD
ENDBRANCH   2  20
BRANCH   6  22
ATOM     22  O   UNL     1     140.843 -15.499  76.766  1.00  0.00    -0.507 OA
ATOM     23  H   UNL     1     139.961 -15.082  76.491  1.00  0.00     0.293 HD
ENDBRANCH   6  22
BRANCH   8  24
ATOM     24  O   UNL     1     142.020 -19.748  74.808  1.00  0.00    -0.508 OA
ATOM     25  H   UNL     1     142.106 -19.322  73.893  1.00  0.00     0.293 HD
ENDBRANCH   8  24
TORSDOF 5
ENDMDL
MODEL 4
REMARK VINA RESULT:    -8.073      1.796      7.134
REMARK INTER + INTRA:          -9.237
REMARK INTER:                  -8.940
REMARK INTRA:                  -0.298
REMARK UNBOUND:                 0.252
REMARK SMILES O=c1c(O)c(-c2ccc(O)cc2)oc2cc(O)cc(O)c12
REMARK SMILES IDX 5 1 3 2 2 3 1 4 21 5 19 6 18 7 16 8 15 9 14 10 13 11 6 12
REMARK SMILES IDX 7 13 8 14 9 15 12 16 11 17 10 18 4 20 20 22 17 24
REMARK H PARENT 10 19 4 21 20 23 17 25
REMARK Flexibility Score: inf
ROOT
ATOM      1  C   UNL     1     139.596 -19.667  80.447  1.00  0.00     0.180 A 
ATOM      2  C   UNL     1     138.840 -20.845  80.612  1.00  0.00     0.208 A 
ATOM      3  C   UNL     1     138.789 -21.446  81.879  1.00  0.00     0.238 A 
ATOM      4  O   UNL     1     138.108 -22.494  82.043  1.00  0.00    -0.285 OA
ATOM      5  C   UNL     1     139.506 -20.874  82.951  1.00  0.00     0.111 A 
ATOM      6  C   UNL     1     139.510 -21.418  84.258  1.00  0.00     0.134 A 
ATOM      7  C   UNL     1     140.257 -20.794  85.268  1.00  0.00     0.093 A 
ATOM      8  C   UNL     1     140.998 -19.641  84.999  1.00  0.00     0.123 A 
ATOM      9  C   UNL     1     140.997 -19.098  83.710  1.00  0.00     0.094 A 
ATOM     10  C   UNL     1     140.259 -19.704  82.690  1.00  0.00     0.146 A 
ATOM     11  O   UNL     1     140.271 -19.165  81.476  1.00  0.00    -0.452 OA
ENDROOT
BRANCH   1  12
ATOM     12  C   UNL     1     139.683 -18.966  79.145  1.00  0.00     0.021 A 
ATOM     13  C   UNL     1     140.744 -19.259  78.272  1.00  0.00     0.016 A 
ATOM     14  C   UNL     1     140.858 -18.592  77.049  1.00  0.00     0.047 A 
ATOM     15  C   UNL     1     139.924 -17.613  76.690  1.00  0.00     0.115 A 
ATOM     16  C   UNL     1     138.760 -17.966  78.787  1.00  0.00     0.016 A 
ATOM     17  C   UNL     1     138.877 -17.300  77.564  1.00  0.00     0.047 A 
BRANCH  15  18
ATOM     18  O   UNL     1     140.028 -16.942  75.474  1.00  0.00    -0.508 OA
ATOM     19  H   UNL     1     139.288 -16.981  74.783  1.00  0.00     0.293 HD
ENDBRANCH  15  18
ENDBRANCH   1  12
BRANCH   2  20
ATOM     20  O   UNL     1     138.180 -21.419  79.523  1.00  0.00    -0.502 OA
ATOM     21  H   UNL     1     138.642 -21.590  78.637  1.00  0.00     0.293 HD
ENDBRANCH   2  20
BRANCH   6  22
ATOM     22  O   UNL     1     138.782 -22.569  84.559  1.00  0.00    -0.507 OA
ATOM     23  H   UNL     1     138.504 -22.791  85.507  1.00  0.00     0.293 HD
ENDBRANCH   6  22
BRANCH   8  24
ATOM     24  O   UNL     1     141.732 -19.043  86.021  1.00  0.00    -0.508 OA
ATOM     25  H   UNL     1     142.593 -19.452  86.365  1.00  0.00     0.293 HD
ENDBRANCH   8  24
TORSDOF 5
ENDMDL
MODEL 5
REMARK VINA RESULT:    -7.915      3.175      5.540
REMARK INTER + INTRA:          -9.052
REMARK INTER:                  -8.798
REMARK INTRA:                  -0.254
REMARK UNBOUND:                 0.252
REMARK SMILES O=c1c(O)c(-c2ccc(O)cc2)oc2cc(O)cc(O)c12
REMARK SMILES IDX 5 1 3 2 2 3 1 4 21 5 19 6 18 7 16 8 15 9 14 10 13 11 6 12
REMARK SMILES IDX 7 13 8 14 9 15 12 16 11 17 10 18 4 20 20 22 17 24
REMARK H PARENT 10 19 4 21 20 23 17 25
REMARK Flexibility Score: inf
ROOT
ATOM      1  C   UNL     1     138.586 -19.789  77.734  1.00  0.00     0.180 A 
ATOM      2  C   UNL     1     139.184 -19.297  76.557  1.00  0.00     0.208 A 
ATOM      3  C   UNL     1     139.923 -18.105  76.620  1.00  0.00     0.238 A 
ATOM      4  O   UNL     1     140.473 -17.660  75.576  1.00  0.00    -0.285 OA
ATOM      5  C   UNL     1     140.034 -17.417  77.846  1.00  0.00     0.111 A 
ATOM      6  C   UNL     1     140.756 -16.209  77.993  1.00  0.00     0.134 A 
ATOM      7  C   UNL     1     140.811 -15.580  79.246  1.00  0.00     0.093 A 
ATOM      8  C   UNL     1     140.161 -16.133  80.351  1.00  0.00     0.123 A 
ATOM      9  C   UNL     1     139.446 -17.328  80.212  1.00  0.00     0.094 A 
ATOM     10  C   UNL     1     139.379 -17.970  78.972  1.00  0.00     0.146 A 
ATOM     11  O   UNL     1     138.699 -19.106  78.868  1.00  0.00    -0.452 OA
ENDROOT
BRANCH   1  12
ATOM     12  C   UNL     1     137.807 -21.049  77.752  1.00  0.00     0.021 A 
ATOM     13  C   UNL     1     136.477 -21.046  77.300  1.00  0.00     0.016 A 
ATOM     14  C   UNL     1     135.716 -22.219  77.330  1.00  0.00     0.047 A 
ATOM     15  C   UNL     1     136.270 -23.405  77.826  1.00  0.00     0.115 A 
ATOM     16  C   UNL     1     138.350 -22.240  78.269  1.00  0.00     0.016 A 
ATOM     17  C   UNL     1     137.587 -23.411  78.298  1.00  0.00     0.047 A 
BRANCH  15  18
ATOM     18  O   UNL     1     135.522 -24.579  77.861  1.00  0.00    -0.508 OA
ATOM     19  H   UNL     1     134.544 -24.591  77.596  1.00  0.00     0.293 HD
ENDBRANCH  15  18
ENDBRANCH   1  12
BRANCH   2  20
ATOM     20  O   UNL     1     139.018 -19.972  75.345  1.00  0.00    -0.502 OA
ATOM     21  H   UNL     1     139.447 -20.871  75.162  1.00  0.00     0.293 HD
ENDBRANCH   2  20
BRANCH   6  22
ATOM     22  O   UNL     1     141.416 -15.630  76.909  1.00  0.00    -0.507 OA
ATOM     23  H   UNL     1     141.043 -14.820  76.429  1.00  0.00     0.293 HD
ENDBRANCH   6  22
BRANCH   8  24
ATOM     24  O   UNL     1     140.231 -15.488  81.583  1.00  0.00    -0.508 OA
ATOM     25  H   UNL     1     140.538 -14.526  81.661  1.00  0.00     0.293 HD
ENDBRANCH   8  24
TORSDOF 5
ENDMDL
MODEL 6
REMARK VINA RESULT:    -7.902      1.660      2.898
REMARK INTER + INTRA:          -9.037
REMARK INTER:                  -9.217
REMARK INTRA:                   0.180
REMARK UNBOUND:                 0.252
REMARK SMILES O=c1c(O)c(-c2ccc(O)cc2)oc2cc(O)cc(O)c12
REMARK SMILES IDX 5 1 3 2 2 3 1 4 21 5 19 6 18 7 16 8 15 9 14 10 13 11 6 12
REMARK SMILES IDX 7 13 8 14 9 15 12 16 11 17 10 18 4 20 20 22 17 24
REMARK H PARENT 10 19 4 21 20 23 17 25
REMARK Flexibility Score: inf
ROOT
ATOM      1  C   UNL     1     139.864 -19.566  80.242  1.00  0.00     0.180 A 
ATOM      2  C   UNL     1     139.057 -20.446  79.493  1.00  0.00     0.208 A 
ATOM      3  C   UNL     1     138.977 -20.274  78.102  1.00  0.00     0.238 A 
ATOM      4  O   UNL     1     138.267 -21.062  77.419  1.00  0.00    -0.285 OA
ATOM      5  C   UNL     1     139.683 -19.219  77.488  1.00  0.00     0.111 A 
ATOM      6  C   UNL     1     139.652 -18.974  76.094  1.00  0.00     0.134 A 
ATOM      7  C   UNL     1     140.376 -17.897  75.561  1.00  0.00     0.093 A 
ATOM      8  C   UNL     1     141.127 -17.062  76.391  1.00  0.00     0.123 A 
ATOM      9  C   UNL     1     141.162 -17.299  77.769  1.00  0.00     0.094 A 
ATOM     10  C   UNL     1     140.449 -18.367  78.320  1.00  0.00     0.146 A 
ATOM     11  O   UNL     1     140.503 -18.574  79.631  1.00  0.00    -0.452 OA
ENDROOT
BRANCH   1  12
ATOM     12  C   UNL     1     140.014 -19.694  81.710  1.00  0.00     0.021 A 
ATOM     13  C   UNL     1     140.162 -18.538  82.493  1.00  0.00     0.016 A 
ATOM     14  C   UNL     1     140.328 -18.637  83.878  1.00  0.00     0.047 A 
ATOM     15  C   UNL     1     140.365 -19.894  84.494  1.00  0.00     0.115 A 
ATOM     16  C   UNL     1     140.073 -20.954  82.334  1.00  0.00     0.016 A 
ATOM     17  C   UNL     1     140.240 -21.051  83.718  1.00  0.00     0.047 A 
BRANCH  15  18
ATOM     18  O   UNL     1     140.530 -20.004  85.873  1.00  0.00    -0.508 OA
ATOM     19  H   UNL     1     140.935 -20.833  86.292  1.00  0.00     0.293 HD
ENDBRANCH  15  18
ENDBRANCH   1  12
BRANCH   2  20
ATOM     20  O   UNL     1     138.329 -21.452  80.132  1.00  0.00    -0.502 OA
ATOM     21  H   UNL     1     138.765 -22.131  80.745  1.00  0.00     0.293 HD
ENDBRANCH   2  20
BRANCH   6  22
ATOM     22  O   UNL     1     138.911 -19.789  75.238  1.00  0.00    -0.507 OA
ATOM     23  H   UNL     1     139.063 -19.788  74.237  1.00  0.00     0.293 HD
ENDBRANCH   6  22
BRANCH   8  24
ATOM     24  O   UNL     1     141.836 -15.999  75.836  1.00  0.00    -0.508 OA
ATOM     25  H   UNL     1     142.627 -16.153  75.222  1.00  0.00     0.293 HD
ENDBRANCH   8  24
TORSDOF 5
ENDMDL
MODEL 7
REMARK VINA RESULT:    -7.858      2.549      6.460
REMARK INTER + INTRA:          -8.984
REMARK INTER:                  -9.014
REMARK INTRA:                   0.030
REMARK UNBOUND:                 0.252
REMARK SMILES O=c1c(O)c(-c2ccc(O)cc2)oc2cc(O)cc(O)c12
REMARK SMILES IDX 5 1 3 2 2 3 1 4 21 5 19 6 18 7 16 8 15 9 14 10 13 11 6 12
REMARK SMILES IDX 7 13 8 14 9 15 12 16 11 17 10 18 4 20 20 22 17 24
REMARK H PARENT 10 19 4 21 20 23 17 25
REMARK Flexibility Score: inf
ROOT
ATOM      1  C   UNL     1     139.663 -19.628  80.445  1.00  0.00     0.180 A 
ATOM      2  C   UNL     1     140.089 -19.590  81.788  1.00  0.00     0.208 A 
ATOM      3  C   UNL     1     139.649 -20.592  82.667  1.00  0.00     0.238 A 
ATOM      4  O   UNL     1     140.032 -20.576  83.868  1.00  0.00    -0.285 OA
ATOM      5  C   UNL     1     138.779 -21.599  82.198  1.00  0.00     0.111 A 
ATOM      6  C   UNL     1     138.287 -22.642  83.019  1.00  0.00     0.134 A 
ATOM      7  C   UNL     1     137.418 -23.600  82.479  1.00  0.00     0.093 A 
ATOM      8  C   UNL     1     137.031 -23.538  81.138  1.00  0.00     0.123 A 
ATOM      9  C   UNL     1     137.514 -22.510  80.321  1.00  0.00     0.094 A 
ATOM     10  C   UNL     1     138.382 -21.545  80.841  1.00  0.00     0.146 A 
ATOM     11  O   UNL     1     138.831 -20.583  80.042  1.00  0.00    -0.452 OA
ENDROOT
BRANCH   1  12
ATOM     12  C   UNL     1     140.098 -18.618  79.454  1.00  0.00     0.021 A 
ATOM     13  C   UNL     1     140.691 -19.039  78.252  1.00  0.00     0.016 A 
ATOM     14  C   UNL     1     141.130 -18.102  77.312  1.00  0.00     0.047 A 
ATOM     15  C   UNL     1     140.996 -16.732  77.569  1.00  0.00     0.115 A 
ATOM     16  C   UNL     1     139.986 -17.239  79.714  1.00  0.00     0.016 A 
ATOM     17  C   UNL     1     140.426 -16.304  78.772  1.00  0.00     0.047 A 
BRANCH  15  18
ATOM     18  O   UNL     1     141.430 -15.789  76.640  1.00  0.00    -0.508 OA
ATOM     19  H   UNL     1     140.781 -15.157  76.185  1.00  0.00     0.293 HD
ENDBRANCH  15  18
ENDBRANCH   1  12
BRANCH   2  20
ATOM     20  O   UNL     1     140.911 -18.555  82.239  1.00  0.00    -0.502 OA
ATOM     21  H   UNL     1     141.340 -17.889  81.607  1.00  0.00     0.293 HD
ENDBRANCH   2  20
BRANCH   6  22
ATOM     22  O   UNL     1     138.654 -22.732  84.362  1.00  0.00    -0.507 OA
ATOM     23  H   UNL     1     139.603 -22.554  84.669  1.00  0.00     0.293 HD
ENDBRANCH   6  22
BRANCH   8  24
ATOM     24  O   UNL     1     136.165 -24.502  80.627  1.00  0.00    -0.508 OA
ATOM     25  H   UNL     1     136.005 -25.379  81.109  1.00  0.00     0.293 HD
ENDBRANCH   8  24
TORSDOF 5
ENDMDL
MODEL 8
REMARK VINA RESULT:    -7.813      1.461      3.042
REMARK INTER + INTRA:          -8.931
REMARK INTER:                  -9.406
REMARK INTRA:                   0.475
REMARK UNBOUND:                 0.252
REMARK SMILES O=c1c(O)c(-c2ccc(O)cc2)oc2cc(O)cc(O)c12
REMARK SMILES IDX 5 1 3 2 2 3 1 4 21 5 19 6 18 7 16 8 15 9 14 10 13 11 6 12
REMARK SMILES IDX 7 13 8 14 9 15 12 16 11 17 10 18 4 20 20 22 17 24
REMARK H PARENT 10 19 4 21 20 23 17 25
REMARK Flexibility Score: inf
ROOT
ATOM      1  C   UNL     1     139.971 -18.871  80.944  1.00  0.00     0.180 A 
ATOM      2  C   UNL     1     139.494 -19.562  79.812  1.00  0.00     0.208 A 
ATOM      3  C   UNL     1     139.482 -18.903  78.573  1.00  0.00     0.238 A 
ATOM      4  O   UNL     1     139.068 -19.514  77.549  1.00  0.00    -0.285 OA
ATOM      5  C   UNL     1     139.924 -17.567  78.488  1.00  0.00     0.111 A 
ATOM      6  C   UNL     1     139.940 -16.831  77.278  1.00  0.00     0.134 A 
ATOM      7  C   UNL     1     140.387 -15.501  77.280  1.00  0.00     0.093 A 
ATOM      8  C   UNL     1     140.816 -14.894  78.462  1.00  0.00     0.123 A 
ATOM      9  C   UNL     1     140.803 -15.616  79.660  1.00  0.00     0.094 A 
ATOM     10  C   UNL     1     140.363 -16.942  79.680  1.00  0.00     0.146 A 
ATOM     11  O   UNL     1     140.366 -17.607  80.830  1.00  0.00    -0.452 OA
ENDROOT
BRANCH   1  12
ATOM     12  C   UNL     1     140.033 -19.504  82.282  1.00  0.00     0.021 A 
ATOM     13  C   UNL     1     140.420 -18.735  83.392  1.00  0.00     0.016 A 
ATOM     14  C   UNL     1     140.507 -19.317  84.660  1.00  0.00     0.047 A 
ATOM     15  C   UNL     1     140.224 -20.678  84.832  1.00  0.00     0.115 A 
ATOM     16  C   UNL     1     139.770 -20.875  82.458  1.00  0.00     0.016 A 
ATOM     17  C   UNL     1     139.858 -21.454  83.727  1.00  0.00     0.047 A 
BRANCH  15  18
ATOM     18  O   UNL     1     140.307 -21.268  86.090  1.00  0.00    -0.508 OA
ATOM     19  H   UNL     1     141.054 -21.911  86.325  1.00  0.00     0.293 HD
ENDBRANCH  15  18
ENDBRANCH   1  12
BRANCH   2  20
ATOM     20  O   UNL     1     139.016 -20.869  79.932  1.00  0.00    -0.502 OA
ATOM     21  H   UNL     1     139.565 -21.674  79.655  1.00  0.00     0.293 HD
ENDBRANCH   2  20
BRANCH   6  22
ATOM     22  O   UNL     1     139.517 -17.408  76.081  1.00  0.00    -0.507 OA
ATOM     23  H   UNL     1     140.140 -17.964  75.508  1.00  0.00     0.293 HD
ENDBRANCH   6  22
BRANCH   8  24
ATOM     24  O   UNL     1     141.253 -13.572  78.435  1.00  0.00    -0.508 OA
ATOM     25  H   UNL     1     140.798 -12.875  77.857  1.00  0.00     0.293 HD
ENDBRANCH   8  24
TORSDOF 5
ENDMDL
MODEL 9
REMARK VINA RESULT:    -7.659      3.535      6.103
REMARK INTER + INTRA:          -8.750
REMARK INTER:                  -8.537
REMARK INTRA:                  -0.213
REMARK UNBOUND:                 0.252
REMARK SMILES O=c1c(O)c(-c2ccc(O)cc2)oc2cc(O)cc(O)c12
REMARK SMILES IDX 5 1 3 2 2 3 1 4 21 5 19 6 18 7 16 8 15 9 14 10 13 11 6 12
REMARK SMILES IDX 7 13 8 14 9 15 12 16 11 17 10 18 4 20 20 22 17 24
REMARK H PARENT 10 19 4 21 20 23 17 25
REMARK Flexibility Score: inf
ROOT
ATOM      1  C   UNL     1     139.428 -18.578  77.535  1.00  0.00     0.180 A 
ATOM      2  C   UNL     1     138.379 -18.392  76.614  1.00  0.00     0.208 A 
ATOM      3  C   UNL     1     137.269 -19.249  76.669  1.00  0.00     0.238 A 
ATOM      4  O   UNL     1     136.318 -19.086  75.857  1.00  0.00    -0.285 OA
ATOM      5  C   UNL     1     137.235 -20.286  77.624  1.00  0.00     0.111 A 
ATOM      6  C   UNL     1     136.156 -21.195  77.743  1.00  0.00     0.134 A 
ATOM      7  C   UNL     1     136.203 -22.206  78.714  1.00  0.00     0.093 A 
ATOM      8  C   UNL     1     137.302 -22.326  79.567  1.00  0.00     0.123 A 
ATOM      9  C   UNL     1     138.371 -21.431  79.455  1.00  0.00     0.094 A 
ATOM     10  C   UNL     1     138.344 -20.416  78.494  1.00  0.00     0.146 A 
ATOM     11  O   UNL     1     139.369 -19.575  78.412  1.00  0.00    -0.452 OA
ENDROOT
BRANCH   1  12
ATOM     12  C   UNL     1     140.624 -17.704  77.553  1.00  0.00     0.021 A 
ATOM     13  C   UNL     1     140.751 -16.728  78.555  1.00  0.00     0.016 A 
ATOM     14  C   UNL     1     141.860 -15.877  78.577  1.00  0.00     0.047 A 
ATOM     15  C   UNL     1     142.847 -15.979  77.589  1.00  0.00     0.115 A 
ATOM     16  C   UNL     1     141.609 -17.787  76.551  1.00  0.00     0.016 A 
ATOM     17  C   UNL     1     142.716 -16.934  76.576  1.00  0.00     0.047 A 
BRANCH  15  18
ATOM     18  O   UNL     1     143.956 -15.137  77.602  1.00  0.00    -0.508 OA
ATOM     19  H   UNL     1     144.324 -14.760  78.467  1.00  0.00     0.293 HD
ENDBRANCH  15  18
ENDBRANCH   1  12
BRANCH   2  20
ATOM     20  O   UNL     1     138.459 -17.388  75.646  1.00  0.00    -0.502 OA
ATOM     21  H   UNL     1     138.273 -16.414  75.857  1.00  0.00     0.293 HD
ENDBRANCH   2  20
BRANCH   6  22
ATOM     22  O   UNL     1     135.044 -21.102  76.907  1.00  0.00    -0.507 OA
ATOM     23  H   UNL     1     134.358 -21.845  76.847  1.00  0.00     0.293 HD
ENDBRANCH   6  22
BRANCH   8  24
ATOM     24  O   UNL     1     137.323 -23.340  80.522  1.00  0.00    -0.508 OA
ATOM     25  H   UNL     1     137.964 -23.315  81.307  1.00  0.00     0.293 HD
ENDBRANCH   8  24
TORSDOF 5
ENDMDL
