MODEL 1
REMARK VINA RESULT:    -4.094      0.000      0.000
REMARK INTER + INTRA:          -7.584
REMARK INTER:                  -6.606
REMARK INTRA:                  -0.978
REMARK UNBOUND:                -0.978
REMARK SMILES CCCCCCCCCCCCO
REMARK SMILES IDX 7 1 6 2 5 3 4 4 3 5 2 6 1 7 8 8 9 9 10 10 11 11 12 12 13 13
REMARK H PARENT 13 14
REMARK Flexibility Score: inf
ROOT
ATOM      1  C   UNL     1       3.883  28.758  10.134  1.00  0.00     0.000 C 
ENDROOT
BRANCH   1   2
ATOM      2  C   UNL     1       4.653  29.561  11.195  1.00  0.00    -0.000 C 
BRANCH   2   3
ATOM      3  C   UNL     1       3.748  30.064  12.330  1.00  0.00    -0.000 C 
BRANCH   3   4
ATOM      4  C   UNL     1       2.268  29.995  11.926  1.00  0.00    -0.000 C 
BRANCH   4   5
ATOM      5  C   UNL     1       1.407  29.263  12.977  1.00  0.00    -0.000 C 
BRANCH   5   6
ATOM      6  C   UNL     1       2.229  28.431  13.975  1.00  0.00    -0.003 C 
ATOM      7  C   UNL     1       1.711  28.531  15.408  1.00  0.00     0.004 C 
ENDBRANCH   5   6
ENDBRANCH   4   5
ENDBRANCH   3   4
ENDBRANCH   2   3
ENDBRANCH   1   2
BRANCH   1   8
ATOM      8  C   UNL     1       4.283  27.273  10.111  1.00  0.00     0.000 C 
BRANCH   8   9
ATOM      9  C   UNL     1       3.303  26.384  10.893  1.00  0.00     0.000 C 
BRANCH   9  10
ATOM     10  C   UNL     1       3.705  24.902  10.880  1.00  0.00     0.002 C 
BRANCH  10  11
ATOM     11  C   UNL     1       4.669  24.606   9.724  1.00  0.00     0.028 C 
BRANCH  11  12
ATOM     12  C   UNL     1       5.938  23.915  10.225  1.00  0.00     0.156 C 
BRANCH  12  13
ATOM     13  O   UNL     1       6.109  24.148  11.597  1.00  0.00    -0.396 OA
ATOM     14  H   UNL     1       7.088  24.190  11.758  1.00  0.00     0.210 HD
ENDBRANCH  12  13
ENDBRANCH  11  12
ENDBRANCH  10  11
ENDBRANCH   9  10
ENDBRANCH   8   9
ENDBRANCH   1   8
TORSDOF 11
ENDMDL
MODEL 2
REMARK VINA RESULT:    -4.027      1.992      2.417
REMARK INTER + INTRA:          -7.476
REMARK INTER:                  -6.684
REMARK INTRA:                  -0.792
REMARK UNBOUND:                -0.978
REMARK SMILES CCCCCCCCCCCCO
REMARK SMILES IDX 7 1 6 2 5 3 4 4 3 5 2 6 1 7 8 8 9 9 10 10 11 11 12 12 13 13
REMARK H PARENT 13 14
REMARK Flexibility Score: inf
ROOT
ATOM      1  C   UNL     1       4.784  28.665  10.146  1.00  0.00     0.000 C 
ENDROOT
BRANCH   1   2
ATOM      2  C   UNL     1       4.358  30.019  10.735  1.00  0.00    -0.000 C 
BRANCH   2   3
ATOM      3  C   UNL     1       3.757  29.890  12.143  1.00  0.00    -0.000 C 
BRANCH   3   4
ATOM      4  C   UNL     1       2.246  30.168  12.124  1.00  0.00    -0.000 C 
BRANCH   4   5
ATOM      5  C   UNL     1       1.454  29.162  12.987  1.00  0.00    -0.000 C 
BRANCH   5   6
ATOM      6  C   UNL     1       2.306  28.472  14.065  1.00  0.00    -0.003 C 
ATOM      7  C   UNL     1       1.676  28.532  15.455  1.00  0.00     0.004 C 
ENDBRANCH   5   6
ENDBRANCH   4   5
ENDBRANCH   3   4
ENDBRANCH   2   3
ENDBRANCH   1   2
BRANCH   1   8
ATOM      8  C   UNL     1       3.795  27.535  10.482  1.00  0.00     0.000 C 
BRANCH   8   9
ATOM      9  C   UNL     1       4.330  26.147  10.095  1.00  0.00     0.000 C 
BRANCH   9  10
ATOM     10  C   UNL     1       3.627  25.009  10.850  1.00  0.00     0.002 C 
BRANCH  10  11
ATOM     11  C   UNL     1       2.336  25.506  11.512  1.00  0.00     0.028 C 
BRANCH  11  12
ATOM     12  C   UNL     1       1.133  24.666  11.078  1.00  0.00     0.156 C 
BRANCH  12  13
ATOM     13  O   UNL     1      -0.018  25.073  11.768  1.00  0.00    -0.396 OA
ATOM     14  H   UNL     1       0.177  25.973  12.139  1.00  0.00     0.210 HD
ENDBRANCH  12  13
ENDBRANCH  11  12
ENDBRANCH  10  11
ENDBRANCH   9  10
ENDBRANCH   8   9
ENDBRANCH   1   8
TORSDOF 11
ENDMDL
MODEL 3
REMARK VINA RESULT:    -3.988      2.443      3.819
REMARK INTER + INTRA:          -7.414
REMARK INTER:                  -6.657
REMARK INTRA:                  -0.757
REMARK UNBOUND:                -0.978
REMARK SMILES CCCCCCCCCCCCO
REMARK SMILES IDX 7 1 6 2 5 3 4 4 3 5 2 6 1 7 8 8 9 9 10 10 11 11 12 12 13 13
REMARK H PARENT 13 14
REMARK Flexibility Score: inf
ROOT
ATOM      1  C   UNL     1       2.688  28.767  13.196  1.00  0.00     0.000 C 
ENDROOT
BRANCH   1   2
ATOM      2  C   UNL     1       1.390  29.523  12.872  1.00  0.00    -0.000 C 
BRANCH   2   3
ATOM      3  C   UNL     1       1.620  30.727  11.945  1.00  0.00    -0.000 C 
BRANCH   3   4
ATOM      4  C   UNL     1       3.056  30.733  11.398  1.00  0.00    -0.000 C 
BRANCH   4   5
ATOM      5  C   UNL     1       3.716  32.125  11.503  1.00  0.00    -0.000 C 
BRANCH   5   6
ATOM      6  C   UNL     1       5.030  32.125  12.301  1.00  0.00    -0.003 C 
ATOM      7  C   UNL     1       5.709  30.757  12.335  1.00  0.00     0.004 C 
ENDBRANCH   5   6
ENDBRANCH   4   5
ENDBRANCH   3   4
ENDBRANCH   2   3
ENDBRANCH   1   2
BRANCH   1   8
ATOM      8  C   UNL     1       2.672  27.317  12.682  1.00  0.00     0.000 C 
BRANCH   8   9
ATOM      9  C   UNL     1       3.283  27.181  11.278  1.00  0.00     0.000 C 
BRANCH   9  10
ATOM     10  C   UNL     1       3.164  25.757  10.715  1.00  0.00     0.002 C 
BRANCH  10  11
ATOM     11  C   UNL     1       2.189  24.917  11.549  1.00  0.00     0.028 C 
BRANCH  11  12
ATOM     12  C   UNL     1       0.810  24.851  10.888  1.00  0.00     0.156 C 
BRANCH  12  13
ATOM     13  O   UNL     1      -0.192  24.761  11.864  1.00  0.00    -0.396 OA
ATOM     14  H   UNL     1       0.149  24.148  12.566  1.00  0.00     0.210 HD
ENDBRANCH  12  13
ENDBRANCH  11  12
ENDBRANCH  10  11
ENDBRANCH   9  10
ENDBRANCH   8   9
ENDBRANCH   1   8
TORSDOF 11
ENDMDL
MODEL 4
REMARK VINA RESULT:    -3.897      1.379      2.793
REMARK INTER + INTRA:          -7.268
REMARK INTER:                  -6.539
REMARK INTRA:                  -0.729
REMARK UNBOUND:                -0.978
REMARK SMILES CCCCCCCCCCCCO
REMARK SMILES IDX 7 1 6 2 5 3 4 4 3 5 2 6 1 7 8 8 9 9 10 10 11 11 12 12 13 13
REMARK H PARENT 13 14
REMARK Flexibility Score: inf
ROOT
ATOM      1  C   UNL     1       3.055  28.461  12.518  1.00  0.00     0.000 C 
ENDROOT
BRANCH   1   2
ATOM      2  C   UNL     1       1.793  29.332  12.616  1.00  0.00    -0.000 C 
BRANCH   2   3
ATOM      3  C   UNL     1       1.867  30.587  11.733  1.00  0.00    -0.000 C 
BRANCH   3   4
ATOM      4  C   UNL     1       3.217  30.667  11.004  1.00  0.00    -0.000 C 
BRANCH   4   5
ATOM      5  C   UNL     1       4.034  31.909  11.420  1.00  0.00    -0.000 C 
BRANCH   5   6
ATOM      6  C   UNL     1       5.081  31.620  12.508  1.00  0.00    -0.003 C 
ATOM      7  C   UNL     1       6.113  30.577  12.085  1.00  0.00     0.004 C 
ENDBRANCH   5   6
ENDBRANCH   4   5
ENDBRANCH   3   4
ENDBRANCH   2   3
ENDBRANCH   1   2
BRANCH   1   8
ATOM      8  C   UNL     1       2.737  26.993  12.187  1.00  0.00     0.000 C 
BRANCH   8   9
ATOM      9  C   UNL     1       3.468  26.499  10.929  1.00  0.00     0.000 C 
BRANCH   9  10
ATOM     10  C   UNL     1       3.635  24.972  10.899  1.00  0.00     0.002 C 
BRANCH  10  11
ATOM     11  C   UNL     1       4.512  24.539   9.718  1.00  0.00     0.028 C 
BRANCH  11  12
ATOM     12  C   UNL     1       5.911  24.136  10.187  1.00  0.00     0.156 C 
BRANCH  12  13
ATOM     13  O   UNL     1       5.996  24.216  11.585  1.00  0.00    -0.396 OA
ATOM     14  H   UNL     1       6.023  23.282  11.921  1.00  0.00     0.210 HD
ENDBRANCH  12  13
ENDBRANCH  11  12
ENDBRANCH  10  11
ENDBRANCH   9  10
ENDBRANCH   8   9
ENDBRANCH   1   8
TORSDOF 11
ENDMDL
MODEL 5
REMARK VINA RESULT:    -3.737      1.581      3.388
REMARK INTER + INTRA:          -7.009
REMARK INTER:                  -6.287
REMARK INTRA:                  -0.722
REMARK UNBOUND:                -0.978
REMARK SMILES CCCCCCCCCCCCO
REMARK SMILES IDX 7 1 6 2 5 3 4 4 3 5 2 6 1 7 8 8 9 9 10 10 11 11 12 12 13 13
REMARK H PARENT 13 14
REMARK Flexibility Score: inf
ROOT
ATOM      1  C   UNL     1       1.673  29.771  12.554  1.00  0.00     0.000 C 
ENDROOT
BRANCH   1   2
ATOM      2  C   UNL     1       1.999  30.486  11.233  1.00  0.00    -0.000 C 
BRANCH   2   3
ATOM      3  C   UNL     1       2.552  31.904  11.447  1.00  0.00    -0.000 C 
BRANCH   3   4
ATOM      4  C   UNL     1       4.030  31.985  11.038  1.00  0.00    -0.000 C 
BRANCH   4   5
ATOM      5  C   UNL     1       4.980  31.859  12.248  1.00  0.00    -0.000 C 
BRANCH   5   6
ATOM      6  C   UNL     1       5.752  30.529  12.289  1.00  0.00    -0.003 C 
ATOM      7  C   UNL     1       7.058  30.570  11.499  1.00  0.00     0.004 C 
ENDBRANCH   5   6
ENDBRANCH   4   5
ENDBRANCH   3   4
ENDBRANCH   2   3
ENDBRANCH   1   2
BRANCH   1   8
ATOM      8  C   UNL     1       2.760  28.763  12.965  1.00  0.00     0.000 C 
BRANCH   8   9
ATOM      9  C   UNL     1       2.464  27.339  12.469  1.00  0.00     0.000 C 
BRANCH   9  10
ATOM     10  C   UNL     1       3.376  26.913  11.309  1.00  0.00     0.002 C 
BRANCH  10  11
ATOM     11  C   UNL     1       3.421  25.385  11.179  1.00  0.00     0.028 C 
BRANCH  11  12
ATOM     12  C   UNL     1       4.709  24.926  10.492  1.00  0.00     0.156 C 
BRANCH  12  13
ATOM     13  O   UNL     1       5.581  24.352  11.429  1.00  0.00    -0.396 OA
ATOM     14  H   UNL     1       5.265  23.423  11.578  1.00  0.00     0.210 HD
ENDBRANCH  12  13
ENDBRANCH  11  12
ENDBRANCH  10  11
ENDBRANCH   9  10
ENDBRANCH   8   9
ENDBRANCH   1   8
TORSDOF 11
ENDMDL
MODEL 6
REMARK VINA RESULT:    -3.723      2.059      2.467
REMARK INTER + INTRA:          -6.986
REMARK INTER:                  -6.005
REMARK INTRA:                  -0.981
REMARK UNBOUND:                -0.978
REMARK SMILES CCCCCCCCCCCCO
REMARK SMILES IDX 7 1 6 2 5 3 4 4 3 5 2 6 1 7 8 8 9 9 10 10 11 11 12 12 13 13
REMARK H PARENT 13 14
REMARK Flexibility Score: inf
ROOT
ATOM      1  C   UNL     1       3.408  30.120   9.853  1.00  0.00     0.000 C 
ENDROOT
BRANCH   1   2
ATOM      2  C   UNL     1       3.202  30.066  11.375  1.00  0.00    -0.000 C 
BRANCH   2   3
ATOM      3  C   UNL     1       1.776  30.454  11.795  1.00  0.00    -0.000 C 
BRANCH   3   4
ATOM      4  C   UNL     1       1.281  29.566  12.947  1.00  0.00    -0.000 C 
BRANCH   4   5
ATOM      5  C   UNL     1       2.364  28.579  13.432  1.00  0.00    -0.000 C 
BRANCH   5   6
ATOM      6  C   UNL     1       2.350  28.346  14.951  1.00  0.00    -0.003 C 
ATOM      7  C   UNL     1       1.012  28.698  15.598  1.00  0.00     0.004 C 
ENDBRANCH   5   6
ENDBRANCH   4   5
ENDBRANCH   3   4
ENDBRANCH   2   3
ENDBRANCH   1   2
BRANCH   1   8
ATOM      8  C   UNL     1       4.159  28.890   9.314  1.00  0.00     0.000 C 
BRANCH   8   9
ATOM      9  C   UNL     1       4.255  27.756  10.347  1.00  0.00     0.000 C 
BRANCH   9  10
ATOM     10  C   UNL     1       3.345  26.566  10.009  1.00  0.00     0.002 C 
BRANCH  10  11
ATOM     11  C   UNL     1       3.177  25.642  11.222  1.00  0.00     0.028 C 
BRANCH  11  12
ATOM     12  C   UNL     1       1.806  24.963  11.213  1.00  0.00     0.156 C 
BRANCH  12  13
ATOM     13  O   UNL     1       0.861  25.768  11.865  1.00  0.00    -0.396 OA
ATOM     14  H   UNL     1       0.602  25.286  12.695  1.00  0.00     0.210 HD
ENDBRANCH  12  13
ENDBRANCH  11  12
ENDBRANCH  10  11
ENDBRANCH   9  10
ENDBRANCH   8   9
ENDBRANCH   1   8
TORSDOF 11
ENDMDL
MODEL 7
REMARK VINA RESULT:    -3.672      1.245      2.642
REMARK INTER + INTRA:          -6.904
REMARK INTER:                  -6.096
REMARK INTRA:                  -0.808
REMARK UNBOUND:                -0.978
REMARK SMILES CCCCCCCCCCCCO
REMARK SMILES IDX 7 1 6 2 5 3 4 4 3 5 2 6 1 7 8 8 9 9 10 10 11 11 12 12 13 13
REMARK H PARENT 13 14
REMARK Flexibility Score: inf
ROOT
ATOM      1  C   UNL     1       2.939  27.383  11.789  1.00  0.00     0.000 C 
ENDROOT
BRANCH   1   2
ATOM      2  C   UNL     1       3.160  28.442  12.880  1.00  0.00    -0.000 C 
BRANCH   2   3
ATOM      3  C   UNL     1       1.848  28.915  13.523  1.00  0.00    -0.000 C 
BRANCH   3   4
ATOM      4  C   UNL     1       1.079  29.853  12.580  1.00  0.00    -0.000 C 
BRANCH   4   5
ATOM      5  C   UNL     1       1.992  30.928  11.952  1.00  0.00    -0.000 C 
BRANCH   5   6
ATOM      6  C   UNL     1       1.689  31.205  10.471  1.00  0.00    -0.003 C 
ATOM      7  C   UNL     1       2.946  31.290   9.608  1.00  0.00     0.004 C 
ENDBRANCH   5   6
ENDBRANCH   4   5
ENDBRANCH   3   4
ENDBRANCH   2   3
ENDBRANCH   1   2
BRANCH   1   8
ATOM      8  C   UNL     1       3.723  27.687  10.501  1.00  0.00     0.000 C 
BRANCH   8   9
ATOM      9  C   UNL     1       3.805  26.475   9.558  1.00  0.00     0.000 C 
BRANCH   9  10
ATOM     10  C   UNL     1       3.987  25.149  10.312  1.00  0.00     0.002 C 
BRANCH  10  11
ATOM     11  C   UNL     1       4.856  24.175   9.505  1.00  0.00     0.028 C 
BRANCH  11  12
ATOM     12  C   UNL     1       6.158  23.856  10.242  1.00  0.00     0.156 C 
BRANCH  12  13
ATOM     13  O   UNL     1       6.046  24.199  11.597  1.00  0.00    -0.396 OA
ATOM     14  H   UNL     1       5.983  25.189  11.634  1.00  0.00     0.210 HD
ENDBRANCH  12  13
ENDBRANCH  11  12
ENDBRANCH  10  11
ENDBRANCH   9  10
ENDBRANCH   8   9
ENDBRANCH   1   8
TORSDOF 11
ENDMDL
MODEL 8
REMARK VINA RESULT:    -3.662      1.913      5.173
REMARK INTER + INTRA:          -6.888
REMARK INTER:                  -5.857
REMARK INTRA:                  -1.031
REMARK UNBOUND:                -0.978
REMARK SMILES CCCCCCCCCCCCO
REMARK SMILES IDX 7 1 6 2 5 3 4 4 3 5 2 6 1 7 8 8 9 9 10 10 11 11 12 12 13 13
REMARK H PARENT 13 14
REMARK Flexibility Score: inf
ROOT
ATOM      1  C   UNL     1       5.135  28.781  10.339  1.00  0.00     0.000 C 
ENDROOT
BRANCH   1   2
ATOM      2  C   UNL     1       4.291  28.382   9.118  1.00  0.00    -0.000 C 
BRANCH   2   3
ATOM      3  C   UNL     1       3.799  26.927   9.186  1.00  0.00    -0.000 C 
BRANCH   3   4
ATOM      4  C   UNL     1       3.504  26.514  10.636  1.00  0.00    -0.000 C 
BRANCH   4   5
ATOM      5  C   UNL     1       3.752  25.010  10.879  1.00  0.00    -0.000 C 
BRANCH   5   6
ATOM      6  C   UNL     1       4.673  24.361   9.832  1.00  0.00    -0.003 C 
ATOM      7  C   UNL     1       6.063  24.037  10.376  1.00  0.00     0.004 C 
ENDBRANCH   5   6
ENDBRANCH   4   5
ENDBRANCH   3   4
ENDBRANCH   2   3
ENDBRANCH   1   2
BRANCH   1   8
ATOM      8  C   UNL     1       4.664  30.097  10.980  1.00  0.00     0.000 C 
BRANCH   8   9
ATOM      9  C   UNL     1       3.874  29.872  12.279  1.00  0.00     0.000 C 
BRANCH   9  10
ATOM     10  C   UNL     1       2.355  29.855  12.055  1.00  0.00     0.002 C 
BRANCH  10  11
ATOM     11  C   UNL     1       1.673  28.856  12.998  1.00  0.00     0.028 C 
BRANCH  11  12
ATOM     12  C   UNL     1       2.675  28.256  13.987  1.00  0.00     0.156 C 
BRANCH  12  13
ATOM     13  O   UNL     1       1.999  27.626  15.041  1.00  0.00    -0.396 OA
ATOM     14  H   UNL     1       2.689  27.376  15.711  1.00  0.00     0.210 HD
ENDBRANCH  12  13
ENDBRANCH  11  12
ENDBRANCH  10  11
ENDBRANCH   9  10
ENDBRANCH   8   9
ENDBRANCH   1   8
TORSDOF 11
ENDMDL
MODEL 9
REMARK VINA RESULT:    -3.503      2.759      5.347
REMARK INTER + INTRA:          -6.632
REMARK INTER:                  -5.535
REMARK INTRA:                  -1.097
REMARK UNBOUND:                -0.978
REMARK SMILES CCCCCCCCCCCCO
REMARK SMILES IDX 7 1 6 2 5 3 4 4 3 5 2 6 1 7 8 8 9 9 10 10 11 11 12 12 13 13
REMARK H PARENT 13 14
REMARK Flexibility Score: inf
ROOT
ATOM      1  C   UNL     1       4.672  31.083  12.504  1.00  0.00     0.000 C 
ENDROOT
BRANCH   1   2
ATOM      2  C   UNL     1       5.838  32.075  12.640  1.00  0.00    -0.000 C 
BRANCH   2   3
ATOM      3  C   UNL     1       7.043  31.697  11.765  1.00  0.00    -0.000 C 
BRANCH   3   4
ATOM      4  C   UNL     1       7.132  30.175  11.578  1.00  0.00    -0.000 C 
BRANCH   4   5
ATOM      5  C   UNL     1       7.374  29.778  10.107  1.00  0.00    -0.000 C 
BRANCH   5   6
ATOM      6  C   UNL     1       6.080  29.535   9.313  1.00  0.00    -0.003 C 
ATOM      7  C   UNL     1       5.226  28.408   9.891  1.00  0.00     0.004 C 
ENDBRANCH   5   6
ENDBRANCH   4   5
ENDBRANCH   3   4
ENDBRANCH   2   3
ENDBRANCH   1   2
BRANCH   1   8
ATOM      8  C   UNL     1       3.653  31.511  11.434  1.00  0.00     0.000 C 
BRANCH   8   9
ATOM      9  C   UNL     1       2.316  30.763  11.559  1.00  0.00     0.000 C 
BRANCH   9  10
ATOM     10  C   UNL     1       2.476  29.356  12.154  1.00  0.00     0.002 C 
BRANCH  10  11
ATOM     11  C   UNL     1       1.449  29.112  13.267  1.00  0.00     0.028 C 
BRANCH  11  12
ATOM     12  C   UNL     1       2.099  28.445  14.481  1.00  0.00     0.156 C 
BRANCH  12  13
ATOM     13  O   UNL     1       2.672  27.220  14.113  1.00  0.00    -0.396 OA
ATOM     14  H   UNL     1       1.919  26.597  13.933  1.00  0.00     0.210 HD
ENDBRANCH  12  13
ENDBRANCH  11  12
ENDBRANCH  10  11
ENDBRANCH   9  10
ENDBRANCH   8   9
ENDBRANCH   1   8
TORSDOF 11
ENDMDL
