MODEL 1
REMARK VINA RESULT:    -2.758      0.000      0.000
REMARK INTER + INTRA:          -6.435
REMARK INTER:                  -5.015
REMARK INTRA:                  -1.421
REMARK UNBOUND:                -1.421
REMARK SMILES CCCCCCCCCCCCCCC(=O)OC
REMARK SMILES IDX 9 1 8 2 7 3 6 4 5 5 4 6 3 7 2 8 1 9 10 10 11 11 12 12 13 13
REMARK SMILES IDX 14 14 15 15 16 16 17 17 18 18
REMARK H PARENT
REMARK Flexibility Score: inf
ROOT
ATOM      1  C   UNL     1      19.887  78.322  99.009  1.00  0.00     0.000 C 
ENDROOT
BRANCH   1   2
ATOM      2  C   UNL     1      20.814  78.812  97.884  1.00  0.00     0.000 C 
BRANCH   2   3
ATOM      3  C   UNL     1      20.040  79.330  96.659  1.00  0.00    -0.000 C 
BRANCH   3   4
ATOM      4  C   UNL     1      20.049  80.862  96.483  1.00  0.00    -0.000 C 
BRANCH   4   5
ATOM      5  C   UNL     1      20.188  81.640  97.809  1.00  0.00    -0.000 C 
BRANCH   5   6
ATOM      6  C   UNL     1      21.073  82.891  97.658  1.00  0.00    -0.000 C 
BRANCH   6   7
ATOM      7  C   UNL     1      22.267  82.891  98.623  1.00  0.00    -0.000 C 
BRANCH   7   8
ATOM      8  C   UNL     1      23.006  81.545  98.650  1.00  0.00    -0.003 C 
ATOM      9  C   UNL     1      24.310  81.618  97.860  1.00  0.00     0.004 C 
ENDBRANCH   7   8
ENDBRANCH   6   7
ENDBRANCH   5   6
ENDBRANCH   4   5
ENDBRANCH   3   4
ENDBRANCH   2   3
ENDBRANCH   1   2
BRANCH   1  10
ATOM     10  C   UNL     1      20.594  78.265 100.372  1.00  0.00     0.000 C 
BRANCH  10  11
ATOM     11  C   UNL     1      19.946  79.184 101.419  1.00  0.00     0.000 C 
BRANCH  11  12
ATOM     12  C   UNL     1      19.939  80.642 100.936  1.00  0.00     0.001 C 
BRANCH  12  13
ATOM     13  C   UNL     1      20.681  81.587 101.895  1.00  0.00     0.012 C 
BRANCH  13  14
ATOM     14  C   UNL     1      19.875  81.894 103.163  1.00  0.00     0.123 C 
BRANCH  14  15
ATOM     15  C   UNL     1      20.788  82.038 104.338  1.00  0.00     0.305 C 
ATOM     16  O   UNL     1      21.400  83.125 104.528  1.00  0.00    -0.252 OA
BRANCH  15  17
ATOM     17  O   UNL     1      20.921  80.978 105.240  1.00  0.00    -0.469 OA
ATOM     18  C   UNL     1      21.114  79.634 104.819  1.00  0.00     0.282 C 
ENDBRANCH  15  17
ENDBRANCH  14  15
ENDBRANCH  13  14
ENDBRANCH  12  13
ENDBRANCH  11  12
ENDBRANCH  10  11
ENDBRANCH   1  10
TORSDOF 14
ENDMDL
MODEL 2
REMARK VINA RESULT:    -2.745     22.341     23.438
REMARK INTER + INTRA:          -6.412
REMARK INTER:                  -5.739
REMARK INTRA:                  -0.673
REMARK UNBOUND:                -1.421
REMARK SMILES CCCCCCCCCCCCCCC(=O)OC
REMARK SMILES IDX 9 1 8 2 7 3 6 4 5 5 4 6 3 7 2 8 1 9 10 10 11 11 12 12 13 13
REMARK SMILES IDX 14 14 15 15 16 16 17 17 18 18
REMARK H PARENT
REMARK Flexibility Score: inf
ROOT
ATOM      1  C   UNL     1      36.735  64.225  99.767  1.00  0.00     0.000 C 
ENDROOT
BRANCH   1   2
ATOM      2  C   UNL     1      37.971  65.104  99.510  1.00  0.00     0.000 C 
BRANCH   2   3
ATOM      3  C   UNL     1      38.702  64.737  98.208  1.00  0.00    -0.000 C 
BRANCH   3   4
ATOM      4  C   UNL     1      38.093  63.553  97.429  1.00  0.00    -0.000 C 
BRANCH   4   5
ATOM      5  C   UNL     1      38.837  63.223  96.117  1.00  0.00    -0.000 C 
BRANCH   5   6
ATOM      6  C   UNL     1      38.261  63.991  94.914  1.00  0.00    -0.000 C 
BRANCH   6   7
ATOM      7  C   UNL     1      37.052  63.285  94.284  1.00  0.00    -0.000 C 
BRANCH   7   8
ATOM      8  C   UNL     1      35.752  64.090  94.432  1.00  0.00    -0.003 C 
ATOM      9  C   UNL     1      34.842  63.474  95.492  1.00  0.00     0.004 C 
ENDBRANCH   7   8
ENDBRANCH   6   7
ENDBRANCH   5   6
ENDBRANCH   4   5
ENDBRANCH   3   4
ENDBRANCH   2   3
ENDBRANCH   1   2
BRANCH   1  10
ATOM     10  C   UNL     1      37.038  63.040 100.696  1.00  0.00     0.000 C 
BRANCH  10  11
ATOM     11  C   UNL     1      37.466  63.481 102.104  1.00  0.00     0.000 C 
BRANCH  11  12
ATOM     12  C   UNL     1      36.329  63.265 103.114  1.00  0.00     0.001 C 
BRANCH  12  13
ATOM     13  C   UNL     1      36.707  63.710 104.536  1.00  0.00     0.012 C 
BRANCH  13  14
ATOM     14  C   UNL     1      35.591  64.507 105.221  1.00  0.00     0.123 C 
BRANCH  14  15
ATOM     15  C   UNL     1      34.562  63.581 105.788  1.00  0.00     0.305 C 
ATOM     16  O   UNL     1      33.623  63.164 105.055  1.00  0.00    -0.252 OA
BRANCH  15  17
ATOM     17  O   UNL     1      34.676  63.154 107.114  1.00  0.00    -0.469 OA
ATOM     18  C   UNL     1      35.513  63.808 108.060  1.00  0.00     0.282 C 
ENDBRANCH  15  17
ENDBRANCH  14  15
ENDBRANCH  13  14
ENDBRANCH  12  13
ENDBRANCH  11  12
ENDBRANCH  10  11
ENDBRANCH   1  10
TORSDOF 14
ENDMDL
MODEL 3
REMARK VINA RESULT:    -2.705     23.036     24.943
REMARK INTER + INTRA:          -6.339
REMARK INTER:                  -5.206
REMARK INTRA:                  -1.134
REMARK UNBOUND:                -1.421
REMARK SMILES CCCCCCCCCCCCCCC(=O)OC
REMARK SMILES IDX 9 1 8 2 7 3 6 4 5 5 4 6 3 7 2 8 1 9 10 10 11 11 12 12 13 13
REMARK SMILES IDX 14 14 15 15 16 16 17 17 18 18
REMARK H PARENT
REMARK Flexibility Score: inf
ROOT
ATOM      1  C   UNL     1      38.270  65.856  99.508  1.00  0.00     0.000 C 
ENDROOT
BRANCH   1   2
ATOM      2  C   UNL     1      37.362  64.709  99.981  1.00  0.00     0.000 C 
BRANCH   2   3
ATOM      3  C   UNL     1      37.977  63.901 101.137  1.00  0.00    -0.000 C 
BRANCH   3   4
ATOM      4  C   UNL     1      37.016  62.909 101.823  1.00  0.00    -0.000 C 
BRANCH   4   5
ATOM      5  C   UNL     1      36.396  63.446 103.131  1.00  0.00    -0.000 C 
BRANCH   5   6
ATOM      6  C   UNL     1      37.241  63.084 104.366  1.00  0.00    -0.000 C 
BRANCH   6   7
ATOM      7  C   UNL     1      37.336  64.236 105.376  1.00  0.00    -0.000 C 
BRANCH   7   8
ATOM      8  C   UNL     1      35.958  64.775 105.790  1.00  0.00    -0.003 C 
ATOM      9  C   UNL     1      35.211  63.767 106.660  1.00  0.00     0.004 C 
ENDBRANCH   7   8
ENDBRANCH   6   7
ENDBRANCH   5   6
ENDBRANCH   4   5
ENDBRANCH   3   4
ENDBRANCH   2   3
ENDBRANCH   1   2
BRANCH   1  10
ATOM     10  C   UNL     1      39.739  65.426  99.370  1.00  0.00     0.000 C 
BRANCH  10  11
ATOM     11  C   UNL     1      40.066  64.861  97.979  1.00  0.00     0.000 C 
BRANCH  11  12
ATOM     12  C   UNL     1      39.901  63.334  97.958  1.00  0.00     0.001 C 
BRANCH  12  13
ATOM     13  C   UNL     1      38.745  62.875  97.055  1.00  0.00     0.012 C 
BRANCH  13  14
ATOM     14  C   UNL     1      38.114  64.032  96.270  1.00  0.00     0.123 C 
BRANCH  14  15
ATOM     15  C   UNL     1      38.243  63.795  94.799  1.00  0.00     0.305 C 
ATOM     16  O   UNL     1      39.378  63.854  94.251  1.00  0.00    -0.252 OA
BRANCH  15  17
ATOM     17  O   UNL     1      37.107  63.467  94.053  1.00  0.00    -0.469 OA
ATOM     18  C   UNL     1      35.820  64.000  94.343  1.00  0.00     0.282 C 
ENDBRANCH  15  17
ENDBRANCH  14  15
ENDBRANCH  13  14
ENDBRANCH  12  13
ENDBRANCH  11  12
ENDBRANCH  10  11
ENDBRANCH   1  10
TORSDOF 14
ENDMDL
MODEL 4
REMARK VINA RESULT:    -2.522     22.817     24.765
REMARK INTER + INTRA:          -6.006
REMARK INTER:                  -4.899
REMARK INTRA:                  -1.107
REMARK UNBOUND:                -1.421
REMARK SMILES CCCCCCCCCCCCCCC(=O)OC
REMARK SMILES IDX 9 1 8 2 7 3 6 4 5 5 4 6 3 7 2 8 1 9 10 10 11 11 12 12 13 13
REMARK SMILES IDX 14 14 15 15 16 16 17 17 18 18
REMARK H PARENT
REMARK Flexibility Score: inf
ROOT
ATOM      1  C   UNL     1      39.321  64.707 100.168  1.00  0.00     0.000 C 
ENDROOT
BRANCH   1   2
ATOM      2  C   UNL     1      39.644  63.285 100.654  1.00  0.00     0.000 C 
BRANCH   2   3
ATOM      3  C   UNL     1      39.930  63.223 102.164  1.00  0.00    -0.000 C 
BRANCH   3   4
ATOM      4  C   UNL     1      38.712  62.875 103.044  1.00  0.00    -0.000 C 
BRANCH   4   5
ATOM      5  C   UNL     1      39.017  62.878 104.558  1.00  0.00    -0.000 C 
BRANCH   5   6
ATOM      6  C   UNL     1      37.840  63.423 105.387  1.00  0.00    -0.000 C 
BRANCH   6   7
ATOM      7  C   UNL     1      36.697  63.958 104.511  1.00  0.00    -0.000 C 
BRANCH   7   8
ATOM      8  C   UNL     1      35.558  64.575 105.337  1.00  0.00    -0.003 C 
ATOM      9  C   UNL     1      34.727  63.493 106.022  1.00  0.00     0.004 C 
ENDBRANCH   7   8
ENDBRANCH   6   7
ENDBRANCH   5   6
ENDBRANCH   4   5
ENDBRANCH   3   4
ENDBRANCH   2   3
ENDBRANCH   1   2
BRANCH   1  10
ATOM     10  C   UNL     1      38.047  64.763  99.311  1.00  0.00     0.000 C 
BRANCH  10  11
ATOM     11  C   UNL     1      36.786  64.360 100.091  1.00  0.00     0.000 C 
BRANCH  11  12
ATOM     12  C   UNL     1      36.109  63.143  99.444  1.00  0.00     0.001 C 
BRANCH  12  13
ATOM     13  C   UNL     1      36.609  62.877  98.014  1.00  0.00     0.012 C 
BRANCH  13  14
ATOM     14  C   UNL     1      35.599  63.312  96.945  1.00  0.00     0.123 C 
BRANCH  14  15
ATOM     15  C   UNL     1      36.309  63.880  95.758  1.00  0.00     0.305 C 
ATOM     16  O   UNL     1      35.752  64.774  95.063  1.00  0.00    -0.252 OA
BRANCH  15  17
ATOM     17  O   UNL     1      37.602  63.443  95.456  1.00  0.00    -0.469 OA
ATOM     18  C   UNL     1      38.696  64.339  95.306  1.00  0.00     0.282 C 
ENDBRANCH  15  17
ENDBRANCH  14  15
ENDBRANCH  13  14
ENDBRANCH  12  13
ENDBRANCH  11  12
ENDBRANCH  10  11
ENDBRANCH   1  10
TORSDOF 14
ENDMDL
MODEL 5
REMARK VINA RESULT:    -2.423      1.589      2.651
REMARK INTER + INTRA:          -5.828
REMARK INTER:                  -4.480
REMARK INTRA:                  -1.348
REMARK UNBOUND:                -1.421
REMARK SMILES CCCCCCCCCCCCCCC(=O)OC
REMARK SMILES IDX 9 1 8 2 7 3 6 4 5 5 4 6 3 7 2 8 1 9 10 10 11 11 12 12 13 13
REMARK SMILES IDX 14 14 15 15 16 16 17 17 18 18
REMARK H PARENT
REMARK Flexibility Score: inf
ROOT
ATOM      1  C   UNL     1      22.128  80.878 100.919  1.00  0.00     0.000 C 
ENDROOT
BRANCH   1   2
ATOM      2  C   UNL     1      20.903  80.060 100.477  1.00  0.00     0.000 C 
BRANCH   2   3
ATOM      3  C   UNL     1      19.958  80.853  99.557  1.00  0.00    -0.000 C 
BRANCH   3   4
ATOM      4  C   UNL     1      20.223  80.681  98.048  1.00  0.00    -0.000 C 
BRANCH   4   5
ATOM      5  C   UNL     1      19.988  81.966  97.224  1.00  0.00    -0.000 C 
BRANCH   5   6
ATOM      6  C   UNL     1      21.273  82.452  96.528  1.00  0.00    -0.000 C 
BRANCH   6   7
ATOM      7  C   UNL     1      22.254  83.125  97.498  1.00  0.00    -0.000 C 
BRANCH   7   8
ATOM      8  C   UNL     1      23.720  82.953  97.071  1.00  0.00    -0.003 C 
ATOM      9  C   UNL     1      24.385  81.812  97.837  1.00  0.00     0.004 C 
ENDBRANCH   7   8
ENDBRANCH   6   7
ENDBRANCH   5   6
ENDBRANCH   4   5
ENDBRANCH   3   4
ENDBRANCH   2   3
ENDBRANCH   1   2
BRANCH   1  10
ATOM     10  C   UNL     1      21.909  82.392 100.775  1.00  0.00     0.000 C 
BRANCH  10  11
ATOM     11  C   UNL     1      20.922  82.952 101.810  1.00  0.00     0.000 C 
BRANCH  11  12
ATOM     12  C   UNL     1      21.484  82.812 103.233  1.00  0.00     0.001 C 
BRANCH  12  13
ATOM     13  C   UNL     1      20.401  82.463 104.266  1.00  0.00     0.012 C 
BRANCH  13  14
ATOM     14  C   UNL     1      19.877  81.030 104.110  1.00  0.00     0.123 C 
BRANCH  14  15
ATOM     15  C   UNL     1      20.913  80.046 104.551  1.00  0.00     0.305 C 
ATOM     16  O   UNL     1      21.305  80.042 105.750  1.00  0.00    -0.252 OA
BRANCH  15  17
ATOM     17  O   UNL     1      21.406  79.110 103.637  1.00  0.00    -0.469 OA
ATOM     18  C   UNL     1      20.710  77.911 103.318  1.00  0.00     0.282 C 
ENDBRANCH  15  17
ENDBRANCH  14  15
ENDBRANCH  13  14
ENDBRANCH  12  13
ENDBRANCH  11  12
ENDBRANCH  10  11
ENDBRANCH   1  10
TORSDOF 14
ENDMDL
MODEL 6
REMARK VINA RESULT:    -2.319      1.579      3.447
REMARK INTER + INTRA:          -5.638
REMARK INTER:                  -4.086
REMARK INTRA:                  -1.552
REMARK UNBOUND:                -1.421
REMARK SMILES CCCCCCCCCCCCCCC(=O)OC
REMARK SMILES IDX 9 1 8 2 7 3 6 4 5 5 4 6 3 7 2 8 1 9 10 10 11 11 12 12 13 13
REMARK SMILES IDX 14 14 15 15 16 16 17 17 18 18
REMARK H PARENT
REMARK Flexibility Score: inf
ROOT
ATOM      1  C   UNL     1      22.864  81.758  99.958  1.00  0.00     0.000 C 
ENDROOT
BRANCH   1   2
ATOM      2  C   UNL     1      22.383  82.939  99.099  1.00  0.00     0.000 C 
BRANCH   2   3
ATOM      3  C   UNL     1      22.921  82.886  97.659  1.00  0.00    -0.000 C 
BRANCH   3   4
ATOM      4  C   UNL     1      21.843  82.751  96.565  1.00  0.00    -0.000 C 
BRANCH   4   5
ATOM      5  C   UNL     1      20.532  82.101  97.061  1.00  0.00    -0.000 C 
BRANCH   5   6
ATOM      6  C   UNL     1      19.885  81.208  95.986  1.00  0.00    -0.000 C 
BRANCH   6   7
ATOM      7  C   UNL     1      20.147  79.714  96.221  1.00  0.00    -0.000 C 
BRANCH   7   8
ATOM      8  C   UNL     1      21.031  79.455  97.450  1.00  0.00    -0.003 C 
ATOM      9  C   UNL     1      20.233  78.794  98.572  1.00  0.00     0.004 C 
ENDBRANCH   7   8
ENDBRANCH   6   7
ENDBRANCH   5   6
ENDBRANCH   4   5
ENDBRANCH   3   4
ENDBRANCH   2   3
ENDBRANCH   1   2
BRANCH   1  10
ATOM     10  C   UNL     1      21.802  81.291 100.966  1.00  0.00     0.000 C 
BRANCH  10  11
ATOM     11  C   UNL     1      20.879  82.429 101.429  1.00  0.00     0.000 C 
BRANCH  11  12
ATOM     12  C   UNL     1      20.981  82.632 102.948  1.00  0.00     0.001 C 
BRANCH  12  13
ATOM     13  C   UNL     1      19.913  81.845 103.723  1.00  0.00     0.012 C 
BRANCH  13  14
ATOM     14  C   UNL     1      20.512  80.972 104.833  1.00  0.00     0.123 C 
BRANCH  14  15
ATOM     15  C   UNL     1      20.867  79.621 104.298  1.00  0.00     0.305 C 
ATOM     16  O   UNL     1      21.850  78.994 104.781  1.00  0.00    -0.252 OA
BRANCH  15  17
ATOM     17  O   UNL     1      20.079  79.048 103.296  1.00  0.00    -0.469 OA
ATOM     18  C   UNL     1      20.587  78.091 102.375  1.00  0.00     0.282 C 
ENDBRANCH  15  17
ENDBRANCH  14  15
ENDBRANCH  13  14
ENDBRANCH  12  13
ENDBRANCH  11  12
ENDBRANCH  10  11
ENDBRANCH   1  10
TORSDOF 14
ENDMDL
MODEL 7
REMARK VINA RESULT:    -2.299      2.015      3.841
REMARK INTER + INTRA:          -5.601
REMARK INTER:                  -5.021
REMARK INTRA:                  -0.580
REMARK UNBOUND:                -1.421
REMARK SMILES CCCCCCCCCCCCCCC(=O)OC
REMARK SMILES IDX 9 1 8 2 7 3 6 4 5 5 4 6 3 7 2 8 1 9 10 10 11 11 12 12 13 13
REMARK SMILES IDX 14 14 15 15 16 16 17 17 18 18
REMARK H PARENT
REMARK Flexibility Score: inf
ROOT
ATOM      1  C   UNL     1      21.923  82.478 102.522  1.00  0.00     0.000 C 
ENDROOT
BRANCH   1   2
ATOM      2  C   UNL     1      21.528  83.104 101.174  1.00  0.00     0.000 C 
BRANCH   2   3
ATOM      3  C   UNL     1      20.143  82.643 100.687  1.00  0.00    -0.000 C 
BRANCH   3   4
ATOM      4  C   UNL     1      20.161  81.447  99.713  1.00  0.00    -0.000 C 
BRANCH   4   5
ATOM      5  C   UNL     1      20.180  81.857  98.224  1.00  0.00    -0.000 C 
BRANCH   5   6
ATOM      6  C   UNL     1      21.198  82.977  97.943  1.00  0.00    -0.000 C 
BRANCH   6   7
ATOM      7  C   UNL     1      22.445  82.471  97.205  1.00  0.00    -0.000 C 
BRANCH   7   8
ATOM      8  C   UNL     1      23.448  81.780  98.141  1.00  0.00    -0.003 C 
ATOM      9  C   UNL     1      24.876  81.926  97.622  1.00  0.00     0.004 C 
ENDBRANCH   7   8
ENDBRANCH   6   7
ENDBRANCH   5   6
ENDBRANCH   4   5
ENDBRANCH   3   4
ENDBRANCH   2   3
ENDBRANCH   1   2
BRANCH   1  10
ATOM     10  C   UNL     1      21.191  83.122 103.709  1.00  0.00     0.000 C 
BRANCH  10  11
ATOM     11  C   UNL     1      20.015  82.273 104.215  1.00  0.00     0.000 C 
BRANCH  11  12
ATOM     12  C   UNL     1      20.154  80.815 103.752  1.00  0.00     0.001 C 
BRANCH  12  13
ATOM     13  C   UNL     1      20.710  79.895 104.851  1.00  0.00     0.012 C 
BRANCH  13  14
ATOM     14  C   UNL     1      21.479  78.696 104.284  1.00  0.00     0.123 C 
BRANCH  14  15
ATOM     15  C   UNL     1      21.386  78.675 102.792  1.00  0.00     0.305 C 
ATOM     16  O   UNL     1      22.179  79.375 102.104  1.00  0.00    -0.252 OA
BRANCH  15  17
ATOM     17  O   UNL     1      20.447  77.845 102.172  1.00  0.00    -0.469 OA
ATOM     18  C   UNL     1      20.203  77.877 100.771  1.00  0.00     0.282 C 
ENDBRANCH  15  17
ENDBRANCH  14  15
ENDBRANCH  13  14
ENDBRANCH  12  13
ENDBRANCH  11  12
ENDBRANCH  10  11
ENDBRANCH   1  10
TORSDOF 14
ENDMDL
