MODEL 1
REMARK VINA RESULT:    -4.142      0.000      0.000
REMARK INTER + INTRA:          -8.174
REMARK INTER:                  -6.563
REMARK INTRA:                  -1.612
REMARK UNBOUND:                -1.612
REMARK SMILES CCCCCCCCCCCC(=O)[O-]
REMARK SMILES IDX 7 1 8 2 9 3 10 4 11 5 12 6 13 7 14 8 6 9 5 10 4 11 3 12 2 13
REMARK SMILES IDX 1 14
REMARK H PARENT
REMARK Flexibility Score: inf
ROOT
ATOM      1  C   UNL     1     -39.176  20.519 -29.305  1.00  0.00     0.000 C 
ENDROOT
BRANCH   1   2
ATOM      2  C   UNL     1     -38.859  19.024 -29.431  1.00  0.00     0.000 C 
BRANCH   2   3
ATOM      3  C   UNL     1     -37.893  18.570 -28.330  1.00  0.00     0.000 C 
BRANCH   3   4
ATOM      4  C   UNL     1     -36.684  17.839 -28.925  1.00  0.00     0.006 C 
BRANCH   4   5
ATOM      5  C   UNL     1     -37.025  17.228 -30.287  1.00  0.00     0.053 C 
BRANCH   5   6
ATOM      6  C   UNL     1     -36.210  15.999 -30.529  1.00  0.00     0.041 C 
ATOM      7  O   UNL     1     -35.140  16.069 -31.190  1.00  0.00    -0.550 OA
ATOM      8  O   UNL     1     -36.654  14.766 -30.067  1.00  0.00    -0.550 OA
ENDBRANCH   5   6
ENDBRANCH   4   5
ENDBRANCH   3   4
ENDBRANCH   2   3
ENDBRANCH   1   2
BRANCH   1   9
ATOM      9  C   UNL     1     -39.084  21.217 -30.669  1.00  0.00     0.000 C 
BRANCH   9  10
ATOM     10  C   UNL     1     -38.346  20.373 -31.724  1.00  0.00    -0.000 C 
BRANCH  10  11
ATOM     11  C   UNL     1     -36.977  20.932 -32.162  1.00  0.00    -0.000 C 
BRANCH  11  12
ATOM     12  C   UNL     1     -35.831  20.730 -31.151  1.00  0.00    -0.000 C 
BRANCH  12  13
ATOM     13  C   UNL     1     -35.575  21.926 -30.218  1.00  0.00    -0.003 C 
ATOM     14  C   UNL     1     -35.542  21.534 -28.741  1.00  0.00     0.004 C 
ENDBRANCH  12  13
ENDBRANCH  11  12
ENDBRANCH  10  11
ENDBRANCH   9  10
ENDBRANCH   1   9
TORSDOF 10
ENDMDL
MODEL 2
REMARK VINA RESULT:    -4.116      1.147      2.284
REMARK INTER + INTRA:          -8.134
REMARK INTER:                  -6.695
REMARK INTRA:                  -1.438
REMARK UNBOUND:                -1.612
REMARK SMILES CCCCCCCCCCCC(=O)[O-]
REMARK SMILES IDX 7 1 8 2 9 3 10 4 11 5 12 6 13 7 14 8 6 9 5 10 4 11 3 12 2 13
REMARK SMILES IDX 1 14
REMARK H PARENT
REMARK Flexibility Score: inf
ROOT
ATOM      1  C   UNL     1     -38.034  18.587 -28.283  1.00  0.00     0.000 C 
ENDROOT
BRANCH   1   2
ATOM      2  C   UNL     1     -36.721  19.359 -28.459  1.00  0.00     0.000 C 
BRANCH   2   3
ATOM      3  C   UNL     1     -35.555  18.406 -28.744  1.00  0.00     0.000 C 
BRANCH   3   4
ATOM      4  C   UNL     1     -35.231  18.363 -30.242  1.00  0.00     0.006 C 
BRANCH   4   5
ATOM      5  C   UNL     1     -35.164  16.920 -30.750  1.00  0.00     0.053 C 
BRANCH   5   6
ATOM      6  C   UNL     1     -36.504  16.265 -30.646  1.00  0.00     0.041 C 
ATOM      7  O   UNL     1     -36.622  15.154 -30.065  1.00  0.00    -0.550 OA
ATOM      8  O   UNL     1     -37.616  16.857 -31.231  1.00  0.00    -0.550 OA
ENDBRANCH   5   6
ENDBRANCH   4   5
ENDBRANCH   3   4
ENDBRANCH   2   3
ENDBRANCH   1   2
BRANCH   1   9
ATOM      9  C   UNL     1     -39.149  19.194 -29.146  1.00  0.00     0.000 C 
BRANCH   9  10
ATOM     10  C   UNL     1     -38.987  20.711 -29.350  1.00  0.00    -0.000 C 
BRANCH  10  11
ATOM     11  C   UNL     1     -38.957  21.171 -30.822  1.00  0.00    -0.000 C 
BRANCH  11  12
ATOM     12  C   UNL     1     -38.075  20.319 -31.756  1.00  0.00    -0.000 C 
BRANCH  12  13
ATOM     13  C   UNL     1     -36.786  21.008 -32.234  1.00  0.00    -0.003 C 
ATOM     14  C   UNL     1     -36.151  21.893 -31.161  1.00  0.00     0.004 C 
ENDBRANCH  12  13
ENDBRANCH  11  12
ENDBRANCH  10  11
ENDBRANCH   9  10
ENDBRANCH   1   9
TORSDOF 10
ENDMDL
MODEL 3
REMARK VINA RESULT:    -4.073      0.992      1.646
REMARK INTER + INTRA:          -8.066
REMARK INTER:                  -6.613
REMARK INTRA:                  -1.454
REMARK UNBOUND:                -1.612
REMARK SMILES CCCCCCCCCCCC(=O)[O-]
REMARK SMILES IDX 7 1 8 2 9 3 10 4 11 5 12 6 13 7 14 8 6 9 5 10 4 11 3 12 2 13
REMARK SMILES IDX 1 14
REMARK H PARENT
REMARK Flexibility Score: inf
ROOT
ATOM      1  C   UNL     1     -39.882  20.024 -28.929  1.00  0.00     0.000 C 
ENDROOT
BRANCH   1   2
ATOM      2  C   UNL     1     -39.024  18.793 -29.245  1.00  0.00     0.000 C 
BRANCH   2   3
ATOM      3  C   UNL     1     -37.941  18.587 -28.180  1.00  0.00     0.000 C 
BRANCH   3   4
ATOM      4  C   UNL     1     -36.865  17.611 -28.669  1.00  0.00     0.006 C 
BRANCH   4   5
ATOM      5  C   UNL     1     -37.062  17.271 -30.149  1.00  0.00     0.053 C 
BRANCH   5   6
ATOM      6  C   UNL     1     -36.298  16.038 -30.510  1.00  0.00     0.041 C 
ATOM      7  O   UNL     1     -36.692  14.910 -30.112  1.00  0.00    -0.550 OA
ATOM      8  O   UNL     1     -35.123  16.136 -31.245  1.00  0.00    -0.550 OA
ENDBRANCH   5   6
ENDBRANCH   4   5
ENDBRANCH   3   4
ENDBRANCH   2   3
ENDBRANCH   1   2
BRANCH   1   9
ATOM      9  C   UNL     1     -39.469  21.220 -29.798  1.00  0.00     0.000 C 
BRANCH   9  10
ATOM     10  C   UNL     1     -38.558  22.213 -29.054  1.00  0.00    -0.000 C 
BRANCH  10  11
ATOM     11  C   UNL     1     -37.049  22.028 -29.307  1.00  0.00    -0.000 C 
BRANCH  11  12
ATOM     12  C   UNL     1     -36.687  21.351 -30.645  1.00  0.00    -0.000 C 
BRANCH  12  13
ATOM     13  C   UNL     1     -35.346  20.598 -30.645  1.00  0.00    -0.003 C 
ATOM     14  C   UNL     1     -34.701  20.528 -29.261  1.00  0.00     0.004 C 
ENDBRANCH  12  13
ENDBRANCH  11  12
ENDBRANCH  10  11
ENDBRANCH   9  10
ENDBRANCH   1   9
TORSDOF 10
ENDMDL
MODEL 4
REMARK VINA RESULT:    -3.871      2.984      5.206
REMARK INTER + INTRA:          -7.746
REMARK INTER:                  -6.100
REMARK INTRA:                  -1.646
REMARK UNBOUND:                -1.612
REMARK SMILES CCCCCCCCCCCC(=O)[O-]
REMARK SMILES IDX 7 1 8 2 9 3 10 4 11 5 12 6 13 7 14 8 6 9 5 10 4 11 3 12 2 13
REMARK SMILES IDX 1 14
REMARK H PARENT
REMARK Flexibility Score: inf
ROOT
ATOM      1  C   UNL     1     -34.646  20.156 -30.981  1.00  0.00     0.000 C 
ENDROOT
BRANCH   1   2
ATOM      2  C   UNL     1     -35.900  21.038 -31.000  1.00  0.00     0.000 C 
BRANCH   2   3
ATOM      3  C   UNL     1     -36.860  20.608 -32.116  1.00  0.00     0.000 C 
BRANCH   3   4
ATOM      4  C   UNL     1     -38.320  20.791 -31.689  1.00  0.00     0.006 C 
BRANCH   4   5
ATOM      5  C   UNL     1     -38.412  21.308 -30.250  1.00  0.00     0.053 C 
BRANCH   5   6
ATOM      6  C   UNL     1     -39.802  21.149 -29.724  1.00  0.00     0.041 C 
ATOM      7  O   UNL     1     -40.671  22.030 -29.954  1.00  0.00    -0.550 OA
ATOM      8  O   UNL     1     -40.128  20.050 -28.937  1.00  0.00    -0.550 OA
ENDBRANCH   5   6
ENDBRANCH   4   5
ENDBRANCH   3   4
ENDBRANCH   2   3
ENDBRANCH   1   2
BRANCH   1   9
ATOM      9  C   UNL     1     -34.244  19.802 -29.542  1.00  0.00     0.000 C 
BRANCH   9  10
ATOM     10  C   UNL     1     -35.421  19.895 -28.554  1.00  0.00    -0.000 C 
BRANCH  10  11
ATOM     11  C   UNL     1     -35.878  18.549 -27.958  1.00  0.00    -0.000 C 
BRANCH  11  12
ATOM     12  C   UNL     1     -37.306  18.112 -28.342  1.00  0.00    -0.000 C 
BRANCH  12  13
ATOM     13  C   UNL     1     -37.487  17.726 -29.820  1.00  0.00    -0.003 C 
ATOM     14  C   UNL     1     -36.413  16.760 -30.320  1.00  0.00     0.004 C 
ENDBRANCH  12  13
ENDBRANCH  11  12
ENDBRANCH  10  11
ENDBRANCH   9  10
ENDBRANCH   1   9
TORSDOF 10
ENDMDL
MODEL 5
REMARK VINA RESULT:    -3.824      2.537      4.198
REMARK INTER + INTRA:          -7.671
REMARK INTER:                  -6.314
REMARK INTRA:                  -1.357
REMARK UNBOUND:                -1.612
REMARK SMILES CCCCCCCCCCCC(=O)[O-]
REMARK SMILES IDX 7 1 8 2 9 3 10 4 11 5 12 6 13 7 14 8 6 9 5 10 4 11 3 12 2 13
REMARK SMILES IDX 1 14
REMARK H PARENT
REMARK Flexibility Score: inf
ROOT
ATOM      1  C   UNL     1     -39.626  20.132 -28.921  1.00  0.00     0.000 C 
ENDROOT
BRANCH   1   2
ATOM      2  C   UNL     1     -39.008  21.197 -29.834  1.00  0.00     0.000 C 
BRANCH   2   3
ATOM      3  C   UNL     1     -37.981  22.046 -29.074  1.00  0.00     0.000 C 
BRANCH   3   4
ATOM      4  C   UNL     1     -36.549  21.637 -29.440  1.00  0.00     0.006 C 
BRANCH   4   5
ATOM      5  C   UNL     1     -36.040  22.434 -30.644  1.00  0.00     0.053 C 
BRANCH   5   6
ATOM      6  C   UNL     1     -35.758  21.522 -31.794  1.00  0.00     0.041 C 
ATOM      7  O   UNL     1     -34.571  21.221 -32.087  1.00  0.00    -0.550 OA
ATOM      8  O   UNL     1     -36.802  21.042 -32.575  1.00  0.00    -0.550 OA
ENDBRANCH   5   6
ENDBRANCH   4   5
ENDBRANCH   3   4
ENDBRANCH   2   3
ENDBRANCH   1   2
BRANCH   1   9
ATOM      9  C   UNL     1     -39.041  18.744 -29.220  1.00  0.00     0.000 C 
BRANCH   9  10
ATOM     10  C   UNL     1     -37.867  18.378 -28.294  1.00  0.00    -0.000 C 
BRANCH  10  11
ATOM     11  C   UNL     1     -36.742  17.562 -28.961  1.00  0.00    -0.000 C 
BRANCH  11  12
ATOM     12  C   UNL     1     -36.322  18.048 -30.363  1.00  0.00    -0.000 C 
BRANCH  12  13
ATOM     13  C   UNL     1     -34.805  18.042 -30.620  1.00  0.00    -0.003 C 
ATOM     14  C   UNL     1     -34.019  18.822 -29.567  1.00  0.00     0.004 C 
ENDBRANCH  12  13
ENDBRANCH  11  12
ENDBRANCH  10  11
ENDBRANCH   9  10
ENDBRANCH   1   9
TORSDOF 10
ENDMDL
MODEL 6
REMARK VINA RESULT:    -3.819      2.649      4.505
REMARK INTER + INTRA:          -7.664
REMARK INTER:                  -6.371
REMARK INTRA:                  -1.292
REMARK UNBOUND:                -1.612
REMARK SMILES CCCCCCCCCCCC(=O)[O-]
REMARK SMILES IDX 7 1 8 2 9 3 10 4 11 5 12 6 13 7 14 8 6 9 5 10 4 11 3 12 2 13
REMARK SMILES IDX 1 14
REMARK H PARENT
REMARK Flexibility Score: inf
ROOT
ATOM      1  C   UNL     1     -36.368  16.913 -30.108  1.00  0.00     0.000 C 
ENDROOT
BRANCH   1   2
ATOM      2  C   UNL     1     -35.051  17.542 -30.580  1.00  0.00     0.000 C 
BRANCH   2   3
ATOM      3  C   UNL     1     -34.530  18.560 -29.558  1.00  0.00     0.000 C 
BRANCH   3   4
ATOM      4  C   UNL     1     -35.158  19.940 -29.785  1.00  0.00     0.006 C 
BRANCH   4   5
ATOM      5  C   UNL     1     -34.958  20.405 -31.230  1.00  0.00     0.053 C 
BRANCH   5   6
ATOM      6  C   UNL     1     -35.943  21.475 -31.578  1.00  0.00     0.041 C 
ATOM      7  O   UNL     1     -35.793  22.642 -31.130  1.00  0.00    -0.550 OA
ATOM      8  O   UNL     1     -37.053  21.173 -32.356  1.00  0.00    -0.550 OA
ENDBRANCH   5   6
ENDBRANCH   4   5
ENDBRANCH   3   4
ENDBRANCH   2   3
ENDBRANCH   1   2
BRANCH   1   9
ATOM      9  C   UNL     1     -37.495  17.178 -31.116  1.00  0.00     0.000 C 
BRANCH   9  10
ATOM     10  C   UNL     1     -38.401  18.353 -30.705  1.00  0.00    -0.000 C 
BRANCH  10  11
ATOM     11  C   UNL     1     -38.541  18.564 -29.184  1.00  0.00    -0.000 C 
BRANCH  11  12
ATOM     12  C   UNL     1     -39.535  19.666 -28.764  1.00  0.00    -0.000 C 
BRANCH  12  13
ATOM     13  C   UNL     1     -39.494  20.937 -29.630  1.00  0.00    -0.003 C 
ATOM     14  C   UNL     1     -38.570  22.014 -29.064  1.00  0.00     0.004 C 
ENDBRANCH  12  13
ENDBRANCH  11  12
ENDBRANCH  10  11
ENDBRANCH   9  10
ENDBRANCH   1   9
TORSDOF 10
ENDMDL
MODEL 7
REMARK VINA RESULT:    -3.786      2.390      4.683
REMARK INTER + INTRA:          -7.611
REMARK INTER:                  -6.234
REMARK INTRA:                  -1.376
REMARK UNBOUND:                -1.612
REMARK SMILES CCCCCCCCCCCC(=O)[O-]
REMARK SMILES IDX 7 1 8 2 9 3 10 4 11 5 12 6 13 7 14 8 6 9 5 10 4 11 3 12 2 13
REMARK SMILES IDX 1 14
REMARK H PARENT
REMARK Flexibility Score: inf
ROOT
ATOM      1  C   UNL     1     -35.135  20.468 -30.680  1.00  0.00     0.000 C 
ENDROOT
BRANCH   1   2
ATOM      2  C   UNL     1     -36.498  21.067 -31.049  1.00  0.00     0.000 C 
BRANCH   2   3
ATOM      3  C   UNL     1     -37.314  20.094 -31.908  1.00  0.00     0.000 C 
BRANCH   3   4
ATOM      4  C   UNL     1     -38.266  19.260 -31.043  1.00  0.00     0.006 C 
BRANCH   4   5
ATOM      5  C   UNL     1     -38.807  20.083 -29.870  1.00  0.00     0.053 C 
BRANCH   5   6
ATOM      6  C   UNL     1     -39.180  19.189 -28.731  1.00  0.00     0.041 C 
ATOM      7  O   UNL     1     -38.292  18.538 -28.120  1.00  0.00    -0.550 OA
ATOM      8  O   UNL     1     -40.514  19.035 -28.375  1.00  0.00    -0.550 OA
ENDBRANCH   5   6
ENDBRANCH   4   5
ENDBRANCH   3   4
ENDBRANCH   2   3
ENDBRANCH   1   2
BRANCH   1   9
ATOM      9  C   UNL     1     -35.128  19.973 -29.227  1.00  0.00     0.000 C 
BRANCH   9  10
ATOM     10  C   UNL     1     -34.729  18.491 -29.103  1.00  0.00    -0.000 C 
BRANCH  10  11
ATOM     11  C   UNL     1     -34.267  17.830 -30.417  1.00  0.00    -0.000 C 
BRANCH  11  12
ATOM     12  C   UNL     1     -35.272  16.843 -31.044  1.00  0.00    -0.000 C 
BRANCH  12  13
ATOM     13  C   UNL     1     -36.402  16.389 -30.104  1.00  0.00    -0.003 C 
ATOM     14  C   UNL     1     -36.580  14.871 -30.077  1.00  0.00     0.004 C 
ENDBRANCH  12  13
ENDBRANCH  11  12
ENDBRANCH  10  11
ENDBRANCH   9  10
ENDBRANCH   1   9
TORSDOF 10
ENDMDL
MODEL 8
REMARK VINA RESULT:    -3.765     14.693     16.277
REMARK INTER + INTRA:          -7.578
REMARK INTER:                  -7.271
REMARK INTRA:                  -0.307
REMARK UNBOUND:                -1.612
REMARK SMILES CCCCCCCCCCCC(=O)[O-]
REMARK SMILES IDX 7 1 8 2 9 3 10 4 11 5 12 6 13 7 14 8 6 9 5 10 4 11 3 12 2 13
REMARK SMILES IDX 1 14
REMARK H PARENT
REMARK Flexibility Score: inf
ROOT
ATOM      1  C   UNL     1     -53.886  20.294 -33.010  1.00  0.00     0.000 C 
ENDROOT
BRANCH   1   2
ATOM      2  C   UNL     1     -53.047  19.770 -31.838  1.00  0.00     0.000 C 
BRANCH   2   3
ATOM      3  C   UNL     1     -53.916  18.996 -30.840  1.00  0.00     0.000 C 
BRANCH   3   4
ATOM      4  C   UNL     1     -53.232  17.694 -30.406  1.00  0.00     0.006 C 
BRANCH   4   5
ATOM      5  C   UNL     1     -51.778  17.651 -30.885  1.00  0.00     0.053 C 
BRANCH   5   6
ATOM      6  C   UNL     1     -51.341  16.238 -31.106  1.00  0.00     0.041 C 
ATOM      7  O   UNL     1     -50.156  15.988 -31.450  1.00  0.00    -0.550 OA
ATOM      8  O   UNL     1     -52.254  15.198 -30.979  1.00  0.00    -0.550 OA
ENDBRANCH   5   6
ENDBRANCH   4   5
ENDBRANCH   3   4
ENDBRANCH   2   3
ENDBRANCH   1   2
BRANCH   1   9
ATOM      9  C   UNL     1     -52.989  20.889 -34.105  1.00  0.00     0.000 C 
BRANCH   9  10
ATOM     10  C   UNL     1     -53.740  21.130 -35.427  1.00  0.00    -0.000 C 
BRANCH  10  11
ATOM     11  C   UNL     1     -53.372  22.437 -36.156  1.00  0.00    -0.000 C 
BRANCH  11  12
ATOM     12  C   UNL     1     -53.217  22.314 -37.685  1.00  0.00    -0.000 C 
BRANCH  12  13
ATOM     13  C   UNL     1     -52.103  23.184 -38.293  1.00  0.00    -0.003 C 
ATOM     14  C   UNL     1     -51.721  22.758 -39.710  1.00  0.00     0.004 C 
ENDBRANCH  12  13
ENDBRANCH  11  12
ENDBRANCH  10  11
ENDBRANCH   9  10
ENDBRANCH   1   9
TORSDOF 10
ENDMDL
MODEL 9
REMARK VINA RESULT:    -3.763      1.952      3.836
REMARK INTER + INTRA:          -7.575
REMARK INTER:                  -6.100
REMARK INTRA:                  -1.476
REMARK UNBOUND:                -1.612
REMARK SMILES CCCCCCCCCCCC(=O)[O-]
REMARK SMILES IDX 7 1 8 2 9 3 10 4 11 5 12 6 13 7 14 8 6 9 5 10 4 11 3 12 2 13
REMARK SMILES IDX 1 14
REMARK H PARENT
REMARK Flexibility Score: inf
ROOT
ATOM      1  C   UNL     1     -37.271  21.438 -31.082  1.00  0.00     0.000 C 
ENDROOT
BRANCH   1   2
ATOM      2  C   UNL     1     -37.757  21.874 -29.695  1.00  0.00     0.000 C 
BRANCH   2   3
ATOM      3  C   UNL     1     -36.580  22.300 -28.808  1.00  0.00     0.000 C 
BRANCH   3   4
ATOM      4  C   UNL     1     -35.253  21.766 -29.359  1.00  0.00     0.006 C 
BRANCH   4   5
ATOM      5  C   UNL     1     -34.858  20.457 -28.671  1.00  0.00     0.053 C 
BRANCH   5   6
ATOM      6  C   UNL     1     -34.312  19.485 -29.667  1.00  0.00     0.041 C 
ATOM      7  O   UNL     1     -34.000  18.319 -29.309  1.00  0.00    -0.550 OA
ATOM      8  O   UNL     1     -34.101  19.880 -30.982  1.00  0.00    -0.550 OA
ENDBRANCH   5   6
ENDBRANCH   4   5
ENDBRANCH   3   4
ENDBRANCH   2   3
ENDBRANCH   1   2
BRANCH   1   9
ATOM      9  C   UNL     1     -38.295  20.512 -31.756  1.00  0.00     0.000 C 
BRANCH   9  10
ATOM     10  C   UNL     1     -37.804  19.057 -31.864  1.00  0.00    -0.000 C 
BRANCH  10  11
ATOM     11  C   UNL     1     -38.417  18.086 -30.834  1.00  0.00    -0.000 C 
BRANCH  11  12
ATOM     12  C   UNL     1     -37.669  18.001 -29.488  1.00  0.00    -0.000 C 
BRANCH  12  13
ATOM     13  C   UNL     1     -38.419  18.612 -28.293  1.00  0.00    -0.003 C 
ATOM     14  C   UNL     1     -39.864  18.987 -28.624  1.00  0.00     0.004 C 
ENDBRANCH  12  13
ENDBRANCH  11  12
ENDBRANCH  10  11
ENDBRANCH   9  10
ENDBRANCH   1   9
TORSDOF 10
ENDMDL
