MODEL 1
REMARK VINA RESULT:    -6.830      0.000      0.000
REMARK INTER + INTRA:          -6.830
REMARK INTER:                  -6.830
REMARK INTRA:                   0.000
REMARK UNBOUND:                 0.000
REMARK SMILES C=C1CCC[C@]2(C)C=C3OC(=O)C(C)=C3C[C@H]12
REMARK SMILES IDX 14 1 13 2 15 3 16 4 17 5 2 6 1 7 3 8 4 9 5 10 6 11 8 12 9 13
REMARK SMILES IDX 10 14 11 15 12 16 7 17
REMARK H PARENT
REMARK Flexibility Score: inf
ROOT
ATOM      1  C   UNL     1     -21.162  51.636   6.926  1.00  0.00     0.053 C 
ATOM      2  C   UNL     1     -21.041  50.277   7.537  1.00  0.00     0.041 C 
ATOM      3  C   UNL     1     -21.413  49.926   8.765  1.00  0.00     0.005 C 
ATOM      4  C   UNL     1     -22.102  50.740   9.819  1.00  0.00     0.049 C 
ATOM      5  C   UNL     1     -21.831  50.108  11.218  1.00  0.00     0.029 C 
ATOM      6  C   UNL     1     -20.432  50.396  11.782  1.00  0.00    -0.073 C 
ATOM      7  C   UNL     1     -19.479  51.102  11.142  1.00  0.00     0.008 C 
ATOM      8  C   UNL     1     -20.117  49.788  13.125  1.00  0.00     0.031 C 
ATOM      9  C   UNL     1     -20.307  48.275  13.050  1.00  0.00     0.005 C 
ATOM     10  C   UNL     1     -21.728  47.926  12.590  1.00  0.00     0.012 C 
ATOM     11  C   UNL     1     -22.091  48.546  11.210  1.00  0.00    -0.004 C 
ATOM     12  C   UNL     1     -21.283  47.875  10.103  1.00  0.00     0.027 C 
ATOM     13  C   UNL     1     -21.035  48.537   8.974  1.00  0.00     0.131 C 
ATOM     14  O   UNL     1     -20.383  48.045   7.854  1.00  0.00    -0.423 OA
ATOM     15  C   UNL     1     -20.372  49.108   6.958  1.00  0.00     0.339 C 
ATOM     16  O   UNL     1     -19.850  49.056   5.815  1.00  0.00    -0.246 OA
ATOM     17  C   UNL     1     -23.585  48.251  10.947  1.00  0.00     0.016 C 
ENDROOT
TORSDOF 0
ENDMDL
MODEL 2
REMARK VINA RESULT:    -5.831      2.240      3.433
REMARK INTER + INTRA:          -5.831
REMARK INTER:                  -5.831
REMARK INTRA:                   0.000
REMARK UNBOUND:                 0.000
REMARK SMILES C=C1CCC[C@]2(C)C=C3OC(=O)C(C)=C3C[C@H]12
REMARK SMILES IDX 14 1 13 2 15 3 16 4 17 5 2 6 1 7 3 8 4 9 5 10 6 11 8 12 9 13
REMARK SMILES IDX 10 14 11 15 12 16 7 17
REMARK H PARENT
REMARK Flexibility Score: inf
ROOT
ATOM      1  C   UNL     1     -17.276  51.990  10.127  1.00  0.00     0.053 C 
ATOM      2  C   UNL     1     -17.772  50.579  10.103  1.00  0.00     0.041 C 
ATOM      3  C   UNL     1     -19.009  50.181   9.824  1.00  0.00     0.005 C 
ATOM      4  C   UNL     1     -20.197  50.993   9.398  1.00  0.00     0.049 C 
ATOM      5  C   UNL     1     -21.503  50.206   9.726  1.00  0.00     0.029 C 
ATOM      6  C   UNL     1     -21.902  50.233  11.208  1.00  0.00    -0.073 C 
ATOM      7  C   UNL     1     -21.196  50.844  12.181  1.00  0.00     0.008 C 
ATOM      8  C   UNL     1     -23.149  49.470  11.577  1.00  0.00     0.031 C 
ATOM      9  C   UNL     1     -22.994  48.014  11.143  1.00  0.00     0.005 C 
ATOM     10  C   UNL     1     -22.697  47.921   9.641  1.00  0.00     0.012 C 
ATOM     11  C   UNL     1     -21.420  48.708   9.224  1.00  0.00    -0.004 C 
ATOM     12  C   UNL     1     -20.175  48.024   9.783  1.00  0.00     0.027 C 
ATOM     13  C   UNL     1     -19.073  48.739  10.000  1.00  0.00     0.131 C 
ATOM     14  O   UNL     1     -17.847  48.256  10.433  1.00  0.00    -0.423 OA
ATOM     15  C   UNL     1     -17.033  49.379  10.507  1.00  0.00     0.339 C 
ATOM     16  O   UNL     1     -15.831  49.352  10.879  1.00  0.00    -0.246 OA
ATOM     17  C   UNL     1     -21.330  48.661   7.682  1.00  0.00     0.016 C 
ENDROOT
TORSDOF 0
ENDMDL
MODEL 3
REMARK VINA RESULT:    -5.814      2.565      4.070
REMARK INTER + INTRA:          -5.814
REMARK INTER:                  -5.814
REMARK INTRA:                   0.000
REMARK UNBOUND:                 0.000
REMARK SMILES C=C1CCC[C@]2(C)C=C3OC(=O)C(C)=C3C[C@H]12
REMARK SMILES IDX 14 1 13 2 15 3 16 4 17 5 2 6 1 7 3 8 4 9 5 10 6 11 8 12 9 13
REMARK SMILES IDX 10 14 11 15 12 16 7 17
REMARK H PARENT
REMARK Flexibility Score: inf
ROOT
ATOM      1  C   UNL     1     -17.456  51.549   9.171  1.00  0.00     0.053 C 
ATOM      2  C   UNL     1     -18.404  51.501  10.326  1.00  0.00     0.041 C 
ATOM      3  C   UNL     1     -19.087  50.440  10.745  1.00  0.00     0.005 C 
ATOM      4  C   UNL     1     -19.048  49.025  10.245  1.00  0.00     0.049 C 
ATOM      5  C   UNL     1     -20.371  48.302  10.644  1.00  0.00     0.029 C 
ATOM      6  C   UNL     1     -21.581  48.672   9.774  1.00  0.00    -0.073 C 
ATOM      7  C   UNL     1     -21.554  49.565   8.764  1.00  0.00     0.008 C 
ATOM      8  C   UNL     1     -22.887  48.011  10.134  1.00  0.00     0.031 C 
ATOM      9  C   UNL     1     -23.224  48.321  11.590  1.00  0.00     0.005 C 
ATOM     10  C   UNL     1     -22.089  47.875  12.520  1.00  0.00     0.012 C 
ATOM     11  C   UNL     1     -20.721  48.532  12.170  1.00  0.00    -0.004 C 
ATOM     12  C   UNL     1     -20.756  50.023  12.493  1.00  0.00     0.027 C 
ATOM     13  C   UNL     1     -19.950  50.857  11.839  1.00  0.00     0.131 C 
ATOM     14  O   UNL     1     -19.811  52.218  12.065  1.00  0.00    -0.423 OA
ATOM     15  C   UNL     1     -18.864  52.633  11.136  1.00  0.00     0.339 C 
ATOM     16  O   UNL     1     -18.473  53.823  11.017  1.00  0.00    -0.246 OA
ATOM     17  C   UNL     1     -19.649  47.879  13.073  1.00  0.00     0.016 C 
ENDROOT
TORSDOF 0
ENDMDL
MODEL 4
REMARK VINA RESULT:    -5.804      2.302      3.346
REMARK INTER + INTRA:          -5.804
REMARK INTER:                  -5.804
REMARK INTRA:                   0.000
REMARK UNBOUND:                 0.000
REMARK SMILES C=C1CCC[C@]2(C)C=C3OC(=O)C(C)=C3C[C@H]12
REMARK SMILES IDX 14 1 13 2 15 3 16 4 17 5 2 6 1 7 3 8 4 9 5 10 6 11 8 12 9 13
REMARK SMILES IDX 10 14 11 15 12 16 7 17
REMARK H PARENT
REMARK Flexibility Score: inf
ROOT
ATOM      1  C   UNL     1     -17.755  53.055   9.462  1.00  0.00     0.053 C 
ATOM      2  C   UNL     1     -17.964  51.582   9.314  1.00  0.00     0.041 C 
ATOM      3  C   UNL     1     -19.127  50.961   9.144  1.00  0.00     0.005 C 
ATOM      4  C   UNL     1     -20.501  51.543   8.984  1.00  0.00     0.049 C 
ATOM      5  C   UNL     1     -21.564  50.468   9.368  1.00  0.00     0.029 C 
ATOM      6  C   UNL     1     -21.731  50.256  10.880  1.00  0.00    -0.073 C 
ATOM      7  C   UNL     1     -21.019  50.898  11.827  1.00  0.00     0.008 C 
ATOM      8  C   UNL     1     -22.734  49.212  11.299  1.00  0.00     0.031 C 
ATOM      9  C   UNL     1     -22.367  47.875  10.660  1.00  0.00     0.005 C 
ATOM     10  C   UNL     1     -22.288  48.003   9.133  1.00  0.00     0.012 C 
ATOM     11  C   UNL     1     -21.267  49.081   8.665  1.00  0.00    -0.004 C 
ATOM     12  C   UNL     1     -19.843  48.623   8.966  1.00  0.00     0.027 C 
ATOM     13  C   UNL     1     -18.881  49.528   9.135  1.00  0.00     0.131 C 
ATOM     14  O   UNL     1     -17.534  49.274   9.340  1.00  0.00    -0.423 OA
ATOM     15  C   UNL     1     -16.952  50.530   9.459  1.00  0.00     0.339 C 
ATOM     16  O   UNL     1     -15.726  50.720   9.668  1.00  0.00    -0.246 OA
ATOM     17  C   UNL     1     -21.405  49.215   7.132  1.00  0.00     0.016 C 
ENDROOT
TORSDOF 0
ENDMDL
MODEL 5
REMARK VINA RESULT:    -5.681      2.225      3.291
REMARK INTER + INTRA:          -5.681
REMARK INTER:                  -5.681
REMARK INTRA:                   0.000
REMARK UNBOUND:                 0.000
REMARK SMILES C=C1CCC[C@]2(C)C=C3OC(=O)C(C)=C3C[C@H]12
REMARK SMILES IDX 14 1 13 2 15 3 16 4 17 5 2 6 1 7 3 8 4 9 5 10 6 11 8 12 9 13
REMARK SMILES IDX 10 14 11 15 12 16 7 17
REMARK H PARENT
REMARK Flexibility Score: inf
ROOT
ATOM      1  C   UNL     1     -15.748  49.876   9.974  1.00  0.00     0.053 C 
ATOM      2  C   UNL     1     -16.986  49.333   9.336  1.00  0.00     0.041 C 
ATOM      3  C   UNL     1     -18.238  49.547   9.730  1.00  0.00     0.005 C 
ATOM      4  C   UNL     1     -18.750  50.421  10.837  1.00  0.00     0.049 C 
ATOM      5  C   UNL     1     -20.168  49.933  11.265  1.00  0.00     0.029 C 
ATOM      6  C   UNL     1     -20.164  48.671  12.140  1.00  0.00    -0.073 C 
ATOM      7  C   UNL     1     -19.057  47.994  12.504  1.00  0.00     0.008 C 
ATOM      8  C   UNL     1     -21.514  48.150  12.563  1.00  0.00     0.031 C 
ATOM      9  C   UNL     1     -22.360  47.876  11.322  1.00  0.00     0.005 C 
ATOM     10  C   UNL     1     -22.485  49.137  10.458  1.00  0.00     0.012 C 
ATOM     11  C   UNL     1     -21.108  49.709  10.012  1.00  0.00    -0.004 C 
ATOM     12  C   UNL     1     -20.448  48.767   9.009  1.00  0.00     0.027 C 
ATOM     13  C   UNL     1     -19.122  48.762   8.884  1.00  0.00     0.131 C 
ATOM     14  O   UNL     1     -18.381  48.023   7.975  1.00  0.00    -0.423 OA
ATOM     15  C   UNL     1     -17.059  48.358   8.243  1.00  0.00     0.339 C 
ATOM     16  O   UNL     1     -16.074  47.877   7.626  1.00  0.00    -0.246 OA
ATOM     17  C   UNL     1     -21.374  51.051   9.292  1.00  0.00     0.016 C 
ENDROOT
TORSDOF 0
ENDMDL
MODEL 6
REMARK VINA RESULT:    -5.639      2.269      5.056
REMARK INTER + INTRA:          -5.639
REMARK INTER:                  -5.639
REMARK INTRA:                   0.000
REMARK UNBOUND:                 0.000
REMARK SMILES C=C1CCC[C@]2(C)C=C3OC(=O)C(C)=C3C[C@H]12
REMARK SMILES IDX 14 1 13 2 15 3 16 4 17 5 2 6 1 7 3 8 4 9 5 10 6 11 8 12 9 13
REMARK SMILES IDX 10 14 11 15 12 16 7 17
REMARK H PARENT
REMARK Flexibility Score: inf
ROOT
ATOM      1  C   UNL     1     -23.167  49.601  11.623  1.00  0.00     0.053 C 
ATOM      2  C   UNL     1     -21.693  49.475  11.409  1.00  0.00     0.041 C 
ATOM      3  C   UNL     1     -20.983  50.039  10.437  1.00  0.00     0.005 C 
ATOM      4  C   UNL     1     -21.428  50.986   9.361  1.00  0.00     0.049 C 
ATOM      5  C   UNL     1     -20.420  50.928   8.173  1.00  0.00     0.029 C 
ATOM      6  C   UNL     1     -20.572  49.692   7.275  1.00  0.00    -0.073 C 
ATOM      7  C   UNL     1     -21.464  48.702   7.477  1.00  0.00     0.008 C 
ATOM      8  C   UNL     1     -19.604  49.583   6.123  1.00  0.00     0.031 C 
ATOM      9  C   UNL     1     -18.176  49.619   6.661  1.00  0.00     0.005 C 
ATOM     10  C   UNL     1     -17.934  50.890   7.484  1.00  0.00     0.012 C 
ATOM     11  C   UNL     1     -18.923  51.040   8.677  1.00  0.00    -0.004 C 
ATOM     12  C   UNL     1     -18.634  49.980   9.736  1.00  0.00     0.027 C 
ATOM     13  C   UNL     1     -19.607  49.584  10.555  1.00  0.00     0.131 C 
ATOM     14  O   UNL     1     -19.488  48.690  11.608  1.00  0.00    -0.423 OA
ATOM     15  C   UNL     1     -20.768  48.606  12.144  1.00  0.00     0.339 C 
ATOM     16  O   UNL     1     -21.072  47.875  13.122  1.00  0.00    -0.246 OA
ATOM     17  C   UNL     1     -18.673  52.425   9.316  1.00  0.00     0.016 C 
ENDROOT
TORSDOF 0
ENDMDL
MODEL 7
REMARK VINA RESULT:    -5.469      2.343      4.461
REMARK INTER + INTRA:          -5.469
REMARK INTER:                  -5.469
REMARK INTRA:                   0.000
REMARK UNBOUND:                 0.000
REMARK SMILES C=C1CCC[C@]2(C)C=C3OC(=O)C(C)=C3C[C@H]12
REMARK SMILES IDX 14 1 13 2 15 3 16 4 17 5 2 6 1 7 3 8 4 9 5 10 6 11 8 12 9 13
REMARK SMILES IDX 10 14 11 15 12 16 7 17
REMARK H PARENT
REMARK Flexibility Score: inf
ROOT
ATOM      1  C   UNL     1     -18.179  51.648  13.125  1.00  0.00     0.053 C 
ATOM      2  C   UNL     1     -18.099  51.178  11.708  1.00  0.00     0.041 C 
ATOM      3  C   UNL     1     -19.123  50.952  10.890  1.00  0.00     0.005 C 
ATOM      4  C   UNL     1     -20.590  51.166  11.122  1.00  0.00     0.049 C 
ATOM      5  C   UNL     1     -21.403  50.268  10.140  1.00  0.00     0.029 C 
ATOM      6  C   UNL     1     -21.463  48.787  10.541  1.00  0.00    -0.073 C 
ATOM      7  C   UNL     1     -20.853  48.260  11.621  1.00  0.00     0.008 C 
ATOM      8  C   UNL     1     -22.223  47.875   9.610  1.00  0.00     0.031 C 
ATOM      9  C   UNL     1     -21.625  47.974   8.209  1.00  0.00     0.005 C 
ATOM     10  C   UNL     1     -21.635  49.426   7.713  1.00  0.00     0.012 C 
ATOM     11  C   UNL     1     -20.867  50.397   8.656  1.00  0.00    -0.004 C 
ATOM     12  C   UNL     1     -19.370  50.109   8.601  1.00  0.00     0.027 C 
ATOM     13  C   UNL     1     -18.599  50.425   9.640  1.00  0.00     0.131 C 
ATOM     14  O   UNL     1     -17.221  50.296   9.717  1.00  0.00    -0.423 OA
ATOM     15  C   UNL     1     -16.895  50.751  10.989  1.00  0.00     0.339 C 
ATOM     16  O   UNL     1     -15.723  50.779  11.445  1.00  0.00    -0.246 OA
ATOM     17  C   UNL     1     -21.091  51.831   8.126  1.00  0.00     0.016 C 
ENDROOT
TORSDOF 0
ENDMDL
MODEL 8
REMARK VINA RESULT:    -5.436      2.783      4.662
REMARK INTER + INTRA:          -5.436
REMARK INTER:                  -5.436
REMARK INTRA:                   0.000
REMARK UNBOUND:                 0.000
REMARK SMILES C=C1CCC[C@]2(C)C=C3OC(=O)C(C)=C3C[C@H]12
REMARK SMILES IDX 14 1 13 2 15 3 16 4 17 5 2 6 1 7 3 8 4 9 5 10 6 11 8 12 9 13
REMARK SMILES IDX 10 14 11 15 12 16 7 17
REMARK H PARENT
REMARK Flexibility Score: inf
ROOT
ATOM      1  C   UNL     1     -23.026  47.876  11.256  1.00  0.00     0.053 C 
ATOM      2  C   UNL     1     -22.229  49.083  10.878  1.00  0.00     0.041 C 
ATOM      3  C   UNL     1     -21.136  49.104  10.120  1.00  0.00     0.005 C 
ATOM      4  C   UNL     1     -20.459  47.977   9.396  1.00  0.00     0.049 C 
ATOM      5  C   UNL     1     -18.972  48.359   9.126  1.00  0.00     0.029 C 
ATOM      6  C   UNL     1     -18.056  48.241  10.352  1.00  0.00    -0.073 C 
ATOM      7  C   UNL     1     -18.467  47.875  11.583  1.00  0.00     0.008 C 
ATOM      8  C   UNL     1     -16.611  48.618  10.144  1.00  0.00     0.031 C 
ATOM      9  C   UNL     1     -16.535  50.049   9.618  1.00  0.00     0.005 C 
ATOM     10  C   UNL     1     -17.352  50.201   8.328  1.00  0.00     0.012 C 
ATOM     11  C   UNL     1     -18.848  49.810   8.506  1.00  0.00    -0.004 C 
ATOM     12  C   UNL     1     -19.558  50.832   9.389  1.00  0.00     0.027 C 
ATOM     13  C   UNL     1     -20.637  50.469  10.080  1.00  0.00     0.131 C 
ATOM     14  O   UNL     1     -21.430  51.291  10.865  1.00  0.00    -0.423 OA
ATOM     15  C   UNL     1     -22.416  50.451  11.371  1.00  0.00     0.339 C 
ATOM     16  O   UNL     1     -23.330  50.830  12.148  1.00  0.00    -0.246 OA
ATOM     17  C   UNL     1     -19.508  49.856   7.109  1.00  0.00     0.016 C 
ENDROOT
TORSDOF 0
ENDMDL
MODEL 9
REMARK VINA RESULT:    -5.352      3.065      4.761
REMARK INTER + INTRA:          -5.352
REMARK INTER:                  -5.352
REMARK INTRA:                   0.000
REMARK UNBOUND:                 0.000
REMARK SMILES C=C1CCC[C@]2(C)C=C3OC(=O)C(C)=C3C[C@H]12
REMARK SMILES IDX 14 1 13 2 15 3 16 4 17 5 2 6 1 7 3 8 4 9 5 10 6 11 8 12 9 13
REMARK SMILES IDX 10 14 11 15 12 16 7 17
REMARK H PARENT
REMARK Flexibility Score: inf
ROOT
ATOM      1  C   UNL     1     -15.513  47.875   8.402  1.00  0.00     0.053 C 
ATOM      2  C   UNL     1     -16.406  48.740   9.233  1.00  0.00     0.041 C 
ATOM      3  C   UNL     1     -17.736  48.752   9.214  1.00  0.00     0.005 C 
ATOM      4  C   UNL     1     -18.684  47.885   8.439  1.00  0.00     0.049 C 
ATOM      5  C   UNL     1     -20.058  48.611   8.310  1.00  0.00     0.029 C 
ATOM      6  C   UNL     1     -20.085  49.733   7.263  1.00  0.00    -0.073 C 
ATOM      7  C   UNL     1     -19.026  50.113   6.520  1.00  0.00     0.008 C 
ATOM      8  C   UNL     1     -21.388  50.477   7.116  1.00  0.00     0.031 C 
ATOM      9  C   UNL     1     -21.786  51.066   8.468  1.00  0.00     0.005 C 
ATOM     10  C   UNL     1     -21.878  49.968   9.535  1.00  0.00     0.012 C 
ATOM     11  C   UNL     1     -20.550  49.173   9.706  1.00  0.00    -0.004 C 
ATOM     12  C   UNL     1     -19.481  50.063  10.332  1.00  0.00     0.027 C 
ATOM     13  C   UNL     1     -18.194  49.800  10.112  1.00  0.00     0.131 C 
ATOM     14  O   UNL     1     -17.109  50.465  10.663  1.00  0.00    -0.423 OA
ATOM     15  C   UNL     1     -15.996  49.827  10.127  1.00  0.00     0.339 C 
ATOM     16  O   UNL     1     -14.809  50.156  10.381  1.00  0.00    -0.246 OA
ATOM     17  C   UNL     1     -20.829  48.011  10.686  1.00  0.00     0.016 C 
ENDROOT
TORSDOF 0
ENDMDL
