MODEL 1
REMARK VINA RESULT:     8.958      0.000      0.000
REMARK INTER + INTRA:          12.345
REMARK INTER:                  11.052
REMARK INTRA:                   1.293
REMARK UNBOUND:                 1.293
REMARK SMILES C=C1[C@H]2CC[C@@H]3[C@H]2C(C)(C)CCC[C@]13C
REMARK SMILES IDX 14 1 6 2 7 3 3 4 2 5 1 6 4 7 5 8 15 9 8 10 9 11 10 12 11 13
REMARK SMILES IDX 13 15 12 16
REMARK H PARENT
REMARK Flexibility Score: 80.00
ROOT
ATOM      1  C   UNL     1     -14.013  -2.414  16.946  1.00  0.00    -0.008 C 
ATOM      2  C   UNL     1     -14.130  -1.375  18.117  1.00  0.00     0.003 C 
ATOM      3  C   UNL     1     -15.641  -1.221  18.318  1.00  0.00     0.006 C 
ATOM      4  C   UNL     1     -15.877  -2.722  18.497  1.00  0.00     0.019 C 
ATOM      5  C   UNL     1     -15.188  -3.296  17.283  1.00  0.00    -0.068 C 
ATOM      6  C   UNL     1     -15.530  -4.433  16.665  1.00  0.00     0.009 C 
ATOM      7  C   UNL     1     -14.953  -3.024  19.695  1.00  0.00     0.008 C 
ATOM      8  C   UNL     1     -13.777  -2.043  19.476  1.00  0.00     0.005 C 
ATOM      9  C   UNL     1     -12.689  -3.220  16.985  1.00  0.00     0.016 C 
ENDROOT
BRANCH   3  10
ATOM     10  C   UNL     1     -16.501  -0.452  17.244  1.00  0.00    -0.032 C 
ATOM     11  C   UNL     1     -15.899   0.948  16.978  1.00  0.00     0.011 C 
ATOM     12  C   UNL     1     -17.908  -0.228  17.855  1.00  0.00     0.011 C 
BRANCH  10  13
ATOM     13  C   UNL     1     -16.714  -1.214  15.907  1.00  0.00     0.007 CG0
ATOM     14  G   UNL     1     -15.503  -1.380  14.974  1.00  0.00     0.000 G0
ENDBRANCH  10  13
ENDBRANCH   3  10
BRANCH   1  15
ATOM     15  C   UNL     1     -14.119  -1.698  15.564  1.00  0.00     0.011 C 
BRANCH  15  16
ATOM     16  C   UNL     1     -15.509  -1.379  14.971  1.00  0.00     0.001 CG0
ATOM     17  G   UNL     1     -16.719  -1.224  15.908  1.00  0.00     0.000 G0
ENDBRANCH  15  16
ENDBRANCH   1  15
TORSDOF 0
ENDMDL
MODEL 2
REMARK VINA RESULT:     9.097      1.473      3.547
REMARK INTER + INTRA:          12.517
REMARK INTER:                  11.066
REMARK INTRA:                   1.451
REMARK UNBOUND:                 1.293
REMARK SMILES C=C1[C@H]2CC[C@@H]3[C@H]2C(C)(C)CCC[C@]13C
REMARK SMILES IDX 14 1 6 2 7 3 3 4 2 5 1 6 4 7 5 8 15 9 8 10 9 11 10 12 11 13
REMARK SMILES IDX 13 15 12 16
REMARK H PARENT
REMARK Flexibility Score: 80.00
ROOT
ATOM      1  C   UNL     1     -15.676  -1.451  16.742  1.00  0.00    -0.008 C 
ATOM      2  C   UNL     1     -15.963  -2.661  17.699  1.00  0.00     0.003 C 
ATOM      3  C   UNL     1     -14.950  -3.724  17.257  1.00  0.00     0.006 C 
ATOM      4  C   UNL     1     -13.746  -2.792  17.413  1.00  0.00     0.019 C 
ATOM      5  C   UNL     1     -14.179  -1.581  16.623  1.00  0.00    -0.068 C 
ATOM      6  C   UNL     1     -13.357  -0.738  15.987  1.00  0.00     0.009 C 
ATOM      7  C   UNL     1     -13.870  -2.399  18.899  1.00  0.00     0.008 C 
ATOM      8  C   UNL     1     -15.400  -2.377  19.121  1.00  0.00     0.005 C 
ATOM      9  C   UNL     1     -16.062  -0.084  17.367  1.00  0.00     0.016 C 
ENDROOT
BRANCH   3  10
ATOM     10  C   UNL     1     -15.146  -4.468  15.882  1.00  0.00    -0.032 C 
ATOM     11  C   UNL     1     -14.772  -5.962  16.023  1.00  0.00     0.011 C 
ATOM     12  C   UNL     1     -14.145  -3.847  14.875  1.00  0.00     0.011 C 
BRANCH  10  13
ATOM     13  C   UNL     1     -16.558  -4.320  15.251  1.00  0.00     0.007 CG0
ATOM     14  G   UNL     1     -17.157  -2.906  15.156  1.00  0.00     0.000 G0
ENDBRANCH  10  13
ENDBRANCH   3  10
BRANCH   1  15
ATOM     15  C   UNL     1     -16.448  -1.619  15.398  1.00  0.00     0.011 C 
BRANCH  15  16
ATOM     16  C   UNL     1     -17.238  -2.918  15.125  1.00  0.00     0.001 CG0
ATOM     17  G   UNL     1     -16.533  -4.279  15.260  1.00  0.00     0.000 G0
ENDBRANCH  15  16
ENDBRANCH   1  15
TORSDOF 0
ENDMDL
MODEL 3
REMARK VINA RESULT:     9.377      1.688      3.281
REMARK INTER + INTRA:          12.862
REMARK INTER:                  11.362
REMARK INTRA:                   1.500
REMARK UNBOUND:                 1.293
REMARK SMILES C=C1[C@H]2CC[C@@H]3[C@H]2C(C)(C)CCC[C@]13C
REMARK SMILES IDX 14 1 6 2 7 3 3 4 2 5 1 6 4 7 5 8 15 9 8 10 9 11 10 12 11 13
REMARK SMILES IDX 13 15 12 16
REMARK H PARENT
REMARK Flexibility Score: 80.00
ROOT
ATOM      1  C   UNL     1     -13.558  -3.116  17.135  1.00  0.00    -0.008 C 
ATOM      2  C   UNL     1     -15.038  -3.621  17.274  1.00  0.00     0.003 C 
ATOM      3  C   UNL     1     -15.877  -2.425  16.813  1.00  0.00     0.006 C 
ATOM      4  C   UNL     1     -15.151  -2.300  15.471  1.00  0.00     0.019 C 
ATOM      5  C   UNL     1     -13.703  -2.269  15.897  1.00  0.00    -0.068 C 
ATOM      6  C   UNL     1     -12.716  -1.649  15.239  1.00  0.00     0.009 C 
ATOM      7  C   UNL     1     -15.392  -3.701  14.875  1.00  0.00     0.008 C 
ATOM      8  C   UNL     1     -15.386  -4.611  16.126  1.00  0.00     0.005 C 
ATOM      9  C   UNL     1     -12.547  -4.269  16.899  1.00  0.00     0.016 C 
ENDROOT
BRANCH   3  10
ATOM     10  C   UNL     1     -15.985  -1.145  17.727  1.00  0.00    -0.032 C 
ATOM     11  C   UNL     1     -17.420  -0.570  17.675  1.00  0.00     0.011 C 
ATOM     12  C   UNL     1     -15.047  -0.068  17.124  1.00  0.00     0.011 C 
BRANCH  10  13
ATOM     13  C   UNL     1     -15.535  -1.351  19.199  1.00  0.00     0.007 CG0
ATOM     14  G   UNL     1     -14.178  -2.030  19.448  1.00  0.00     0.000 G0
ENDBRANCH  10  13
ENDBRANCH   3  10
BRANCH   1  15
ATOM     15  C   UNL     1     -13.125  -2.328  18.409  1.00  0.00     0.011 C 
BRANCH  15  16
ATOM     16  C   UNL     1     -14.159  -2.037  19.519  1.00  0.00     0.001 CG0
ATOM     17  G   UNL     1     -15.492  -1.361  19.158  1.00  0.00     0.000 G0
ENDBRANCH  15  16
ENDBRANCH   1  15
TORSDOF 0
ENDMDL
MODEL 4
REMARK VINA RESULT:     9.408      0.834      3.463
REMARK INTER + INTRA:          12.901
REMARK INTER:                  11.603
REMARK INTRA:                   1.299
REMARK UNBOUND:                 1.293
REMARK SMILES C=C1[C@H]2CC[C@@H]3[C@H]2C(C)(C)CCC[C@]13C
REMARK SMILES IDX 14 1 6 2 7 3 3 4 2 5 1 6 4 7 5 8 15 9 8 10 9 11 10 12 11 13
REMARK SMILES IDX 13 15 12 16
REMARK H PARENT
REMARK Flexibility Score: 80.00
ROOT
ATOM      1  C   UNL     1     -16.456  -1.322  17.493  1.00  0.00    -0.008 C 
ATOM      2  C   UNL     1     -15.999  -2.651  18.191  1.00  0.00     0.003 C 
ATOM      3  C   UNL     1     -14.519  -2.773  17.811  1.00  0.00     0.006 C 
ATOM      4  C   UNL     1     -14.162  -1.379  18.334  1.00  0.00     0.019 C 
ATOM      5  C   UNL     1     -15.195  -0.513  17.655  1.00  0.00    -0.068 C 
ATOM      6  C   UNL     1     -15.028   0.773  17.322  1.00  0.00     0.009 C 
ATOM      7  C   UNL     1     -14.605  -1.496  19.807  1.00  0.00     0.008 C 
ATOM      8  C   UNL     1     -15.832  -2.434  19.722  1.00  0.00     0.005 C 
ATOM      9  C   UNL     1     -17.646  -0.639  18.217  1.00  0.00     0.016 C 
ENDROOT
BRANCH   3  10
ATOM     10  C   UNL     1     -14.118  -3.142  16.332  1.00  0.00    -0.032 C 
ATOM     11  C   UNL     1     -14.844  -4.432  15.885  1.00  0.00     0.011 C 
ATOM     12  C   UNL     1     -12.600  -3.456  16.332  1.00  0.00     0.011 C 
BRANCH  10  13
ATOM     13  C   UNL     1     -14.336  -2.009  15.291  1.00  0.00     0.007 CG0
ATOM     14  G   UNL     1     -15.783  -1.644  14.918  1.00  0.00     0.000 G0
ENDBRANCH  10  13
ENDBRANCH   3  10
BRANCH   1  15
ATOM     15  C   UNL     1     -16.865  -1.592  16.012  1.00  0.00     0.011 C 
BRANCH  15  16
ATOM     16  C   UNL     1     -15.779  -1.649  14.916  1.00  0.00     0.001 CG0
ATOM     17  G   UNL     1     -14.334  -2.015  15.295  1.00  0.00     0.000 G0
ENDBRANCH  15  16
ENDBRANCH   1  15
TORSDOF 0
ENDMDL
MODEL 5
REMARK VINA RESULT:    10.080      1.683      3.755
REMARK INTER + INTRA:          13.730
REMARK INTER:                  12.440
REMARK INTRA:                   1.290
REMARK UNBOUND:                 1.293
REMARK SMILES C=C1[C@H]2CC[C@@H]3[C@H]2C(C)(C)CCC[C@]13C
REMARK SMILES IDX 14 1 6 2 7 3 3 4 2 5 1 6 4 7 5 8 15 9 8 10 9 11 10 12 11 13
REMARK SMILES IDX 13 15 12 16
REMARK H PARENT
REMARK Flexibility Score: 80.00
ROOT
ATOM      1  C   UNL     1     -15.838  -2.042  16.468  1.00  0.00    -0.008 C 
ATOM      2  C   UNL     1     -16.571  -1.405  17.701  1.00  0.00     0.003 C 
ATOM      3  C   UNL     1     -15.425  -0.930  18.601  1.00  0.00     0.006 C 
ATOM      4  C   UNL     1     -14.759  -0.105  17.497  1.00  0.00     0.019 C 
ATOM      5  C   UNL     1     -14.660  -1.106  16.371  1.00  0.00    -0.068 C 
ATOM      6  C   UNL     1     -13.721  -1.108  15.418  1.00  0.00     0.009 C 
ATOM      7  C   UNL     1     -15.905   0.854  17.116  1.00  0.00     0.008 C 
ATOM      8  C   UNL     1     -17.165  -0.018  17.325  1.00  0.00     0.005 C 
ATOM      9  C   UNL     1     -16.688  -1.995  15.171  1.00  0.00     0.016 C 
ENDROOT
BRANCH   3  10
ATOM     10  C   UNL     1     -14.549  -1.987  19.377  1.00  0.00    -0.032 C 
ATOM     11  C   UNL     1     -15.454  -2.939  20.192  1.00  0.00     0.011 C 
ATOM     12  C   UNL     1     -13.683  -1.205  20.398  1.00  0.00     0.011 C 
BRANCH  10  13
ATOM     13  C   UNL     1     -13.564  -2.799  18.491  1.00  0.00     0.007 CG0
ATOM     14  G   UNL     1     -14.158  -3.837  17.524  1.00  0.00     0.000 G0
ENDBRANCH  10  13
ENDBRANCH   3  10
BRANCH   1  15
ATOM     15  C   UNL     1     -15.460  -3.527  16.761  1.00  0.00     0.011 C 
BRANCH  15  16
ATOM     16  C   UNL     1     -14.158  -3.850  17.525  1.00  0.00     0.001 CG0
ATOM     17  G   UNL     1     -13.556  -2.805  18.479  1.00  0.00     0.000 G0
ENDBRANCH  15  16
ENDBRANCH   1  15
TORSDOF 0
ENDMDL
MODEL 6
REMARK VINA RESULT:    10.475      1.475      2.963
REMARK INTER + INTRA:          14.217
REMARK INTER:                  12.929
REMARK INTRA:                   1.288
REMARK UNBOUND:                 1.293
REMARK SMILES C=C1[C@H]2CC[C@@H]3[C@H]2C(C)(C)CCC[C@]13C
REMARK SMILES IDX 14 1 6 2 7 3 3 4 2 5 1 6 4 7 5 8 15 9 8 10 9 11 10 12 11 13
REMARK SMILES IDX 13 15 12 16
REMARK H PARENT
REMARK Flexibility Score: 80.00
ROOT
ATOM      1  C   UNL     1     -14.187  -1.672  16.235  1.00  0.00    -0.008 C 
ATOM      2  C   UNL     1     -13.485  -2.727  17.162  1.00  0.00     0.003 C 
ATOM      3  C   UNL     1     -14.624  -3.252  18.043  1.00  0.00     0.006 C 
ATOM      4  C   UNL     1     -15.510  -3.631  16.854  1.00  0.00     0.019 C 
ATOM      5  C   UNL     1     -15.516  -2.356  16.046  1.00  0.00    -0.068 C 
ATOM      6  C   UNL     1     -16.512  -1.950  15.249  1.00  0.00     0.009 C 
ATOM      7  C   UNL     1     -14.588  -4.610  16.100  1.00  0.00     0.008 C 
ATOM      8  C   UNL     1     -13.180  -4.030  16.370  1.00  0.00     0.005 C 
ATOM      9  C   UNL     1     -13.463  -1.488  14.876  1.00  0.00     0.016 C 
ENDROOT
BRANCH   3  10
ATOM     10  C   UNL     1     -15.234  -2.331  19.167  1.00  0.00    -0.032 C 
ATOM     11  C   UNL     1     -14.112  -1.792  20.086  1.00  0.00     0.011 C 
ATOM     12  C   UNL     1     -16.147  -3.222  20.047  1.00  0.00     0.011 C 
BRANCH  10  13
ATOM     13  C   UNL     1     -16.119  -1.164  18.650  1.00  0.00     0.007 CG0
ATOM     14  G   UNL     1     -15.422  -0.003  17.920  1.00  0.00     0.000 G0
ENDBRANCH  10  13
ENDBRANCH   3  10
BRANCH   1  15
ATOM     15  C   UNL     1     -14.269  -0.286  16.946  1.00  0.00     0.011 C 
BRANCH  15  16
ATOM     16  C   UNL     1     -15.424   0.004  17.929  1.00  0.00     0.001 CG0
ATOM     17  G   UNL     1     -16.135  -1.164  18.633  1.00  0.00     0.000 G0
ENDBRANCH  15  16
ENDBRANCH   1  15
TORSDOF 0
ENDMDL
MODEL 7
REMARK VINA RESULT:    11.924      1.655      3.454
REMARK INTER + INTRA:          16.005
REMARK INTER:                  14.727
REMARK INTRA:                   1.279
REMARK UNBOUND:                 1.293
REMARK SMILES C=C1[C@H]2CC[C@@H]3[C@H]2C(C)(C)CCC[C@]13C
REMARK SMILES IDX 14 1 6 2 7 3 3 4 2 5 1 6 4 7 5 8 15 9 8 10 9 11 10 12 11 13
REMARK SMILES IDX 13 15 12 16
REMARK H PARENT
REMARK Flexibility Score: 80.00
ROOT
ATOM      1  C   UNL     1     -15.428  -1.985  16.369  1.00  0.00    -0.008 C 
ATOM      2  C   UNL     1     -14.067  -1.284  16.715  1.00  0.00     0.003 C 
ATOM      3  C   UNL     1     -13.501  -2.131  17.859  1.00  0.00     0.006 C 
ATOM      4  C   UNL     1     -13.600  -3.444  17.078  1.00  0.00     0.019 C 
ATOM      5  C   UNL     1     -15.032  -3.420  16.602  1.00  0.00    -0.068 C 
ATOM      6  C   UNL     1     -15.786  -4.500  16.366  1.00  0.00     0.009 C 
ATOM      7  C   UNL     1     -12.734  -3.116  15.844  1.00  0.00     0.008 C 
ATOM      8  C   UNL     1     -12.997  -1.607  15.632  1.00  0.00     0.005 C 
ATOM      9  C   UNL     1     -15.862  -1.765  14.896  1.00  0.00     0.016 C 
ENDROOT
BRANCH   3  10
ATOM     10  C   UNL     1     -14.163  -2.060  19.288  1.00  0.00    -0.032 C 
ATOM     11  C   UNL     1     -14.248  -0.592  19.767  1.00  0.00     0.011 C 
ATOM     12  C   UNL     1     -13.219  -2.800  20.270  1.00  0.00     0.011 C 
BRANCH  10  13
ATOM     13  C   UNL     1     -15.550  -2.750  19.403  1.00  0.00     0.007 CG0
ATOM     14  G   UNL     1     -16.747  -2.077  18.709  1.00  0.00     0.000 G0
ENDBRANCH  10  13
ENDBRANCH   3  10
BRANCH   1  15
ATOM     15  C   UNL     1     -16.564  -1.468  17.305  1.00  0.00     0.011 C 
BRANCH  15  16
ATOM     16  C   UNL     1     -16.747  -2.093  18.705  1.00  0.00     0.001 CG0
ATOM     17  G   UNL     1     -15.546  -2.749  19.408  1.00  0.00     0.000 G0
ENDBRANCH  15  16
ENDBRANCH   1  15
TORSDOF 0
ENDMDL
