MODEL 1
REMARK VINA RESULT:    -5.399      0.000      0.000
REMARK INTER + INTRA:          -8.298
REMARK INTER:                  -7.608
REMARK INTRA:                  -0.689
REMARK UNBOUND:                -0.689
REMARK SMILES COc1ccc(-c2cc(=O)c3c(OC)c(OC)c(OC)c(OC)c3o2)cc1OC
REMARK SMILES IDX 7 1 8 2 9 3 10 4 11 5 24 6 25 7 21 8 18 9 15 10 12 11 6 12
REMARK SMILES IDX 3 13 27 14 4 15 26 16 5 17 2 18 1 19 28 20 29 21 22 22 23 23
REMARK SMILES IDX 13 24 14 25 19 26 20 27 16 28 17 29
REMARK H PARENT
REMARK Flexibility Score: inf
ROOT
ATOM      1  C   UNL     1      44.719  16.521  -3.683  1.00  0.00     0.138 A 
ATOM      2  C   UNL     1      44.033  15.369  -3.292  1.00  0.00     0.100 A 
ATOM      3  C   UNL     1      44.739  14.182  -3.120  1.00  0.00     0.197 A 
ATOM      4  O   UNL     1      44.103  13.153  -2.761  1.00  0.00    -0.289 OA
ATOM      5  C   UNL     1      46.137  14.151  -3.345  1.00  0.00     0.115 A 
ATOM      6  C   UNL     1      46.762  15.361  -3.732  1.00  0.00     0.188 A 
ATOM      7  O   UNL     1      46.033  16.465  -3.876  1.00  0.00    -0.452 OA
ATOM      8  C   UNL     1      48.152  15.398  -3.975  1.00  0.00     0.209 A 
ATOM      9  C   UNL     1      48.920  14.233  -3.803  1.00  0.00     0.211 A 
ATOM     10  C   UNL     1      48.304  13.005  -3.453  1.00  0.00     0.208 A 
ATOM     11  C   UNL     1      46.905  12.967  -3.207  1.00  0.00     0.179 A 
ENDROOT
BRANCH   1  12
ATOM     12  C   UNL     1      44.019  17.813  -3.876  1.00  0.00     0.021 A 
ATOM     13  C   UNL     1      42.683  20.281  -4.185  1.00  0.00     0.160 A 
ATOM     14  C   UNL     1      42.391  19.459  -3.087  1.00  0.00     0.161 A 
ATOM     15  C   UNL     1      43.650  19.870  -5.121  1.00  0.00     0.051 A 
ATOM     16  C   UNL     1      43.062  18.231  -2.938  1.00  0.00     0.062 A 
ATOM     17  C   UNL     1      44.312  18.650  -4.966  1.00  0.00     0.016 A 
BRANCH  13  18
ATOM     18  O   UNL     1      41.994  21.497  -4.311  1.00  0.00    -0.493 OA
ATOM     19  C   UNL     1      41.341  21.936  -5.498  1.00  0.00     0.278 C 
ENDBRANCH  13  18
BRANCH  14  20
ATOM     20  O   UNL     1      41.427  19.898  -2.164  1.00  0.00    -0.493 OA
ATOM     21  C   UNL     1      41.723  20.391  -0.860  1.00  0.00     0.278 C 
ENDBRANCH  14  20
ENDBRANCH   1  12
BRANCH   8  22
ATOM     22  O   UNL     1      48.826  16.552  -4.419  1.00  0.00    -0.490 OA
ATOM     23  C   UNL     1      48.865  17.064  -5.746  1.00  0.00     0.278 C 
ENDBRANCH   8  22
BRANCH  11  24
ATOM     24  O   UNL     1      46.231  11.787  -2.824  1.00  0.00    -0.492 OA
ATOM     25  C   UNL     1      46.342  11.078  -1.595  1.00  0.00     0.278 C 
ENDBRANCH  11  24
BRANCH   9  26
ATOM     26  O   UNL     1      50.305  14.291  -3.995  1.00  0.00    -0.490 OA
ATOM     27  C   UNL     1      50.924  14.059  -5.258  1.00  0.00     0.279 C 
ENDBRANCH   9  26
BRANCH  10  28
ATOM     28  O   UNL     1      49.036  11.808  -3.329  1.00  0.00    -0.490 OA
ATOM     29  C   UNL     1      49.409  10.907  -4.365  1.00  0.00     0.278 C 
ENDBRANCH  10  28
TORSDOF 7
ENDMDL
MODEL 2
REMARK VINA RESULT:    -5.218      1.553      3.773
REMARK INTER + INTRA:          -8.043
REMARK INTER:                  -7.299
REMARK INTRA:                  -0.744
REMARK UNBOUND:                -0.689
REMARK SMILES COc1ccc(-c2cc(=O)c3c(OC)c(OC)c(OC)c(OC)c3o2)cc1OC
REMARK SMILES IDX 7 1 8 2 9 3 10 4 11 5 24 6 25 7 21 8 18 9 15 10 12 11 6 12
REMARK SMILES IDX 3 13 27 14 4 15 26 16 5 17 2 18 1 19 28 20 29 21 22 22 23 23
REMARK SMILES IDX 13 24 14 25 19 26 20 27 16 28 17 29
REMARK H PARENT
REMARK Flexibility Score: inf
ROOT
ATOM      1  C   UNL     1      45.082  16.404  -3.366  1.00  0.00     0.138 A 
ATOM      2  C   UNL     1      45.954  17.111  -4.197  1.00  0.00     0.100 A 
ATOM      3  C   UNL     1      47.149  16.517  -4.594  1.00  0.00     0.197 A 
ATOM      4  O   UNL     1      47.920  17.169  -5.348  1.00  0.00    -0.289 OA
ATOM      5  C   UNL     1      47.469  15.210  -4.152  1.00  0.00     0.115 A 
ATOM      6  C   UNL     1      46.531  14.555  -3.318  1.00  0.00     0.188 A 
ATOM      7  O   UNL     1      45.404  15.174  -2.977  1.00  0.00    -0.452 OA
ATOM      8  C   UNL     1      46.792  13.252  -2.842  1.00  0.00     0.209 A 
ATOM      9  C   UNL     1      47.975  12.595  -3.222  1.00  0.00     0.211 A 
ATOM     10  C   UNL     1      48.942  13.251  -4.025  1.00  0.00     0.208 A 
ATOM     11  C   UNL     1      48.680  14.562  -4.506  1.00  0.00     0.179 A 
ENDROOT
BRANCH   1  12
ATOM     12  C   UNL     1      43.795  16.985  -2.917  1.00  0.00     0.021 A 
ATOM     13  C   UNL     1      41.345  18.131  -2.106  1.00  0.00     0.160 A 
ATOM     14  C   UNL     1      42.329  18.932  -2.704  1.00  0.00     0.161 A 
ATOM     15  C   UNL     1      41.586  16.757  -1.924  1.00  0.00     0.051 A 
ATOM     16  C   UNL     1      43.547  18.354  -3.108  1.00  0.00     0.062 A 
ATOM     17  C   UNL     1      42.798  16.190  -2.328  1.00  0.00     0.016 A 
BRANCH  13  18
ATOM     18  O   UNL     1      40.142  18.735  -1.709  1.00  0.00    -0.493 OA
ATOM     19  C   UNL     1      38.925  18.673  -2.446  1.00  0.00     0.278 C 
ENDBRANCH  13  18
BRANCH  14  20
ATOM     20  O   UNL     1      42.058  20.299  -2.881  1.00  0.00    -0.493 OA
ATOM     21  C   UNL     1      41.736  20.902  -4.131  1.00  0.00     0.278 C 
ENDBRANCH  14  20
ENDBRANCH   1  12
BRANCH   8  22
ATOM     22  O   UNL     1      45.930  12.567  -1.963  1.00  0.00    -0.490 OA
ATOM     23  C   UNL     1      44.840  11.724  -2.315  1.00  0.00     0.278 C 
ENDBRANCH   8  22
BRANCH  11  24
ATOM     24  O   UNL     1      49.583  15.263  -5.335  1.00  0.00    -0.492 OA
ATOM     25  C   UNL     1      50.878  15.748  -4.999  1.00  0.00     0.278 C 
ENDBRANCH  11  24
BRANCH   9  26
ATOM     26  O   UNL     1      48.200  11.284  -2.787  1.00  0.00    -0.490 OA
ATOM     27  C   UNL     1      48.875  10.975  -1.570  1.00  0.00     0.279 C 
ENDBRANCH   9  26
BRANCH  10  28
ATOM     28  O   UNL     1      50.163  12.643  -4.375  1.00  0.00    -0.490 OA
ATOM     29  C   UNL     1      50.430  11.818  -5.503  1.00  0.00     0.278 C 
ENDBRANCH  10  28
TORSDOF 7
ENDMDL
MODEL 3
REMARK VINA RESULT:    -5.080      1.621      8.748
REMARK INTER + INTRA:          -7.848
REMARK INTER:                  -7.182
REMARK INTRA:                  -0.666
REMARK UNBOUND:                -0.689
REMARK SMILES COc1ccc(-c2cc(=O)c3c(OC)c(OC)c(OC)c(OC)c3o2)cc1OC
REMARK SMILES IDX 7 1 8 2 9 3 10 4 11 5 24 6 25 7 21 8 18 9 15 10 12 11 6 12
REMARK SMILES IDX 3 13 27 14 4 15 26 16 5 17 2 18 1 19 28 20 29 21 22 22 23 23
REMARK SMILES IDX 13 24 14 25 19 26 20 27 16 28 17 29
REMARK H PARENT
REMARK Flexibility Score: inf
ROOT
ATOM      1  C   UNL     1      45.256  16.014  -3.754  1.00  0.00     0.138 A 
ATOM      2  C   UNL     1      45.754  16.772  -4.817  1.00  0.00     0.100 A 
ATOM      3  C   UNL     1      45.115  17.957  -5.167  1.00  0.00     0.197 A 
ATOM      4  O   UNL     1      45.583  18.630  -6.125  1.00  0.00    -0.289 OA
ATOM      5  C   UNL     1      43.969  18.381  -4.449  1.00  0.00     0.115 A 
ATOM      6  C   UNL     1      43.530  17.563  -3.380  1.00  0.00     0.188 A 
ATOM      7  O   UNL     1      44.186  16.443  -3.091  1.00  0.00    -0.452 OA
ATOM      8  C   UNL     1      42.393  17.928  -2.627  1.00  0.00     0.209 A 
ATOM      9  C   UNL     1      41.714  19.123  -2.924  1.00  0.00     0.211 A 
ATOM     10  C   UNL     1      42.119  19.933  -4.015  1.00  0.00     0.208 A 
ATOM     11  C   UNL     1      43.263  19.568  -4.773  1.00  0.00     0.179 A 
ENDROOT
BRANCH   1  12
ATOM     12  C   UNL     1      45.901  14.747  -3.335  1.00  0.00     0.021 A 
ATOM     13  C   UNL     1      47.176  12.363  -2.523  1.00  0.00     0.160 A 
ATOM     14  C   UNL     1      47.928  13.399  -3.095  1.00  0.00     0.161 A 
ATOM     15  C   UNL     1      45.789  12.525  -2.351  1.00  0.00     0.051 A 
ATOM     16  C   UNL     1      47.286  14.586  -3.495  1.00  0.00     0.062 A 
ATOM     17  C   UNL     1      45.159  13.707  -2.751  1.00  0.00     0.016 A 
BRANCH  13  18
ATOM     18  O   UNL     1      47.842  11.189  -2.138  1.00  0.00    -0.493 OA
ATOM     19  C   UNL     1      48.360  10.945  -0.834  1.00  0.00     0.278 C 
ENDBRANCH  13  18
BRANCH  14  20
ATOM     20  O   UNL     1      49.312  13.213  -3.248  1.00  0.00    -0.493 OA
ATOM     21  C   UNL     1      50.108  13.859  -4.237  1.00  0.00     0.278 C 
ENDBRANCH  14  20
ENDBRANCH   1  12
BRANCH   8  22
ATOM     22  O   UNL     1      41.868  17.131  -1.591  1.00  0.00    -0.490 OA
ATOM     23  C   UNL     1      40.849  16.145  -1.701  1.00  0.00     0.278 C 
ENDBRANCH   8  22
BRANCH  11  24
ATOM     24  O   UNL     1      43.742  20.343  -5.852  1.00  0.00    -0.492 OA
ATOM     25  C   UNL     1      44.345  21.631  -5.800  1.00  0.00     0.278 C 
ENDBRANCH  11  24
BRANCH   9  26
ATOM     26  O   UNL     1      40.620  19.502  -2.139  1.00  0.00    -0.490 OA
ATOM     27  C   UNL     1      40.742  20.333  -0.987  1.00  0.00     0.279 C 
ENDBRANCH   9  26
BRANCH  10  28
ATOM     28  O   UNL     1      41.426  21.105  -4.375  1.00  0.00    -0.490 OA
ATOM     29  C   UNL     1      40.492  21.271  -5.436  1.00  0.00     0.278 C 
ENDBRANCH  10  28
TORSDOF 7
ENDMDL
MODEL 4
REMARK VINA RESULT:    -4.899      1.742      7.962
REMARK INTER + INTRA:          -7.593
REMARK INTER:                  -6.878
REMARK INTRA:                  -0.715
REMARK UNBOUND:                -0.689
REMARK SMILES COc1ccc(-c2cc(=O)c3c(OC)c(OC)c(OC)c(OC)c3o2)cc1OC
REMARK SMILES IDX 7 1 8 2 9 3 10 4 11 5 24 6 25 7 21 8 18 9 15 10 12 11 6 12
REMARK SMILES IDX 3 13 27 14 4 15 26 16 5 17 2 18 1 19 28 20 29 21 22 22 23 23
REMARK SMILES IDX 13 24 14 25 19 26 20 27 16 28 17 29
REMARK H PARENT
REMARK Flexibility Score: inf
ROOT
ATOM      1  C   UNL     1      45.399  16.602  -3.926  1.00  0.00     0.138 A 
ATOM      2  C   UNL     1      44.590  15.654  -3.295  1.00  0.00     0.100 A 
ATOM      3  C   UNL     1      43.289  15.998  -2.938  1.00  0.00     0.197 A 
ATOM      4  O   UNL     1      42.573  15.126  -2.375  1.00  0.00    -0.289 OA
ATOM      5  C   UNL     1      42.802  17.299  -3.212  1.00  0.00     0.115 A 
ATOM      6  C   UNL     1      43.679  18.201  -3.861  1.00  0.00     0.188 A 
ATOM      7  O   UNL     1      44.910  17.812  -4.181  1.00  0.00    -0.452 OA
ATOM      8  C   UNL     1      43.255  19.514  -4.160  1.00  0.00     0.209 A 
ATOM      9  C   UNL     1      41.947  19.914  -3.837  1.00  0.00     0.211 A 
ATOM     10  C   UNL     1      41.069  19.035  -3.154  1.00  0.00     0.208 A 
ATOM     11  C   UNL     1      41.494  17.713  -2.853  1.00  0.00     0.179 A 
ENDROOT
BRANCH   1  12
ATOM     12  C   UNL     1      46.790  16.289  -4.332  1.00  0.00     0.021 A 
ATOM     13  C   UNL     1      49.427  15.635  -5.098  1.00  0.00     0.160 A 
ATOM     14  C   UNL     1      48.781  14.886  -4.104  1.00  0.00     0.161 A 
ATOM     15  C   UNL     1      48.749  16.703  -5.713  1.00  0.00     0.051 A 
ATOM     16  C   UNL     1      47.465  15.216  -3.728  1.00  0.00     0.062 A 
ATOM     17  C   UNL     1      47.443  17.024  -5.335  1.00  0.00     0.016 A 
BRANCH  13  18
ATOM     18  O   UNL     1      50.741  15.287  -5.447  1.00  0.00    -0.493 OA
ATOM     19  C   UNL     1      51.856  16.171  -5.379  1.00  0.00     0.278 C 
ENDBRANCH  13  18
BRANCH  14  20
ATOM     20  O   UNL     1      49.478  13.821  -3.512  1.00  0.00    -0.493 OA
ATOM     21  C   UNL     1      49.073  12.457  -3.575  1.00  0.00     0.278 C 
ENDBRANCH  14  20
ENDBRANCH   1  12
BRANCH   8  22
ATOM     22  O   UNL     1      44.095  20.479  -4.749  1.00  0.00    -0.490 OA
ATOM     23  C   UNL     1      44.445  20.586  -6.124  1.00  0.00     0.278 C 
ENDBRANCH   8  22
BRANCH  11  24
ATOM     24  O   UNL     1      40.662  16.775  -2.203  1.00  0.00    -0.492 OA
ATOM     25  C   UNL     1      39.516  16.115  -2.728  1.00  0.00     0.278 C 
ENDBRANCH  11  24
BRANCH   9  26
ATOM     26  O   UNL     1      41.518  21.200  -4.184  1.00  0.00    -0.490 OA
ATOM     27  C   UNL     1      40.902  21.502  -5.434  1.00  0.00     0.279 C 
ENDBRANCH   9  26
BRANCH  10  28
ATOM     28  O   UNL     1      39.772  19.424  -2.765  1.00  0.00    -0.490 OA
ATOM     29  C   UNL     1      39.342  19.847  -1.476  1.00  0.00     0.278 C 
ENDBRANCH  10  28
TORSDOF 7
ENDMDL
MODEL 5
REMARK VINA RESULT:    -4.698      1.036      3.372
REMARK INTER + INTRA:          -7.309
REMARK INTER:                  -6.563
REMARK INTRA:                  -0.746
REMARK UNBOUND:                -0.689
REMARK SMILES COc1ccc(-c2cc(=O)c3c(OC)c(OC)c(OC)c(OC)c3o2)cc1OC
REMARK SMILES IDX 7 1 8 2 9 3 10 4 11 5 24 6 25 7 21 8 18 9 15 10 12 11 6 12
REMARK SMILES IDX 3 13 27 14 4 15 26 16 5 17 2 18 1 19 28 20 29 21 22 22 23 23
REMARK SMILES IDX 13 24 14 25 19 26 20 27 16 28 17 29
REMARK H PARENT
REMARK Flexibility Score: inf
ROOT
ATOM      1  C   UNL     1      45.545  17.415  -4.821  1.00  0.00     0.138 A 
ATOM      2  C   UNL     1      46.764  17.626  -5.470  1.00  0.00     0.100 A 
ATOM      3  C   UNL     1      47.746  16.643  -5.411  1.00  0.00     0.197 A 
ATOM      4  O   UNL     1      48.838  16.850  -6.008  1.00  0.00    -0.289 OA
ATOM      5  C   UNL     1      47.505  15.444  -4.696  1.00  0.00     0.115 A 
ATOM      6  C   UNL     1      46.242  15.300  -4.072  1.00  0.00     0.188 A 
ATOM      7  O   UNL     1      45.342  16.275  -4.168  1.00  0.00    -0.452 OA
ATOM      8  C   UNL     1      45.940  14.130  -3.342  1.00  0.00     0.209 A 
ATOM      9  C   UNL     1      46.887  13.096  -3.260  1.00  0.00     0.211 A 
ATOM     10  C   UNL     1      48.170  13.240  -3.847  1.00  0.00     0.208 A 
ATOM     11  C   UNL     1      48.475  14.415  -4.583  1.00  0.00     0.179 A 
ENDROOT
BRANCH   1  12
ATOM     12  C   UNL     1      44.461  18.426  -4.855  1.00  0.00     0.021 A 
ATOM     13  C   UNL     1      42.392  20.347  -4.863  1.00  0.00     0.160 A 
ATOM     14  C   UNL     1      42.359  19.284  -3.948  1.00  0.00     0.161 A 
ATOM     15  C   UNL     1      43.466  20.450  -5.766  1.00  0.00     0.051 A 
ATOM     16  C   UNL     1      43.395  18.331  -3.948  1.00  0.00     0.062 A 
ATOM     17  C   UNL     1      44.491  19.500  -5.760  1.00  0.00     0.016 A 
BRANCH  13  18
ATOM     18  O   UNL     1      41.343  21.278  -4.844  1.00  0.00    -0.493 OA
ATOM     19  C   UNL     1      41.233  22.388  -5.729  1.00  0.00     0.278 C 
ENDBRANCH  13  18
BRANCH  14  20
ATOM     20  O   UNL     1      41.279  19.210  -3.053  1.00  0.00    -0.493 OA
ATOM     21  C   UNL     1      41.409  19.099  -1.639  1.00  0.00     0.278 C 
ENDBRANCH  14  20
ENDBRANCH   1  12
BRANCH   8  22
ATOM     22  O   UNL     1      44.727  13.948  -2.648  1.00  0.00    -0.490 OA
ATOM     23  C   UNL     1      43.489  13.505  -3.189  1.00  0.00     0.278 C 
ENDBRANCH   8  22
BRANCH  11  24
ATOM     24  O   UNL     1      49.720  14.614  -5.220  1.00  0.00    -0.492 OA
ATOM     25  C   UNL     1      50.987  14.832  -4.610  1.00  0.00     0.278 C 
ENDBRANCH  11  24
BRANCH   9  26
ATOM     26  O   UNL     1      46.559  11.918  -2.578  1.00  0.00    -0.490 OA
ATOM     27  C   UNL     1      46.864  11.708  -1.201  1.00  0.00     0.279 C 
ENDBRANCH   9  26
BRANCH  10  28
ATOM     28  O   UNL     1      49.162  12.246  -3.734  1.00  0.00    -0.490 OA
ATOM     29  C   UNL     1      49.384  11.139  -4.600  1.00  0.00     0.278 C 
ENDBRANCH  10  28
TORSDOF 7
ENDMDL
MODEL 6
REMARK VINA RESULT:    -4.680      1.947      8.185
REMARK INTER + INTRA:          -7.285
REMARK INTER:                  -6.571
REMARK INTRA:                  -0.714
REMARK UNBOUND:                -0.689
REMARK SMILES COc1ccc(-c2cc(=O)c3c(OC)c(OC)c(OC)c(OC)c3o2)cc1OC
REMARK SMILES IDX 7 1 8 2 9 3 10 4 11 5 24 6 25 7 21 8 18 9 15 10 12 11 6 12
REMARK SMILES IDX 3 13 27 14 4 15 26 16 5 17 2 18 1 19 28 20 29 21 22 22 23 23
REMARK SMILES IDX 13 24 14 25 19 26 20 27 16 28 17 29
REMARK H PARENT
REMARK Flexibility Score: inf
ROOT
ATOM      1  C   UNL     1      46.069  17.268  -4.910  1.00  0.00     0.138 A 
ATOM      2  C   UNL     1      45.691  18.423  -5.600  1.00  0.00     0.100 A 
ATOM      3  C   UNL     1      44.387  18.893  -5.477  1.00  0.00     0.197 A 
ATOM      4  O   UNL     1      44.067  19.940  -6.103  1.00  0.00    -0.289 OA
ATOM      5  C   UNL     1      43.459  18.201  -4.661  1.00  0.00     0.115 A 
ATOM      6  C   UNL     1      43.919  17.043  -3.988  1.00  0.00     0.188 A 
ATOM      7  O   UNL     1      45.180  16.646  -4.142  1.00  0.00    -0.452 OA
ATOM      8  C   UNL     1      43.044  16.307  -3.162  1.00  0.00     0.209 A 
ATOM      9  C   UNL     1      41.719  16.742  -2.988  1.00  0.00     0.211 A 
ATOM     10  C   UNL     1      41.232  17.877  -3.684  1.00  0.00     0.208 A 
ATOM     11  C   UNL     1      42.112  18.620  -4.515  1.00  0.00     0.179 A 
ENDROOT
BRANCH   1  12
ATOM     12  C   UNL     1      47.445  16.725  -5.000  1.00  0.00     0.021 A 
ATOM     13  C   UNL     1      50.046  15.638  -5.163  1.00  0.00     0.160 A 
ATOM     14  C   UNL     1      49.093  15.052  -4.317  1.00  0.00     0.161 A 
ATOM     15  C   UNL     1      49.691  16.761  -5.933  1.00  0.00     0.051 A 
ATOM     16  C   UNL     1      47.798  15.598  -4.242  1.00  0.00     0.062 A 
ATOM     17  C   UNL     1      48.403  17.297  -5.853  1.00  0.00     0.016 A 
BRANCH  13  18
ATOM     18  O   UNL     1      51.331  15.076  -5.213  1.00  0.00    -0.493 OA
ATOM     19  C   UNL     1      52.380  15.535  -6.060  1.00  0.00     0.278 C 
ENDBRANCH  13  18
BRANCH  14  20
ATOM     20  O   UNL     1      49.472  13.927  -3.566  1.00  0.00    -0.493 OA
ATOM     21  C   UNL     1      48.573  12.917  -3.117  1.00  0.00     0.278 C 
ENDBRANCH  14  20
ENDBRANCH   1  12
BRANCH   8  22
ATOM     22  O   UNL     1      43.419  15.115  -2.511  1.00  0.00    -0.490 OA
ATOM     23  C   UNL     1      43.535  13.822  -3.092  1.00  0.00     0.278 C 
ENDBRANCH   8  22
BRANCH  11  24
ATOM     24  O   UNL     1      41.705  19.778  -5.213  1.00  0.00    -0.492 OA
ATOM     25  C   UNL     1      41.452  21.074  -4.682  1.00  0.00     0.278 C 
ENDBRANCH  11  24
BRANCH   9  26
ATOM     26  O   UNL     1      40.873  16.034  -2.126  1.00  0.00    -0.490 OA
ATOM     27  C   UNL     1      39.946  15.051  -2.582  1.00  0.00     0.279 C 
ENDBRANCH   9  26
BRANCH  10  28
ATOM     28  O   UNL     1      39.894  18.305  -3.576  1.00  0.00    -0.490 OA
ATOM     29  C   UNL     1      39.303  19.044  -2.514  1.00  0.00     0.278 C 
ENDBRANCH  10  28
TORSDOF 7
ENDMDL
MODEL 7
REMARK VINA RESULT:    -4.334      1.645      1.735
REMARK INTER + INTRA:          -6.797
REMARK INTER:                  -6.096
REMARK INTRA:                  -0.702
REMARK UNBOUND:                -0.689
REMARK SMILES COc1ccc(-c2cc(=O)c3c(OC)c(OC)c(OC)c(OC)c3o2)cc1OC
REMARK SMILES IDX 7 1 8 2 9 3 10 4 11 5 24 6 25 7 21 8 18 9 15 10 12 11 6 12
REMARK SMILES IDX 3 13 27 14 4 15 26 16 5 17 2 18 1 19 28 20 29 21 22 22 23 23
REMARK SMILES IDX 13 24 14 25 19 26 20 27 16 28 17 29
REMARK H PARENT
REMARK Flexibility Score: inf
ROOT
ATOM      1  C   UNL     1      44.529  15.531  -3.605  1.00  0.00     0.138 A 
ATOM      2  C   UNL     1      44.432  14.389  -2.807  1.00  0.00     0.100 A 
ATOM      3  C   UNL     1      45.485  13.478  -2.791  1.00  0.00     0.197 A 
ATOM      4  O   UNL     1      45.381  12.456  -2.060  1.00  0.00    -0.289 OA
ATOM      5  C   UNL     1      46.637  13.715  -3.581  1.00  0.00     0.115 A 
ATOM      6  C   UNL     1      46.664  14.899  -4.357  1.00  0.00     0.188 A 
ATOM      7  O   UNL     1      45.627  15.733  -4.327  1.00  0.00    -0.452 OA
ATOM      8  C   UNL     1      47.781  15.193  -5.167  1.00  0.00     0.209 A 
ATOM      9  C   UNL     1      48.881  14.318  -5.180  1.00  0.00     0.211 A 
ATOM     10  C   UNL     1      48.855  13.109  -4.439  1.00  0.00     0.208 A 
ATOM     11  C   UNL     1      47.731  12.814  -3.621  1.00  0.00     0.179 A 
ENDROOT
BRANCH   1  12
ATOM     12  C   UNL     1      43.441  16.536  -3.657  1.00  0.00     0.021 A 
ATOM     13  C   UNL     1      41.405  18.491  -3.736  1.00  0.00     0.160 A 
ATOM     14  C   UNL     1      42.391  18.546  -2.740  1.00  0.00     0.161 A 
ATOM     15  C   UNL     1      41.446  17.463  -4.695  1.00  0.00     0.051 A 
ATOM     16  C   UNL     1      43.405  17.570  -2.708  1.00  0.00     0.062 A 
ATOM     17  C   UNL     1      42.455  16.497  -4.657  1.00  0.00     0.016 A 
BRANCH  13  18
ATOM     18  O   UNL     1      40.404  19.474  -3.739  1.00  0.00    -0.493 OA
ATOM     19  C   UNL     1      39.037  19.236  -3.417  1.00  0.00     0.278 C 
ENDBRANCH  13  18
BRANCH  14  20
ATOM     20  O   UNL     1      42.331  19.588  -1.800  1.00  0.00    -0.493 OA
ATOM     21  C   UNL     1      41.554  19.554  -0.606  1.00  0.00     0.278 C 
ENDBRANCH  14  20
ENDBRANCH   1  12
BRANCH   8  22
ATOM     22  O   UNL     1      47.848  16.321  -6.008  1.00  0.00    -0.490 OA
ATOM     23  C   UNL     1      48.340  17.612  -5.671  1.00  0.00     0.278 C 
ENDBRANCH   8  22
BRANCH  11  24
ATOM     24  O   UNL     1      47.649  11.646  -2.832  1.00  0.00    -0.492 OA
ATOM     25  C   UNL     1      48.511  11.247  -1.772  1.00  0.00     0.278 C 
ENDBRANCH  11  24
BRANCH   9  26
ATOM     26  O   UNL     1      50.007  14.643  -5.947  1.00  0.00    -0.490 OA
ATOM     27  C   UNL     1      51.180  15.234  -5.392  1.00  0.00     0.279 C 
ENDBRANCH   9  26
BRANCH  10  28
ATOM     28  O   UNL     1      49.916  12.184  -4.475  1.00  0.00    -0.490 OA
ATOM     29  C   UNL     1      50.087  11.094  -5.374  1.00  0.00     0.278 C 
ENDBRANCH  10  28
TORSDOF 7
ENDMDL
MODEL 8
REMARK VINA RESULT:    -3.953      2.060      7.689
REMARK INTER + INTRA:          -6.260
REMARK INTER:                  -5.518
REMARK INTRA:                  -0.743
REMARK UNBOUND:                -0.689
REMARK SMILES COc1ccc(-c2cc(=O)c3c(OC)c(OC)c(OC)c(OC)c3o2)cc1OC
REMARK SMILES IDX 7 1 8 2 9 3 10 4 11 5 24 6 25 7 21 8 18 9 15 10 12 11 6 12
REMARK SMILES IDX 3 13 27 14 4 15 26 16 5 17 2 18 1 19 28 20 29 21 22 22 23 23
REMARK SMILES IDX 13 24 14 25 19 26 20 27 16 28 17 29
REMARK H PARENT
REMARK Flexibility Score: inf
ROOT
ATOM      1  C   UNL     1      45.555  14.912  -3.963  1.00  0.00     0.138 A 
ATOM      2  C   UNL     1      44.742  13.834  -3.607  1.00  0.00     0.100 A 
ATOM      3  C   UNL     1      43.375  14.037  -3.441  1.00  0.00     0.197 A 
ATOM      4  O   UNL     1      42.656  13.051  -3.125  1.00  0.00    -0.289 OA
ATOM      5  C   UNL     1      42.824  15.329  -3.631  1.00  0.00     0.115 A 
ATOM      6  C   UNL     1      43.712  16.369  -3.999  1.00  0.00     0.188 A 
ATOM      7  O   UNL     1      45.009  16.110  -4.146  1.00  0.00    -0.452 OA
ATOM      8  C   UNL     1      43.227  17.679  -4.200  1.00  0.00     0.209 A 
ATOM      9  C   UNL     1      41.853  17.942  -4.062  1.00  0.00     0.211 A 
ATOM     10  C   UNL     1      40.957  16.921  -3.657  1.00  0.00     0.208 A 
ATOM     11  C   UNL     1      41.443  15.601  -3.456  1.00  0.00     0.179 A 
ENDROOT
BRANCH   1  12
ATOM     12  C   UNL     1      47.016  14.752  -4.158  1.00  0.00     0.021 A 
ATOM     13  C   UNL     1      49.804  14.503  -4.525  1.00  0.00     0.160 A 
ATOM     14  C   UNL     1      49.129  15.625  -5.027  1.00  0.00     0.161 A 
ATOM     15  C   UNL     1      49.083  13.513  -3.832  1.00  0.00     0.051 A 
ATOM     16  C   UNL     1      47.739  15.743  -4.839  1.00  0.00     0.062 A 
ATOM     17  C   UNL     1      47.704  13.638  -3.649  1.00  0.00     0.016 A 
BRANCH  13  18
ATOM     18  O   UNL     1      51.189  14.408  -4.733  1.00  0.00    -0.493 OA
ATOM     19  C   UNL     1      51.832  13.331  -5.406  1.00  0.00     0.278 C 
ENDBRANCH  13  18
BRANCH  14  20
ATOM     20  O   UNL     1      49.874  16.601  -5.708  1.00  0.00    -0.493 OA
ATOM     21  C   UNL     1      49.361  17.864  -6.124  1.00  0.00     0.278 C 
ENDBRANCH  14  20
ENDBRANCH   1  12
BRANCH   8  22
ATOM     22  O   UNL     1      44.062  18.770  -4.509  1.00  0.00    -0.490 OA
ATOM     23  C   UNL     1      44.517  19.164  -5.798  1.00  0.00     0.278 C 
ENDBRANCH   8  22
BRANCH  11  24
ATOM     24  O   UNL     1      40.604  14.529  -3.083  1.00  0.00    -0.492 OA
ATOM     25  C   UNL     1      39.473  14.022  -3.783  1.00  0.00     0.278 C 
ENDBRANCH  11  24
BRANCH   9  26
ATOM     26  O   UNL     1      41.374  19.233  -4.315  1.00  0.00    -0.490 OA
ATOM     27  C   UNL     1      41.309  20.247  -3.314  1.00  0.00     0.279 C 
ENDBRANCH   9  26
BRANCH  10  28
ATOM     28  O   UNL     1      39.585  17.165  -3.454  1.00  0.00    -0.490 OA
ATOM     29  C   UNL     1      38.946  17.582  -2.253  1.00  0.00     0.278 C 
ENDBRANCH  10  28
TORSDOF 7
ENDMDL
MODEL 9
REMARK VINA RESULT:    -3.007      1.360      2.337
REMARK INTER + INTRA:          -4.927
REMARK INTER:                  -4.175
REMARK INTRA:                  -0.752
REMARK UNBOUND:                -0.689
REMARK SMILES COc1ccc(-c2cc(=O)c3c(OC)c(OC)c(OC)c(OC)c3o2)cc1OC
REMARK SMILES IDX 7 1 8 2 9 3 10 4 11 5 24 6 25 7 21 8 18 9 15 10 12 11 6 12
REMARK SMILES IDX 3 13 27 14 4 15 26 16 5 17 2 18 1 19 28 20 29 21 22 22 23 23
REMARK SMILES IDX 13 24 14 25 19 26 20 27 16 28 17 29
REMARK H PARENT
REMARK Flexibility Score: inf
ROOT
ATOM      1  C   UNL     1      44.926  15.598  -2.928  1.00  0.00     0.138 A 
ATOM      2  C   UNL     1      44.830  14.269  -2.507  1.00  0.00     0.100 A 
ATOM      3  C   UNL     1      45.874  13.391  -2.781  1.00  0.00     0.197 A 
ATOM      4  O   UNL     1      45.771  12.197  -2.389  1.00  0.00    -0.289 OA
ATOM      5  C   UNL     1      47.016  13.847  -3.484  1.00  0.00     0.115 A 
ATOM      6  C   UNL     1      47.042  15.209  -3.871  1.00  0.00     0.188 A 
ATOM      7  O   UNL     1      46.015  16.001  -3.574  1.00  0.00    -0.452 OA
ATOM      8  C   UNL     1      48.151  15.726  -4.576  1.00  0.00     0.209 A 
ATOM      9  C   UNL     1      49.242  14.890  -4.869  1.00  0.00     0.211 A 
ATOM     10  C   UNL     1      49.214  13.515  -4.523  1.00  0.00     0.208 A 
ATOM     11  C   UNL     1      48.100  12.994  -3.812  1.00  0.00     0.179 A 
ENDROOT
BRANCH   1  12
ATOM     12  C   UNL     1      43.847  16.577  -2.657  1.00  0.00     0.021 A 
ATOM     13  C   UNL     1      41.805  18.470  -2.191  1.00  0.00     0.160 A 
ATOM     14  C   UNL     1      42.983  18.858  -2.845  1.00  0.00     0.161 A 
ATOM     15  C   UNL     1      41.647  17.134  -1.781  1.00  0.00     0.051 A 
ATOM     16  C   UNL     1      43.997  17.909  -3.076  1.00  0.00     0.062 A 
ATOM     17  C   UNL     1      42.657  16.197  -2.014  1.00  0.00     0.016 A 
BRANCH  13  18
ATOM     18  O   UNL     1      40.814  19.440  -1.970  1.00  0.00    -0.493 OA
ATOM     19  C   UNL     1      40.681  20.198  -0.772  1.00  0.00     0.278 C 
ENDBRANCH  13  18
BRANCH  14  20
ATOM     20  O   UNL     1      43.111  20.197  -3.251  1.00  0.00    -0.493 OA
ATOM     21  C   UNL     1      43.323  20.615  -4.596  1.00  0.00     0.278 C 
ENDBRANCH  14  20
ENDBRANCH   1  12
BRANCH   8  22
ATOM     22  O   UNL     1      48.216  17.054  -5.041  1.00  0.00    -0.490 OA
ATOM     23  C   UNL     1      47.488  17.619  -6.125  1.00  0.00     0.278 C 
ENDBRANCH   8  22
BRANCH  11  24
ATOM     24  O   UNL     1      48.019  11.644  -3.407  1.00  0.00    -0.492 OA
ATOM     25  C   UNL     1      48.823  10.972  -2.443  1.00  0.00     0.278 C 
ENDBRANCH  11  24
BRANCH   9  26
ATOM     26  O   UNL     1      50.358  15.424  -5.522  1.00  0.00    -0.490 OA
ATOM     27  C   UNL     1      51.513  15.892  -4.830  1.00  0.00     0.279 C 
ENDBRANCH   9  26
BRANCH  10  28
ATOM     28  O   UNL     1      50.266  12.639  -4.853  1.00  0.00    -0.490 OA
ATOM     29  C   UNL     1      50.415  11.871  -6.041  1.00  0.00     0.278 C 
ENDBRANCH  10  28
TORSDOF 7
ENDMDL
