MODEL 1
REMARK VINA RESULT:    -2.158      0.000      0.000
REMARK INTER + INTRA:          -2.158
REMARK INTER:                  -2.158
REMARK INTRA:                   0.000
REMARK UNBOUND:                 0.000
REMARK SMILES CC(=O)[O-]
REMARK SMILES IDX 1 1 2 2 3 3 4 4
REMARK H PARENT
REMARK Flexibility Score: inf
ROOT
ATOM      1  C   UNL     1       5.085  -0.813  -7.145  1.00  0.00     0.063 C 
ATOM      2  C   UNL     1       4.839   0.646  -7.325  1.00  0.00     0.038 C 
ATOM      3  O   UNL     1       3.667   1.073  -7.496  1.00  0.00    -0.550 OA
ATOM      4  O   UNL     1       5.895   1.545  -7.248  1.00  0.00    -0.550 OA
ENDROOT
TORSDOF 0
ENDMDL
MODEL 2
REMARK VINA RESULT:    -2.157     16.410     16.548
REMARK INTER + INTRA:          -2.157
REMARK INTER:                  -2.157
REMARK INTRA:                   0.000
REMARK UNBOUND:                 0.000
REMARK SMILES CC(=O)[O-]
REMARK SMILES IDX 1 1 2 2 3 3 4 4
REMARK H PARENT
REMARK Flexibility Score: inf
ROOT
ATOM      1  C   UNL     1       2.674   7.439   6.226  1.00  0.00     0.063 C 
ATOM      2  C   UNL     1       2.415   8.732   6.922  1.00  0.00     0.038 C 
ATOM      3  O   UNL     1       1.257   9.226   6.927  1.00  0.00    -0.550 OA
ATOM      4  O   UNL     1       3.438   9.366   7.616  1.00  0.00    -0.550 OA
ENDROOT
TORSDOF 0
ENDMDL
MODEL 3
REMARK VINA RESULT:    -2.146      0.169      1.629
REMARK INTER + INTRA:          -2.146
REMARK INTER:                  -2.146
REMARK INTRA:                   0.000
REMARK UNBOUND:                 0.000
REMARK SMILES CC(=O)[O-]
REMARK SMILES IDX 1 1 2 2 3 3 4 4
REMARK H PARENT
REMARK Flexibility Score: inf
ROOT
ATOM      1  C   UNL     1       5.333  -0.773  -7.313  1.00  0.00     0.063 C 
ATOM      2  C   UNL     1       4.984   0.676  -7.339  1.00  0.00     0.038 C 
ATOM      3  O   UNL     1       5.891   1.546  -7.262  1.00  0.00    -0.550 OA
ATOM      4  O   UNL     1       3.663   1.071  -7.504  1.00  0.00    -0.550 OA
ENDROOT
TORSDOF 0
ENDMDL
MODEL 4
REMARK VINA RESULT:    -2.123      7.334      7.651
REMARK INTER + INTRA:          -2.123
REMARK INTER:                  -2.123
REMARK INTRA:                   0.000
REMARK UNBOUND:                 0.000
REMARK SMILES CC(=O)[O-]
REMARK SMILES IDX 1 1 2 2 3 3 4 4
REMARK H PARENT
REMARK Flexibility Score: inf
ROOT
ATOM      1  C   UNL     1       0.118   7.114  -7.776  1.00  0.00     0.063 C 
ATOM      2  C   UNL     1      -0.351   5.839  -7.162  1.00  0.00     0.038 C 
ATOM      3  O   UNL     1      -0.652   4.859  -7.894  1.00  0.00    -0.550 OA
ATOM      4  O   UNL     1      -0.404   5.710  -5.780  1.00  0.00    -0.550 OA
ENDROOT
TORSDOF 0
ENDMDL
MODEL 5
REMARK VINA RESULT:    -2.075     16.090     16.510
REMARK INTER + INTRA:          -2.075
REMARK INTER:                  -2.075
REMARK INTRA:                   0.000
REMARK UNBOUND:                 0.000
REMARK SMILES CC(=O)[O-]
REMARK SMILES IDX 1 1 2 2 3 3 4 4
REMARK H PARENT
REMARK Flexibility Score: inf
ROOT
ATOM      1  C   UNL     1      -6.886  -8.975  -4.193  1.00  0.00     0.063 C 
ATOM      2  C   UNL     1      -8.206  -9.075  -4.878  1.00  0.00     0.038 C 
ATOM      3  O   UNL     1      -8.517 -10.124  -5.500  1.00  0.00    -0.550 OA
ATOM      4  O   UNL     1      -9.119  -8.033  -4.784  1.00  0.00    -0.550 OA
ENDROOT
TORSDOF 0
ENDMDL
MODEL 6
REMARK VINA RESULT:    -2.025      7.165      7.647
REMARK INTER + INTRA:          -2.025
REMARK INTER:                  -2.025
REMARK INTRA:                   0.000
REMARK UNBOUND:                 0.000
REMARK SMILES CC(=O)[O-]
REMARK SMILES IDX 1 1 2 2 3 3 4 4
REMARK H PARENT
REMARK Flexibility Score: inf
ROOT
ATOM      1  C   UNL     1       0.623   7.765  -7.715  1.00  0.00     0.063 C 
ATOM      2  C   UNL     1       0.729   6.571  -6.829  1.00  0.00     0.038 C 
ATOM      3  O   UNL     1       1.337   6.651  -5.730  1.00  0.00    -0.550 OA
ATOM      4  O   UNL     1       0.108   5.381  -7.188  1.00  0.00    -0.550 OA
ENDROOT
TORSDOF 0
ENDMDL
MODEL 7
REMARK VINA RESULT:    -2.023     19.395     19.643
REMARK INTER + INTRA:          -2.023
REMARK INTER:                  -2.023
REMARK INTRA:                   0.000
REMARK UNBOUND:                 0.000
REMARK SMILES CC(=O)[O-]
REMARK SMILES IDX 1 1 2 2 3 3 4 4
REMARK H PARENT
REMARK Flexibility Score: inf
ROOT
ATOM      1  C   UNL     1      -8.953  -0.664   7.576  1.00  0.00     0.063 C 
ATOM      2  C   UNL     1      -8.248   0.606   7.242  1.00  0.00     0.038 C 
ATOM      3  O   UNL     1      -8.631   1.304   6.267  1.00  0.00    -0.550 OA
ATOM      4  O   UNL     1      -7.202   1.051   8.040  1.00  0.00    -0.550 OA
ENDROOT
TORSDOF 0
ENDMDL
MODEL 8
REMARK VINA RESULT:    -1.983     16.074     16.493
REMARK INTER + INTRA:          -1.983
REMARK INTER:                  -1.983
REMARK INTRA:                   0.000
REMARK UNBOUND:                 0.000
REMARK SMILES CC(=O)[O-]
REMARK SMILES IDX 1 1 2 2 3 3 4 4
REMARK H PARENT
REMARK Flexibility Score: inf
ROOT
ATOM      1  C   UNL     1      -8.813  -8.058  -4.311  1.00  0.00     0.063 C 
ATOM      2  C   UNL     1      -8.005  -9.255  -4.683  1.00  0.00     0.038 C 
ATOM      3  O   UNL     1      -8.483 -10.125  -5.457  1.00  0.00    -0.550 OA
ATOM      4  O   UNL     1      -6.701  -9.385  -4.220  1.00  0.00    -0.550 OA
ENDROOT
TORSDOF 0
ENDMDL
MODEL 9
REMARK VINA RESULT:    -1.929     20.097     20.402
REMARK INTER + INTRA:          -1.929
REMARK INTER:                  -1.929
REMARK INTRA:                   0.000
REMARK UNBOUND:                 0.000
REMARK SMILES CC(=O)[O-]
REMARK SMILES IDX 1 1 2 2 3 3 4 4
REMARK H PARENT
REMARK Flexibility Score: inf
ROOT
ATOM      1  C   UNL     1      -8.584  -0.366   9.266  1.00  0.00     0.063 C 
ATOM      2  C   UNL     1      -7.677   0.665   8.686  1.00  0.00     0.038 C 
ATOM      3  O   UNL     1      -6.647   1.027   9.314  1.00  0.00    -0.550 OA
ATOM      4  O   UNL     1      -7.934   1.188   7.425  1.00  0.00    -0.550 OA
ENDROOT
TORSDOF 0
ENDMDL
