MODEL 1
REMARK VINA RESULT:    -3.751      0.000      0.000
REMARK INTER + INTRA:          -5.181
REMARK INTER:                  -4.848
REMARK INTRA:                  -0.334
REMARK UNBOUND:                -0.334
REMARK SMILES CCCCCCC(=O)[O-]
REMARK SMILES IDX 5 1 6 2 7 3 8 4 9 5 4 6 3 7 2 8 1 9
REMARK H PARENT
REMARK Flexibility Score: inf
ROOT
ATOM      1  C   UNL     1      61.097  28.723  28.440  1.00  0.00     0.006 C 
ENDROOT
BRANCH   1   2
ATOM      2  C   UNL     1      62.458  29.177  28.983  1.00  0.00     0.053 C 
BRANCH   2   3
ATOM      3  C   UNL     1      62.867  30.470  28.350  1.00  0.00     0.041 C 
ATOM      4  O   UNL     1      63.055  31.492  29.061  1.00  0.00    -0.550 OA
ATOM      5  O   UNL     1      63.089  30.534  26.980  1.00  0.00    -0.550 OA
ENDBRANCH   2   3
ENDBRANCH   1   2
BRANCH   1   6
ATOM      6  C   UNL     1      61.114  27.271  27.936  1.00  0.00     0.000 C 
BRANCH   6   7
ATOM      7  C   UNL     1      61.694  27.145  26.517  1.00  0.00    -0.000 C 
BRANCH   7   8
ATOM      8  C   UNL     1      60.855  27.894  25.470  1.00  0.00    -0.003 C 
ATOM      9  C   UNL     1      61.708  28.550  24.384  1.00  0.00     0.004 C 
ENDBRANCH   7   8
ENDBRANCH   6   7
ENDBRANCH   1   6
TORSDOF 5
ENDMDL
MODEL 2
REMARK VINA RESULT:    -3.727      3.344      4.579
REMARK INTER + INTRA:          -5.150
REMARK INTER:                  -4.823
REMARK INTRA:                  -0.327
REMARK UNBOUND:                -0.334
REMARK SMILES CCCCCCC(=O)[O-]
REMARK SMILES IDX 5 1 6 2 7 3 8 4 9 5 4 6 3 7 2 8 1 9
REMARK H PARENT
REMARK Flexibility Score: inf
ROOT
ATOM      1  C   UNL     1      62.270  28.120  23.933  1.00  0.00     0.006 C 
ENDROOT
BRANCH   1   2
ATOM      2  C   UNL     1      61.224  28.541  24.974  1.00  0.00     0.053 C 
BRANCH   2   3
ATOM      3  C   UNL     1      60.646  27.338  25.648  1.00  0.00     0.041 C 
ATOM      4  O   UNL     1      61.127  26.931  26.739  1.00  0.00    -0.550 OA
ATOM      5  O   UNL     1      59.543  26.694  25.100  1.00  0.00    -0.550 OA
ENDBRANCH   2   3
ENDBRANCH   1   2
BRANCH   1   6
ATOM      6  C   UNL     1      63.668  28.683  24.236  1.00  0.00     0.000 C 
BRANCH   6   7
ATOM      7  C   UNL     1      64.397  27.891  25.335  1.00  0.00    -0.000 C 
BRANCH   7   8
ATOM      8  C   UNL     1      64.372  26.375  25.083  1.00  0.00    -0.003 C 
ATOM      9  C   UNL     1      65.257  25.954  23.910  1.00  0.00     0.004 C 
ENDBRANCH   7   8
ENDBRANCH   6   7
ENDBRANCH   1   6
TORSDOF 5
ENDMDL
MODEL 3
REMARK VINA RESULT:    -3.700      2.351      3.997
REMARK INTER + INTRA:          -5.115
REMARK INTER:                  -4.780
REMARK INTRA:                  -0.335
REMARK UNBOUND:                -0.334
REMARK SMILES CCCCCCC(=O)[O-]
REMARK SMILES IDX 5 1 6 2 7 3 8 4 9 5 4 6 3 7 2 8 1 9
REMARK H PARENT
REMARK Flexibility Score: inf
ROOT
ATOM      1  C   UNL     1      61.296  27.330  27.992  1.00  0.00     0.006 C 
ENDROOT
BRANCH   1   2
ATOM      2  C   UNL     1      61.828  27.071  26.576  1.00  0.00     0.053 C 
BRANCH   2   3
ATOM      3  C   UNL     1      60.792  27.425  25.557  1.00  0.00     0.041 C 
ATOM      4  O   UNL     1      60.962  28.415  24.798  1.00  0.00    -0.550 OA
ATOM      5  O   UNL     1      59.661  26.631  25.410  1.00  0.00    -0.550 OA
ENDBRANCH   2   3
ENDBRANCH   1   2
BRANCH   1   6
ATOM      6  C   UNL     1      61.132  28.827  28.300  1.00  0.00     0.000 C 
BRANCH   6   7
ATOM      7  C   UNL     1      62.320  29.399  29.093  1.00  0.00    -0.000 C 
BRANCH   7   8
ATOM      8  C   UNL     1      62.891  30.677  28.456  1.00  0.00    -0.003 C 
ATOM      9  C   UNL     1      63.176  30.519  26.963  1.00  0.00     0.004 C 
ENDBRANCH   7   8
ENDBRANCH   6   7
ENDBRANCH   1   6
TORSDOF 5
ENDMDL
MODEL 4
REMARK VINA RESULT:    -3.672     14.085     15.011
REMARK INTER + INTRA:          -5.080
REMARK INTER:                  -4.754
REMARK INTRA:                  -0.326
REMARK UNBOUND:                -0.334
REMARK SMILES CCCCCCC(=O)[O-]
REMARK SMILES IDX 5 1 6 2 7 3 8 4 9 5 4 6 3 7 2 8 1 9
REMARK H PARENT
REMARK Flexibility Score: inf
ROOT
ATOM      1  C   UNL     1      61.113  29.573  13.989  1.00  0.00     0.006 C 
ENDROOT
BRANCH   1   2
ATOM      2  C   UNL     1      60.909  28.453  12.961  1.00  0.00     0.053 C 
BRANCH   2   3
ATOM      3  C   UNL     1      59.600  28.624  12.256  1.00  0.00     0.041 C 
ATOM      4  O   UNL     1      59.515  29.378  11.251  1.00  0.00    -0.550 OA
ATOM      5  O   UNL     1      58.484  27.912  12.679  1.00  0.00    -0.550 OA
ENDBRANCH   2   3
ENDBRANCH   1   2
BRANCH   1   6
ATOM      6  C   UNL     1      62.201  30.574  13.568  1.00  0.00     0.000 C 
BRANCH   6   7
ATOM      7  C   UNL     1      61.636  31.753  12.756  1.00  0.00    -0.000 C 
BRANCH   7   8
ATOM      8  C   UNL     1      60.376  32.357  13.395  1.00  0.00    -0.003 C 
ATOM      9  C   UNL     1      60.695  33.436  14.431  1.00  0.00     0.004 C 
ENDBRANCH   7   8
ENDBRANCH   6   7
ENDBRANCH   1   6
TORSDOF 5
ENDMDL
MODEL 5
REMARK VINA RESULT:    -3.667      2.141      2.651
REMARK INTER + INTRA:          -5.073
REMARK INTER:                  -4.637
REMARK INTRA:                  -0.436
REMARK UNBOUND:                -0.334
REMARK SMILES CCCCCCC(=O)[O-]
REMARK SMILES IDX 5 1 6 2 7 3 8 4 9 5 4 6 3 7 2 8 1 9
REMARK H PARENT
REMARK Flexibility Score: inf
ROOT
ATOM      1  C   UNL     1      62.530  29.705  26.654  1.00  0.00     0.006 C 
ENDROOT
BRANCH   1   2
ATOM      2  C   UNL     1      62.683  29.381  28.146  1.00  0.00     0.053 C 
BRANCH   2   3
ATOM      3  C   UNL     1      61.605  28.443  28.590  1.00  0.00     0.041 C 
ATOM      4  O   UNL     1      60.538  28.893  29.086  1.00  0.00    -0.550 OA
ATOM      5  O   UNL     1      61.756  27.074  28.409  1.00  0.00    -0.550 OA
ENDBRANCH   2   3
ENDBRANCH   1   2
BRANCH   1   6
ATOM      6  C   UNL     1      63.334  28.752  25.756  1.00  0.00     0.000 C 
BRANCH   6   7
ATOM      7  C   UNL     1      62.432  27.841  24.904  1.00  0.00    -0.000 C 
BRANCH   7   8
ATOM      8  C   UNL     1      60.962  28.290  24.919  1.00  0.00    -0.003 C 
ATOM      9  C   UNL     1      60.001  27.158  25.280  1.00  0.00     0.004 C 
ENDBRANCH   7   8
ENDBRANCH   6   7
ENDBRANCH   1   6
TORSDOF 5
ENDMDL
MODEL 6
REMARK VINA RESULT:    -3.665      1.577      2.289
REMARK INTER + INTRA:          -5.070
REMARK INTER:                  -4.751
REMARK INTRA:                  -0.319
REMARK UNBOUND:                -0.334
REMARK SMILES CCCCCCC(=O)[O-]
REMARK SMILES IDX 5 1 6 2 7 3 8 4 9 5 4 6 3 7 2 8 1 9
REMARK H PARENT
REMARK Flexibility Score: inf
ROOT
ATOM      1  C   UNL     1      62.086  27.138  26.759  1.00  0.00     0.006 C 
ENDROOT
BRANCH   1   2
ATOM      2  C   UNL     1      61.972  27.388  28.269  1.00  0.00     0.053 C 
BRANCH   2   3
ATOM      3  C   UNL     1      61.480  28.776  28.532  1.00  0.00     0.041 C 
ATOM      4  O   UNL     1      60.384  28.958  29.125  1.00  0.00    -0.550 OA
ATOM      5  O   UNL     1      62.255  29.870  28.167  1.00  0.00    -0.550 OA
ENDBRANCH   2   3
ENDBRANCH   1   2
BRANCH   1   6
ATOM      6  C   UNL     1      60.799  27.498  26.000  1.00  0.00     0.000 C 
BRANCH   6   7
ATOM      7  C   UNL     1      61.082  28.126  24.624  1.00  0.00    -0.000 C 
BRANCH   7   8
ATOM      8  C   UNL     1      61.995  29.360  24.717  1.00  0.00    -0.003 C 
ATOM      9  C   UNL     1      63.270  29.218  23.885  1.00  0.00     0.004 C 
ENDBRANCH   7   8
ENDBRANCH   6   7
ENDBRANCH   1   6
TORSDOF 5
ENDMDL
MODEL 7
REMARK VINA RESULT:    -3.646     14.355     15.383
REMARK INTER + INTRA:          -5.045
REMARK INTER:                  -4.619
REMARK INTRA:                  -0.426
REMARK UNBOUND:                -0.334
REMARK SMILES CCCCCCC(=O)[O-]
REMARK SMILES IDX 5 1 6 2 7 3 8 4 9 5 4 6 3 7 2 8 1 9
REMARK H PARENT
REMARK Flexibility Score: inf
ROOT
ATOM      1  C   UNL     1      61.588  28.613  13.340  1.00  0.00     0.006 C 
ENDROOT
BRANCH   1   2
ATOM      2  C   UNL     1      60.293  28.224  12.614  1.00  0.00     0.053 C 
BRANCH   2   3
ATOM      3  C   UNL     1      60.313  28.730  11.206  1.00  0.00     0.041 C 
ATOM      4  O   UNL     1      59.568  29.686  10.865  1.00  0.00    -0.550 OA
ATOM      5  O   UNL     1      61.191  28.178  10.280  1.00  0.00    -0.550 OA
ENDBRANCH   2   3
ENDBRANCH   1   2
BRANCH   1   6
ATOM      6  C   UNL     1      61.459  29.934  14.114  1.00  0.00     0.000 C 
BRANCH   6   7
ATOM      7  C   UNL     1      61.986  31.140  13.317  1.00  0.00    -0.000 C 
BRANCH   7   8
ATOM      8  C   UNL     1      60.901  32.199  13.066  1.00  0.00    -0.003 C 
ATOM      9  C   UNL     1      59.567  31.849  13.725  1.00  0.00     0.004 C 
ENDBRANCH   7   8
ENDBRANCH   6   7
ENDBRANCH   1   6
TORSDOF 5
ENDMDL
MODEL 8
REMARK VINA RESULT:    -3.630      2.518      3.996
REMARK INTER + INTRA:          -5.025
REMARK INTER:                  -4.624
REMARK INTRA:                  -0.400
REMARK UNBOUND:                -0.334
REMARK SMILES CCCCCCC(=O)[O-]
REMARK SMILES IDX 5 1 6 2 7 3 8 4 9 5 4 6 3 7 2 8 1 9
REMARK H PARENT
REMARK Flexibility Score: inf
ROOT
ATOM      1  C   UNL     1      61.631  28.876  24.614  1.00  0.00     0.006 C 
ENDROOT
BRANCH   1   2
ATOM      2  C   UNL     1      60.768  27.897  25.420  1.00  0.00     0.053 C 
BRANCH   2   3
ATOM      3  C   UNL     1      61.318  27.732  26.802  1.00  0.00     0.041 C 
ATOM      4  O   UNL     1      62.028  26.732  27.085  1.00  0.00    -0.550 OA
ATOM      5  O   UNL     1      61.089  28.708  27.763  1.00  0.00    -0.550 OA
ENDBRANCH   2   3
ENDBRANCH   1   2
BRANCH   1   6
ATOM      6  C   UNL     1      62.762  28.175  23.845  1.00  0.00     0.000 C 
BRANCH   6   7
ATOM      7  C   UNL     1      64.158  28.562  24.366  1.00  0.00    -0.000 C 
BRANCH   7   8
ATOM      8  C   UNL     1      64.883  27.385  25.037  1.00  0.00    -0.003 C 
ATOM      9  C   UNL     1      64.491  26.031  24.445  1.00  0.00     0.004 C 
ENDBRANCH   7   8
ENDBRANCH   6   7
ENDBRANCH   1   6
TORSDOF 5
ENDMDL
MODEL 9
REMARK VINA RESULT:    -3.626     15.221     16.711
REMARK INTER + INTRA:          -5.020
REMARK INTER:                  -4.637
REMARK INTRA:                  -0.383
REMARK UNBOUND:                -0.334
REMARK SMILES CCCCCCC(=O)[O-]
REMARK SMILES IDX 5 1 6 2 7 3 8 4 9 5 4 6 3 7 2 8 1 9
REMARK H PARENT
REMARK Flexibility Score: inf
ROOT
ATOM      1  C   UNL     1      62.446  29.767  11.249  1.00  0.00     0.006 C 
ENDROOT
BRANCH   1   2
ATOM      2  C   UNL     1      62.612  28.989   9.937  1.00  0.00     0.053 C 
BRANCH   2   3
ATOM      3  C   UNL     1      61.282  28.778   9.285  1.00  0.00     0.041 C 
ATOM      4  O   UNL     1      60.523  29.757   9.062  1.00  0.00    -0.550 OA
ATOM      5  O   UNL     1      60.901  27.505   8.877  1.00  0.00    -0.550 OA
ENDBRANCH   2   3
ENDBRANCH   1   2
BRANCH   1   6
ATOM      6  C   UNL     1      62.644  28.883  12.491  1.00  0.00     0.000 C 
BRANCH   6   7
ATOM      7  C   UNL     1      61.435  28.922  13.442  1.00  0.00    -0.000 C 
BRANCH   7   8
ATOM      8  C   UNL     1      60.152  29.400  12.743  1.00  0.00    -0.003 C 
ATOM      9  C   UNL     1      59.195  28.255  12.411  1.00  0.00     0.004 C 
ENDBRANCH   7   8
ENDBRANCH   6   7
ENDBRANCH   1   6
TORSDOF 5
ENDMDL
