MODEL 1
REMARK VINA RESULT:    -3.725      0.000      0.000
REMARK INTER + INTRA:          -4.496
REMARK INTER:                  -4.487
REMARK INTRA:                  -0.009
REMARK UNBOUND:                -0.009
REMARK SMILES CCCCCO
REMARK SMILES IDX 4 1 3 2 2 3 1 4 5 5 6 6
REMARK H PARENT 6 7
REMARK Flexibility Score: inf
ROOT
ATOM      1  C   UNL     1     -33.315 -22.375  27.924  1.00  0.00     0.028 C 
ENDROOT
BRANCH   1   2
ATOM      2  C   UNL     1     -33.411 -20.870  28.230  1.00  0.00     0.002 C 
BRANCH   2   3
ATOM      3  C   UNL     1     -32.483 -20.380  29.355  1.00  0.00    -0.003 C 
ATOM      4  C   UNL     1     -32.290 -18.864  29.353  1.00  0.00     0.004 C 
ENDBRANCH   2   3
ENDBRANCH   1   2
BRANCH   1   5
ATOM      5  C   UNL     1     -33.120 -22.671  26.431  1.00  0.00     0.156 C 
BRANCH   5   6
ATOM      6  O   UNL     1     -34.322 -22.469  25.739  1.00  0.00    -0.396 OA
ATOM      7  H   UNL     1     -34.472 -21.488  25.710  1.00  0.00     0.210 HD
ENDBRANCH   5   6
ENDBRANCH   1   5
TORSDOF 4
ENDMDL
MODEL 2
REMARK VINA RESULT:    -3.678      1.282      1.299
REMARK INTER + INTRA:          -4.439
REMARK INTER:                  -4.429
REMARK INTRA:                  -0.010
REMARK UNBOUND:                -0.009
REMARK SMILES CCCCCO
REMARK SMILES IDX 4 1 3 2 2 3 1 4 5 5 6 6
REMARK H PARENT 6 7
REMARK Flexibility Score: inf
ROOT
ATOM      1  C   UNL     1     -33.121 -21.873  27.469  1.00  0.00     0.028 C 
ENDROOT
BRANCH   1   2
ATOM      2  C   UNL     1     -33.478 -20.946  28.645  1.00  0.00     0.002 C 
BRANCH   2   3
ATOM      3  C   UNL     1     -32.270 -20.339  29.378  1.00  0.00    -0.003 C 
ATOM      4  C   UNL     1     -32.300 -18.812  29.418  1.00  0.00     0.004 C 
ENDBRANCH   2   3
ENDBRANCH   1   2
BRANCH   1   5
ATOM      5  C   UNL     1     -33.943 -23.169  27.457  1.00  0.00     0.156 C 
BRANCH   5   6
ATOM      6  O   UNL     1     -33.092 -24.278  27.361  1.00  0.00    -0.396 OA
ATOM      7  H   UNL     1     -32.163 -23.928  27.395  1.00  0.00     0.210 HD
ENDBRANCH   5   6
ENDBRANCH   1   5
TORSDOF 4
ENDMDL
MODEL 3
REMARK VINA RESULT:    -3.623      1.207      1.864
REMARK INTER + INTRA:          -4.374
REMARK INTER:                  -4.355
REMARK INTRA:                  -0.019
REMARK UNBOUND:                -0.009
REMARK SMILES CCCCCO
REMARK SMILES IDX 4 1 3 2 2 3 1 4 5 5 6 6
REMARK H PARENT 6 7
REMARK Flexibility Score: inf
ROOT
ATOM      1  C   UNL     1     -33.363 -20.464  28.259  1.00  0.00     0.028 C 
ENDROOT
BRANCH   1   2
ATOM      2  C   UNL     1     -32.419 -20.054  29.403  1.00  0.00     0.002 C 
BRANCH   2   3
ATOM      3  C   UNL     1     -32.223 -18.537  29.566  1.00  0.00    -0.003 C 
ATOM      4  C   UNL     1     -32.579 -17.749  28.306  1.00  0.00     0.004 C 
ENDBRANCH   2   3
ENDBRANCH   1   2
BRANCH   1   5
ATOM      5  C   UNL     1     -33.399 -21.980  28.026  1.00  0.00     0.156 C 
BRANCH   5   6
ATOM      6  O   UNL     1     -34.725 -22.424  27.946  1.00  0.00    -0.396 OA
ATOM      7  H   UNL     1     -35.000 -22.332  26.996  1.00  0.00     0.210 HD
ENDBRANCH   5   6
ENDBRANCH   1   5
TORSDOF 4
ENDMDL
MODEL 4
REMARK VINA RESULT:    -3.147      2.576      4.095
REMARK INTER + INTRA:          -3.800
REMARK INTER:                  -3.791
REMARK INTRA:                  -0.009
REMARK UNBOUND:                -0.009
REMARK SMILES CCCCCO
REMARK SMILES IDX 4 1 3 2 2 3 1 4 5 5 6 6
REMARK H PARENT 6 7
REMARK Flexibility Score: inf
ROOT
ATOM      1  C   UNL     1     -32.477 -20.576  29.368  1.00  0.00     0.028 C 
ENDROOT
BRANCH   1   2
ATOM      2  C   UNL     1     -33.412 -21.103  28.265  1.00  0.00     0.002 C 
BRANCH   2   3
ATOM      3  C   UNL     1     -33.063 -22.507  27.740  1.00  0.00    -0.003 C 
ATOM      4  C   UNL     1     -33.320 -22.667  26.242  1.00  0.00     0.004 C 
ENDBRANCH   2   3
ENDBRANCH   1   2
BRANCH   1   5
ATOM      5  C   UNL     1     -32.358 -19.046  29.371  1.00  0.00     0.156 C 
BRANCH   5   6
ATOM      6  O   UNL     1     -31.015 -18.667  29.496  1.00  0.00    -0.396 OA
ATOM      7  H   UNL     1     -30.810 -18.662  30.467  1.00  0.00     0.210 HD
ENDBRANCH   5   6
ENDBRANCH   1   5
TORSDOF 4
ENDMDL
MODEL 5
REMARK VINA RESULT:    -3.056     11.411     12.297
REMARK INTER + INTRA:          -3.690
REMARK INTER:                  -3.661
REMARK INTRA:                  -0.029
REMARK UNBOUND:                -0.009
REMARK SMILES CCCCCO
REMARK SMILES IDX 4 1 3 2 2 3 1 4 5 5 6 6
REMARK H PARENT 6 7
REMARK Flexibility Score: inf
ROOT
ATOM      1  C   UNL     1     -23.024 -26.447  26.892  1.00  0.00     0.028 C 
ENDROOT
BRANCH   1   2
ATOM      2  C   UNL     1     -22.432 -27.854  26.694  1.00  0.00     0.002 C 
BRANCH   2   3
ATOM      3  C   UNL     1     -23.347 -29.008  27.140  1.00  0.00    -0.003 C 
ATOM      4  C   UNL     1     -23.597 -30.035  26.036  1.00  0.00     0.004 C 
ENDBRANCH   2   3
ENDBRANCH   1   2
BRANCH   1   5
ATOM      5  C   UNL     1     -22.846 -25.545  25.664  1.00  0.00     0.156 C 
BRANCH   5   6
ATOM      6  O   UNL     1     -23.797 -25.867  24.687  1.00  0.00    -0.396 OA
ATOM      7  H   UNL     1     -23.862 -25.082  24.083  1.00  0.00     0.210 HD
ENDBRANCH   5   6
ENDBRANCH   1   5
TORSDOF 4
ENDMDL
MODEL 6
REMARK VINA RESULT:    -3.005     12.361     13.295
REMARK INTER + INTRA:          -3.629
REMARK INTER:                  -3.610
REMARK INTRA:                  -0.019
REMARK UNBOUND:                -0.009
REMARK SMILES CCCCCO
REMARK SMILES IDX 4 1 3 2 2 3 1 4 5 5 6 6
REMARK H PARENT 6 7
REMARK Flexibility Score: inf
ROOT
ATOM      1  C   UNL     1     -22.822 -28.425  27.214  1.00  0.00     0.028 C 
ENDROOT
BRANCH   1   2
ATOM      2  C   UNL     1     -23.605 -29.641  26.688  1.00  0.00     0.002 C 
BRANCH   2   3
ATOM      3  C   UNL     1     -23.321 -30.006  25.221  1.00  0.00    -0.003 C 
ATOM      4  C   UNL     1     -23.454 -31.503  24.941  1.00  0.00     0.004 C 
ENDBRANCH   2   3
ENDBRANCH   1   2
BRANCH   1   5
ATOM      5  C   UNL     1     -22.675 -27.310  26.170  1.00  0.00     0.156 C 
BRANCH   5   6
ATOM      6  O   UNL     1     -22.408 -26.089  26.804  1.00  0.00    -0.396 OA
ATOM      7  H   UNL     1     -21.734 -25.620  26.246  1.00  0.00     0.210 HD
ENDBRANCH   5   6
ENDBRANCH   1   5
TORSDOF 4
ENDMDL
MODEL 7
REMARK VINA RESULT:    -2.954     11.684     12.192
REMARK INTER + INTRA:          -3.567
REMARK INTER:                  -3.540
REMARK INTRA:                  -0.027
REMARK UNBOUND:                -0.009
REMARK SMILES CCCCCO
REMARK SMILES IDX 4 1 3 2 2 3 1 4 5 5 6 6
REMARK H PARENT 6 7
REMARK Flexibility Score: inf
ROOT
ATOM      1  C   UNL     1     -23.388 -28.613  27.213  1.00  0.00     0.028 C 
ENDROOT
BRANCH   1   2
ATOM      2  C   UNL     1     -22.479 -27.572  26.536  1.00  0.00     0.002 C 
BRANCH   2   3
ATOM      3  C   UNL     1     -23.028 -26.135  26.542  1.00  0.00    -0.003 C 
ATOM      4  C   UNL     1     -22.326 -25.232  27.556  1.00  0.00     0.004 C 
ENDBRANCH   2   3
ENDBRANCH   1   2
BRANCH   1   5
ATOM      5  C   UNL     1     -23.395 -29.965  26.487  1.00  0.00     0.156 C 
BRANCH   5   6
ATOM      6  O   UNL     1     -23.772 -29.791  25.149  1.00  0.00    -0.396 OA
ATOM      7  H   UNL     1     -23.769 -28.813  24.977  1.00  0.00     0.210 HD
ENDBRANCH   5   6
ENDBRANCH   1   5
TORSDOF 4
ENDMDL
MODEL 8
REMARK VINA RESULT:    -2.877     12.044     12.668
REMARK INTER + INTRA:          -3.474
REMARK INTER:                  -3.438
REMARK INTRA:                  -0.036
REMARK UNBOUND:                -0.009
REMARK SMILES CCCCCO
REMARK SMILES IDX 4 1 3 2 2 3 1 4 5 5 6 6
REMARK H PARENT 6 7
REMARK Flexibility Score: inf
ROOT
ATOM      1  C   UNL     1     -23.400 -29.837  26.822  1.00  0.00     0.028 C 
ENDROOT
BRANCH   1   2
ATOM      2  C   UNL     1     -22.999 -28.464  27.390  1.00  0.00     0.002 C 
BRANCH   2   3
ATOM      3  C   UNL     1     -22.532 -27.442  26.339  1.00  0.00    -0.003 C 
ATOM      4  C   UNL     1     -22.863 -25.999  26.720  1.00  0.00     0.004 C 
ENDBRANCH   2   3
ENDBRANCH   1   2
BRANCH   1   5
ATOM      5  C   UNL     1     -23.376 -29.881  25.289  1.00  0.00     0.156 C 
BRANCH   5   6
ATOM      6  O   UNL     1     -23.752 -31.153  24.837  1.00  0.00    -0.396 OA
ATOM      7  H   UNL     1     -23.521 -31.193  23.873  1.00  0.00     0.210 HD
ENDBRANCH   5   6
ENDBRANCH   1   5
TORSDOF 4
ENDMDL
MODEL 9
REMARK VINA RESULT:    -2.808      3.007      3.796
REMARK INTER + INTRA:          -3.392
REMARK INTER:                  -3.420
REMARK INTRA:                   0.029
REMARK UNBOUND:                -0.009
REMARK SMILES CCCCCO
REMARK SMILES IDX 4 1 3 2 2 3 1 4 5 5 6 6
REMARK H PARENT 6 7
REMARK Flexibility Score: inf
ROOT
ATOM      1  C   UNL     1     -31.256 -18.993  29.379  1.00  0.00     0.028 C 
ENDROOT
BRANCH   1   2
ATOM      2  C   UNL     1     -32.371 -17.935  29.299  1.00  0.00     0.002 C 
BRANCH   2   3
ATOM      3  C   UNL     1     -32.737 -17.489  27.873  1.00  0.00    -0.003 C 
ATOM      4  C   UNL     1     -33.504 -18.554  27.091  1.00  0.00     0.004 C 
ENDBRANCH   2   3
ENDBRANCH   1   2
BRANCH   1   5
ATOM      5  C   UNL     1     -31.794 -20.430  29.388  1.00  0.00     0.156 C 
BRANCH   5   6
ATOM      6  O   UNL     1     -32.979 -20.496  30.132  1.00  0.00    -0.396 OA
ATOM      7  H   UNL     1     -33.192 -19.567  30.412  1.00  0.00     0.210 HD
ENDBRANCH   5   6
ENDBRANCH   1   5
TORSDOF 4
ENDMDL
