MODEL 1
REMARK VINA RESULT:    -7.940      0.000      0.000
REMARK INTER + INTRA:         -12.733
REMARK INTER:                 -10.958
REMARK INTRA:                  -1.775
REMARK UNBOUND:                -1.775
REMARK SMILES CC[C@@H](CC[C@H](C)[C@H]1CC[C@H]2[C@@H]3CC=C4C[C@H](O)CC[C@@]4(C)[C@H]3CC[C@]12C)C(C)C
REMARK SMILES IDX 5 1 4 2 3 3 2 4 1 5 28 6 29 7 30 8 6 9 7 10 8 11 9 12 26 13
REMARK SMILES IDX 10 14 11 15 25 16 27 17 12 18 24 19 23 20 13 21 21 22 14 23
REMARK SMILES IDX 15 24 20 25 22 26 16 27 19 28 17 29 18 30
REMARK H PARENT 18 31
REMARK Flexibility Score: inf
ROOT
ATOM      1  C   UNL     1     261.788 -25.926  60.007  1.00  0.00     0.004 C 
ENDROOT
BRANCH   1   2
ATOM      2  C   UNL     1     261.312 -27.389  59.942  1.00  0.00     0.004 C 
BRANCH   2   3
ATOM      3  C   UNL     1     259.840 -27.533  59.462  1.00  0.00    -0.009 C 
BRANCH   3   4
ATOM      4  C   UNL     1     258.930 -28.254  60.502  1.00  0.00     0.000 C 
ATOM      5  C   UNL     1     259.532 -28.475  61.891  1.00  0.00     0.004 C 
ENDBRANCH   3   4
BRANCH   3   6
ATOM      6  C   UNL     1     259.751 -28.060  57.991  1.00  0.00    -0.014 C 
ATOM      7  C   UNL     1     260.062 -27.020  56.894  1.00  0.00     0.007 C 
ATOM      8  C   UNL     1     260.578 -29.338  57.773  1.00  0.00     0.007 C 
ENDBRANCH   3   6
ENDBRANCH   2   3
ENDBRANCH   1   2
BRANCH   1   9
ATOM      9  C   UNL     1     263.253 -25.768  59.512  1.00  0.00    -0.011 C 
ATOM     10  C   UNL     1     263.697 -24.313  59.784  1.00  0.00     0.008 C 
BRANCH   9  11
ATOM     11  C   UNL     1     263.396 -26.151  57.992  1.00  0.00    -0.002 C 
ATOM     12  C   UNL     1     263.744 -24.941  57.076  1.00  0.00     0.005 C 
ATOM     13  C   UNL     1     264.477 -27.213  57.593  1.00  0.00    -0.026 C 
ATOM     14  C   UNL     1     264.556 -25.485  55.893  1.00  0.00     0.005 C 
ATOM     15  C   UNL     1     264.509 -26.993  56.070  1.00  0.00    -0.001 C 
ATOM     16  C   UNL     1     264.106 -28.699  57.823  1.00  0.00     0.007 C 
ATOM     17  C   UNL     1     265.841 -26.897  58.288  1.00  0.00     0.012 C 
ATOM     18  C   UNL     1     265.564 -27.843  55.327  1.00  0.00     0.000 C 
ATOM     19  C   UNL     1     265.098 -29.652  57.111  1.00  0.00     0.005 C 
ATOM     20  C   UNL     1     265.280 -29.349  55.589  1.00  0.00     0.003 C 
ATOM     21  C   UNL     1     265.470 -27.594  53.815  1.00  0.00     0.031 C 
ATOM     22  C   UNL     1     266.324 -30.288  54.854  1.00  0.00    -0.008 C 
ATOM     23  C   UNL     1     266.407 -28.482  53.061  1.00  0.00    -0.027 C 
ATOM     24  C   UNL     1     266.760 -29.714  53.488  1.00  0.00    -0.065 C 
ATOM     25  C   UNL     1     267.621 -30.481  55.705  1.00  0.00     0.014 C 
ATOM     26  C   UNL     1     265.647 -31.665  54.622  1.00  0.00     0.016 C 
ATOM     27  C   UNL     1     267.845 -30.450  52.729  1.00  0.00     0.063 C 
ATOM     28  C   UNL     1     268.761 -31.213  54.966  1.00  0.00     0.033 C 
ATOM     29  C   UNL     1     269.093 -30.548  53.619  1.00  0.00     0.118 C 
BRANCH  29  30
ATOM     30  O   UNL     1     270.125 -31.246  52.965  1.00  0.00    -0.393 OA
ATOM     31  H   UNL     1     270.724 -31.626  53.659  1.00  0.00     0.210 HD
ENDBRANCH  29  30
ENDBRANCH   9  11
ENDBRANCH   1   9
TORSDOF 7
ENDMDL
MODEL 2
REMARK VINA RESULT:    -7.928     12.489     15.347
REMARK INTER + INTRA:         -12.716
REMARK INTER:                 -11.291
REMARK INTRA:                  -1.425
REMARK UNBOUND:                -1.775
REMARK SMILES CC[C@@H](CC[C@H](C)[C@H]1CC[C@H]2[C@@H]3CC=C4C[C@H](O)CC[C@@]4(C)[C@H]3CC[C@]12C)C(C)C
REMARK SMILES IDX 5 1 4 2 3 3 2 4 1 5 28 6 29 7 30 8 6 9 7 10 8 11 9 12 26 13
REMARK SMILES IDX 10 14 11 15 25 16 27 17 12 18 24 19 23 20 13 21 21 22 14 23
REMARK SMILES IDX 15 24 20 25 22 26 16 27 19 28 17 29 18 30
REMARK H PARENT 18 31
REMARK Flexibility Score: inf
ROOT
ATOM      1  C   UNL     1     251.115 -23.242  52.743  1.00  0.00     0.004 C 
ENDROOT
BRANCH   1   2
ATOM      2  C   UNL     1     251.974 -24.518  52.671  1.00  0.00     0.004 C 
BRANCH   2   3
ATOM      3  C   UNL     1     253.423 -24.310  53.196  1.00  0.00    -0.009 C 
BRANCH   3   4
ATOM      4  C   UNL     1     254.502 -24.474  52.083  1.00  0.00     0.000 C 
ATOM      5  C   UNL     1     254.435 -25.763  51.260  1.00  0.00     0.004 C 
ENDBRANCH   3   4
BRANCH   3   6
ATOM      6  C   UNL     1     253.684 -25.095  54.524  1.00  0.00    -0.014 C 
ATOM      7  C   UNL     1     252.836 -24.650  55.735  1.00  0.00     0.007 C 
ATOM      8  C   UNL     1     253.596 -26.618  54.335  1.00  0.00     0.007 C 
ENDBRANCH   3   6
ENDBRANCH   2   3
ENDBRANCH   1   2
BRANCH   1   9
ATOM      9  C   UNL     1     251.700 -22.097  51.870  1.00  0.00    -0.011 C 
ATOM     10  C   UNL     1     251.343 -20.752  52.542  1.00  0.00     0.008 C 
BRANCH   9  11
ATOM     11  C   UNL     1     251.176 -22.170  50.388  1.00  0.00    -0.002 C 
ATOM     12  C   UNL     1     250.891 -20.775  49.759  1.00  0.00     0.005 C 
ATOM     13  C   UNL     1     252.086 -22.858  49.313  1.00  0.00    -0.026 C 
ATOM     14  C   UNL     1     251.130 -20.899  48.249  1.00  0.00     0.005 C 
ATOM     15  C   UNL     1     251.380 -22.382  48.031  1.00  0.00    -0.001 C 
ATOM     16  C   UNL     1     252.072 -24.407  49.282  1.00  0.00     0.007 C 
ATOM     17  C   UNL     1     253.558 -22.347  49.430  1.00  0.00     0.012 C 
ATOM     18  C   UNL     1     252.078 -22.815  46.722  1.00  0.00     0.000 C 
ATOM     19  C   UNL     1     252.743 -24.958  48.000  1.00  0.00     0.005 C 
ATOM     20  C   UNL     1     252.158 -24.366  46.678  1.00  0.00     0.003 C 
ATOM     21  C   UNL     1     251.262 -22.342  45.510  1.00  0.00     0.031 C 
ATOM     22  C   UNL     1     252.863 -24.889  45.357  1.00  0.00    -0.008 C 
ATOM     23  C   UNL     1     251.857 -22.838  44.231  1.00  0.00    -0.027 C 
ATOM     24  C   UNL     1     252.533 -24.003  44.135  1.00  0.00    -0.065 C 
ATOM     25  C   UNL     1     254.419 -24.906  45.506  1.00  0.00     0.014 C 
ATOM     26  C   UNL     1     252.353 -26.328  45.081  1.00  0.00     0.016 C 
ATOM     27  C   UNL     1     253.235 -24.317  42.830  1.00  0.00     0.063 C 
ATOM     28  C   UNL     1     255.177 -25.205  44.195  1.00  0.00     0.033 C 
ATOM     29  C   UNL     1     254.754 -24.262  43.057  1.00  0.00     0.118 C 
BRANCH  29  30
ATOM     30  O   UNL     1     255.451 -24.570  41.875  1.00  0.00    -0.393 OA
ATOM     31  H   UNL     1     256.390 -24.783  42.121  1.00  0.00     0.210 HD
ENDBRANCH  29  30
ENDBRANCH   9  11
ENDBRANCH   1   9
TORSDOF 7
ENDMDL
MODEL 3
REMARK VINA RESULT:    -7.554      7.194     12.493
REMARK INTER + INTRA:         -12.199
REMARK INTER:                  -9.909
REMARK INTRA:                  -2.290
REMARK UNBOUND:                -1.775
REMARK SMILES CC[C@@H](CC[C@H](C)[C@H]1CC[C@H]2[C@@H]3CC=C4C[C@H](O)CC[C@@]4(C)[C@H]3CC[C@]12C)C(C)C
REMARK SMILES IDX 5 1 4 2 3 3 2 4 1 5 28 6 29 7 30 8 6 9 7 10 8 11 9 12 26 13
REMARK SMILES IDX 10 14 11 15 25 16 27 17 12 18 24 19 23 20 13 21 21 22 14 23
REMARK SMILES IDX 15 24 20 25 22 26 16 27 19 28 17 29 18 30
REMARK H PARENT 18 31
REMARK Flexibility Score: inf
ROOT
ATOM      1  C   UNL     1     265.959 -34.291  44.672  1.00  0.00     0.004 C 
ENDROOT
BRANCH   1   2
ATOM      2  C   UNL     1     265.885 -32.906  44.002  1.00  0.00     0.004 C 
BRANCH   2   3
ATOM      3  C   UNL     1     266.971 -31.919  44.516  1.00  0.00    -0.009 C 
BRANCH   3   4
ATOM      4  C   UNL     1     266.384 -30.774  45.396  1.00  0.00     0.000 C 
ATOM      5  C   UNL     1     267.322 -30.180  46.449  1.00  0.00     0.004 C 
ENDBRANCH   3   4
BRANCH   3   6
ATOM      6  C   UNL     1     267.947 -31.476  43.377  1.00  0.00    -0.014 C 
ATOM      7  C   UNL     1     269.450 -31.608  43.703  1.00  0.00     0.007 C 
ATOM      8  C   UNL     1     267.626 -32.148  42.032  1.00  0.00     0.007 C 
ENDBRANCH   3   6
ENDBRANCH   2   3
ENDBRANCH   1   2
BRANCH   1   9
ATOM      9  C   UNL     1     267.370 -34.579  45.256  1.00  0.00    -0.011 C 
ATOM     10  C   UNL     1     268.087 -35.571  44.313  1.00  0.00     0.008 C 
BRANCH   9  11
ATOM     11  C   UNL     1     267.286 -35.127  46.729  1.00  0.00    -0.002 C 
ATOM     12  C   UNL     1     268.250 -36.319  47.005  1.00  0.00     0.005 C 
ATOM     13  C   UNL     1     267.604 -34.142  47.907  1.00  0.00    -0.026 C 
ATOM     14  C   UNL     1     268.633 -36.260  48.490  1.00  0.00     0.005 C 
ATOM     15  C   UNL     1     267.761 -35.152  49.057  1.00  0.00    -0.001 C 
ATOM     16  C   UNL     1     266.474 -33.167  48.318  1.00  0.00     0.007 C 
ATOM     17  C   UNL     1     268.912 -33.338  47.612  1.00  0.00     0.012 C 
ATOM     18  C   UNL     1     268.176 -34.521  50.406  1.00  0.00     0.000 C 
ATOM     19  C   UNL     1     266.779 -32.477  49.671  1.00  0.00     0.005 C 
ATOM     20  C   UNL     1     267.107 -33.474  50.827  1.00  0.00     0.003 C 
ATOM     21  C   UNL     1     268.244 -35.603  51.493  1.00  0.00     0.031 C 
ATOM     22  C   UNL     1     267.463 -32.783  52.208  1.00  0.00    -0.008 C 
ATOM     23  C   UNL     1     268.539 -35.005  52.831  1.00  0.00    -0.027 C 
ATOM     24  C   UNL     1     268.151 -33.761  53.186  1.00  0.00    -0.065 C 
ATOM     25  C   UNL     1     268.433 -31.573  52.010  1.00  0.00     0.014 C 
ATOM     26  C   UNL     1     266.140 -32.287  52.850  1.00  0.00     0.016 C 
ATOM     27  C   UNL     1     268.654 -33.203  54.501  1.00  0.00     0.063 C 
ATOM     28  C   UNL     1     268.985 -30.982  53.325  1.00  0.00     0.033 C 
ATOM     29  C   UNL     1     269.637 -32.058  54.211  1.00  0.00     0.118 C 
BRANCH  29  30
ATOM     30  O   UNL     1     270.116 -31.490  55.406  1.00  0.00    -0.393 OA
ATOM     31  H   UNL     1     270.400 -30.559  55.209  1.00  0.00     0.210 HD
ENDBRANCH  29  30
ENDBRANCH   9  11
ENDBRANCH   1   9
TORSDOF 7
ENDMDL
MODEL 4
REMARK VINA RESULT:    -7.307      1.607      3.226
REMARK INTER + INTRA:         -11.859
REMARK INTER:                 -11.386
REMARK INTRA:                  -0.473
REMARK UNBOUND:                -1.775
REMARK SMILES CC[C@@H](CC[C@H](C)[C@H]1CC[C@H]2[C@@H]3CC=C4C[C@H](O)CC[C@@]4(C)[C@H]3CC[C@]12C)C(C)C
REMARK SMILES IDX 5 1 4 2 3 3 2 4 1 5 28 6 29 7 30 8 6 9 7 10 8 11 9 12 26 13
REMARK SMILES IDX 10 14 11 15 25 16 27 17 12 18 24 19 23 20 13 21 21 22 14 23
REMARK SMILES IDX 15 24 20 25 22 26 16 27 19 28 17 29 18 30
REMARK H PARENT 18 31
REMARK Flexibility Score: inf
ROOT
ATOM      1  C   UNL     1     262.404 -26.402  58.758  1.00  0.00     0.004 C 
ENDROOT
BRANCH   1   2
ATOM      2  C   UNL     1     261.019 -26.901  58.307  1.00  0.00     0.004 C 
BRANCH   2   3
ATOM      3  C   UNL     1     260.622 -28.263  58.943  1.00  0.00    -0.009 C 
BRANCH   3   4
ATOM      4  C   UNL     1     260.348 -29.372  57.882  1.00  0.00     0.000 C 
ATOM      5  C   UNL     1     259.902 -28.891  56.499  1.00  0.00     0.004 C 
ENDBRANCH   3   4
BRANCH   3   6
ATOM      6  C   UNL     1     259.535 -28.097  60.056  1.00  0.00    -0.014 C 
ATOM      7  C   UNL     1     258.135 -28.641  59.701  1.00  0.00     0.007 C 
ATOM      8  C   UNL     1     259.997 -28.644  61.417  1.00  0.00     0.007 C 
ENDBRANCH   3   6
ENDBRANCH   2   3
ENDBRANCH   1   2
BRANCH   1   9
ATOM      9  C   UNL     1     263.264 -25.913  57.560  1.00  0.00    -0.011 C 
ATOM     10  C   UNL     1     262.397 -25.992  56.283  1.00  0.00     0.008 C 
BRANCH   9  11
ATOM     11  C   UNL     1     264.591 -26.748  57.419  1.00  0.00    -0.002 C 
ATOM     12  C   UNL     1     264.901 -27.638  58.659  1.00  0.00     0.005 C 
ATOM     13  C   UNL     1     264.709 -27.759  56.227  1.00  0.00    -0.026 C 
ATOM     14  C   UNL     1     265.676 -28.863  58.158  1.00  0.00     0.005 C 
ATOM     15  C   UNL     1     265.934 -28.567  56.690  1.00  0.00    -0.001 C 
ATOM     16  C   UNL     1     265.065 -27.160  54.844  1.00  0.00     0.007 C 
ATOM     17  C   UNL     1     263.412 -28.623  56.108  1.00  0.00     0.012 C 
ATOM     18  C   UNL     1     266.303 -29.749  55.765  1.00  0.00     0.000 C 
ATOM     19  C   UNL     1     265.462 -28.260  53.829  1.00  0.00     0.005 C 
ATOM     20  C   UNL     1     266.596 -29.206  54.339  1.00  0.00     0.003 C 
ATOM     21  C   UNL     1     267.569 -30.446  56.283  1.00  0.00     0.031 C 
ATOM     22  C   UNL     1     266.986 -30.365  53.330  1.00  0.00    -0.008 C 
ATOM     23  C   UNL     1     268.009 -31.528  55.350  1.00  0.00    -0.027 C 
ATOM     24  C   UNL     1     267.802 -31.483  54.017  1.00  0.00    -0.065 C 
ATOM     25  C   UNL     1     265.717 -31.037  52.711  1.00  0.00     0.014 C 
ATOM     26  C   UNL     1     267.847 -29.744  52.198  1.00  0.00     0.016 C 
ATOM     27  C   UNL     1     268.140 -32.711  53.198  1.00  0.00     0.063 C 
ATOM     28  C   UNL     1     266.013 -32.305  51.881  1.00  0.00     0.033 C 
ATOM     29  C   UNL     1     266.836 -33.333  52.674  1.00  0.00     0.118 C 
BRANCH  29  30
ATOM     30  O   UNL     1     267.100 -34.468  51.886  1.00  0.00    -0.393 OA
ATOM     31  H   UNL     1     266.988 -35.271  52.459  1.00  0.00     0.210 HD
ENDBRANCH  29  30
ENDBRANCH   9  11
ENDBRANCH   1   9
TORSDOF 7
ENDMDL
MODEL 5
REMARK VINA RESULT:    -7.176      5.564      9.965
REMARK INTER + INTRA:         -11.678
REMARK INTER:                  -9.703
REMARK INTRA:                  -1.975
REMARK UNBOUND:                -1.775
REMARK SMILES CC[C@@H](CC[C@H](C)[C@H]1CC[C@H]2[C@@H]3CC=C4C[C@H](O)CC[C@@]4(C)[C@H]3CC[C@]12C)C(C)C
REMARK SMILES IDX 5 1 4 2 3 3 2 4 1 5 28 6 29 7 30 8 6 9 7 10 8 11 9 12 26 13
REMARK SMILES IDX 10 14 11 15 25 16 27 17 12 18 24 19 23 20 13 21 21 22 14 23
REMARK SMILES IDX 15 24 20 25 22 26 16 27 19 28 17 29 18 30
REMARK H PARENT 18 31
REMARK Flexibility Score: inf
ROOT
ATOM      1  C   UNL     1     268.711 -29.985  53.016  1.00  0.00     0.004 C 
ENDROOT
BRANCH   1   2
ATOM      2  C   UNL     1     267.810 -28.759  52.780  1.00  0.00     0.004 C 
BRANCH   2   3
ATOM      3  C   UNL     1     266.656 -29.031  51.774  1.00  0.00    -0.009 C 
BRANCH   3   4
ATOM      4  C   UNL     1     266.773 -28.181  50.472  1.00  0.00     0.000 C 
ATOM      5  C   UNL     1     266.730 -28.954  49.152  1.00  0.00     0.004 C 
ENDBRANCH   3   4
BRANCH   3   6
ATOM      6  C   UNL     1     265.256 -29.028  52.471  1.00  0.00    -0.014 C 
ATOM      7  C   UNL     1     265.270 -28.725  53.984  1.00  0.00     0.007 C 
ATOM      8  C   UNL     1     264.241 -28.125  51.750  1.00  0.00     0.007 C 
ENDBRANCH   3   6
ENDBRANCH   2   3
ENDBRANCH   1   2
BRANCH   1   9
ATOM      9  C   UNL     1     267.884 -31.263  53.328  1.00  0.00    -0.011 C 
ATOM     10  C   UNL     1     267.893 -31.478  54.859  1.00  0.00     0.008 C 
BRANCH   9  11
ATOM     11  C   UNL     1     268.440 -32.517  52.557  1.00  0.00    -0.002 C 
ATOM     12  C   UNL     1     268.142 -33.869  53.270  1.00  0.00     0.005 C 
ATOM     13  C   UNL     1     267.932 -32.774  51.096  1.00  0.00    -0.026 C 
ATOM     14  C   UNL     1     268.026 -34.942  52.180  1.00  0.00     0.005 C 
ATOM     15  C   UNL     1     268.420 -34.221  50.902  1.00  0.00    -0.001 C 
ATOM     16  C   UNL     1     268.587 -31.928  49.976  1.00  0.00     0.007 C 
ATOM     17  C   UNL     1     266.378 -32.634  51.021  1.00  0.00     0.012 C 
ATOM     18  C   UNL     1     268.007 -34.856  49.554  1.00  0.00     0.000 C 
ATOM     19  C   UNL     1     268.247 -32.480  48.570  1.00  0.00     0.005 C 
ATOM     20  C   UNL     1     268.578 -33.997  48.392  1.00  0.00     0.003 C 
ATOM     21  C   UNL     1     268.593 -36.270  49.439  1.00  0.00     0.031 C 
ATOM     22  C   UNL     1     268.196 -34.589  46.971  1.00  0.00    -0.008 C 
ATOM     23  C   UNL     1     268.299 -36.869  48.100  1.00  0.00    -0.027 C 
ATOM     24  C   UNL     1     268.169 -36.133  46.975  1.00  0.00    -0.065 C 
ATOM     25  C   UNL     1     266.783 -34.106  46.509  1.00  0.00     0.014 C 
ATOM     26  C   UNL     1     269.265 -34.112  45.952  1.00  0.00     0.016 C 
ATOM     27  C   UNL     1     267.704 -36.832  45.714  1.00  0.00     0.063 C 
ATOM     28  C   UNL     1     266.260 -34.803  45.236  1.00  0.00     0.033 C 
ATOM     29  C   UNL     1     266.292 -36.336  45.365  1.00  0.00     0.118 C 
BRANCH  29  30
ATOM     30  O   UNL     1     265.824 -36.940  44.184  1.00  0.00    -0.393 OA
ATOM     31  H   UNL     1     265.485 -37.844  44.417  1.00  0.00     0.210 HD
ENDBRANCH  29  30
ENDBRANCH   9  11
ENDBRANCH   1   9
TORSDOF 7
ENDMDL
MODEL 6
REMARK VINA RESULT:    -7.097      3.104      8.235
REMARK INTER + INTRA:         -11.569
REMARK INTER:                 -10.713
REMARK INTRA:                  -0.856
REMARK UNBOUND:                -1.775
REMARK SMILES CC[C@@H](CC[C@H](C)[C@H]1CC[C@H]2[C@@H]3CC=C4C[C@H](O)CC[C@@]4(C)[C@H]3CC[C@]12C)C(C)C
REMARK SMILES IDX 5 1 4 2 3 3 2 4 1 5 28 6 29 7 30 8 6 9 7 10 8 11 9 12 26 13
REMARK SMILES IDX 10 14 11 15 25 16 27 17 12 18 24 19 23 20 13 21 21 22 14 23
REMARK SMILES IDX 15 24 20 25 22 26 16 27 19 28 17 29 18 30
REMARK H PARENT 18 31
REMARK Flexibility Score: inf
ROOT
ATOM      1  C   UNL     1     268.952 -31.992  53.343  1.00  0.00     0.004 C 
ENDROOT
BRANCH   1   2
ATOM      2  C   UNL     1     268.465 -33.410  53.694  1.00  0.00     0.004 C 
BRANCH   2   3
ATOM      3  C   UNL     1     267.323 -33.912  52.767  1.00  0.00    -0.009 C 
BRANCH   3   4
ATOM      4  C   UNL     1     267.480 -35.410  52.365  1.00  0.00     0.000 C 
ATOM      5  C   UNL     1     266.783 -36.430  53.269  1.00  0.00     0.004 C 
ENDBRANCH   3   4
BRANCH   3   6
ATOM      6  C   UNL     1     267.038 -32.915  51.594  1.00  0.00    -0.014 C 
ATOM      7  C   UNL     1     267.357 -33.446  50.181  1.00  0.00     0.007 C 
ATOM      8  C   UNL     1     265.614 -32.338  51.645  1.00  0.00     0.007 C 
ENDBRANCH   3   6
ENDBRANCH   2   3
ENDBRANCH   1   2
BRANCH   1   9
ATOM      9  C   UNL     1     269.070 -31.088  54.601  1.00  0.00    -0.011 C 
ATOM     10  C   UNL     1     268.708 -31.941  55.839  1.00  0.00     0.008 C 
BRANCH   9  11
ATOM     11  C   UNL     1     268.162 -29.809  54.484  1.00  0.00    -0.002 C 
ATOM     12  C   UNL     1     267.754 -29.467  53.021  1.00  0.00     0.005 C 
ATOM     13  C   UNL     1     266.789 -29.802  55.240  1.00  0.00    -0.026 C 
ATOM     14  C   UNL     1     266.386 -28.774  53.080  1.00  0.00     0.005 C 
ATOM     15  C   UNL     1     266.126 -28.588  54.565  1.00  0.00    -0.001 C 
ATOM     16  C   UNL     1     266.835 -29.500  56.759  1.00  0.00     0.007 C 
ATOM     17  C   UNL     1     266.018 -31.139  54.993  1.00  0.00     0.012 C 
ATOM     18  C   UNL     1     264.672 -28.323  55.020  1.00  0.00     0.000 C 
ATOM     19  C   UNL     1     265.425 -29.208  57.326  1.00  0.00     0.005 C 
ATOM     20  C   UNL     1     264.655 -28.089  56.556  1.00  0.00     0.003 C 
ATOM     21  C   UNL     1     264.130 -27.060  54.335  1.00  0.00     0.031 C 
ATOM     22  C   UNL     1     263.192 -27.806  57.098  1.00  0.00    -0.008 C 
ATOM     23  C   UNL     1     262.763 -26.720  54.836  1.00  0.00    -0.027 C 
ATOM     24  C   UNL     1     262.344 -27.001  56.088  1.00  0.00    -0.065 C 
ATOM     25  C   UNL     1     262.421 -29.136  57.387  1.00  0.00     0.014 C 
ATOM     26  C   UNL     1     263.318 -26.986  58.409  1.00  0.00     0.016 C 
ATOM     27  C   UNL     1     260.887 -26.762  56.426  1.00  0.00     0.063 C 
ATOM     28  C   UNL     1     260.926 -28.942  57.719  1.00  0.00     0.033 C 
ATOM     29  C   UNL     1     260.199 -28.119  56.642  1.00  0.00     0.118 C 
BRANCH  29  30
ATOM     30  O   UNL     1     258.845 -27.949  56.982  1.00  0.00    -0.393 OA
ATOM     31  H   UNL     1     258.689 -26.980  57.139  1.00  0.00     0.210 HD
ENDBRANCH  29  30
ENDBRANCH   9  11
ENDBRANCH   1   9
TORSDOF 7
ENDMDL
MODEL 7
REMARK VINA RESULT:    -7.026     12.833     15.575
REMARK INTER + INTRA:         -11.471
REMARK INTER:                 -10.350
REMARK INTRA:                  -1.121
REMARK UNBOUND:                -1.775
REMARK SMILES CC[C@@H](CC[C@H](C)[C@H]1CC[C@H]2[C@@H]3CC=C4C[C@H](O)CC[C@@]4(C)[C@H]3CC[C@]12C)C(C)C
REMARK SMILES IDX 5 1 4 2 3 3 2 4 1 5 28 6 29 7 30 8 6 9 7 10 8 11 9 12 26 13
REMARK SMILES IDX 10 14 11 15 25 16 27 17 12 18 24 19 23 20 13 21 21 22 14 23
REMARK SMILES IDX 15 24 20 25 22 26 16 27 19 28 17 29 18 30
REMARK H PARENT 18 31
REMARK Flexibility Score: inf
ROOT
ATOM      1  C   UNL     1     251.248 -22.497  53.410  1.00  0.00     0.004 C 
ENDROOT
BRANCH   1   2
ATOM      2  C   UNL     1     250.201 -22.628  54.532  1.00  0.00     0.004 C 
BRANCH   2   3
ATOM      3  C   UNL     1     250.083 -21.350  55.411  1.00  0.00    -0.009 C 
BRANCH   3   4
ATOM      4  C   UNL     1     250.911 -20.152  54.855  1.00  0.00     0.000 C 
ATOM      5  C   UNL     1     250.109 -18.995  54.254  1.00  0.00     0.004 C 
ENDBRANCH   3   4
BRANCH   3   6
ATOM      6  C   UNL     1     250.271 -21.665  56.932  1.00  0.00    -0.014 C 
ATOM      7  C   UNL     1     251.016 -22.979  57.249  1.00  0.00     0.007 C 
ATOM      8  C   UNL     1     250.895 -20.491  57.703  1.00  0.00     0.007 C 
ENDBRANCH   3   6
ENDBRANCH   2   3
ENDBRANCH   1   2
BRANCH   1   9
ATOM      9  C   UNL     1     251.848 -23.873  53.010  1.00  0.00    -0.011 C 
ATOM     10  C   UNL     1     252.555 -24.466  54.250  1.00  0.00     0.008 C 
BRANCH   9  11
ATOM     11  C   UNL     1     252.825 -23.746  51.783  1.00  0.00    -0.002 C 
ATOM     12  C   UNL     1     253.954 -24.819  51.772  1.00  0.00     0.005 C 
ATOM     13  C   UNL     1     252.222 -23.860  50.340  1.00  0.00    -0.026 C 
ATOM     14  C   UNL     1     254.317 -25.083  50.305  1.00  0.00     0.005 C 
ATOM     15  C   UNL     1     253.517 -24.048  49.531  1.00  0.00    -0.001 C 
ATOM     16  C   UNL     1     251.524 -22.596  49.780  1.00  0.00     0.007 C 
ATOM     17  C   UNL     1     251.253 -25.083  50.244  1.00  0.00     0.012 C 
ATOM     18  C   UNL     1     253.294 -24.286  48.020  1.00  0.00     0.000 C 
ATOM     19  C   UNL     1     251.256 -22.718  48.260  1.00  0.00     0.005 C 
ATOM     20  C   UNL     1     252.525 -23.075  47.423  1.00  0.00     0.003 C 
ATOM     21  C   UNL     1     254.645 -24.400  47.301  1.00  0.00     0.031 C 
ATOM     22  C   UNL     1     252.260 -23.245  45.869  1.00  0.00    -0.008 C 
ATOM     23  C   UNL     1     254.461 -24.524  45.822  1.00  0.00    -0.027 C 
ATOM     24  C   UNL     1     253.425 -23.969  45.158  1.00  0.00    -0.065 C 
ATOM     25  C   UNL     1     250.966 -24.080  45.597  1.00  0.00     0.014 C 
ATOM     26  C   UNL     1     252.103 -21.830  45.253  1.00  0.00     0.016 C 
ATOM     27  C   UNL     1     253.253 -24.305  43.691  1.00  0.00     0.063 C 
ATOM     28  C   UNL     1     250.759 -24.461  44.115  1.00  0.00     0.033 C 
ATOM     29  C   UNL     1     251.991 -25.166  43.524  1.00  0.00     0.118 C 
BRANCH  29  30
ATOM     30  O   UNL     1     251.775 -25.486  42.172  1.00  0.00    -0.393 OA
ATOM     31  H   UNL     1     252.611 -25.885  41.815  1.00  0.00     0.210 HD
ENDBRANCH  29  30
ENDBRANCH   9  11
ENDBRANCH   1   9
TORSDOF 7
ENDMDL
MODEL 8
REMARK VINA RESULT:    -6.960      2.999      8.040
REMARK INTER + INTRA:         -11.380
REMARK INTER:                  -9.340
REMARK INTRA:                  -2.039
REMARK UNBOUND:                -1.775
REMARK SMILES CC[C@@H](CC[C@H](C)[C@H]1CC[C@H]2[C@@H]3CC=C4C[C@H](O)CC[C@@]4(C)[C@H]3CC[C@]12C)C(C)C
REMARK SMILES IDX 5 1 4 2 3 3 2 4 1 5 28 6 29 7 30 8 6 9 7 10 8 11 9 12 26 13
REMARK SMILES IDX 10 14 11 15 25 16 27 17 12 18 24 19 23 20 13 21 21 22 14 23
REMARK SMILES IDX 15 24 20 25 22 26 16 27 19 28 17 29 18 30
REMARK H PARENT 18 31
REMARK Flexibility Score: inf
ROOT
ATOM      1  C   UNL     1     269.139 -29.124  53.099  1.00  0.00     0.004 C 
ENDROOT
BRANCH   1   2
ATOM      2  C   UNL     1     269.463 -30.568  53.525  1.00  0.00     0.004 C 
BRANCH   2   3
ATOM      3  C   UNL     1     268.221 -31.346  54.042  1.00  0.00    -0.009 C 
BRANCH   3   4
ATOM      4  C   UNL     1     268.207 -31.507  55.593  1.00  0.00     0.000 C 
ATOM      5  C   UNL     1     269.570 -31.673  56.269  1.00  0.00     0.004 C 
ENDBRANCH   3   4
BRANCH   3   6
ATOM      6  C   UNL     1     267.959 -32.649  53.216  1.00  0.00    -0.014 C 
ATOM      7  C   UNL     1     266.475 -33.039  53.047  1.00  0.00     0.007 C 
ATOM      8  C   UNL     1     268.672 -32.636  51.854  1.00  0.00     0.007 C 
ENDBRANCH   3   6
ENDBRANCH   2   3
ENDBRANCH   1   2
BRANCH   1   9
ATOM      9  C   UNL     1     267.870 -29.052  52.205  1.00  0.00    -0.011 C 
ATOM     10  C   UNL     1     268.322 -28.800  50.749  1.00  0.00     0.008 C 
BRANCH   9  11
ATOM     11  C   UNL     1     266.868 -27.948  52.708  1.00  0.00    -0.002 C 
ATOM     12  C   UNL     1     265.998 -27.333  51.572  1.00  0.00     0.005 C 
ATOM     13  C   UNL     1     265.802 -28.349  53.785  1.00  0.00    -0.026 C 
ATOM     14  C   UNL     1     264.664 -26.908  52.200  1.00  0.00     0.005 C 
ATOM     15  C   UNL     1     264.864 -27.132  53.689  1.00  0.00    -0.001 C 
ATOM     16  C   UNL     1     266.292 -28.420  55.253  1.00  0.00     0.007 C 
ATOM     17  C   UNL     1     265.106 -29.693  53.397  1.00  0.00     0.012 C 
ATOM     18  C   UNL     1     263.607 -27.226  54.584  1.00  0.00     0.000 C 
ATOM     19  C   UNL     1     265.109 -28.509  56.247  1.00  0.00     0.005 C 
ATOM     20  C   UNL     1     264.048 -27.377  56.066  1.00  0.00     0.003 C 
ATOM     21  C   UNL     1     262.776 -25.941  54.458  1.00  0.00     0.031 C 
ATOM     22  C   UNL     1     262.808 -27.477  57.049  1.00  0.00    -0.008 C 
ATOM     23  C   UNL     1     261.609 -25.959  55.394  1.00  0.00    -0.027 C 
ATOM     24  C   UNL     1     261.626 -26.600  56.582  1.00  0.00    -0.065 C 
ATOM     25  C   UNL     1     262.278 -28.944  57.156  1.00  0.00     0.014 C 
ATOM     26  C   UNL     1     263.267 -26.989  58.449  1.00  0.00     0.016 C 
ATOM     27  C   UNL     1     260.331 -26.691  57.363  1.00  0.00     0.063 C 
ATOM     28  C   UNL     1     260.950 -29.083  57.930  1.00  0.00     0.033 C 
ATOM     29  C   UNL     1     259.859 -28.153  57.372  1.00  0.00     0.118 C 
BRANCH  29  30
ATOM     30  O   UNL     1     258.668 -28.294  58.108  1.00  0.00    -0.393 OA
ATOM     31  H   UNL     1     258.912 -28.467  59.054  1.00  0.00     0.210 HD
ENDBRANCH  29  30
ENDBRANCH   9  11
ENDBRANCH   1   9
TORSDOF 7
ENDMDL
MODEL 9
REMARK VINA RESULT:    -6.928      3.412      8.888
REMARK INTER + INTRA:         -11.335
REMARK INTER:                 -11.029
REMARK INTRA:                  -0.307
REMARK UNBOUND:                -1.775
REMARK SMILES CC[C@@H](CC[C@H](C)[C@H]1CC[C@H]2[C@@H]3CC=C4C[C@H](O)CC[C@@]4(C)[C@H]3CC[C@]12C)C(C)C
REMARK SMILES IDX 5 1 4 2 3 3 2 4 1 5 28 6 29 7 30 8 6 9 7 10 8 11 9 12 26 13
REMARK SMILES IDX 10 14 11 15 25 16 27 17 12 18 24 19 23 20 13 21 21 22 14 23
REMARK SMILES IDX 15 24 20 25 22 26 16 27 19 28 17 29 18 30
REMARK H PARENT 18 31
REMARK Flexibility Score: inf
ROOT
ATOM      1  C   UNL     1     267.972 -32.994  53.424  1.00  0.00     0.004 C 
ENDROOT
BRANCH   1   2
ATOM      2  C   UNL     1     268.461 -33.526  52.064  1.00  0.00     0.004 C 
BRANCH   2   3
ATOM      3  C   UNL     1     268.717 -35.060  52.064  1.00  0.00    -0.009 C 
BRANCH   3   4
ATOM      4  C   UNL     1     268.342 -35.738  50.711  1.00  0.00     0.000 C 
ATOM      5  C   UNL     1     268.317 -34.827  49.481  1.00  0.00     0.004 C 
ENDBRANCH   3   4
BRANCH   3   6
ATOM      6  C   UNL     1     268.158 -35.749  53.353  1.00  0.00    -0.014 C 
ATOM      7  C   UNL     1     266.947 -36.680  53.134  1.00  0.00     0.007 C 
ATOM      8  C   UNL     1     269.252 -36.467  54.158  1.00  0.00     0.007 C 
ENDBRANCH   3   6
ENDBRANCH   2   3
ENDBRANCH   1   2
BRANCH   1   9
ATOM      9  C   UNL     1     269.045 -32.114  54.124  1.00  0.00    -0.011 C 
ATOM     10  C   UNL     1     269.407 -32.780  55.471  1.00  0.00     0.008 C 
BRANCH   9  11
ATOM     11  C   UNL     1     268.546 -30.634  54.317  1.00  0.00    -0.002 C 
ATOM     12  C   UNL     1     268.351 -29.863  52.978  1.00  0.00     0.005 C 
ATOM     13  C   UNL     1     267.182 -30.401  55.054  1.00  0.00    -0.026 C 
ATOM     14  C   UNL     1     267.234 -28.835  53.203  1.00  0.00     0.005 C 
ATOM     15  C   UNL     1     266.937 -28.926  54.690  1.00  0.00    -0.001 C 
ATOM     16  C   UNL     1     267.208 -30.482  56.601  1.00  0.00     0.007 C 
ATOM     17  C   UNL     1     266.084 -31.363  54.496  1.00  0.00     0.012 C 
ATOM     18  C   UNL     1     265.590 -28.361  55.196  1.00  0.00     0.000 C 
ATOM     19  C   UNL     1     265.903 -29.930  57.224  1.00  0.00     0.005 C 
ATOM     20  C   UNL     1     265.535 -28.490  56.744  1.00  0.00     0.003 C 
ATOM     21  C   UNL     1     265.475 -26.874  54.833  1.00  0.00     0.031 C 
ATOM     22  C   UNL     1     264.178 -27.926  57.339  1.00  0.00    -0.008 C 
ATOM     23  C   UNL     1     264.229 -26.275  55.403  1.00  0.00    -0.027 C 
ATOM     24  C   UNL     1     263.664 -26.701  56.552  1.00  0.00    -0.065 C 
ATOM     25  C   UNL     1     263.045 -29.003  57.304  1.00  0.00     0.014 C 
ATOM     26  C   UNL     1     264.441 -27.500  58.808  1.00  0.00     0.016 C 
ATOM     27  C   UNL     1     262.314 -26.132  56.939  1.00  0.00     0.063 C 
ATOM     28  C   UNL     1     261.647 -28.465  57.675  1.00  0.00     0.033 C 
ATOM     29  C   UNL     1     261.257 -27.243  56.826  1.00  0.00     0.118 C 
BRANCH  29  30
ATOM     30  O   UNL     1     259.986 -26.768  57.199  1.00  0.00    -0.393 OA
ATOM     31  H   UNL     1     260.113 -26.067  57.890  1.00  0.00     0.210 HD
ENDBRANCH  29  30
ENDBRANCH   9  11
ENDBRANCH   1   9
TORSDOF 7
ENDMDL
