MODEL 1
REMARK VINA RESULT:    -4.039      0.000      0.000
REMARK INTER + INTRA:          -5.066
REMARK INTER:                  -4.983
REMARK INTRA:                  -0.082
REMARK UNBOUND:                -0.082
REMARK SMILES CCCCCC(C)=O
REMARK SMILES IDX 4 1 3 2 2 3 1 4 5 5 6 6 8 7 7 8
REMARK H PARENT
REMARK Flexibility Score: inf
ROOT
ATOM      1  C   UNL     1      26.989  46.520  -0.721  1.00  0.00     0.008 C 
ENDROOT
BRANCH   1   2
ATOM      2  C   UNL     1      27.700  45.155  -0.690  1.00  0.00     0.000 C 
BRANCH   2   3
ATOM      3  C   UNL     1      28.792  45.075   0.387  1.00  0.00    -0.003 C 
ATOM      4  C   UNL     1      30.022  44.335  -0.132  1.00  0.00     0.004 C 
ENDBRANCH   2   3
ENDBRANCH   1   2
BRANCH   1   5
ATOM      5  C   UNL     1      25.468  46.450  -0.945  1.00  0.00     0.075 C 
BRANCH   5   6
ATOM      6  C   UNL     1      25.065  46.969  -2.299  1.00  0.00     0.129 C 
ATOM      7  O   UNL     1      25.873  46.971  -3.215  1.00  0.00    -0.300 OA
ATOM      8  C   UNL     1      23.689  47.520  -2.520  1.00  0.00     0.087 C 
ENDBRANCH   5   6
ENDBRANCH   1   5
TORSDOF 4
ENDMDL
MODEL 2
REMARK VINA RESULT:    -3.657     12.155     14.123
REMARK INTER + INTRA:          -4.594
REMARK INTER:                  -4.543
REMARK INTRA:                  -0.051
REMARK UNBOUND:                -0.082
REMARK SMILES CCCCCC(C)=O
REMARK SMILES IDX 4 1 3 2 2 3 1 4 5 5 6 6 8 7 7 8
REMARK H PARENT
REMARK Flexibility Score: inf
ROOT
ATOM      1  C   UNL     1      25.750  57.157  -9.679  1.00  0.00     0.008 C 
ENDROOT
BRANCH   1   2
ATOM      2  C   UNL     1      26.088  58.648  -9.859  1.00  0.00     0.000 C 
BRANCH   2   3
ATOM      3  C   UNL     1      27.356  58.875 -10.694  1.00  0.00    -0.003 C 
ATOM      4  C   UNL     1      28.002  60.217 -10.358  1.00  0.00     0.004 C 
ENDBRANCH   2   3
ENDBRANCH   1   2
BRANCH   1   5
ATOM      5  C   UNL     1      24.437  56.880  -8.926  1.00  0.00     0.075 C 
BRANCH   5   6
ATOM      6  C   UNL     1      24.371  55.475  -8.389  1.00  0.00     0.129 C 
ATOM      7  O   UNL     1      25.404  54.861  -8.165  1.00  0.00    -0.300 OA
ATOM      8  C   UNL     1      23.047  54.811  -8.162  1.00  0.00     0.087 C 
ENDBRANCH   5   6
ENDBRANCH   1   5
TORSDOF 4
ENDMDL
MODEL 3
REMARK VINA RESULT:    -3.616      2.112      5.072
REMARK INTER + INTRA:          -4.544
REMARK INTER:                  -4.479
REMARK INTRA:                  -0.065
REMARK UNBOUND:                -0.082
REMARK SMILES CCCCCC(C)=O
REMARK SMILES IDX 4 1 3 2 2 3 1 4 5 5 6 6 8 7 7 8
REMARK H PARENT
REMARK Flexibility Score: inf
ROOT
ATOM      1  C   UNL     1      27.105  46.308  -0.554  1.00  0.00     0.008 C 
ENDROOT
BRANCH   1   2
ATOM      2  C   UNL     1      26.368  46.819  -1.805  1.00  0.00     0.000 C 
BRANCH   2   3
ATOM      3  C   UNL     1      24.904  47.189  -1.525  1.00  0.00    -0.003 C 
ATOM      4  C   UNL     1      24.101  47.269  -2.821  1.00  0.00     0.004 C 
ENDBRANCH   2   3
ENDBRANCH   1   2
BRANCH   1   5
ATOM      5  C   UNL     1      27.827  44.962  -0.737  1.00  0.00     0.075 C 
BRANCH   5   6
ATOM      6  C   UNL     1      29.079  44.867   0.094  1.00  0.00     0.129 C 
ATOM      7  O   UNL     1      29.118  45.391   1.198  1.00  0.00    -0.300 OA
ATOM      8  C   UNL     1      30.292  44.166  -0.439  1.00  0.00     0.087 C 
ENDBRANCH   5   6
ENDBRANCH   1   5
TORSDOF 4
ENDMDL
MODEL 4
REMARK VINA RESULT:    -3.511      2.621      5.544
REMARK INTER + INTRA:          -4.414
REMARK INTER:                  -4.364
REMARK INTRA:                  -0.051
REMARK UNBOUND:                -0.082
REMARK SMILES CCCCCC(C)=O
REMARK SMILES IDX 4 1 3 2 2 3 1 4 5 5 6 6 8 7 7 8
REMARK H PARENT
REMARK Flexibility Score: inf
ROOT
ATOM      1  C   UNL     1      28.512  45.027  -0.517  1.00  0.00     0.008 C 
ENDROOT
BRANCH   1   2
ATOM      2  C   UNL     1      27.148  45.724  -0.368  1.00  0.00     0.000 C 
BRANCH   2   3
ATOM      3  C   UNL     1      26.756  46.541  -1.608  1.00  0.00    -0.003 C 
ATOM      4  C   UNL     1      25.300  46.992  -1.532  1.00  0.00     0.004 C 
ENDBRANCH   2   3
ENDBRANCH   1   2
BRANCH   1   5
ATOM      5  C   UNL     1      29.331  44.928   0.782  1.00  0.00     0.075 C 
BRANCH   5   6
ATOM      6  C   UNL     1      30.775  44.593   0.523  1.00  0.00     0.129 C 
ATOM      7  O   UNL     1      31.078  43.914  -0.447  1.00  0.00    -0.300 OA
ATOM      8  C   UNL     1      31.842  45.055   1.469  1.00  0.00     0.087 C 
ENDBRANCH   5   6
ENDBRANCH   1   5
TORSDOF 4
ENDMDL
MODEL 5
REMARK VINA RESULT:    -3.306      9.397     10.624
REMARK INTER + INTRA:          -4.161
REMARK INTER:                  -3.832
REMARK INTRA:                  -0.329
REMARK UNBOUND:                -0.082
REMARK SMILES CCCCCC(C)=O
REMARK SMILES IDX 4 1 3 2 2 3 1 4 5 5 6 6 8 7 7 8
REMARK H PARENT
REMARK Flexibility Score: inf
ROOT
ATOM      1  C   UNL     1      17.089  43.646   1.338  1.00  0.00     0.008 C 
ENDROOT
BRANCH   1   2
ATOM      2  C   UNL     1      15.905  44.443   0.763  1.00  0.00     0.000 C 
BRANCH   2   3
ATOM      3  C   UNL     1      16.223  45.089  -0.594  1.00  0.00    -0.003 C 
ATOM      4  C   UNL     1      17.711  45.408  -0.715  1.00  0.00     0.004 C 
ENDBRANCH   2   3
ENDBRANCH   1   2
BRANCH   1   5
ATOM      5  C   UNL     1      17.051  42.136   1.048  1.00  0.00     0.075 C 
BRANCH   5   6
ATOM      6  C   UNL     1      17.965  41.747  -0.082  1.00  0.00     0.129 C 
ATOM      7  O   UNL     1      19.140  42.080  -0.057  1.00  0.00    -0.300 OA
ATOM      8  C   UNL     1      17.434  40.986  -1.260  1.00  0.00     0.087 C 
ENDBRANCH   5   6
ENDBRANCH   1   5
TORSDOF 4
ENDMDL
MODEL 6
REMARK VINA RESULT:    -3.222      3.821      6.653
REMARK INTER + INTRA:          -4.058
REMARK INTER:                  -3.961
REMARK INTRA:                  -0.097
REMARK UNBOUND:                -0.082
REMARK SMILES CCCCCC(C)=O
REMARK SMILES IDX 4 1 3 2 2 3 1 4 5 5 6 6 8 7 7 8
REMARK H PARENT
REMARK Flexibility Score: inf
ROOT
ATOM      1  C   UNL     1      31.023  44.406   0.466  1.00  0.00     0.008 C 
ENDROOT
BRANCH   1   2
ATOM      2  C   UNL     1      29.571  44.859   0.697  1.00  0.00     0.000 C 
BRANCH   2   3
ATOM      3  C   UNL     1      28.666  44.606  -0.518  1.00  0.00    -0.003 C 
ATOM      4  C   UNL     1      27.557  45.652  -0.604  1.00  0.00     0.004 C 
ENDBRANCH   2   3
ENDBRANCH   1   2
BRANCH   1   5
ATOM      5  C   UNL     1      31.933  44.503   1.703  1.00  0.00     0.075 C 
BRANCH   5   6
ATOM      6  C   UNL     1      32.750  45.767   1.715  1.00  0.00     0.129 C 
ATOM      7  O   UNL     1      33.244  46.183   0.677  1.00  0.00    -0.300 OA
ATOM      8  C   UNL     1      32.994  46.500   2.999  1.00  0.00     0.087 C 
ENDBRANCH   5   6
ENDBRANCH   1   5
TORSDOF 4
ENDMDL
MODEL 7
REMARK VINA RESULT:    -3.154     16.584     17.143
REMARK INTER + INTRA:          -3.974
REMARK INTER:                  -3.842
REMARK INTRA:                  -0.132
REMARK UNBOUND:                -0.082
REMARK SMILES CCCCCC(C)=O
REMARK SMILES IDX 4 1 3 2 2 3 1 4 5 5 6 6 8 7 7 8
REMARK H PARENT
REMARK Flexibility Score: inf
ROOT
ATOM      1  C   UNL     1      31.250  58.510 -11.723  1.00  0.00     0.008 C 
ENDROOT
BRANCH   1   2
ATOM      2  C   UNL     1      30.404  59.239 -10.663  1.00  0.00     0.000 C 
BRANCH   2   3
ATOM      3  C   UNL     1      28.904  59.242 -10.995  1.00  0.00    -0.003 C 
ATOM      4  C   UNL     1      28.212  60.465 -10.400  1.00  0.00     0.004 C 
ENDBRANCH   2   3
ENDBRANCH   1   2
BRANCH   1   5
ATOM      5  C   UNL     1      30.468  58.047 -12.965  1.00  0.00     0.075 C 
BRANCH   5   6
ATOM      6  C   UNL     1      31.044  56.795 -13.568  1.00  0.00     0.129 C 
ATOM      7  O   UNL     1      30.308  55.859 -13.845  1.00  0.00    -0.300 OA
ATOM      8  C   UNL     1      32.521  56.672 -13.796  1.00  0.00     0.087 C 
ENDBRANCH   5   6
ENDBRANCH   1   5
TORSDOF 4
ENDMDL
MODEL 8
REMARK VINA RESULT:    -3.075     10.024     11.440
REMARK INTER + INTRA:          -3.876
REMARK INTER:                  -3.529
REMARK INTRA:                  -0.348
REMARK UNBOUND:                -0.082
REMARK SMILES CCCCCC(C)=O
REMARK SMILES IDX 4 1 3 2 2 3 1 4 5 5 6 6 8 7 7 8
REMARK H PARENT
REMARK Flexibility Score: inf
ROOT
ATOM      1  C   UNL     1      17.251  43.807   1.170  1.00  0.00     0.008 C 
ENDROOT
BRANCH   1   2
ATOM      2  C   UNL     1      16.714  44.525  -0.080  1.00  0.00     0.000 C 
BRANCH   2   3
ATOM      3  C   UNL     1      15.266  45.008   0.085  1.00  0.00    -0.003 C 
ATOM      4  C   UNL     1      14.733  44.680   1.478  1.00  0.00     0.004 C 
ENDBRANCH   2   3
ENDBRANCH   1   2
BRANCH   1   5
ATOM      5  C   UNL     1      18.009  42.498   0.886  1.00  0.00     0.075 C 
BRANCH   5   6
ATOM      6  C   UNL     1      17.145  41.473   0.203  1.00  0.00     0.129 C 
ATOM      7  O   UNL     1      17.403  41.122  -0.939  1.00  0.00    -0.300 OA
ATOM      8  C   UNL     1      15.945  40.907   0.900  1.00  0.00     0.087 C 
ENDBRANCH   5   6
ENDBRANCH   1   5
TORSDOF 4
ENDMDL
MODEL 9
REMARK VINA RESULT:    -3.044     13.885     14.865
REMARK INTER + INTRA:          -3.838
REMARK INTER:                  -3.739
REMARK INTRA:                  -0.099
REMARK UNBOUND:                -0.082
REMARK SMILES CCCCCC(C)=O
REMARK SMILES IDX 4 1 3 2 2 3 1 4 5 5 6 6 8 7 7 8
REMARK H PARENT
REMARK Flexibility Score: inf
ROOT
ATOM      1  C   UNL     1      31.876  59.122  -0.310  1.00  0.00     0.008 C 
ENDROOT
BRANCH   1   2
ATOM      2  C   UNL     1      31.352  60.481  -0.808  1.00  0.00     0.000 C 
BRANCH   2   3
ATOM      3  C   UNL     1      30.351  60.346  -1.965  1.00  0.00    -0.003 C 
ATOM      4  C   UNL     1      29.009  60.978  -1.606  1.00  0.00     0.004 C 
ENDBRANCH   2   3
ENDBRANCH   1   2
BRANCH   1   5
ATOM      5  C   UNL     1      32.964  59.209   0.774  1.00  0.00     0.075 C 
BRANCH   5   6
ATOM      6  C   UNL     1      32.853  58.100   1.786  1.00  0.00     0.129 C 
ATOM      7  O   UNL     1      33.616  58.068   2.740  1.00  0.00    -0.300 OA
ATOM      8  C   UNL     1      31.836  57.012   1.611  1.00  0.00     0.087 C 
ENDBRANCH   5   6
ENDBRANCH   1   5
TORSDOF 4
ENDMDL
