MODEL 1
REMARK VINA RESULT:    -3.225      0.000      0.000
REMARK INTER + INTRA:          -3.906
REMARK INTER:                  -3.791
REMARK INTRA:                  -0.116
REMARK UNBOUND:                -0.116
REMARK SMILES O=C([O-])CCC(=O)[O-]
REMARK SMILES IDX 4 1 2 2 1 3 3 4 5 5 6 6 7 7 8 8
REMARK H PARENT
REMARK Flexibility Score: inf
ROOT
ATOM      1  C   UNL     1    -476.589 294.837  -0.121  1.00  0.00     0.059 C 
ENDROOT
BRANCH   1   2
ATOM      2  C   UNL     1    -477.481 295.239  -1.256  1.00  0.00     0.042 C 
ATOM      3  O   UNL     1    -477.809 296.446  -1.408  1.00  0.00    -0.550 OA
ATOM      4  O   UNL     1    -477.915 294.288  -2.171  1.00  0.00    -0.550 OA
ENDBRANCH   1   2
BRANCH   1   5
ATOM      5  C   UNL     1    -477.320 293.942   0.884  1.00  0.00     0.059 C 
BRANCH   5   6
ATOM      6  C   UNL     1    -476.948 292.501   0.711  1.00  0.00     0.042 C 
ATOM      7  O   UNL     1    -477.683 291.732   0.038  1.00  0.00    -0.550 OA
ATOM      8  O   UNL     1    -475.809 291.999   1.328  1.00  0.00    -0.550 OA
ENDBRANCH   5   6
ENDBRANCH   1   5
TORSDOF 3
ENDMDL
MODEL 2
REMARK VINA RESULT:    -3.225      0.114      1.623
REMARK INTER + INTRA:          -3.906
REMARK INTER:                  -3.799
REMARK INTRA:                  -0.107
REMARK UNBOUND:                -0.116
REMARK SMILES O=C([O-])CCC(=O)[O-]
REMARK SMILES IDX 4 1 2 2 1 3 3 4 5 5 6 6 7 7 8 8
REMARK H PARENT
REMARK Flexibility Score: inf
ROOT
ATOM      1  C   UNL     1    -476.519 294.804  -0.115  1.00  0.00     0.059 C 
ENDROOT
BRANCH   1   2
ATOM      2  C   UNL     1    -477.367 295.212  -1.282  1.00  0.00     0.042 C 
ATOM      3  O   UNL     1    -477.787 294.344  -2.092  1.00  0.00    -0.550 OA
ATOM      4  O   UNL     1    -477.728 296.542  -1.449  1.00  0.00    -0.550 OA
ENDBRANCH   1   2
BRANCH   1   5
ATOM      5  C   UNL     1    -477.302 293.941   0.879  1.00  0.00     0.059 C 
BRANCH   5   6
ATOM      6  C   UNL     1    -476.966 292.488   0.732  1.00  0.00     0.042 C 
ATOM      7  O   UNL     1    -475.918 292.023   1.254  1.00  0.00    -0.550 OA
ATOM      8  O   UNL     1    -477.790 291.657  -0.016  1.00  0.00    -0.550 OA
ENDBRANCH   5   6
ENDBRANCH   1   5
TORSDOF 3
ENDMDL
MODEL 3
REMARK VINA RESULT:    -3.224      0.110      3.842
REMARK INTER + INTRA:          -3.905
REMARK INTER:                  -3.793
REMARK INTRA:                  -0.113
REMARK UNBOUND:                -0.116
REMARK SMILES O=C([O-])CCC(=O)[O-]
REMARK SMILES IDX 4 1 2 2 1 3 3 4 5 5 6 6 7 7 8 8
REMARK H PARENT
REMARK Flexibility Score: inf
ROOT
ATOM      1  C   UNL     1    -477.318 293.978   0.835  1.00  0.00     0.059 C 
ENDROOT
BRANCH   1   2
ATOM      2  C   UNL     1    -476.976 292.524   0.716  1.00  0.00     0.042 C 
ATOM      3  O   UNL     1    -477.696 291.759   0.020  1.00  0.00    -0.550 OA
ATOM      4  O   UNL     1    -475.839 292.023   1.337  1.00  0.00    -0.550 OA
ENDBRANCH   1   2
BRANCH   1   5
ATOM      5  C   UNL     1    -476.534 294.828  -0.169  1.00  0.00     0.059 C 
BRANCH   5   6
ATOM      6  C   UNL     1    -477.381 295.216  -1.343  1.00  0.00     0.042 C 
ATOM      7  O   UNL     1    -477.749 294.345  -2.175  1.00  0.00    -0.550 OA
ATOM      8  O   UNL     1    -477.729 296.546  -1.539  1.00  0.00    -0.550 OA
ENDBRANCH   5   6
ENDBRANCH   1   5
TORSDOF 3
ENDMDL
MODEL 4
REMARK VINA RESULT:    -3.221      0.077      1.147
REMARK INTER + INTRA:          -3.902
REMARK INTER:                  -3.783
REMARK INTRA:                  -0.119
REMARK UNBOUND:                -0.116
REMARK SMILES O=C([O-])CCC(=O)[O-]
REMARK SMILES IDX 4 1 2 2 1 3 3 4 5 5 6 6 7 7 8 8
REMARK H PARENT
REMARK Flexibility Score: inf
ROOT
ATOM      1  C   UNL     1    -476.550 294.781  -0.121  1.00  0.00     0.059 C 
ENDROOT
BRANCH   1   2
ATOM      2  C   UNL     1    -477.440 295.216  -1.246  1.00  0.00     0.042 C 
ATOM      3  O   UNL     1    -477.741 296.432  -1.382  1.00  0.00    -0.550 OA
ATOM      4  O   UNL     1    -477.903 294.285  -2.168  1.00  0.00    -0.550 OA
ENDBRANCH   1   2
BRANCH   1   5
ATOM      5  C   UNL     1    -477.300 293.903   0.886  1.00  0.00     0.059 C 
BRANCH   5   6
ATOM      6  C   UNL     1    -476.934 292.458   0.737  1.00  0.00     0.042 C 
ATOM      7  O   UNL     1    -475.897 292.005   1.290  1.00  0.00    -0.550 OA
ATOM      8  O   UNL     1    -477.718 291.619  -0.046  1.00  0.00    -0.550 OA
ENDBRANCH   5   6
ENDBRANCH   1   5
TORSDOF 3
ENDMDL
MODEL 5
REMARK VINA RESULT:    -3.214      0.053      3.885
REMARK INTER + INTRA:          -3.893
REMARK INTER:                  -3.774
REMARK INTRA:                  -0.119
REMARK UNBOUND:                -0.116
REMARK SMILES O=C([O-])CCC(=O)[O-]
REMARK SMILES IDX 4 1 2 2 1 3 3 4 5 5 6 6 7 7 8 8
REMARK H PARENT
REMARK Flexibility Score: inf
ROOT
ATOM      1  C   UNL     1    -477.359 293.899   0.868  1.00  0.00     0.059 C 
ENDROOT
BRANCH   1   2
ATOM      2  C   UNL     1    -476.981 292.457   0.711  1.00  0.00     0.042 C 
ATOM      3  O   UNL     1    -477.665 291.699  -0.027  1.00  0.00    -0.550 OA
ATOM      4  O   UNL     1    -475.849 291.961   1.345  1.00  0.00    -0.550 OA
ENDBRANCH   1   2
BRANCH   1   5
ATOM      5  C   UNL     1    -476.605 294.792  -0.122  1.00  0.00     0.059 C 
BRANCH   5   6
ATOM      6  C   UNL     1    -477.484 295.224  -1.255  1.00  0.00     0.042 C 
ATOM      7  O   UNL     1    -477.841 296.427  -1.358  1.00  0.00    -0.550 OA
ATOM      8  O   UNL     1    -477.942 294.289  -2.176  1.00  0.00    -0.550 OA
ENDBRANCH   5   6
ENDBRANCH   1   5
TORSDOF 3
ENDMDL
MODEL 6
REMARK VINA RESULT:    -3.188      9.224     10.852
REMARK INTER + INTRA:          -3.863
REMARK INTER:                  -3.752
REMARK INTRA:                  -0.111
REMARK UNBOUND:                -0.116
REMARK SMILES O=C([O-])CCC(=O)[O-]
REMARK SMILES IDX 4 1 2 2 1 3 3 4 5 5 6 6 7 7 8 8
REMARK H PARENT
REMARK Flexibility Score: inf
ROOT
ATOM      1  C   UNL     1    -476.326 283.967  -0.995  1.00  0.00     0.059 C 
ENDROOT
BRANCH   1   2
ATOM      2  C   UNL     1    -476.519 284.475   0.402  1.00  0.00     0.042 C 
ATOM      3  O   UNL     1    -477.306 285.433   0.625  1.00  0.00    -0.550 OA
ATOM      4  O   UNL     1    -475.861 283.864   1.462  1.00  0.00    -0.550 OA
ENDBRANCH   1   2
BRANCH   1   5
ATOM      5  C   UNL     1    -474.850 283.979  -1.403  1.00  0.00     0.059 C 
BRANCH   5   6
ATOM      6  C   UNL     1    -474.341 282.595  -1.669  1.00  0.00     0.042 C 
ATOM      7  O   UNL     1    -473.868 281.901  -0.731  1.00  0.00    -0.550 OA
ATOM      8  O   UNL     1    -474.351 282.088  -2.963  1.00  0.00    -0.550 OA
ENDBRANCH   5   6
ENDBRANCH   1   5
TORSDOF 3
ENDMDL
MODEL 7
REMARK VINA RESULT:    -3.174      9.205     10.928
REMARK INTER + INTRA:          -3.846
REMARK INTER:                  -3.744
REMARK INTRA:                  -0.103
REMARK UNBOUND:                -0.116
REMARK SMILES O=C([O-])CCC(=O)[O-]
REMARK SMILES IDX 4 1 2 2 1 3 3 4 5 5 6 6 7 7 8 8
REMARK H PARENT
REMARK Flexibility Score: inf
ROOT
ATOM      1  C   UNL     1    -474.853 283.975  -1.337  1.00  0.00     0.059 C 
ENDROOT
BRANCH   1   2
ATOM      2  C   UNL     1    -474.357 282.597  -1.657  1.00  0.00     0.042 C 
ATOM      3  O   UNL     1    -473.895 281.863  -0.744  1.00  0.00    -0.550 OA
ATOM      4  O   UNL     1    -474.443 282.110  -2.955  1.00  0.00    -0.550 OA
ENDBRANCH   1   2
BRANCH   1   5
ATOM      5  C   UNL     1    -476.345 283.971  -0.988  1.00  0.00     0.059 C 
BRANCH   5   6
ATOM      6  C   UNL     1    -476.587 284.482   0.399  1.00  0.00     0.042 C 
ATOM      7  O   UNL     1    -477.361 285.457   0.590  1.00  0.00    -0.550 OA
ATOM      8  O   UNL     1    -475.927 283.906   1.478  1.00  0.00    -0.550 OA
ENDBRANCH   5   6
ENDBRANCH   1   5
TORSDOF 3
ENDMDL
MODEL 8
REMARK VINA RESULT:    -3.121      0.657      3.915
REMARK INTER + INTRA:          -3.785
REMARK INTER:                  -3.733
REMARK INTRA:                  -0.051
REMARK UNBOUND:                -0.116
REMARK SMILES O=C([O-])CCC(=O)[O-]
REMARK SMILES IDX 4 1 2 2 1 3 3 4 5 5 6 6 7 7 8 8
REMARK H PARENT
REMARK Flexibility Score: inf
ROOT
ATOM      1  C   UNL     1    -477.028 294.054   0.578  1.00  0.00     0.059 C 
ENDROOT
BRANCH   1   2
ATOM      2  C   UNL     1    -476.823 292.577   0.727  1.00  0.00     0.042 C 
ATOM      3  O   UNL     1    -475.886 292.136   1.445  1.00  0.00    -0.550 OA
ATOM      4  O   UNL     1    -477.693 291.688   0.108  1.00  0.00    -0.550 OA
ENDBRANCH   1   2
BRANCH   1   5
ATOM      5  C   UNL     1    -478.073 294.375  -0.495  1.00  0.00     0.059 C 
BRANCH   5   6
ATOM      6  C   UNL     1    -477.536 295.326  -1.520  1.00  0.00     0.042 C 
ATOM      7  O   UNL     1    -477.525 296.565  -1.293  1.00  0.00    -0.550 OA
ATOM      8  O   UNL     1    -477.084 294.847  -2.744  1.00  0.00    -0.550 OA
ENDBRANCH   5   6
ENDBRANCH   1   5
TORSDOF 3
ENDMDL
MODEL 9
REMARK VINA RESULT:    -2.794      9.935     11.364
REMARK INTER + INTRA:          -3.400
REMARK INTER:                  -3.286
REMARK INTRA:                  -0.114
REMARK UNBOUND:                -0.116
REMARK SMILES O=C([O-])CCC(=O)[O-]
REMARK SMILES IDX 4 1 2 2 1 3 3 4 5 5 6 6 7 7 8 8
REMARK H PARENT
REMARK Flexibility Score: inf
ROOT
ATOM      1  C   UNL     1    -474.353 282.630  -1.438  1.00  0.00     0.059 C 
ENDROOT
BRANCH   1   2
ATOM      2  C   UNL     1    -474.596 282.121  -2.827  1.00  0.00     0.042 C 
ATOM      3  O   UNL     1    -474.738 282.931  -3.782  1.00  0.00    -0.550 OA
ATOM      4  O   UNL     1    -474.624 280.755  -3.073  1.00  0.00    -0.550 OA
ENDBRANCH   1   2
BRANCH   1   5
ATOM      5  C   UNL     1    -474.840 284.072  -1.271  1.00  0.00     0.059 C 
BRANCH   5   6
ATOM      6  C   UNL     1    -476.196 284.126  -0.633  1.00  0.00     0.042 C 
ATOM      7  O   UNL     1    -477.233 284.139  -1.347  1.00  0.00    -0.550 OA
ATOM      8  O   UNL     1    -476.311 284.200   0.749  1.00  0.00    -0.550 OA
ENDBRANCH   5   6
ENDBRANCH   1   5
TORSDOF 3
ENDMDL
