MODEL 1
REMARK VINA RESULT:    -4.708      0.000      0.000
REMARK INTER + INTRA:          -4.983
REMARK INTER:                  -4.983
REMARK INTRA:                   0.000
REMARK UNBOUND:                 0.000
REMARK SMILES Cc1cc(O)c(C)c(C)c1O
REMARK SMILES IDX 1 1 2 2 3 3 4 4 6 5 8 6 10 7 9 8 7 9 11 10 5 12
REMARK H PARENT 11 11 5 13
REMARK Flexibility Score: inf
ROOT
ATOM      1  C   UNL     1     -13.123  81.663 -12.938  1.00  0.00     0.048 C 
ATOM      2  C   UNL     1     -12.715  82.202 -11.594  1.00  0.00    -0.005 A 
ATOM      3  C   UNL     1     -11.503  81.789 -11.029  1.00  0.00     0.053 A 
ATOM      4  C   UNL     1     -11.083  82.280  -9.791  1.00  0.00     0.119 A 
ATOM      5  C   UNL     1     -11.876  83.208  -9.090  1.00  0.00    -0.003 A 
ATOM      6  C   UNL     1     -13.132  83.598  -9.626  1.00  0.00    -0.002 A 
ATOM      7  C   UNL     1     -13.533  83.116 -10.893  1.00  0.00     0.121 A 
ATOM      8  C   UNL     1     -14.018  84.569  -8.880  1.00  0.00     0.049 C 
ATOM      9  C   UNL     1     -11.406  83.737  -7.755  1.00  0.00     0.049 C 
ENDROOT
BRANCH   7  10
ATOM     10  O   UNL     1     -14.745  83.556 -11.435  1.00  0.00    -0.507 OA
ATOM     11  H   UNL     1     -15.644  83.169 -11.181  1.00  0.00     0.293 HD
ENDBRANCH   7  10
BRANCH   4  12
ATOM     12  O   UNL     1      -9.870  81.842  -9.255  1.00  0.00    -0.508 OA
ATOM     13  H   UNL     1      -9.126  81.484  -9.842  1.00  0.00     0.293 HD
ENDBRANCH   4  12
TORSDOF 2
ENDMDL
MODEL 2
REMARK VINA RESULT:    -4.385      1.366      2.966
REMARK INTER + INTRA:          -4.641
REMARK INTER:                  -4.641
REMARK INTRA:                   0.000
REMARK UNBOUND:                 0.000
REMARK SMILES Cc1cc(O)c(C)c(C)c1O
REMARK SMILES IDX 1 1 2 2 3 3 4 4 6 5 8 6 10 7 9 8 7 9 11 10 5 12
REMARK H PARENT 11 11 5 13
REMARK Flexibility Score: inf
ROOT
ATOM      1  C   UNL     1     -13.522  81.830 -13.303  1.00  0.00     0.048 C 
ATOM      2  C   UNL     1     -13.147  82.333 -11.935  1.00  0.00    -0.005 A 
ATOM      3  C   UNL     1     -14.081  83.070 -11.196  1.00  0.00     0.053 A 
ATOM      4  C   UNL     1     -13.775  83.539  -9.917  1.00  0.00     0.119 A 
ATOM      5  C   UNL     1     -12.516  83.272  -9.346  1.00  0.00    -0.003 A 
ATOM      6  C   UNL     1     -11.541  82.570 -10.103  1.00  0.00    -0.002 A 
ATOM      7  C   UNL     1     -11.872  82.076 -11.385  1.00  0.00     0.121 A 
ATOM      8  C   UNL     1     -10.171  82.297  -9.527  1.00  0.00     0.049 C 
ATOM      9  C   UNL     1     -12.201  83.780  -7.958  1.00  0.00     0.049 C 
ENDROOT
BRANCH   7  10
ATOM     10  O   UNL     1     -10.921  81.334 -12.094  1.00  0.00    -0.507 OA
ATOM     11  H   UNL     1      -9.925  81.497 -12.032  1.00  0.00     0.293 HD
ENDBRANCH   7  10
BRANCH   4  12
ATOM     12  O   UNL     1     -14.728  84.275  -9.210  1.00  0.00    -0.508 OA
ATOM     13  H   UNL     1     -14.502  85.164  -8.779  1.00  0.00     0.293 HD
ENDBRANCH   4  12
TORSDOF 2
ENDMDL
MODEL 3
REMARK VINA RESULT:    -4.083      7.622      9.560
REMARK INTER + INTRA:          -4.321
REMARK INTER:                  -4.321
REMARK INTRA:                   0.000
REMARK UNBOUND:                 0.000
REMARK SMILES Cc1cc(O)c(C)c(C)c1O
REMARK SMILES IDX 1 1 2 2 3 3 4 4 6 5 8 6 10 7 9 8 7 9 11 10 5 12
REMARK H PARENT 11 11 5 13
REMARK Flexibility Score: inf
ROOT
ATOM      1  C   UNL     1      -1.901  86.882  -7.753  1.00  0.00     0.048 C 
ATOM      2  C   UNL     1      -3.248  86.699  -8.399  1.00  0.00    -0.005 A 
ATOM      3  C   UNL     1      -4.147  87.771  -8.426  1.00  0.00     0.053 A 
ATOM      4  C   UNL     1      -5.399  87.644  -9.031  1.00  0.00     0.119 A 
ATOM      5  C   UNL     1      -5.777  86.427  -9.630  1.00  0.00    -0.003 A 
ATOM      6  C   UNL     1      -4.897  85.315  -9.566  1.00  0.00    -0.002 A 
ATOM      7  C   UNL     1      -3.621  85.464  -8.976  1.00  0.00     0.121 A 
ATOM      8  C   UNL     1      -5.289  83.988 -10.173  1.00  0.00     0.049 C 
ATOM      9  C   UNL     1      -7.132  86.305 -10.288  1.00  0.00     0.049 C 
ENDROOT
BRANCH   7  10
ATOM     10  O   UNL     1      -2.741  84.377  -8.973  1.00  0.00    -0.507 OA
ATOM     11  H   UNL     1      -2.865  83.557  -9.551  1.00  0.00     0.293 HD
ENDBRANCH   7  10
BRANCH   4  12
ATOM     12  O   UNL     1      -6.272  88.733  -9.035  1.00  0.00    -0.508 OA
ATOM     13  H   UNL     1      -7.213  88.661  -9.407  1.00  0.00     0.293 HD
ENDBRANCH   4  12
TORSDOF 2
ENDMDL
MODEL 4
REMARK VINA RESULT:    -4.064      7.273      8.687
REMARK INTER + INTRA:          -4.302
REMARK INTER:                  -4.302
REMARK INTRA:                   0.000
REMARK UNBOUND:                 0.000
REMARK SMILES Cc1cc(O)c(C)c(C)c1O
REMARK SMILES IDX 1 1 2 2 3 3 4 4 6 5 8 6 10 7 9 8 7 9 11 10 5 12
REMARK H PARENT 11 11 5 13
REMARK Flexibility Score: inf
ROOT
ATOM      1  C   UNL     1      -3.387  81.733  -9.462  1.00  0.00     0.048 C 
ATOM      2  C   UNL     1      -3.753  83.183  -9.299  1.00  0.00    -0.005 A 
ATOM      3  C   UNL     1      -2.832  84.061  -8.715  1.00  0.00     0.053 A 
ATOM      4  C   UNL     1      -3.130  85.416  -8.561  1.00  0.00     0.119 A 
ATOM      5  C   UNL     1      -4.368  85.925  -9.000  1.00  0.00    -0.003 A 
ATOM      6  C   UNL     1      -5.332  85.038  -9.547  1.00  0.00    -0.002 A 
ATOM      7  C   UNL     1      -5.008  83.673  -9.723  1.00  0.00     0.121 A 
ATOM      8  C   UNL     1      -6.680  85.550  -9.997  1.00  0.00     0.049 C 
ATOM      9  C   UNL     1      -4.674  87.395  -8.835  1.00  0.00     0.049 C 
ENDROOT
BRANCH   7  10
ATOM     10  O   UNL     1      -5.945  82.822 -10.319  1.00  0.00    -0.507 OA
ATOM     11  H   UNL     1      -5.708  81.929 -10.730  1.00  0.00     0.293 HD
ENDBRANCH   7  10
BRANCH   4  12
ATOM     12  O   UNL     1      -2.190  86.263  -7.970  1.00  0.00    -0.508 OA
ATOM     13  H   UNL     1      -2.424  87.210  -7.694  1.00  0.00     0.293 HD
ENDBRANCH   4  12
TORSDOF 2
ENDMDL
MODEL 5
REMARK VINA RESULT:    -4.047      1.475      3.012
REMARK INTER + INTRA:          -4.284
REMARK INTER:                  -4.284
REMARK INTRA:                   0.000
REMARK UNBOUND:                 0.000
REMARK SMILES Cc1cc(O)c(C)c(C)c1O
REMARK SMILES IDX 1 1 2 2 3 3 4 4 6 5 8 6 10 7 9 8 7 9 11 10 5 12
REMARK H PARENT 11 11 5 13
REMARK Flexibility Score: inf
ROOT
ATOM      1  C   UNL     1     -14.544  86.099  -9.945  1.00  0.00     0.048 C 
ATOM      2  C   UNL     1     -13.462  85.063  -9.812  1.00  0.00    -0.005 A 
ATOM      3  C   UNL     1     -12.351  85.332  -9.004  1.00  0.00     0.053 A 
ATOM      4  C   UNL     1     -11.334  84.389  -8.843  1.00  0.00     0.119 A 
ATOM      5  C   UNL     1     -11.414  83.142  -9.493  1.00  0.00    -0.003 A 
ATOM      6  C   UNL     1     -12.509  82.874 -10.356  1.00  0.00    -0.002 A 
ATOM      7  C   UNL     1     -13.546  83.826 -10.489  1.00  0.00     0.121 A 
ATOM      8  C   UNL     1     -12.604  81.557 -11.091  1.00  0.00     0.049 C 
ATOM      9  C   UNL     1     -10.310  82.127  -9.304  1.00  0.00     0.049 C 
ENDROOT
BRANCH   7  10
ATOM     10  O   UNL     1     -14.648  83.524 -11.296  1.00  0.00    -0.507 OA
ATOM     11  H   UNL     1     -14.963  82.581 -11.480  1.00  0.00     0.293 HD
ENDBRANCH   7  10
BRANCH   4  12
ATOM     12  O   UNL     1     -10.238  84.692  -8.033  1.00  0.00    -0.508 OA
ATOM     13  H   UNL     1     -10.232  84.478  -7.042  1.00  0.00     0.293 HD
ENDBRANCH   4  12
TORSDOF 2
ENDMDL
MODEL 6
REMARK VINA RESULT:    -3.986      7.442      8.979
REMARK INTER + INTRA:          -4.219
REMARK INTER:                  -4.219
REMARK INTRA:                   0.000
REMARK UNBOUND:                 0.000
REMARK SMILES Cc1cc(O)c(C)c(C)c1O
REMARK SMILES IDX 1 1 2 2 3 3 4 4 6 5 8 6 10 7 9 8 7 9 11 10 5 12
REMARK H PARENT 11 11 5 13
REMARK Flexibility Score: inf
ROOT
ATOM      1  C   UNL     1      -6.021  87.380 -10.255  1.00  0.00     0.048 C 
ATOM      2  C   UNL     1      -5.265  86.161  -9.801  1.00  0.00    -0.005 A 
ATOM      3  C   UNL     1      -5.629  84.904 -10.300  1.00  0.00     0.053 A 
ATOM      4  C   UNL     1      -4.940  83.752  -9.915  1.00  0.00     0.119 A 
ATOM      5  C   UNL     1      -3.860  83.838  -9.016  1.00  0.00    -0.003 A 
ATOM      6  C   UNL     1      -3.513  85.098  -8.462  1.00  0.00    -0.002 A 
ATOM      7  C   UNL     1      -4.199  86.261  -8.881  1.00  0.00     0.121 A 
ATOM      8  C   UNL     1      -2.378  85.216  -7.471  1.00  0.00     0.049 C 
ATOM      9  C   UNL     1      -3.119  82.584  -8.613  1.00  0.00     0.049 C 
ENDROOT
BRANCH   7  10
ATOM     10  O   UNL     1      -3.805  87.504  -8.372  1.00  0.00    -0.507 OA
ATOM     11  H   UNL     1      -3.236  87.613  -7.544  1.00  0.00     0.293 HD
ENDBRANCH   7  10
BRANCH   4  12
ATOM     12  O   UNL     1      -5.333  82.514 -10.429  1.00  0.00    -0.508 OA
ATOM     13  H   UNL     1      -6.307  82.290 -10.594  1.00  0.00     0.293 HD
ENDBRANCH   4  12
TORSDOF 2
ENDMDL
MODEL 7
REMARK VINA RESULT:    -3.940      7.791      9.468
REMARK INTER + INTRA:          -4.170
REMARK INTER:                  -4.170
REMARK INTRA:                   0.000
REMARK UNBOUND:                 0.000
REMARK SMILES Cc1cc(O)c(C)c(C)c1O
REMARK SMILES IDX 1 1 2 2 3 3 4 4 6 5 8 6 10 7 9 8 7 9 11 10 5 12
REMARK H PARENT 11 11 5 13
REMARK Flexibility Score: inf
ROOT
ATOM      1  C   UNL     1      -4.724  82.889  -9.876  1.00  0.00     0.048 C 
ATOM      2  C   UNL     1      -4.512  84.326  -9.485  1.00  0.00    -0.005 A 
ATOM      3  C   UNL     1      -5.459  85.286  -9.863  1.00  0.00     0.053 A 
ATOM      4  C   UNL     1      -5.305  86.627  -9.505  1.00  0.00     0.119 A 
ATOM      5  C   UNL     1      -4.189  87.035  -8.749  1.00  0.00    -0.003 A 
ATOM      6  C   UNL     1      -3.195  86.083  -8.402  1.00  0.00    -0.002 A 
ATOM      7  C   UNL     1      -3.376  84.724  -8.746  1.00  0.00     0.121 A 
ATOM      8  C   UNL     1      -1.971  86.499  -7.619  1.00  0.00     0.049 C 
ATOM      9  C   UNL     1      -4.039  88.488  -8.362  1.00  0.00     0.049 C 
ENDROOT
BRANCH   7  10
ATOM     10  O   UNL     1      -2.417  83.787  -8.345  1.00  0.00    -0.507 OA
ATOM     11  H   UNL     1      -2.592  83.069  -7.655  1.00  0.00     0.293 HD
ENDBRANCH   7  10
BRANCH   4  12
ATOM     12  O   UNL     1      -6.266  87.558  -9.902  1.00  0.00    -0.508 OA
ATOM     13  H   UNL     1      -7.104  87.280 -10.400  1.00  0.00     0.293 HD
ENDBRANCH   4  12
TORSDOF 2
ENDMDL
MODEL 8
REMARK VINA RESULT:    -3.913      7.934      9.171
REMARK INTER + INTRA:          -4.142
REMARK INTER:                  -4.142
REMARK INTRA:                   0.000
REMARK UNBOUND:                 0.000
REMARK SMILES Cc1cc(O)c(C)c(C)c1O
REMARK SMILES IDX 1 1 2 2 3 3 4 4 6 5 8 6 10 7 9 8 7 9 11 10 5 12
REMARK H PARENT 11 11 5 13
REMARK Flexibility Score: inf
ROOT
ATOM      1  C   UNL     1      -7.182  86.600 -10.429  1.00  0.00     0.048 C 
ATOM      2  C   UNL     1      -5.861  86.701  -9.716  1.00  0.00    -0.005 A 
ATOM      3  C   UNL     1      -4.997  85.599  -9.714  1.00  0.00     0.053 A 
ATOM      4  C   UNL     1      -3.756  85.660  -9.077  1.00  0.00     0.119 A 
ATOM      5  C   UNL     1      -3.350  86.841  -8.426  1.00  0.00    -0.003 A 
ATOM      6  C   UNL     1      -4.236  87.949  -8.375  1.00  0.00    -0.002 A 
ATOM      7  C   UNL     1      -5.478  87.885  -9.048  1.00  0.00     0.121 A 
ATOM      8  C   UNL     1      -3.840  89.218  -7.657  1.00  0.00     0.049 C 
ATOM      9  C   UNL     1      -2.001  86.896  -7.747  1.00  0.00     0.049 C 
ENDROOT
BRANCH   7  10
ATOM     10  O   UNL     1      -6.315  89.006  -9.040  1.00  0.00    -0.507 OA
ATOM     11  H   UNL     1      -6.177  89.802  -8.432  1.00  0.00     0.293 HD
ENDBRANCH   7  10
BRANCH   4  12
ATOM     12  O   UNL     1      -2.922  84.541  -9.091  1.00  0.00    -0.508 OA
ATOM     13  H   UNL     1      -2.000  84.568  -9.512  1.00  0.00     0.293 HD
ENDBRANCH   4  12
TORSDOF 2
ENDMDL
MODEL 9
REMARK VINA RESULT:    -3.854      7.532      9.607
REMARK INTER + INTRA:          -4.080
REMARK INTER:                  -4.080
REMARK INTRA:                   0.000
REMARK UNBOUND:                 0.000
REMARK SMILES Cc1cc(O)c(C)c(C)c1O
REMARK SMILES IDX 1 1 2 2 3 3 4 4 6 5 8 6 10 7 9 8 7 9 11 10 5 12
REMARK H PARENT 11 11 5 13
REMARK Flexibility Score: inf
ROOT
ATOM      1  C   UNL     1      -3.280  88.272  -8.054  1.00  0.00     0.048 C 
ATOM      2  C   UNL     1      -3.871  86.972  -8.526  1.00  0.00    -0.005 A 
ATOM      3  C   UNL     1      -5.135  86.972  -9.127  1.00  0.00     0.053 A 
ATOM      4  C   UNL     1      -5.710  85.787  -9.593  1.00  0.00     0.119 A 
ATOM      5  C   UNL     1      -5.019  84.567  -9.467  1.00  0.00    -0.003 A 
ATOM      6  C   UNL     1      -3.759  84.543  -8.813  1.00  0.00    -0.002 A 
ATOM      7  C   UNL     1      -3.175  85.752  -8.372  1.00  0.00     0.121 A 
ATOM      8  C   UNL     1      -3.009  83.243  -8.636  1.00  0.00     0.049 C 
ATOM      9  C   UNL     1      -5.649  83.293  -9.981  1.00  0.00     0.049 C 
ENDROOT
BRANCH   7  10
ATOM     10  O   UNL     1      -1.906  85.720  -7.784  1.00  0.00    -0.507 OA
ATOM     11  H   UNL     1      -1.050  85.898  -8.292  1.00  0.00     0.293 HD
ENDBRANCH   7  10
BRANCH   4  12
ATOM     12  O   UNL     1      -6.974  85.824 -10.183  1.00  0.00    -0.508 OA
ATOM     13  H   UNL     1      -7.663  85.099 -10.015  1.00  0.00     0.293 HD
ENDBRANCH   4  12
TORSDOF 2
ENDMDL
