MODEL 1
REMARK VINA RESULT:    -5.342      0.000      0.000
REMARK INTER + INTRA:          -6.274
REMARK INTER:                  -6.123
REMARK INTRA:                  -0.151
REMARK UNBOUND:                -0.151
REMARK SMILES O=C([O-])C=Cc1ccc(O)cc1
REMARK SMILES IDX 6 1 7 2 12 3 8 4 11 5 9 6 5 7 4 8 2 9 1 10 3 11 10 12
REMARK H PARENT 10 13
REMARK Flexibility Score: inf
ROOT
ATOM      1  C   UNL     1       9.741  70.553   0.537  1.00  0.00    -0.025 A 
ATOM      2  C   UNL     1       9.819  71.892   0.957  1.00  0.00     0.012 A 
ATOM      3  C   UNL     1       9.337  69.572   1.466  1.00  0.00     0.012 A 
ATOM      4  C   UNL     1       9.476  72.248   2.265  1.00  0.00     0.047 A 
ATOM      5  C   UNL     1       8.996  69.932   2.773  1.00  0.00     0.047 A 
ATOM      6  C   UNL     1       9.061  71.269   3.176  1.00  0.00     0.115 A 
ENDROOT
BRANCH   1   7
ATOM      7  C   UNL     1      10.127  70.222  -0.857  1.00  0.00     0.010 C 
ATOM      8  C   UNL     1      10.331  71.141  -1.811  1.00  0.00     0.025 C 
BRANCH   8   9
ATOM      9  C   UNL     1      10.724  70.768  -3.179  1.00  0.00     0.064 C 
ATOM     10  O   UNL     1       9.939  70.085  -3.887  1.00  0.00    -0.545 OA
ATOM     11  O   UNL     1      11.952  71.156  -3.704  1.00  0.00    -0.545 OA
ENDBRANCH   8   9
ENDBRANCH   1   7
BRANCH   6  12
ATOM     12  O   UNL     1       8.716  71.613   4.481  1.00  0.00    -0.508 OA
ATOM     13  H   UNL     1       8.416  70.913   5.150  1.00  0.00     0.293 HD
ENDBRANCH   6  12
TORSDOF 3
ENDMDL
MODEL 2
REMARK VINA RESULT:    -5.334      2.037      2.464
REMARK INTER + INTRA:          -6.264
REMARK INTER:                  -6.117
REMARK INTRA:                  -0.147
REMARK UNBOUND:                -0.151
REMARK SMILES O=C([O-])C=Cc1ccc(O)cc1
REMARK SMILES IDX 6 1 7 2 12 3 8 4 11 5 9 6 5 7 4 8 2 9 1 10 3 11 10 12
REMARK H PARENT 10 13
REMARK Flexibility Score: inf
ROOT
ATOM      1  C   UNL     1       9.620  68.894  -0.198  1.00  0.00    -0.025 A 
ATOM      2  C   UNL     1      10.127  69.588   0.915  1.00  0.00     0.012 A 
ATOM      3  C   UNL     1       9.069  67.610  -0.004  1.00  0.00     0.012 A 
ATOM      4  C   UNL     1      10.062  69.027   2.193  1.00  0.00     0.047 A 
ATOM      5  C   UNL     1       9.007  67.052   1.277  1.00  0.00     0.047 A 
ATOM      6  C   UNL     1       9.499  67.759   2.378  1.00  0.00     0.115 A 
ENDROOT
BRANCH   1   7
ATOM      7  C   UNL     1       9.723  69.526  -1.537  1.00  0.00     0.010 C 
ATOM      8  C   UNL     1      10.830  70.126  -1.995  1.00  0.00     0.025 C 
BRANCH   8   9
ATOM      9  C   UNL     1      10.890  70.730  -3.335  1.00  0.00     0.064 C 
ATOM     10  O   UNL     1       9.947  70.535  -4.146  1.00  0.00    -0.545 OA
ATOM     11  O   UNL     1      11.972  71.511  -3.723  1.00  0.00    -0.545 OA
ENDBRANCH   8   9
ENDBRANCH   1   7
BRANCH   6  12
ATOM     12  O   UNL     1       9.428  67.190   3.648  1.00  0.00    -0.508 OA
ATOM     13  H   UNL     1       9.983  66.380   3.896  1.00  0.00     0.293 HD
ENDBRANCH   6  12
TORSDOF 3
ENDMDL
MODEL 3
REMARK VINA RESULT:    -5.318      2.944      5.274
REMARK INTER + INTRA:          -6.246
REMARK INTER:                  -6.094
REMARK INTRA:                  -0.151
REMARK UNBOUND:                -0.151
REMARK SMILES O=C([O-])C=Cc1ccc(O)cc1
REMARK SMILES IDX 6 1 7 2 12 3 8 4 11 5 9 6 5 7 4 8 2 9 1 10 3 11 10 12
REMARK H PARENT 10 13
REMARK Flexibility Score: inf
ROOT
ATOM      1  C   UNL     1       9.752  69.167  -0.597  1.00  0.00    -0.025 A 
ATOM      2  C   UNL     1      10.141  68.195   0.341  1.00  0.00     0.012 A 
ATOM      3  C   UNL     1       9.381  68.751  -1.892  1.00  0.00     0.012 A 
ATOM      4  C   UNL     1      10.135  66.838   0.003  1.00  0.00     0.047 A 
ATOM      5  C   UNL     1       9.377  67.393  -2.226  1.00  0.00     0.047 A 
ATOM      6  C   UNL     1       9.750  66.434  -1.280  1.00  0.00     0.115 A 
ENDROOT
BRANCH   1   7
ATOM      7  C   UNL     1       9.786  70.595  -0.196  1.00  0.00     0.010 C 
ATOM      8  C   UNL     1      10.102  71.015   1.038  1.00  0.00     0.025 C 
BRANCH   8   9
ATOM      9  C   UNL     1      10.135  72.444   1.388  1.00  0.00     0.064 C 
ATOM     10  O   UNL     1      11.160  73.125   1.125  1.00  0.00    -0.545 OA
ATOM     11  O   UNL     1       9.050  73.056   2.006  1.00  0.00    -0.545 OA
ENDBRANCH   8   9
ENDBRANCH   1   7
BRANCH   6  12
ATOM     12  O   UNL     1       9.740  65.085  -1.627  1.00  0.00    -0.508 OA
ATOM     13  H   UNL     1       8.915  64.646  -2.020  1.00  0.00     0.293 HD
ENDBRANCH   6  12
TORSDOF 3
ENDMDL
MODEL 4
REMARK VINA RESULT:    -5.268      2.124      2.903
REMARK INTER + INTRA:          -6.189
REMARK INTER:                  -6.047
REMARK INTRA:                  -0.142
REMARK UNBOUND:                -0.151
REMARK SMILES O=C([O-])C=Cc1ccc(O)cc1
REMARK SMILES IDX 6 1 7 2 12 3 8 4 11 5 9 6 5 7 4 8 2 9 1 10 3 11 10 12
REMARK H PARENT 10 13
REMARK Flexibility Score: inf
ROOT
ATOM      1  C   UNL     1       9.655  69.878   0.875  1.00  0.00    -0.025 A 
ATOM      2  C   UNL     1       8.964  69.423   2.011  1.00  0.00     0.012 A 
ATOM      3  C   UNL     1       9.972  71.248   0.776  1.00  0.00     0.012 A 
ATOM      4  C   UNL     1       8.619  70.309   3.036  1.00  0.00     0.047 A 
ATOM      5  C   UNL     1       9.625  72.131   1.803  1.00  0.00     0.047 A 
ATOM      6  C   UNL     1       8.952  71.665   2.936  1.00  0.00     0.115 A 
ENDROOT
BRANCH   1   7
ATOM      7  C   UNL     1       9.989  68.901  -0.191  1.00  0.00     0.010 C 
ATOM      8  C   UNL     1       9.098  68.064  -0.740  1.00  0.00     0.025 C 
BRANCH   8   9
ATOM      9  C   UNL     1       9.472  67.119  -1.805  1.00  0.00     0.064 C 
ATOM     10  O   UNL     1       9.375  67.471  -3.009  1.00  0.00    -0.545 OA
ATOM     11  O   UNL     1       9.929  65.842  -1.502  1.00  0.00    -0.545 OA
ENDBRANCH   8   9
ENDBRANCH   1   7
BRANCH   6  12
ATOM     12  O   UNL     1       8.614  72.557   3.951  1.00  0.00    -0.508 OA
ATOM     13  H   UNL     1       7.830  73.192   3.859  1.00  0.00     0.293 HD
ENDBRANCH   6  12
TORSDOF 3
ENDMDL
MODEL 5
REMARK VINA RESULT:    -5.266      2.059      5.916
REMARK INTER + INTRA:          -6.187
REMARK INTER:                  -6.050
REMARK INTRA:                  -0.137
REMARK UNBOUND:                -0.151
REMARK SMILES O=C([O-])C=Cc1ccc(O)cc1
REMARK SMILES IDX 6 1 7 2 12 3 8 4 11 5 9 6 5 7 4 8 2 9 1 10 3 11 10 12
REMARK H PARENT 10 13
REMARK Flexibility Score: inf
ROOT
ATOM      1  C   UNL     1       9.584  69.524   0.217  1.00  0.00    -0.025 A 
ATOM      2  C   UNL     1       9.614  68.123   0.325  1.00  0.00     0.012 A 
ATOM      3  C   UNL     1       9.459  70.104  -1.062  1.00  0.00     0.012 A 
ATOM      4  C   UNL     1       9.496  67.319  -0.812  1.00  0.00     0.047 A 
ATOM      5  C   UNL     1       9.343  69.296  -2.198  1.00  0.00     0.047 A 
ATOM      6  C   UNL     1       9.358  67.903  -2.077  1.00  0.00     0.115 A 
ENDROOT
BRANCH   1   7
ATOM      7  C   UNL     1       9.724  70.335   1.452  1.00  0.00     0.010 C 
ATOM      8  C   UNL     1       8.810  70.364   2.432  1.00  0.00     0.025 C 
BRANCH   8   9
ATOM      9  C   UNL     1       8.996  71.175   3.645  1.00  0.00     0.064 C 
ATOM     10  O   UNL     1       9.888  70.856   4.475  1.00  0.00    -0.545 OA
ATOM     11  O   UNL     1       8.203  72.289   3.893  1.00  0.00    -0.545 OA
ENDBRANCH   8   9
ENDBRANCH   1   7
BRANCH   6  12
ATOM     12  O   UNL     1       9.239  67.112  -3.217  1.00  0.00    -0.508 OA
ATOM     13  H   UNL     1       9.793  67.292  -4.046  1.00  0.00     0.293 HD
ENDBRANCH   6  12
TORSDOF 3
ENDMDL
MODEL 6
REMARK VINA RESULT:    -5.232      2.374      5.650
REMARK INTER + INTRA:          -6.147
REMARK INTER:                  -6.010
REMARK INTRA:                  -0.137
REMARK UNBOUND:                -0.151
REMARK SMILES O=C([O-])C=Cc1ccc(O)cc1
REMARK SMILES IDX 6 1 7 2 12 3 8 4 11 5 9 6 5 7 4 8 2 9 1 10 3 11 10 12
REMARK H PARENT 10 13
REMARK Flexibility Score: inf
ROOT
ATOM      1  C   UNL     1      10.031  69.948  -0.889  1.00  0.00    -0.025 A 
ATOM      2  C   UNL     1      10.588  69.334  -2.024  1.00  0.00     0.012 A 
ATOM      3  C   UNL     1      10.150  71.346  -0.745  1.00  0.00     0.012 A 
ATOM      4  C   UNL     1      11.227  70.098  -3.005  1.00  0.00     0.047 A 
ATOM      5  C   UNL     1      10.791  72.106  -1.728  1.00  0.00     0.047 A 
ATOM      6  C   UNL     1      11.327  71.487  -2.861  1.00  0.00     0.115 A 
ENDROOT
BRANCH   1   7
ATOM      7  C   UNL     1       9.373  69.093   0.130  1.00  0.00     0.010 C 
ATOM      8  C   UNL     1      10.042  68.338   1.013  1.00  0.00     0.025 C 
BRANCH   8   9
ATOM      9  C   UNL     1       9.347  67.514   2.015  1.00  0.00     0.064 C 
ATOM     10  O   UNL     1       8.580  66.591   1.636  1.00  0.00    -0.545 OA
ATOM     11  O   UNL     1       9.523  67.739   3.375  1.00  0.00    -0.545 OA
ENDBRANCH   8   9
ENDBRANCH   1   7
BRANCH   6  12
ATOM     12  O   UNL     1      11.961  72.259  -3.832  1.00  0.00    -0.508 OA
ATOM     13  H   UNL     1      12.869  72.003  -4.201  1.00  0.00     0.293 HD
ENDBRANCH   6  12
TORSDOF 3
ENDMDL
MODEL 7
REMARK VINA RESULT:    -5.161      1.024      5.698
REMARK INTER + INTRA:          -6.067
REMARK INTER:                  -5.914
REMARK INTRA:                  -0.152
REMARK UNBOUND:                -0.151
REMARK SMILES O=C([O-])C=Cc1ccc(O)cc1
REMARK SMILES IDX 6 1 7 2 12 3 8 4 11 5 9 6 5 7 4 8 2 9 1 10 3 11 10 12
REMARK H PARENT 10 13
REMARK Flexibility Score: inf
ROOT
ATOM      1  C   UNL     1       9.866  70.276  -0.160  1.00  0.00    -0.025 A 
ATOM      2  C   UNL     1      10.134  71.510  -0.776  1.00  0.00     0.012 A 
ATOM      3  C   UNL     1       9.891  69.104  -0.945  1.00  0.00     0.012 A 
ATOM      4  C   UNL     1      10.446  71.573  -2.137  1.00  0.00     0.047 A 
ATOM      5  C   UNL     1      10.202  69.172  -2.307  1.00  0.00     0.047 A 
ATOM      6  C   UNL     1      10.484  70.403  -2.905  1.00  0.00     0.115 A 
ENDROOT
BRANCH   1   7
ATOM      7  C   UNL     1       9.528  70.262   1.285  1.00  0.00     0.010 C 
ATOM      8  C   UNL     1       9.522  71.356   2.060  1.00  0.00     0.025 C 
BRANCH   8   9
ATOM      9  C   UNL     1       9.169  71.296   3.487  1.00  0.00     0.064 C 
ATOM     10  O   UNL     1       9.799  70.519   4.251  1.00  0.00    -0.545 OA
ATOM     11  O   UNL     1       8.149  72.084   4.007  1.00  0.00    -0.545 OA
ENDBRANCH   8   9
ENDBRANCH   1   7
BRANCH   6  12
ATOM     12  O   UNL     1      10.794  70.453  -4.262  1.00  0.00    -0.508 OA
ATOM     13  H   UNL     1      10.704  69.637  -4.856  1.00  0.00     0.293 HD
ENDBRANCH   6  12
TORSDOF 3
ENDMDL
MODEL 8
REMARK VINA RESULT:    -4.788      2.598      3.385
REMARK INTER + INTRA:          -5.639
REMARK INTER:                  -5.487
REMARK INTRA:                  -0.152
REMARK UNBOUND:                -0.151
REMARK SMILES O=C([O-])C=Cc1ccc(O)cc1
REMARK SMILES IDX 6 1 7 2 12 3 8 4 11 5 9 6 5 7 4 8 2 9 1 10 3 11 10 12
REMARK H PARENT 10 13
REMARK Flexibility Score: inf
ROOT
ATOM      1  C   UNL     1       9.824  69.062   0.554  1.00  0.00    -0.025 A 
ATOM      2  C   UNL     1       9.161  68.084  -0.207  1.00  0.00     0.012 A 
ATOM      3  C   UNL     1       9.940  68.877   1.947  1.00  0.00     0.012 A 
ATOM      4  C   UNL     1       8.649  66.935   0.402  1.00  0.00     0.047 A 
ATOM      5  C   UNL     1       9.425  67.726   2.553  1.00  0.00     0.047 A 
ATOM      6  C   UNL     1       8.782  66.752   1.784  1.00  0.00     0.115 A 
ENDROOT
BRANCH   1   7
ATOM      7  C   UNL     1      10.341  70.270  -0.137  1.00  0.00     0.010 C 
ATOM      8  C   UNL     1      10.394  70.401  -1.470  1.00  0.00     0.025 C 
BRANCH   8   9
ATOM      9  C   UNL     1      10.904  71.623  -2.111  1.00  0.00     0.064 C 
ATOM     10  O   UNL     1      11.526  71.539  -3.202  1.00  0.00    -0.545 OA
ATOM     11  O   UNL     1      10.711  72.871  -1.531  1.00  0.00    -0.545 OA
ENDBRANCH   8   9
ENDBRANCH   1   7
BRANCH   6  12
ATOM     12  O   UNL     1       8.276  65.610   2.401  1.00  0.00    -0.508 OA
ATOM     13  H   UNL     1       7.663  64.970   1.910  1.00  0.00     0.293 HD
ENDBRANCH   6  12
TORSDOF 3
ENDMDL
MODEL 9
REMARK VINA RESULT:    -4.518      2.506      5.765
REMARK INTER + INTRA:          -5.329
REMARK INTER:                  -5.195
REMARK INTRA:                  -0.134
REMARK UNBOUND:                -0.151
REMARK SMILES O=C([O-])C=Cc1ccc(O)cc1
REMARK SMILES IDX 6 1 7 2 12 3 8 4 11 5 9 6 5 7 4 8 2 9 1 10 3 11 10 12
REMARK H PARENT 10 13
REMARK Flexibility Score: inf
ROOT
ATOM      1  C   UNL     1       9.700  69.273  -0.379  1.00  0.00    -0.025 A 
ATOM      2  C   UNL     1       9.976  70.634  -0.598  1.00  0.00     0.012 A 
ATOM      3  C   UNL     1       9.386  68.457  -1.486  1.00  0.00     0.012 A 
ATOM      4  C   UNL     1       9.966  71.163  -1.892  1.00  0.00     0.047 A 
ATOM      5  C   UNL     1       9.376  68.991  -2.778  1.00  0.00     0.047 A 
ATOM      6  C   UNL     1       9.669  70.342  -2.986  1.00  0.00     0.115 A 
ENDROOT
BRANCH   1   7
ATOM      7  C   UNL     1       9.711  68.761   1.014  1.00  0.00     0.010 C 
ATOM      8  C   UNL     1      10.680  67.980   1.512  1.00  0.00     0.025 C 
BRANCH   8   9
ATOM      9  C   UNL     1      10.657  67.505   2.905  1.00  0.00     0.064 C 
ATOM     10  O   UNL     1      11.741  67.291   3.506  1.00  0.00    -0.545 OA
ATOM     11  O   UNL     1       9.454  67.286   3.567  1.00  0.00    -0.545 OA
ENDBRANCH   8   9
ENDBRANCH   1   7
BRANCH   6  12
ATOM     12  O   UNL     1       9.656  70.858  -4.279  1.00  0.00    -0.508 OA
ATOM     13  H   UNL     1      10.187  71.686  -4.524  1.00  0.00     0.293 HD
ENDBRANCH   6  12
TORSDOF 3
ENDMDL
