MODEL 1
REMARK VINA RESULT:    -6.008      0.000      0.000
REMARK INTER + INTRA:          -9.008
REMARK INTER:                  -8.115
REMARK INTRA:                  -0.893
REMARK UNBOUND:                -0.893
REMARK SMILES CC(=O)CCC=C(C)CCC=C(C)C
REMARK SMILES IDX 7 1 6 2 8 3 9 4 10 5 11 6 13 7 12 8 14 9 5 10 4 11 2 12 3 13
REMARK SMILES IDX 1 14
REMARK H PARENT
REMARK Flexibility Score: inf
ROOT
ATOM      1  C   UNL     1      -8.521  32.695  20.973  1.00  0.00    -0.077 C 
ATOM      2  C   UNL     1      -8.775  33.645  21.904  1.00  0.00    -0.028 C 
ATOM      3  C   UNL     1      -7.329  32.786  20.050  1.00  0.00     0.039 C 
ENDROOT
BRANCH   1   4
ATOM      4  C   UNL     1      -9.455  31.505  20.861  1.00  0.00     0.034 C 
BRANCH   4   5
ATOM      5  C   UNL     1      -8.881  30.253  21.537  1.00  0.00     0.032 C 
BRANCH   5   6
ATOM      6  C   UNL     1      -8.948  30.337  23.045  1.00  0.00    -0.028 C 
ATOM      7  C   UNL     1      -6.535  29.739  23.277  1.00  0.00     0.039 C 
ATOM      8  C   UNL     1      -7.886  30.104  23.845  1.00  0.00    -0.080 C 
ATOM      9  C   UNL     1      -8.065  30.215  25.337  1.00  0.00     0.039 C 
ENDBRANCH   5   6
ENDBRANCH   4   5
ENDBRANCH   1   4
BRANCH   2  10
ATOM     10  C   UNL     1      -7.907  34.854  22.150  1.00  0.00     0.035 C 
BRANCH  10  11
ATOM     11  C   UNL     1      -7.182  34.736  23.494  1.00  0.00     0.079 C 
BRANCH  11  12
ATOM     12  C   UNL     1      -8.167  34.765  24.632  1.00  0.00     0.130 C 
ATOM     13  O   UNL     1      -8.310  33.772  25.330  1.00  0.00    -0.300 OA
ATOM     14  C   UNL     1      -8.975  35.992  24.936  1.00  0.00     0.087 C 
ENDBRANCH  11  12
ENDBRANCH  10  11
ENDBRANCH   2  10
TORSDOF 6
ENDMDL
MODEL 2
REMARK VINA RESULT:    -5.780      1.510      4.369
REMARK INTER + INTRA:          -8.701
REMARK INTER:                  -7.974
REMARK INTRA:                  -0.727
REMARK UNBOUND:                -0.893
REMARK SMILES CC(=O)CCC=C(C)CCC=C(C)C
REMARK SMILES IDX 7 1 6 2 8 3 9 4 10 5 11 6 13 7 12 8 14 9 5 10 4 11 2 12 3 13
REMARK SMILES IDX 1 14
REMARK H PARENT
REMARK Flexibility Score: inf
ROOT
ATOM      1  C   UNL     1      -8.487  32.506  21.539  1.00  0.00    -0.077 C 
ATOM      2  C   UNL     1      -7.658  31.471  21.813  1.00  0.00    -0.028 C 
ATOM      3  C   UNL     1      -9.989  32.360  21.601  1.00  0.00     0.039 C 
ENDROOT
BRANCH   1   4
ATOM      4  C   UNL     1      -7.889  33.849  21.168  1.00  0.00     0.034 C 
BRANCH   4   5
ATOM      5  C   UNL     1      -7.917  34.839  22.340  1.00  0.00     0.032 C 
BRANCH   5   6
ATOM      6  C   UNL     1      -7.861  34.139  23.680  1.00  0.00    -0.028 C 
ATOM      7  C   UNL     1      -9.065  36.011  24.811  1.00  0.00     0.039 C 
ATOM      8  C   UNL     1      -8.380  34.666  24.809  1.00  0.00    -0.080 C 
ATOM      9  C   UNL     1      -8.269  33.882  26.091  1.00  0.00     0.039 C 
ENDBRANCH   5   6
ENDBRANCH   4   5
ENDBRANCH   1   4
BRANCH   2  10
ATOM     10  C   UNL     1      -8.119  30.097  22.235  1.00  0.00     0.035 C 
BRANCH  10  11
ATOM     11  C   UNL     1      -7.317  29.605  23.443  1.00  0.00     0.079 C 
BRANCH  11  12
ATOM     12  C   UNL     1      -8.039  29.923  24.726  1.00  0.00     0.130 C 
ATOM     13  O   UNL     1      -7.480  29.730  25.795  1.00  0.00    -0.300 OA
ATOM     14  C   UNL     1      -9.432  30.480  24.721  1.00  0.00     0.087 C 
ENDBRANCH  11  12
ENDBRANCH  10  11
ENDBRANCH   2  10
TORSDOF 6
ENDMDL
MODEL 3
REMARK VINA RESULT:    -5.763      1.939      3.762
REMARK INTER + INTRA:          -8.677
REMARK INTER:                  -7.963
REMARK INTRA:                  -0.715
REMARK UNBOUND:                -0.893
REMARK SMILES CC(=O)CCC=C(C)CCC=C(C)C
REMARK SMILES IDX 7 1 6 2 8 3 9 4 10 5 11 6 13 7 12 8 14 9 5 10 4 11 2 12 3 13
REMARK SMILES IDX 1 14
REMARK H PARENT
REMARK Flexibility Score: inf
ROOT
ATOM      1  C   UNL     1      -8.601  33.007  25.017  1.00  0.00    -0.077 C 
ATOM      2  C   UNL     1      -8.212  33.000  23.721  1.00  0.00    -0.028 C 
ATOM      3  C   UNL     1      -8.407  34.218  25.899  1.00  0.00     0.039 C 
ENDROOT
BRANCH   1   4
ATOM      4  C   UNL     1      -9.255  31.767  25.597  1.00  0.00     0.034 C 
BRANCH   4   5
ATOM      5  C   UNL     1      -8.357  30.528  25.477  1.00  0.00     0.032 C 
BRANCH   5   6
ATOM      6  C   UNL     1      -8.870  29.549  24.445  1.00  0.00    -0.028 C 
ATOM      7  C   UNL     1      -6.767  29.717  23.109  1.00  0.00     0.039 C 
ATOM      8  C   UNL     1      -8.153  29.175  23.364  1.00  0.00    -0.080 C 
ATOM      9  C   UNL     1      -8.761  28.193  22.397  1.00  0.00     0.039 C 
ENDBRANCH   5   6
ENDBRANCH   4   5
ENDBRANCH   1   4
BRANCH   2  10
ATOM     10  C   UNL     1      -7.589  34.176  23.010  1.00  0.00     0.035 C 
BRANCH  10  11
ATOM     11  C   UNL     1      -8.211  34.362  21.623  1.00  0.00     0.079 C 
BRANCH  11  12
ATOM     12  C   UNL     1      -8.108  33.092  20.820  1.00  0.00     0.130 C 
ATOM     13  O   UNL     1      -7.119  32.896  20.129  1.00  0.00    -0.300 OA
ATOM     14  C   UNL     1      -9.190  32.054  20.853  1.00  0.00     0.087 C 
ENDBRANCH  11  12
ENDBRANCH  10  11
ENDBRANCH   2  10
TORSDOF 6
ENDMDL
MODEL 4
REMARK VINA RESULT:    -5.752      1.691      3.133
REMARK INTER + INTRA:          -8.662
REMARK INTER:                  -7.731
REMARK INTRA:                  -0.932
REMARK UNBOUND:                -0.893
REMARK SMILES CC(=O)CCC=C(C)CCC=C(C)C
REMARK SMILES IDX 7 1 6 2 8 3 9 4 10 5 11 6 13 7 12 8 14 9 5 10 4 11 2 12 3 13
REMARK SMILES IDX 1 14
REMARK H PARENT
REMARK Flexibility Score: inf
ROOT
ATOM      1  C   UNL     1      -8.461  33.494  22.901  1.00  0.00    -0.077 C 
ATOM      2  C   UNL     1      -9.027  32.951  24.003  1.00  0.00    -0.028 C 
ATOM      3  C   UNL     1      -7.510  34.665  22.990  1.00  0.00     0.039 C 
ENDROOT
BRANCH   1   4
ATOM      4  C   UNL     1      -8.782  32.905  21.541  1.00  0.00     0.034 C 
BRANCH   4   5
ATOM      5  C   UNL     1      -7.928  31.669  21.228  1.00  0.00     0.032 C 
BRANCH   5   6
ATOM      6  C   UNL     1      -8.607  30.385  21.647  1.00  0.00    -0.028 C 
ATOM      7  C   UNL     1      -6.716  29.771  23.158  1.00  0.00     0.039 C 
ATOM      8  C   UNL     1      -8.063  29.515  22.525  1.00  0.00    -0.080 C 
ATOM      9  C   UNL     1      -8.826  28.264  22.872  1.00  0.00     0.039 C 
ENDBRANCH   5   6
ENDBRANCH   4   5
ENDBRANCH   1   4
BRANCH   2  10
ATOM     10  C   UNL     1      -8.761  33.412  25.415  1.00  0.00     0.035 C 
BRANCH  10  11
ATOM     11  C   UNL     1      -9.256  32.373  26.426  1.00  0.00     0.079 C 
BRANCH  11  12
ATOM     12  C   UNL     1      -8.100  31.593  26.995  1.00  0.00     0.130 C 
ATOM     13  O   UNL     1      -7.329  32.139  27.769  1.00  0.00    -0.300 OA
ATOM     14  C   UNL     1      -7.877  30.154  26.637  1.00  0.00     0.087 C 
ENDBRANCH  11  12
ENDBRANCH  10  11
ENDBRANCH   2  10
TORSDOF 6
ENDMDL
MODEL 5
REMARK VINA RESULT:    -5.681      1.733      3.213
REMARK INTER + INTRA:          -8.567
REMARK INTER:                  -7.557
REMARK INTRA:                  -1.010
REMARK UNBOUND:                -0.893
REMARK SMILES CC(=O)CCC=C(C)CCC=C(C)C
REMARK SMILES IDX 7 1 6 2 8 3 9 4 10 5 11 6 13 7 12 8 14 9 5 10 4 11 2 12 3 13
REMARK SMILES IDX 1 14
REMARK H PARENT
REMARK Flexibility Score: inf
ROOT
ATOM      1  C   UNL     1      -8.096  29.657  22.570  1.00  0.00    -0.077 C 
ATOM      2  C   UNL     1      -8.612  30.585  21.730  1.00  0.00    -0.028 C 
ATOM      3  C   UNL     1      -6.684  29.759  23.097  1.00  0.00     0.039 C 
ENDROOT
BRANCH   1   4
ATOM      4  C   UNL     1      -8.963  28.489  23.000  1.00  0.00     0.034 C 
BRANCH   4   5
ATOM      5  C   UNL     1      -9.228  28.489  24.512  1.00  0.00     0.032 C 
BRANCH   5   6
ATOM      6  C   UNL     1      -9.724  29.830  25.004  1.00  0.00    -0.028 C 
ATOM      7  C   UNL     1      -7.828  30.044  26.614  1.00  0.00     0.039 C 
ATOM      8  C   UNL     1      -9.094  30.544  25.960  1.00  0.00    -0.080 C 
ATOM      9  C   UNL     1      -9.677  31.869  26.376  1.00  0.00     0.039 C 
ENDBRANCH   5   6
ENDBRANCH   4   5
ENDBRANCH   1   4
BRANCH   2  10
ATOM     10  C   UNL     1      -7.875  31.814  21.259  1.00  0.00     0.035 C 
BRANCH  10  11
ATOM     11  C   UNL     1      -8.757  33.058  21.393  1.00  0.00     0.079 C 
BRANCH  11  12
ATOM     12  C   UNL     1      -8.060  34.119  22.203  1.00  0.00     0.130 C 
ATOM     13  O   UNL     1      -7.516  35.052  21.631  1.00  0.00    -0.300 OA
ATOM     14  C   UNL     1      -8.025  34.062  23.701  1.00  0.00     0.087 C 
ENDBRANCH  11  12
ENDBRANCH  10  11
ENDBRANCH   2  10
TORSDOF 6
ENDMDL
MODEL 6
REMARK VINA RESULT:    -5.590      1.977      4.296
REMARK INTER + INTRA:          -8.444
REMARK INTER:                  -7.172
REMARK INTRA:                  -1.272
REMARK UNBOUND:                -0.893
REMARK SMILES CC(=O)CCC=C(C)CCC=C(C)C
REMARK SMILES IDX 7 1 6 2 8 3 9 4 10 5 11 6 13 7 12 8 14 9 5 10 4 11 2 12 3 13
REMARK SMILES IDX 1 14
REMARK H PARENT
REMARK Flexibility Score: inf
ROOT
ATOM      1  C   UNL     1      -8.143  34.940  24.794  1.00  0.00    -0.077 C 
ATOM      2  C   UNL     1      -7.510  34.408  23.723  1.00  0.00    -0.028 C 
ATOM      3  C   UNL     1      -9.140  36.066  24.650  1.00  0.00     0.039 C 
ENDROOT
BRANCH   1   4
ATOM      4  C   UNL     1      -7.850  34.384  26.174  1.00  0.00     0.034 C 
BRANCH   4   5
ATOM      5  C   UNL     1      -8.820  33.260  26.565  1.00  0.00     0.032 C 
BRANCH   5   6
ATOM      6  C   UNL     1      -8.298  31.895  26.178  1.00  0.00    -0.028 C 
ATOM      7  C   UNL     1      -9.988  31.665  24.355  1.00  0.00     0.039 C 
ATOM      8  C   UNL     1      -8.824  31.161  25.174  1.00  0.00    -0.080 C 
ATOM      9  C   UNL     1      -8.226  29.812  24.874  1.00  0.00     0.039 C 
ENDBRANCH   5   6
ENDBRANCH   4   5
ENDBRANCH   1   4
BRANCH   2  10
ATOM     10  C   UNL     1      -7.740  34.837  22.295  1.00  0.00     0.035 C 
BRANCH  10  11
ATOM     11  C   UNL     1      -8.608  33.815  21.555  1.00  0.00     0.079 C 
BRANCH  11  12
ATOM     12  C   UNL     1      -7.751  32.752  20.919  1.00  0.00     0.130 C 
ATOM     13  O   UNL     1      -7.140  33.007  19.892  1.00  0.00    -0.300 OA
ATOM     14  C   UNL     1      -7.624  31.385  21.524  1.00  0.00     0.087 C 
ENDBRANCH  11  12
ENDBRANCH  10  11
ENDBRANCH   2  10
TORSDOF 6
ENDMDL
MODEL 7
REMARK VINA RESULT:    -5.558      1.332      3.849
REMARK INTER + INTRA:          -8.400
REMARK INTER:                  -7.437
REMARK INTRA:                  -0.963
REMARK UNBOUND:                -0.893
REMARK SMILES CC(=O)CCC=C(C)CCC=C(C)C
REMARK SMILES IDX 7 1 6 2 8 3 9 4 10 5 11 6 13 7 12 8 14 9 5 10 4 11 2 12 3 13
REMARK SMILES IDX 1 14
REMARK H PARENT
REMARK Flexibility Score: inf
ROOT
ATOM      1  C   UNL     1      -8.266  30.378  23.076  1.00  0.00    -0.077 C 
ATOM      2  C   UNL     1      -9.255  30.419  23.999  1.00  0.00    -0.028 C 
ATOM      3  C   UNL     1      -6.810  30.307  23.473  1.00  0.00     0.039 C 
ENDROOT
BRANCH   1   4
ATOM      4  C   UNL     1      -8.631  30.394  21.604  1.00  0.00     0.034 C 
BRANCH   4   5
ATOM      5  C   UNL     1      -9.446  31.638  21.223  1.00  0.00     0.032 C 
BRANCH   5   6
ATOM      6  C   UNL     1      -8.893  32.897  21.853  1.00  0.00    -0.028 C 
ATOM      7  C   UNL     1      -7.381  33.315  19.911  1.00  0.00     0.039 C 
ATOM      8  C   UNL     1      -7.953  33.666  21.264  1.00  0.00    -0.080 C 
ATOM      9  C   UNL     1      -7.473  34.900  21.982  1.00  0.00     0.039 C 
ENDBRANCH   5   6
ENDBRANCH   4   5
ENDBRANCH   1   4
BRANCH   2  10
ATOM     10  C   UNL     1      -9.033  30.367  25.491  1.00  0.00     0.035 C 
BRANCH  10  11
ATOM     11  C   UNL     1      -9.645  31.594  26.173  1.00  0.00     0.079 C 
BRANCH  11  12
ATOM     12  C   UNL     1      -8.609  32.671  26.358  1.00  0.00     0.130 C 
ATOM     13  O   UNL     1      -7.831  32.601  27.298  1.00  0.00    -0.300 OA
ATOM     14  C   UNL     1      -8.505  33.827  25.409  1.00  0.00     0.087 C 
ENDBRANCH  11  12
ENDBRANCH  10  11
ENDBRANCH   2  10
TORSDOF 6
ENDMDL
MODEL 8
REMARK VINA RESULT:    -5.484      2.021      5.552
REMARK INTER + INTRA:          -8.300
REMARK INTER:                  -7.312
REMARK INTRA:                  -0.988
REMARK UNBOUND:                -0.893
REMARK SMILES CC(=O)CCC=C(C)CCC=C(C)C
REMARK SMILES IDX 7 1 6 2 8 3 9 4 10 5 11 6 13 7 12 8 14 9 5 10 4 11 2 12 3 13
REMARK SMILES IDX 1 14
REMARK H PARENT
REMARK Flexibility Score: inf
ROOT
ATOM      1  C   UNL     1      -9.096  30.364  25.727  1.00  0.00    -0.077 C 
ATOM      2  C   UNL     1      -9.600  29.733  24.641  1.00  0.00    -0.028 C 
ATOM      3  C   UNL     1      -7.850  29.872  26.425  1.00  0.00     0.039 C 
ENDROOT
BRANCH   1   4
ATOM      4  C   UNL     1      -9.798  31.602  26.252  1.00  0.00     0.034 C 
BRANCH   4   5
ATOM      5  C   UNL     1      -8.875  32.828  26.266  1.00  0.00     0.032 C 
BRANCH   5   6
ATOM      6  C   UNL     1      -8.461  33.248  24.874  1.00  0.00    -0.028 C 
ATOM      7  C   UNL     1      -8.590  35.669  25.467  1.00  0.00     0.039 C 
ATOM      8  C   UNL     1      -8.329  34.538  24.501  1.00  0.00    -0.080 C 
ATOM      9  C   UNL     1      -7.912  34.844  23.086  1.00  0.00     0.039 C 
ENDBRANCH   5   6
ENDBRANCH   4   5
ENDBRANCH   1   4
BRANCH   2  10
ATOM     10  C   UNL     1      -8.979  28.520  23.993  1.00  0.00     0.035 C 
BRANCH  10  11
ATOM     11  C   UNL     1      -8.528  28.840  22.565  1.00  0.00     0.079 C 
BRANCH  11  12
ATOM     12  C   UNL     1      -7.469  29.911  22.570  1.00  0.00     0.130 C 
ATOM     13  O   UNL     1      -6.415  29.711  23.155  1.00  0.00    -0.300 OA
ATOM     14  C   UNL     1      -7.675  31.218  21.864  1.00  0.00     0.087 C 
ENDBRANCH  11  12
ENDBRANCH  10  11
ENDBRANCH   2  10
TORSDOF 6
ENDMDL
MODEL 9
REMARK VINA RESULT:    -5.482      2.100      4.885
REMARK INTER + INTRA:          -8.298
REMARK INTER:                  -7.423
REMARK INTRA:                  -0.875
REMARK UNBOUND:                -0.893
REMARK SMILES CC(=O)CCC=C(C)CCC=C(C)C
REMARK SMILES IDX 7 1 6 2 8 3 9 4 10 5 11 6 13 7 12 8 14 9 5 10 4 11 2 12 3 13
REMARK SMILES IDX 1 14
REMARK H PARENT
REMARK Flexibility Score: inf
ROOT
ATOM      1  C   UNL     1      -7.865  30.302  22.170  1.00  0.00    -0.077 C 
ATOM      2  C   UNL     1      -8.712  29.250  22.085  1.00  0.00    -0.028 C 
ATOM      3  C   UNL     1      -6.726  30.328  23.163  1.00  0.00     0.039 C 
ENDROOT
BRANCH   1   4
ATOM      4  C   UNL     1      -8.059  31.483  21.238  1.00  0.00     0.034 C 
BRANCH   4   5
ATOM      5  C   UNL     1      -9.201  32.401  21.696  1.00  0.00     0.032 C 
BRANCH   5   6
ATOM      6  C   UNL     1      -8.888  33.089  23.006  1.00  0.00    -0.028 C 
ATOM      7  C   UNL     1      -7.644  34.920  21.851  1.00  0.00     0.039 C 
ATOM      8  C   UNL     1      -8.180  34.236  23.086  1.00  0.00    -0.080 C 
ATOM      9  C   UNL     1      -7.927  34.836  24.444  1.00  0.00     0.039 C 
ENDBRANCH   5   6
ENDBRANCH   4   5
ENDBRANCH   1   4
BRANCH   2  10
ATOM     10  C   UNL     1      -8.606  27.999  22.921  1.00  0.00     0.035 C 
BRANCH  10  11
ATOM     11  C   UNL     1      -9.790  27.891  23.887  1.00  0.00     0.079 C 
BRANCH  11  12
ATOM     12  C   UNL     1      -9.558  28.743  25.107  1.00  0.00     0.130 C 
ATOM     13  O   UNL     1      -8.987  28.264  26.076  1.00  0.00    -0.300 OA
ATOM     14  C   UNL     1     -10.007  30.174  25.159  1.00  0.00     0.087 C 
ENDBRANCH  11  12
ENDBRANCH  10  11
ENDBRANCH   2  10
TORSDOF 6
ENDMDL
