MODEL 1
REMARK VINA RESULT:    -4.230      0.000      0.000
REMARK INTER + INTRA:          -6.761
REMARK INTER:                  -6.456
REMARK INTRA:                  -0.306
REMARK UNBOUND:                -0.306
REMARK SMILES CC1=CCC[C@@H](C)C(=O)C[C@H](C(C)C)C(=O)C1
REMARK SMILES IDX 8 1 9 2 6 3 7 4 5 5 4 6 3 7 2 8 1 9 10 11 11 12 15 13 16 14
REMARK SMILES IDX 17 15 12 17 13 18 14 19
REMARK H PARENT
REMARK Flexibility Score: 70.00
ROOT
ATOM      1  C   UNL     1     122.628 176.092 125.457  1.00  0.00     0.136 C 
ATOM      2  O   UNL     1     123.476 175.246 125.205  1.00  0.00    -0.299 OA
ENDROOT
BRANCH   1   3
ATOM      3  C   UNL     1     122.765 177.500 124.904  1.00  0.00     0.053 C 
ATOM      4  C   UNL     1     123.137 177.511 123.412  1.00  0.00     0.016 C 
BRANCH   3   5
ATOM      5  C   UNL     1     123.751 178.342 125.739  1.00  0.00     0.015 C 
BRANCH   5   6
ATOM      6  C   UNL     1     123.087 179.097 126.908  1.00  0.00     0.028 C 
BRANCH   6   7
ATOM      7  C   UNL     1     123.631 178.617 128.229  1.00  0.00    -0.028 C 
ATOM      8  C   UNL     1     122.927 177.900 129.138  1.00  0.00    -0.070 CG0
ATOM      9  C   UNL     1     123.600 177.555 130.442  1.00  0.00     0.039 C 
ATOM     10  G   UNL     1     121.506 177.416 128.891  1.00  0.00     0.000 G0
ENDBRANCH   6   7
ENDBRANCH   5   6
ENDBRANCH   3   5
ENDBRANCH   1   3
BRANCH   1  11
ATOM     11  C   UNL     1     121.454 175.711 126.327  1.00  0.00     0.087 C 
BRANCH  11  12
ATOM     12  C   UNL     1     121.903 175.092 127.677  1.00  0.00     0.066 C 
BRANCH  12  13
ATOM     13  C   UNL     1     121.371 175.891 128.859  1.00  0.00     0.140 C 
ATOM     14  O   UNL     1     120.894 175.307 129.823  1.00  0.00    -0.299 OA
BRANCH  13  15
ATOM     15  C   UNL     1     121.486 177.395 128.892  1.00  0.00     0.106 CG0
ATOM     16  G   UNL     1     122.912 177.864 129.137  1.00  0.00     0.000 G0
ENDBRANCH  13  15
ENDBRANCH  12  13
BRANCH  12  17
ATOM     17  C   UNL     1     121.549 173.576 127.770  1.00  0.00    -0.006 C 
ATOM     18  C   UNL     1     120.491 173.181 126.729  1.00  0.00     0.008 C 
ATOM     19  C   UNL     1     122.764 172.636 127.675  1.00  0.00     0.008 C 
ENDBRANCH  12  17
ENDBRANCH  11  12
ENDBRANCH   1  11
TORSDOF 1
ENDMDL
MODEL 2
REMARK VINA RESULT:    -4.158      2.322      4.970
REMARK INTER + INTRA:          -6.651
REMARK INTER:                  -6.953
REMARK INTRA:                   0.302
REMARK UNBOUND:                -0.306
REMARK SMILES CC1=CCC[C@@H](C)C(=O)C[C@H](C(C)C)C(=O)C1
REMARK SMILES IDX 8 1 9 2 6 3 7 4 5 5 4 6 3 7 2 8 1 9 10 11 11 12 15 13 16 14
REMARK SMILES IDX 17 15 12 17 13 18 14 19
REMARK H PARENT
REMARK Flexibility Score: 70.00
ROOT
ATOM      1  C   UNL     1     122.249 178.900 128.526  1.00  0.00     0.136 C 
ATOM      2  O   UNL     1     123.300 179.122 127.939  1.00  0.00    -0.299 OA
ENDROOT
BRANCH   1   3
ATOM      3  C   UNL     1     122.257 178.581 130.011  1.00  0.00     0.053 C 
ATOM      4  C   UNL     1     123.299 179.408 130.784  1.00  0.00     0.016 C 
BRANCH   3   5
ATOM      5  C   UNL     1     122.434 177.070 130.264  1.00  0.00     0.015 C 
BRANCH   5   6
ATOM      6  C   UNL     1     121.231 176.220 129.809  1.00  0.00     0.028 C 
BRANCH   6   7
ATOM      7  C   UNL     1     121.684 175.094 128.913  1.00  0.00    -0.028 C 
ATOM      8  C   UNL     1     121.356 174.971 127.605  1.00  0.00    -0.070 CG0
ATOM      9  C   UNL     1     121.837 173.748 126.867  1.00  0.00     0.039 C 
ATOM     10  G   UNL     1     120.547 176.016 126.851  1.00  0.00     0.000 G0
ENDBRANCH   6   7
ENDBRANCH   5   6
ENDBRANCH   3   5
ENDBRANCH   1   3
BRANCH   1  11
ATOM     11  C   UNL     1     120.955 178.942 127.749  1.00  0.00     0.087 C 
BRANCH  11  12
ATOM     12  C   UNL     1     121.148 178.527 126.267  1.00  0.00     0.066 C 
BRANCH  12  13
ATOM     13  C   UNL     1     121.420 177.034 126.138  1.00  0.00     0.140 C 
ATOM     14  O   UNL     1     122.390 176.644 125.503  1.00  0.00    -0.299 OA
BRANCH  13  15
ATOM     15  C   UNL     1     120.547 176.025 126.843  1.00  0.00     0.106 CG0
ATOM     16  G   UNL     1     121.357 174.986 127.603  1.00  0.00     0.000 G0
ENDBRANCH  13  15
ENDBRANCH  12  13
BRANCH  12  17
ATOM     17  C   UNL     1     119.963 179.001 125.369  1.00  0.00    -0.006 C 
ATOM     18  C   UNL     1     119.051 179.985 126.116  1.00  0.00     0.008 C 
ATOM     19  C   UNL     1     120.393 179.596 124.018  1.00  0.00     0.008 C 
ENDBRANCH  12  17
ENDBRANCH  11  12
ENDBRANCH   1  11
TORSDOF 1
ENDMDL
MODEL 3
REMARK VINA RESULT:    -4.141      2.460      5.456
REMARK INTER + INTRA:          -6.625
REMARK INTER:                  -6.620
REMARK INTRA:                  -0.005
REMARK UNBOUND:                -0.306
REMARK SMILES CC1=CCC[C@@H](C)C(=O)C[C@H](C(C)C)C(=O)C1
REMARK SMILES IDX 8 1 9 2 6 3 7 4 5 5 4 6 3 7 2 8 1 9 10 11 11 12 15 13 16 14
REMARK SMILES IDX 17 15 12 17 13 18 14 19
REMARK H PARENT
REMARK Flexibility Score: 70.00
ROOT
ATOM      1  C   UNL     1     119.419 176.569 128.633  1.00  0.00     0.136 C 
ATOM      2  O   UNL     1     118.886 176.420 127.541  1.00  0.00    -0.299 OA
ENDROOT
BRANCH   1   3
ATOM      3  C   UNL     1     118.828 175.912 129.868  1.00  0.00     0.053 C 
ATOM      4  C   UNL     1     119.720 176.086 131.109  1.00  0.00     0.016 C 
BRANCH   3   5
ATOM      5  C   UNL     1     118.496 174.427 129.614  1.00  0.00     0.015 C 
BRANCH   5   6
ATOM      6  C   UNL     1     119.714 173.489 129.732  1.00  0.00     0.028 C 
BRANCH   6   7
ATOM      7  C   UNL     1     120.093 172.938 128.381  1.00  0.00    -0.028 C 
ATOM      8  C   UNL     1     121.249 173.216 127.732  1.00  0.00    -0.070 CG0
ATOM      9  C   UNL     1     121.444 172.634 126.355  1.00  0.00     0.039 C 
ATOM     10  G   UNL     1     122.357 174.064 128.337  1.00  0.00     0.000 G0
ENDBRANCH   6   7
ENDBRANCH   5   6
ENDBRANCH   3   5
ENDBRANCH   1   3
BRANCH   1  11
ATOM     11  C   UNL     1     120.665 177.418 128.726  1.00  0.00     0.087 C 
BRANCH  11  12
ATOM     12  C   UNL     1     121.922 176.577 129.074  1.00  0.00     0.066 C 
BRANCH  12  13
ATOM     13  C   UNL     1     122.223 175.553 127.988  1.00  0.00     0.140 C 
ATOM     14  O   UNL     1     122.410 175.922 126.837  1.00  0.00    -0.299 OA
BRANCH  13  15
ATOM     15  C   UNL     1     122.365 174.088 128.323  1.00  0.00     0.106 CG0
ATOM     16  G   UNL     1     121.248 173.244 127.729  1.00  0.00     0.000 G0
ENDBRANCH  13  15
ENDBRANCH  12  13
BRANCH  12  17
ATOM     17  C   UNL     1     123.152 177.477 129.407  1.00  0.00    -0.006 C 
ATOM     18  C   UNL     1     122.934 178.923 128.937  1.00  0.00     0.008 C 
ATOM     19  C   UNL     1     123.566 177.457 130.888  1.00  0.00     0.008 C 
ENDBRANCH  12  17
ENDBRANCH  11  12
ENDBRANCH   1  11
TORSDOF 1
ENDMDL
MODEL 4
REMARK VINA RESULT:    -4.069      2.185      4.295
REMARK INTER + INTRA:          -6.515
REMARK INTER:                  -6.306
REMARK INTRA:                  -0.209
REMARK UNBOUND:                -0.306
REMARK SMILES CC1=CCC[C@@H](C)C(=O)C[C@H](C(C)C)C(=O)C1
REMARK SMILES IDX 8 1 9 2 6 3 7 4 5 5 4 6 3 7 2 8 1 9 10 11 11 12 15 13 16 14
REMARK SMILES IDX 17 15 12 17 13 18 14 19
REMARK H PARENT
REMARK Flexibility Score: 70.00
ROOT
ATOM      1  C   UNL     1     121.884 175.379 127.485  1.00  0.00     0.136 C 
ATOM      2  O   UNL     1     122.584 174.583 128.098  1.00  0.00    -0.299 OA
ENDROOT
BRANCH   1   3
ATOM      3  C   UNL     1     121.775 175.294 125.973  1.00  0.00     0.053 C 
ATOM      4  C   UNL     1     121.209 173.945 125.500  1.00  0.00     0.016 C 
BRANCH   3   5
ATOM      5  C   UNL     1     123.121 175.613 125.291  1.00  0.00     0.015 C 
BRANCH   5   6
ATOM      6  C   UNL     1     123.333 177.114 125.006  1.00  0.00     0.028 C 
BRANCH   6   7
ATOM      7  C   UNL     1     122.141 177.692 124.286  1.00  0.00    -0.028 C 
ATOM      8  C   UNL     1     121.365 178.695 124.761  1.00  0.00    -0.070 CG0
ATOM      9  C   UNL     1     120.169 179.112 123.945  1.00  0.00     0.039 C 
ATOM     10  G   UNL     1     121.661 179.426 126.062  1.00  0.00     0.000 G0
ENDBRANCH   6   7
ENDBRANCH   5   6
ENDBRANCH   3   5
ENDBRANCH   1   3
BRANCH   1  11
ATOM     11  C   UNL     1     121.141 176.443 128.258  1.00  0.00     0.087 C 
BRANCH  11  12
ATOM     12  C   UNL     1     121.822 177.833 128.144  1.00  0.00     0.066 C 
BRANCH  12  13
ATOM     13  C   UNL     1     121.017 178.776 127.261  1.00  0.00     0.140 C 
ATOM     14  O   UNL     1     119.863 179.052 127.559  1.00  0.00    -0.299 OA
BRANCH  13  15
ATOM     15  C   UNL     1     121.644 179.434 126.057  1.00  0.00     0.106 CG0
ATOM     16  G   UNL     1     121.366 178.674 124.768  1.00  0.00     0.000 G0
ENDBRANCH  13  15
ENDBRANCH  12  13
BRANCH  12  17
ATOM     17  C   UNL     1     122.137 178.444 129.544  1.00  0.00    -0.006 C 
ATOM     18  C   UNL     1     121.531 177.601 130.676  1.00  0.00     0.008 C 
ATOM     19  C   UNL     1     123.634 178.686 129.806  1.00  0.00     0.008 C 
ENDBRANCH  12  17
ENDBRANCH  11  12
ENDBRANCH   1  11
TORSDOF 1
ENDMDL
MODEL 5
REMARK VINA RESULT:    -4.053      2.955      4.379
REMARK INTER + INTRA:          -6.491
REMARK INTER:                  -6.881
REMARK INTRA:                   0.390
REMARK UNBOUND:                -0.306
REMARK SMILES CC1=CCC[C@@H](C)C(=O)C[C@H](C(C)C)C(=O)C1
REMARK SMILES IDX 8 1 9 2 6 3 7 4 5 5 4 6 3 7 2 8 1 9 10 11 11 12 15 13 16 14
REMARK SMILES IDX 17 15 12 17 13 18 14 19
REMARK H PARENT
REMARK Flexibility Score: 70.00
ROOT
ATOM      1  C   UNL     1     122.851 177.510 125.313  1.00  0.00     0.136 C 
ATOM      2  O   UNL     1     123.759 178.252 125.664  1.00  0.00    -0.299 OA
ENDROOT
BRANCH   1   3
ATOM      3  C   UNL     1     122.652 177.187 123.843  1.00  0.00     0.053 C 
ATOM      4  C   UNL     1     123.983 176.967 123.105  1.00  0.00     0.016 C 
BRANCH   3   5
ATOM      5  C   UNL     1     121.785 178.253 123.142  1.00  0.00     0.015 C 
BRANCH   5   6
ATOM      6  C   UNL     1     121.083 179.221 124.116  1.00  0.00     0.028 C 
BRANCH   6   7
ATOM      7  C   UNL     1     119.585 179.114 123.985  1.00  0.00    -0.028 C 
ATOM      8  C   UNL     1     118.718 179.131 125.024  1.00  0.00    -0.070 CG0
ATOM      9  C   UNL     1     117.252 178.945 124.726  1.00  0.00     0.039 C 
ATOM     10  G   UNL     1     119.154 179.348 126.466  1.00  0.00     0.000 G0
ENDBRANCH   6   7
ENDBRANCH   5   6
ENDBRANCH   3   5
ENDBRANCH   1   3
BRANCH   1  11
ATOM     11  C   UNL     1     121.934 176.932 126.366  1.00  0.00     0.087 C 
BRANCH  11  12
ATOM     12  C   UNL     1     121.302 178.032 127.259  1.00  0.00     0.066 C 
BRANCH  12  13
ATOM     13  C   UNL     1     119.793 178.101 127.071  1.00  0.00     0.140 C 
ATOM     14  O   UNL     1     119.088 177.178 127.456  1.00  0.00    -0.299 OA
BRANCH  13  15
ATOM     15  C   UNL     1     119.142 179.327 126.478  1.00  0.00     0.106 CG0
ATOM     16  G   UNL     1     118.722 179.119 125.031  1.00  0.00     0.000 G0
ENDBRANCH  13  15
ENDBRANCH  12  13
BRANCH  12  17
ATOM     17  C   UNL     1     121.713 177.874 128.756  1.00  0.00    -0.006 C 
ATOM     18  C   UNL     1     122.359 176.506 129.021  1.00  0.00     0.008 C 
ATOM     19  C   UNL     1     122.619 179.000 129.284  1.00  0.00     0.008 C 
ENDBRANCH  12  17
ENDBRANCH  11  12
ENDBRANCH   1  11
TORSDOF 1
ENDMDL
MODEL 6
REMARK VINA RESULT:    -3.950      2.070      4.655
REMARK INTER + INTRA:          -6.333
REMARK INTER:                  -6.505
REMARK INTRA:                   0.172
REMARK UNBOUND:                -0.306
REMARK SMILES CC1=CCC[C@@H](C)C(=O)C[C@H](C(C)C)C(=O)C1
REMARK SMILES IDX 8 1 9 2 6 3 7 4 5 5 4 6 3 7 2 8 1 9 10 11 11 12 15 13 16 14
REMARK SMILES IDX 17 15 12 17 13 18 14 19
REMARK H PARENT
REMARK Flexibility Score: 70.00
ROOT
ATOM      1  C   UNL     1     122.507 178.271 128.788  1.00  0.00     0.136 C 
ATOM      2  O   UNL     1     123.634 178.594 128.436  1.00  0.00    -0.299 OA
ENDROOT
BRANCH   1   3
ATOM      3  C   UNL     1     122.123 178.316 130.257  1.00  0.00     0.053 C 
ATOM      4  C   UNL     1     123.155 179.069 131.111  1.00  0.00     0.016 C 
BRANCH   3   5
ATOM      5  C   UNL     1     121.851 176.903 130.813  1.00  0.00     0.015 C 
BRANCH   5   6
ATOM      6  C   UNL     1     120.397 176.428 130.617  1.00  0.00     0.028 C 
BRANCH   6   7
ATOM      7  C   UNL     1     120.357 174.954 130.303  1.00  0.00    -0.028 C 
ATOM      8  C   UNL     1     120.202 174.435 129.061  1.00  0.00    -0.070 CG0
ATOM      9  C   UNL     1     120.116 172.936 128.926  1.00  0.00     0.039 C 
ATOM     10  G   UNL     1     120.133 175.293 127.807  1.00  0.00     0.000 G0
ENDBRANCH   6   7
ENDBRANCH   5   6
ENDBRANCH   3   5
ENDBRANCH   1   3
BRANCH   1  11
ATOM     11  C   UNL     1     121.516 177.824 127.740  1.00  0.00     0.087 C 
BRANCH  11  12
ATOM     12  C   UNL     1     122.100 176.729 126.810  1.00  0.00     0.066 C 
BRANCH  12  13
ATOM     13  C   UNL     1     121.457 175.375 127.072  1.00  0.00     0.140 C 
ATOM     14  O   UNL     1     122.047 174.349 126.761  1.00  0.00    -0.299 OA
BRANCH  13  15
ATOM     15  C   UNL     1     120.126 175.273 127.777  1.00  0.00     0.106 CG0
ATOM     16  G   UNL     1     120.207 174.455 129.057  1.00  0.00     0.000 G0
ENDBRANCH  13  15
ENDBRANCH  12  13
BRANCH  12  17
ATOM     17  C   UNL     1     122.033 177.144 125.307  1.00  0.00    -0.006 C 
ATOM     18  C   UNL     1     121.667 178.627 125.149  1.00  0.00     0.008 C 
ATOM     19  C   UNL     1     123.307 176.824 124.506  1.00  0.00     0.008 C 
ENDBRANCH  12  17
ENDBRANCH  11  12
ENDBRANCH   1  11
TORSDOF 1
ENDMDL
MODEL 7
REMARK VINA RESULT:    -3.810      2.385      4.305
REMARK INTER + INTRA:          -6.121
REMARK INTER:                  -6.103
REMARK INTRA:                  -0.017
REMARK UNBOUND:                -0.306
REMARK SMILES CC1=CCC[C@@H](C)C(=O)C[C@H](C(C)C)C(=O)C1
REMARK SMILES IDX 8 1 9 2 6 3 7 4 5 5 4 6 3 7 2 8 1 9 10 11 11 12 15 13 16 14
REMARK SMILES IDX 17 15 12 17 13 18 14 19
REMARK H PARENT
REMARK Flexibility Score: 70.00
ROOT
ATOM      1  C   UNL     1     121.201 176.816 126.591  1.00  0.00     0.136 C 
ATOM      2  O   UNL     1     121.089 175.664 126.194  1.00  0.00    -0.299 OA
ENDROOT
BRANCH   1   3
ATOM      3  C   UNL     1     120.103 177.829 126.317  1.00  0.00     0.053 C 
ATOM      4  C   UNL     1     120.491 179.249 126.761  1.00  0.00     0.016 C 
BRANCH   3   5
ATOM      5  C   UNL     1     118.761 177.390 126.936  1.00  0.00     0.015 C 
BRANCH   5   6
ATOM      6  C   UNL     1     118.793 177.279 128.474  1.00  0.00     0.028 C 
BRANCH   6   7
ATOM      7  C   UNL     1     118.709 175.836 128.905  1.00  0.00    -0.028 C 
ATOM      8  C   UNL     1     119.568 175.238 129.764  1.00  0.00    -0.070 CG0
ATOM      9  C   UNL     1     119.383 173.767 130.039  1.00  0.00     0.039 C 
ATOM     10  G   UNL     1     120.688 175.985 130.473  1.00  0.00     0.000 G0
ENDBRANCH   6   7
ENDBRANCH   5   6
ENDBRANCH   3   5
ENDBRANCH   1   3
BRANCH   1  11
ATOM     11  C   UNL     1     122.446 177.208 127.350  1.00  0.00     0.087 C 
BRANCH  11  12
ATOM     12  C   UNL     1     122.161 177.454 128.856  1.00  0.00     0.066 C 
BRANCH  12  13
ATOM     13  C   UNL     1     121.918 176.147 129.596  1.00  0.00     0.140 C 
ATOM     14  O   UNL     1     122.742 175.245 129.528  1.00  0.00    -0.299 OA
BRANCH  13  15
ATOM     15  C   UNL     1     120.703 175.969 130.475  1.00  0.00     0.106 CG0
ATOM     16  G   UNL     1     119.571 175.246 129.762  1.00  0.00     0.000 G0
ENDBRANCH  13  15
ENDBRANCH  12  13
BRANCH  12  17
ATOM     17  C   UNL     1     123.270 178.325 129.524  1.00  0.00    -0.006 C 
ATOM     18  C   UNL     1     123.740 179.451 128.592  1.00  0.00     0.008 C 
ATOM     19  C   UNL     1     122.880 178.900 130.897  1.00  0.00     0.008 C 
ENDBRANCH  12  17
ENDBRANCH  11  12
ENDBRANCH   1  11
TORSDOF 1
ENDMDL
MODEL 8
REMARK VINA RESULT:    -3.679      9.401     10.894
REMARK INTER + INTRA:          -5.921
REMARK INTER:                  -5.713
REMARK INTRA:                  -0.208
REMARK UNBOUND:                -0.306
REMARK SMILES CC1=CCC[C@@H](C)C(=O)C[C@H](C(C)C)C(=O)C1
REMARK SMILES IDX 8 1 9 2 6 3 7 4 5 5 4 6 3 7 2 8 1 9 10 11 11 12 15 13 16 14
REMARK SMILES IDX 17 15 12 17 13 18 14 19
REMARK H PARENT
REMARK Flexibility Score: 70.00
ROOT
ATOM      1  C   UNL     1     124.958 165.929 125.007  1.00  0.00     0.136 C 
ATOM      2  O   UNL     1     124.328 164.880 125.029  1.00  0.00    -0.299 OA
ENDROOT
BRANCH   1   3
ATOM      3  C   UNL     1     125.741 166.325 123.768  1.00  0.00     0.053 C 
ATOM      4  C   UNL     1     124.871 166.326 122.500  1.00  0.00     0.016 C 
BRANCH   3   5
ATOM      5  C   UNL     1     126.998 165.449 123.591  1.00  0.00     0.015 C 
BRANCH   5   6
ATOM      6  C   UNL     1     128.315 166.179 123.926  1.00  0.00     0.028 C 
BRANCH   6   7
ATOM      7  C   UNL     1     128.155 167.668 123.758  1.00  0.00    -0.028 C 
ATOM      8  C   UNL     1     128.126 168.560 124.777  1.00  0.00    -0.070 CG0
ATOM      9  C   UNL     1     127.892 170.010 124.442  1.00  0.00     0.039 C 
ATOM     10  G   UNL     1     128.340 168.164 126.231  1.00  0.00     0.000 G0
ENDBRANCH   6   7
ENDBRANCH   5   6
ENDBRANCH   3   5
ENDBRANCH   1   3
BRANCH   1  11
ATOM     11  C   UNL     1     124.944 166.813 126.232  1.00  0.00     0.087 C 
BRANCH  11  12
ATOM     12  C   UNL     1     126.273 166.731 127.028  1.00  0.00     0.066 C 
BRANCH  12  13
ATOM     13  C   UNL     1     127.030 168.051 126.986  1.00  0.00     0.140 C 
ATOM     14  O   UNL     1     126.612 169.013 127.618  1.00  0.00    -0.299 OA
BRANCH  13  15
ATOM     15  C   UNL     1     128.330 168.176 126.231  1.00  0.00     0.106 CG0
ATOM     16  G   UNL     1     128.123 168.573 124.777  1.00  0.00     0.000 G0
ENDBRANCH  13  15
ENDBRANCH  12  13
BRANCH  12  17
ATOM     17  C   UNL     1     126.050 166.213 128.483  1.00  0.00    -0.006 C 
ATOM     18  C   UNL     1     124.616 166.482 128.962  1.00  0.00     0.008 C 
ATOM     19  C   UNL     1     126.409 164.731 128.688  1.00  0.00     0.008 C 
ENDBRANCH  12  17
ENDBRANCH  11  12
ENDBRANCH   1  11
TORSDOF 1
ENDMDL
MODEL 9
REMARK VINA RESULT:    -3.675      2.474      4.228
REMARK INTER + INTRA:          -5.914
REMARK INTER:                  -6.222
REMARK INTRA:                   0.308
REMARK UNBOUND:                -0.306
REMARK SMILES CC1=CCC[C@@H](C)C(=O)C[C@H](C(C)C)C(=O)C1
REMARK SMILES IDX 8 1 9 2 6 3 7 4 5 5 4 6 3 7 2 8 1 9 10 11 11 12 15 13 16 14
REMARK SMILES IDX 17 15 12 17 13 18 14 19
REMARK H PARENT
REMARK Flexibility Score: 70.00
ROOT
ATOM      1  C   UNL     1     120.561 178.575 124.843  1.00  0.00     0.136 C 
ATOM      2  O   UNL     1     120.961 179.314 123.953  1.00  0.00    -0.299 OA
ENDROOT
BRANCH   1   3
ATOM      3  C   UNL     1     119.114 178.642 125.300  1.00  0.00     0.053 C 
ATOM      4  C   UNL     1     118.760 179.999 125.931  1.00  0.00     0.016 C 
BRANCH   3   5
ATOM      5  C   UNL     1     118.765 177.472 126.243  1.00  0.00     0.015 C 
BRANCH   5   6
ATOM      6  C   UNL     1     118.701 177.872 127.731  1.00  0.00     0.028 C 
BRANCH   6   7
ATOM      7  C   UNL     1     118.850 176.660 128.614  1.00  0.00    -0.028 C 
ATOM      8  C   UNL     1     119.999 176.294 129.232  1.00  0.00    -0.070 CG0
ATOM      9  C   UNL     1     119.997 175.014 130.029  1.00  0.00     0.039 C 
ATOM     10  G   UNL     1     121.273 177.124 129.174  1.00  0.00     0.000 G0
ENDBRANCH   6   7
ENDBRANCH   5   6
ENDBRANCH   3   5
ENDBRANCH   1   3
BRANCH   1  11
ATOM     11  C   UNL     1     121.531 177.606 125.478  1.00  0.00     0.087 C 
BRANCH  11  12
ATOM     12  C   UNL     1     122.030 178.099 126.862  1.00  0.00     0.066 C 
BRANCH  12  13
ATOM     13  C   UNL     1     122.023 176.974 127.888  1.00  0.00     0.140 C 
ATOM     14  O   UNL     1     122.672 175.958 127.682  1.00  0.00    -0.299 OA
BRANCH  13  15
ATOM     15  C   UNL     1     121.280 177.121 129.193  1.00  0.00     0.106 CG0
ATOM     16  G   UNL     1     120.000 176.299 129.230  1.00  0.00     0.000 G0
ENDBRANCH  13  15
ENDBRANCH  12  13
BRANCH  12  17
ATOM     17  C   UNL     1     123.414 178.812 126.762  1.00  0.00    -0.006 C 
ATOM     18  C   UNL     1     124.117 178.865 128.126  1.00  0.00     0.008 C 
ATOM     19  C   UNL     1     124.357 178.216 125.702  1.00  0.00     0.008 C 
ENDBRANCH  12  17
ENDBRANCH  11  12
ENDBRANCH   1  11
TORSDOF 1
ENDMDL
