MODEL 1
REMARK VINA RESULT:    -4.116      0.000      0.000
REMARK INTER + INTRA:          -6.656
REMARK INTER:                  -6.041
REMARK INTRA:                  -0.615
REMARK UNBOUND:                -0.615
REMARK SMILES C=C1C=C[C@@H](C(C)C)CCC(C)=CCC1
REMARK SMILES IDX 3 1 4 2 5 3 9 4 10 5 11 6 12 7 13 8 6 10 7 11 8 12 2 13 1 14
REMARK SMILES IDX 15 15 14 16
REMARK H PARENT
REMARK Flexibility Score: 70.00
ROOT
ATOM      1  C   UNL     1      -2.675   4.501  11.776  1.00  0.00    -0.001 C 
ATOM      2  C   UNL     1      -2.658   4.622  13.116  1.00  0.00    -0.023 C 
ENDROOT
BRANCH   2   3
ATOM      3  C   UNL     1      -1.438   4.437  13.997  1.00  0.00     0.014 C 
BRANCH   3   4
ATOM      4  C   UNL     1      -1.667   3.303  15.049  1.00  0.00     0.012 C 
BRANCH   4   5
ATOM      5  C   UNL     1      -0.778   2.058  14.804  1.00  0.00     0.031 C 
BRANCH   5   6
ATOM      6  C   UNL     1      -1.375   0.999  13.880  1.00  0.00    -0.077 C 
ATOM      7  C   UNL     1      -2.268  -0.056  14.491  1.00  0.00     0.039 C 
ATOM      8  C   UNL     1      -1.089   0.867  12.557  1.00  0.00    -0.028 CG0
ATOM      9  G   UNL     1      -0.379   1.870  11.679  1.00  0.00     0.000 G0
ENDBRANCH   5   6
ENDBRANCH   4   5
ENDBRANCH   3   4
BRANCH   3  10
ATOM     10  C   UNL     1      -0.980   5.797  14.617  1.00  0.00    -0.010 C 
ATOM     11  C   UNL     1       0.494   5.841  15.071  1.00  0.00     0.008 C 
ATOM     12  C   UNL     1      -1.279   6.972  13.672  1.00  0.00     0.008 C 
ENDBRANCH   3  10
ENDBRANCH   2   3
BRANCH   1  13
ATOM     13  C   UNL     1      -1.549   4.033  10.924  1.00  0.00    -0.055 C 
ATOM     14  C   UNL     1      -0.760   4.955  10.367  1.00  0.00     0.012 C 
BRANCH  13  15
ATOM     15  C   UNL     1      -1.297   2.562  10.629  1.00  0.00     0.039 C 
BRANCH  15  16
ATOM     16  C   UNL     1      -0.381   1.891  11.671  1.00  0.00     0.032 CG0
ATOM     17  G   UNL     1      -1.077   0.869  12.538  1.00  0.00     0.000 G0
ENDBRANCH  15  16
ENDBRANCH  13  15
ENDBRANCH   1  13
TORSDOF 1
ENDMDL
MODEL 2
REMARK VINA RESULT:    -4.001      2.092      4.402
REMARK INTER + INTRA:          -6.487
REMARK INTER:                  -5.862
REMARK INTRA:                  -0.625
REMARK UNBOUND:                -0.615
REMARK SMILES C=C1C=C[C@@H](C(C)C)CCC(C)=CCC1
REMARK SMILES IDX 3 1 4 2 5 3 9 4 10 5 11 6 12 7 13 8 6 10 7 11 8 12 2 13 1 14
REMARK SMILES IDX 15 15 14 16
REMARK H PARENT
REMARK Flexibility Score: 70.00
ROOT
ATOM      1  C   UNL     1      -1.459   2.679  10.750  1.00  0.00    -0.001 C 
ATOM      2  C   UNL     1      -1.028   1.987  11.821  1.00  0.00    -0.023 C 
ENDROOT
BRANCH   2   3
ATOM      3  C   UNL     1      -1.099   2.464  13.258  1.00  0.00     0.014 C 
BRANCH   3   4
ATOM      4  C   UNL     1       0.277   3.038  13.731  1.00  0.00     0.012 C 
BRANCH   4   5
ATOM      5  C   UNL     1       0.151   4.399  14.460  1.00  0.00     0.031 C 
BRANCH   5   6
ATOM      6  C   UNL     1       0.778   5.589  13.737  1.00  0.00    -0.077 C 
ATOM      7  C   UNL     1       2.180   5.998  14.125  1.00  0.00     0.039 C 
ATOM      8  C   UNL     1       0.137   6.379  12.835  1.00  0.00    -0.028 CG0
ATOM      9  G   UNL     1      -1.181   6.095  12.156  1.00  0.00     0.000 G0
ENDBRANCH   5   6
ENDBRANCH   4   5
ENDBRANCH   3   4
BRANCH   3  10
ATOM     10  C   UNL     1      -1.680   1.354  14.192  1.00  0.00    -0.010 C 
ATOM     11  C   UNL     1      -2.972   1.744  14.939  1.00  0.00     0.008 C 
ATOM     12  C   UNL     1      -1.886   0.034  13.431  1.00  0.00     0.008 C 
ENDBRANCH   3  10
ENDBRANCH   2   3
BRANCH   1  13
ATOM     13  C   UNL     1      -1.953   4.082  10.754  1.00  0.00    -0.055 C 
ATOM     14  C   UNL     1      -3.269   4.283  10.643  1.00  0.00     0.012 C 
BRANCH  13  15
ATOM     15  C   UNL     1      -1.022   5.281  10.830  1.00  0.00     0.039 C 
BRANCH  15  16
ATOM     16  C   UNL     1      -1.177   6.078  12.139  1.00  0.00     0.032 CG0
ATOM     17  G   UNL     1       0.129   6.386  12.833  1.00  0.00     0.000 G0
ENDBRANCH  15  16
ENDBRANCH  13  15
ENDBRANCH   1  13
TORSDOF 1
ENDMDL
MODEL 3
REMARK VINA RESULT:    -3.833      1.415      3.488
REMARK INTER + INTRA:          -6.241
REMARK INTER:                  -5.537
REMARK INTRA:                  -0.703
REMARK UNBOUND:                -0.615
REMARK SMILES C=C1C=C[C@@H](C(C)C)CCC(C)=CCC1
REMARK SMILES IDX 3 1 4 2 5 3 9 4 10 5 11 6 12 7 13 8 6 10 7 11 8 12 2 13 1 14
REMARK SMILES IDX 15 15 14 16
REMARK H PARENT
REMARK Flexibility Score: 70.00
ROOT
ATOM      1  C   UNL     1       0.263   4.625  13.469  1.00  0.00    -0.001 C 
ATOM      2  C   UNL     1       0.002   4.076  12.269  1.00  0.00    -0.023 C 
ENDROOT
BRANCH   2   3
ATOM      3  C   UNL     1      -1.370   3.660  11.775  1.00  0.00     0.014 C 
BRANCH   3   4
ATOM      4  C   UNL     1      -1.375   2.165  11.314  1.00  0.00     0.012 C 
BRANCH   4   5
ATOM      5  C   UNL     1      -0.623   1.226  12.290  1.00  0.00     0.031 C 
BRANCH   5   6
ATOM      6  C   UNL     1      -1.425   0.766  13.505  1.00  0.00    -0.077 C 
ATOM      7  C   UNL     1      -2.414  -0.361  13.319  1.00  0.00     0.039 C 
ATOM      8  C   UNL     1      -1.393   1.357  14.729  1.00  0.00    -0.028 CG0
ATOM      9  G   UNL     1      -0.386   2.369  15.222  1.00  0.00     0.000 G0
ENDBRANCH   5   6
ENDBRANCH   4   5
ENDBRANCH   3   4
BRANCH   3  10
ATOM     10  C   UNL     1      -1.910   4.659  10.702  1.00  0.00    -0.010 C 
ATOM     11  C   UNL     1      -2.965   5.659  11.217  1.00  0.00     0.008 C 
ATOM     12  C   UNL     1      -0.762   5.410  10.009  1.00  0.00     0.008 C 
ENDBRANCH   3  10
ENDBRANCH   2   3
BRANCH   1  13
ATOM     13  C   UNL     1      -0.708   4.800  14.582  1.00  0.00    -0.055 C 
ATOM     14  C   UNL     1      -1.348   5.969  14.678  1.00  0.00     0.012 C 
BRANCH  13  15
ATOM     15  C   UNL     1      -0.959   3.728  15.631  1.00  0.00     0.039 C 
BRANCH  15  16
ATOM     16  C   UNL     1      -0.373   2.358  15.239  1.00  0.00     0.032 CG0
ATOM     17  G   UNL     1      -1.399   1.364  14.751  1.00  0.00     0.000 G0
ENDBRANCH  15  16
ENDBRANCH  13  15
ENDBRANCH   1  13
TORSDOF 1
ENDMDL
MODEL 4
REMARK VINA RESULT:    -3.768      2.202      5.019
REMARK INTER + INTRA:          -6.145
REMARK INTER:                  -5.554
REMARK INTRA:                  -0.591
REMARK UNBOUND:                -0.615
REMARK SMILES C=C1C=C[C@@H](C(C)C)CCC(C)=CCC1
REMARK SMILES IDX 3 1 4 2 5 3 9 4 10 5 11 6 12 7 13 8 6 10 7 11 8 12 2 13 1 14
REMARK SMILES IDX 15 15 14 16
REMARK H PARENT
REMARK Flexibility Score: 70.00
ROOT
ATOM      1  C   UNL     1      -0.823   4.696  14.925  1.00  0.00    -0.001 C 
ATOM      2  C   UNL     1      -1.385   3.615  14.353  1.00  0.00    -0.023 C 
ENDROOT
BRANCH   2   3
ATOM      3  C   UNL     1      -0.913   2.956  13.072  1.00  0.00     0.014 C 
BRANCH   3   4
ATOM      4  C   UNL     1      -1.783   3.406  11.852  1.00  0.00     0.012 C 
BRANCH   4   5
ATOM      5  C   UNL     1      -0.988   4.234  10.811  1.00  0.00     0.031 C 
BRANCH   5   6
ATOM      6  C   UNL     1      -1.421   5.691  10.667  1.00  0.00    -0.077 C 
ATOM      7  C   UNL     1      -2.659   5.988   9.853  1.00  0.00     0.039 C 
ATOM      8  C   UNL     1      -0.723   6.761  11.133  1.00  0.00    -0.028 CG0
ATOM      9  G   UNL     1       0.430   6.737  12.107  1.00  0.00     0.000 G0
ENDBRANCH   5   6
ENDBRANCH   4   5
ENDBRANCH   3   4
BRANCH   3  10
ATOM     10  C   UNL     1      -0.807   1.406  13.242  1.00  0.00    -0.010 C 
ATOM     11  C   UNL     1      -1.692   0.813  14.356  1.00  0.00     0.008 C 
ATOM     12  C   UNL     1      -1.069   0.679  11.913  1.00  0.00     0.008 C 
ENDBRANCH   3  10
ENDBRANCH   2   3
BRANCH   1  13
ATOM     13  C   UNL     1       0.269   5.524  14.348  1.00  0.00    -0.055 C 
ATOM     14  C   UNL     1       1.529   5.124  14.542  1.00  0.00     0.012 C 
BRANCH  13  15
ATOM     15  C   UNL     1       0.008   6.820  13.595  1.00  0.00     0.039 C 
BRANCH  15  16
ATOM     16  C   UNL     1       0.436   6.750  12.117  1.00  0.00     0.032 CG0
ATOM     17  G   UNL     1      -0.715   6.771  11.139  1.00  0.00     0.000 G0
ENDBRANCH  15  16
ENDBRANCH  13  15
ENDBRANCH   1  13
TORSDOF 1
ENDMDL
MODEL 5
REMARK VINA RESULT:    -3.653      1.961      4.333
REMARK INTER + INTRA:          -5.976
REMARK INTER:                  -5.526
REMARK INTRA:                  -0.450
REMARK UNBOUND:                -0.615
REMARK SMILES C=C1C=C[C@@H](C(C)C)CCC(C)=CCC1
REMARK SMILES IDX 3 1 4 2 5 3 9 4 10 5 11 6 12 7 13 8 6 10 7 11 8 12 2 13 1 14
REMARK SMILES IDX 15 15 14 16
REMARK H PARENT
REMARK Flexibility Score: 70.00
ROOT
ATOM      1  C   UNL     1       0.178   3.100  12.053  1.00  0.00    -0.001 C 
ATOM      2  C   UNL     1       0.080   3.202  13.391  1.00  0.00    -0.023 C 
ENDROOT
BRANCH   2   3
ATOM      3  C   UNL     1      -1.200   3.473  14.158  1.00  0.00     0.014 C 
BRANCH   3   4
ATOM      4  C   UNL     1      -1.046   4.719  15.091  1.00  0.00     0.012 C 
BRANCH   4   5
ATOM      5  C   UNL     1      -0.457   5.953  14.363  1.00  0.00     0.031 C 
BRANCH   5   6
ATOM      6  C   UNL     1      -1.429   6.704  13.456  1.00  0.00    -0.077 C 
ATOM      7  C   UNL     1      -2.464   7.593  14.105  1.00  0.00     0.039 C 
ATOM      8  C   UNL     1      -1.503   6.563  12.106  1.00  0.00    -0.028 CG0
ATOM      9  G   UNL     1      -0.495   5.886  11.208  1.00  0.00     0.000 G0
ENDBRANCH   5   6
ENDBRANCH   4   5
ENDBRANCH   3   4
BRANCH   3  10
ATOM     10  C   UNL     1      -1.700   2.186  14.892  1.00  0.00    -0.010 C 
ATOM     11  C   UNL     1      -3.207   2.169  15.220  1.00  0.00     0.008 C 
ATOM     12  C   UNL     1      -1.311   0.915  14.120  1.00  0.00     0.008 C 
ENDBRANCH   3  10
ENDBRANCH   2   3
BRANCH   1  13
ATOM     13  C   UNL     1      -0.908   3.368  11.072  1.00  0.00    -0.055 C 
ATOM     14  C   UNL     1      -1.738   2.366  10.768  1.00  0.00     0.012 C 
BRANCH  13  15
ATOM     15  C   UNL     1      -1.076   4.709  10.376  1.00  0.00     0.039 C 
BRANCH  15  16
ATOM     16  C   UNL     1      -0.498   5.883  11.191  1.00  0.00     0.032 CG0
ATOM     17  G   UNL     1      -1.497   6.549  12.107  1.00  0.00     0.000 G0
ENDBRANCH  15  16
ENDBRANCH  13  15
ENDBRANCH   1  13
TORSDOF 1
ENDMDL
MODEL 6
REMARK VINA RESULT:    -3.645      1.859      4.059
REMARK INTER + INTRA:          -5.966
REMARK INTER:                  -5.582
REMARK INTRA:                  -0.383
REMARK UNBOUND:                -0.615
REMARK SMILES C=C1C=C[C@@H](C(C)C)CCC(C)=CCC1
REMARK SMILES IDX 3 1 4 2 5 3 9 4 10 5 11 6 12 7 13 8 6 10 7 11 8 12 2 13 1 14
REMARK SMILES IDX 15 15 14 16
REMARK H PARENT
REMARK Flexibility Score: 70.00
ROOT
ATOM      1  C   UNL     1      -1.748   2.879  10.393  1.00  0.00    -0.001 C 
ATOM      2  C   UNL     1      -1.362   1.873  11.198  1.00  0.00    -0.023 C 
ENDROOT
BRANCH   2   3
ATOM      3  C   UNL     1      -1.062   2.001  12.679  1.00  0.00     0.014 C 
BRANCH   3   4
ATOM      4  C   UNL     1       0.323   2.687  12.917  1.00  0.00     0.012 C 
BRANCH   4   5
ATOM      5  C   UNL     1       0.205   4.079  13.588  1.00  0.00     0.031 C 
BRANCH   5   6
ATOM      6  C   UNL     1      -1.025   4.277  14.472  1.00  0.00    -0.077 C 
ATOM      7  C   UNL     1      -1.004   3.685  15.862  1.00  0.00     0.039 C 
ATOM      8  C   UNL     1      -2.184   4.864  14.074  1.00  0.00    -0.028 CG0
ATOM      9  G   UNL     1      -2.406   5.677  12.821  1.00  0.00     0.000 G0
ENDBRANCH   5   6
ENDBRANCH   4   5
ENDBRANCH   3   4
BRANCH   3  10
ATOM     10  C   UNL     1      -1.227   0.628  13.407  1.00  0.00    -0.010 C 
ATOM     11  C   UNL     1      -2.323   0.596  14.492  1.00  0.00     0.008 C 
ATOM     12  C   UNL     1      -1.442  -0.516  12.403  1.00  0.00     0.008 C 
ENDBRANCH   3  10
ENDBRANCH   2   3
BRANCH   1  13
ATOM     13  C   UNL     1      -1.821   4.318  10.762  1.00  0.00    -0.055 C 
ATOM     14  C   UNL     1      -0.833   5.120  10.357  1.00  0.00     0.012 C 
BRANCH  13  15
ATOM     15  C   UNL     1      -2.942   4.892  11.615  1.00  0.00     0.039 C 
BRANCH  15  16
ATOM     16  C   UNL     1      -2.423   5.691  12.826  1.00  0.00     0.032 CG0
ATOM     17  G   UNL     1      -2.186   4.856  14.062  1.00  0.00     0.000 G0
ENDBRANCH  15  16
ENDBRANCH  13  15
ENDBRANCH   1  13
TORSDOF 1
ENDMDL
MODEL 7
REMARK VINA RESULT:    -3.551      1.578      3.679
REMARK INTER + INTRA:          -5.827
REMARK INTER:                  -5.329
REMARK INTRA:                  -0.498
REMARK UNBOUND:                -0.615
REMARK SMILES C=C1C=C[C@@H](C(C)C)CCC(C)=CCC1
REMARK SMILES IDX 3 1 4 2 5 3 9 4 10 5 11 6 12 7 13 8 6 10 7 11 8 12 2 13 1 14
REMARK SMILES IDX 15 15 14 16
REMARK H PARENT
REMARK Flexibility Score: 70.00
ROOT
ATOM      1  C   UNL     1       0.786   5.722  13.498  1.00  0.00    -0.001 C 
ATOM      2  C   UNL     1       0.413   5.964  12.228  1.00  0.00    -0.023 C 
ENDROOT
BRANCH   2   3
ATOM      3  C   UNL     1      -0.868   5.472  11.581  1.00  0.00     0.014 C 
BRANCH   3   4
ATOM      4  C   UNL     1      -0.727   3.988  11.109  1.00  0.00     0.012 C 
BRANCH   4   5
ATOM      5  C   UNL     1      -1.738   3.034  11.795  1.00  0.00     0.031 C 
BRANCH   5   6
ATOM      6  C   UNL     1      -1.155   1.716  12.301  1.00  0.00    -0.077 C 
ATOM      7  C   UNL     1      -1.007   0.580  11.317  1.00  0.00     0.039 C 
ATOM      8  C   UNL     1      -0.845   1.448  13.597  1.00  0.00    -0.028 CG0
ATOM      9  G   UNL     1      -0.735   2.443  14.728  1.00  0.00     0.000 G0
ENDBRANCH   5   6
ENDBRANCH   4   5
ENDBRANCH   3   4
BRANCH   3  10
ATOM     10  C   UNL     1      -1.347   6.453  10.463  1.00  0.00    -0.010 C 
ATOM     11  C   UNL     1      -0.454   6.492   9.206  1.00  0.00     0.008 C 
ATOM     12  C   UNL     1      -2.807   6.180  10.068  1.00  0.00     0.008 C 
ENDBRANCH   3  10
ENDBRANCH   2   3
BRANCH   1  13
ATOM     13  C   UNL     1       0.092   4.822  14.458  1.00  0.00    -0.055 C 
ATOM     14  C   UNL     1      -0.879   5.342  15.214  1.00  0.00     0.012 C 
BRANCH  13  15
ATOM     15  C   UNL     1       0.477   3.362  14.642  1.00  0.00     0.039 C 
BRANCH  15  16
ATOM     16  C   UNL     1      -0.745   2.429  14.741  1.00  0.00     0.032 CG0
ATOM     17  G   UNL     1      -0.853   1.431  13.613  1.00  0.00     0.000 G0
ENDBRANCH  15  16
ENDBRANCH  13  15
ENDBRANCH   1  13
TORSDOF 1
ENDMDL
MODEL 8
REMARK VINA RESULT:    -3.534      1.731      3.810
REMARK INTER + INTRA:          -5.802
REMARK INTER:                  -5.324
REMARK INTRA:                  -0.478
REMARK UNBOUND:                -0.615
REMARK SMILES C=C1C=C[C@@H](C(C)C)CCC(C)=CCC1
REMARK SMILES IDX 3 1 4 2 5 3 9 4 10 5 11 6 12 7 13 8 6 10 7 11 8 12 2 13 1 14
REMARK SMILES IDX 15 15 14 16
REMARK H PARENT
REMARK Flexibility Score: 70.00
ROOT
ATOM      1  C   UNL     1      -0.494   6.406  12.130  1.00  0.00    -0.001 C 
ATOM      2  C   UNL     1      -0.870   5.619  11.106  1.00  0.00    -0.023 C 
ENDROOT
BRANCH   2   3
ATOM      3  C   UNL     1      -2.048   4.665  11.121  1.00  0.00     0.014 C 
BRANCH   3   4
ATOM      4  C   UNL     1      -1.603   3.212  10.753  1.00  0.00     0.012 C 
BRANCH   4   5
ATOM      5  C   UNL     1      -0.334   2.754  11.514  1.00  0.00     0.031 C 
BRANCH   5   6
ATOM      6  C   UNL     1      -0.563   2.293  12.952  1.00  0.00    -0.077 C 
ATOM      7  C   UNL     1      -1.161   0.923  13.172  1.00  0.00     0.039 C 
ATOM      8  C   UNL     1      -0.362   3.059  14.057  1.00  0.00    -0.028 CG0
ATOM      9  G   UNL     1       0.377   4.374  14.127  1.00  0.00     0.000 G0
ENDBRANCH   5   6
ENDBRANCH   4   5
ENDBRANCH   3   4
BRANCH   3  10
ATOM     10  C   UNL     1      -3.226   5.210  10.249  1.00  0.00    -0.010 C 
ATOM     11  C   UNL     1      -4.634   4.829  10.749  1.00  0.00     0.008 C 
ATOM     12  C   UNL     1      -3.124   6.732  10.061  1.00  0.00     0.008 C 
ENDBRANCH   3  10
ENDBRANCH   2   3
BRANCH   1  13
ATOM     13  C   UNL     1      -1.067   6.393  13.502  1.00  0.00    -0.055 C 
ATOM     14  C   UNL     1      -2.118   7.179  13.750  1.00  0.00     0.012 C 
BRANCH  13  15
ATOM     15  C   UNL     1      -0.477   5.563  14.632  1.00  0.00     0.039 C 
BRANCH  15  16
ATOM     16  C   UNL     1       0.378   4.386  14.127  1.00  0.00     0.032 CG0
ATOM     17  G   UNL     1      -0.361   3.071  14.055  1.00  0.00     0.000 G0
ENDBRANCH  15  16
ENDBRANCH  13  15
ENDBRANCH   1  13
TORSDOF 1
ENDMDL
MODEL 9
REMARK VINA RESULT:    -3.362      1.939      4.617
REMARK INTER + INTRA:          -5.549
REMARK INTER:                  -4.936
REMARK INTRA:                  -0.614
REMARK UNBOUND:                -0.615
REMARK SMILES C=C1C=C[C@@H](C(C)C)CCC(C)=CCC1
REMARK SMILES IDX 3 1 4 2 5 3 9 4 10 5 11 6 12 7 13 8 6 10 7 11 8 12 2 13 1 14
REMARK SMILES IDX 15 15 14 16
REMARK H PARENT
REMARK Flexibility Score: 70.00
ROOT
ATOM      1  C   UNL     1      -0.792   2.424  11.724  1.00  0.00    -0.001 C 
ATOM      2  C   UNL     1      -1.114   3.375  10.828  1.00  0.00    -0.023 C 
ENDROOT
BRANCH   2   3
ATOM      3  C   UNL     1      -1.516   4.798  11.166  1.00  0.00     0.014 C 
BRANCH   3   4
ATOM      4  C   UNL     1      -3.027   4.880  11.558  1.00  0.00     0.012 C 
BRANCH   4   5
ATOM      5  C   UNL     1      -3.257   5.457  12.977  1.00  0.00     0.031 C 
BRANCH   5   6
ATOM      6  C   UNL     1      -2.126   6.327  13.521  1.00  0.00    -0.077 C 
ATOM      7  C   UNL     1      -2.131   7.797  13.174  1.00  0.00     0.039 C 
ATOM      8  C   UNL     1      -1.053   5.866  14.217  1.00  0.00    -0.028 CG0
ATOM      9  G   UNL     1      -0.894   4.497  14.835  1.00  0.00     0.000 G0
ENDBRANCH   5   6
ENDBRANCH   4   5
ENDBRANCH   3   4
BRANCH   3  10
ATOM     10  C   UNL     1      -1.098   5.786  10.030  1.00  0.00    -0.010 C 
ATOM     11  C   UNL     1      -2.228   6.702   9.517  1.00  0.00     0.008 C 
ATOM     12  C   UNL     1       0.121   6.628  10.441  1.00  0.00     0.008 C 
ENDBRANCH   3  10
ENDBRANCH   2   3
BRANCH   1  13
ATOM     13  C   UNL     1      -0.899   2.541  13.203  1.00  0.00    -0.055 C 
ATOM     14  C   UNL     1      -1.811   1.791  13.826  1.00  0.00     0.012 C 
BRANCH  13  15
ATOM     15  C   UNL     1      -0.050   3.507  14.015  1.00  0.00     0.039 C 
BRANCH  15  16
ATOM     16  C   UNL     1      -0.895   4.493  14.846  1.00  0.00     0.032 CG0
ATOM     17  G   UNL     1      -1.047   5.858  14.218  1.00  0.00     0.000 G0
ENDBRANCH  15  16
ENDBRANCH  13  15
ENDBRANCH   1  13
TORSDOF 1
ENDMDL
