MODEL 1
REMARK VINA RESULT:    -4.245      0.000      0.000
REMARK INTER + INTRA:          -7.461
REMARK INTER:                  -6.727
REMARK INTRA:                  -0.734
REMARK UNBOUND:                -0.734
REMARK SMILES CCCCCCCCCCCC(=O)[O-]
REMARK SMILES IDX 7 1 8 2 9 3 10 4 11 5 12 6 13 7 14 8 6 9 5 10 4 11 3 12 2 13
REMARK SMILES IDX 1 14
REMARK H PARENT
REMARK Flexibility Score: inf
ROOT
ATOM      1  C   UNL     1      -5.332  -3.218   6.661  1.00  0.00     0.000 C 
ENDROOT
BRANCH   1   2
ATOM      2  C   UNL     1      -5.402  -3.911   5.293  1.00  0.00     0.000 C 
BRANCH   2   3
ATOM      3  C   UNL     1      -6.840  -4.260   4.870  1.00  0.00     0.000 C 
BRANCH   3   4
ATOM      4  C   UNL     1      -7.750  -3.047   4.587  1.00  0.00     0.006 C 
BRANCH   4   5
ATOM      5  C   UNL     1      -7.364  -2.237   3.340  1.00  0.00     0.053 C 
BRANCH   5   6
ATOM      6  C   UNL     1      -6.916  -0.851   3.688  1.00  0.00     0.041 C 
ATOM      7  O   UNL     1      -6.586  -0.570   4.870  1.00  0.00    -0.550 OA
ATOM      8  O   UNL     1      -6.896   0.139   2.713  1.00  0.00    -0.550 OA
ENDBRANCH   5   6
ENDBRANCH   4   5
ENDBRANCH   3   4
ENDBRANCH   2   3
ENDBRANCH   1   2
BRANCH   1   9
ATOM      9  C   UNL     1      -3.992  -2.494   6.843  1.00  0.00     0.000 C 
BRANCH   9  10
ATOM     10  C   UNL     1      -3.745  -2.153   8.317  1.00  0.00    -0.000 C 
BRANCH  10  11
ATOM     11  C   UNL     1      -4.075  -0.681   8.604  1.00  0.00    -0.000 C 
BRANCH  11  12
ATOM     12  C   UNL     1      -3.808   0.232   7.396  1.00  0.00    -0.000 C 
BRANCH  12  13
ATOM     13  C   UNL     1      -2.539   1.080   7.565  1.00  0.00    -0.003 C 
ATOM     14  C   UNL     1      -2.381   1.549   9.009  1.00  0.00     0.004 C 
ENDBRANCH  12  13
ENDBRANCH  11  12
ENDBRANCH  10  11
ENDBRANCH   9  10
ENDBRANCH   1   9
TORSDOF 10
ENDMDL
MODEL 2
REMARK VINA RESULT:    -4.206      2.584      5.056
REMARK INTER + INTRA:          -7.399
REMARK INTER:                  -6.405
REMARK INTRA:                  -0.994
REMARK UNBOUND:                -0.734
REMARK SMILES CCCCCCCCCCCC(=O)[O-]
REMARK SMILES IDX 7 1 8 2 9 3 10 4 11 5 12 6 13 7 14 8 6 9 5 10 4 11 3 12 2 13
REMARK SMILES IDX 1 14
REMARK H PARENT
REMARK Flexibility Score: inf
ROOT
ATOM      1  C   UNL     1      -6.900  -0.885   3.943  1.00  0.00     0.000 C 
ENDROOT
BRANCH   1   2
ATOM      2  C   UNL     1      -6.694   0.478   4.617  1.00  0.00     0.000 C 
BRANCH   2   3
ATOM      3  C   UNL     1      -6.099   0.364   6.033  1.00  0.00     0.000 C 
BRANCH   3   4
ATOM      4  C   UNL     1      -5.069   1.453   6.397  1.00  0.00     0.006 C 
BRANCH   4   5
ATOM      5  C   UNL     1      -3.721   0.913   6.901  1.00  0.00     0.053 C 
BRANCH   5   6
ATOM      6  C   UNL     1      -3.076   1.843   7.882  1.00  0.00     0.041 C 
ATOM      7  O   UNL     1      -2.109   1.450   8.585  1.00  0.00    -0.550 OA
ATOM      8  O   UNL     1      -3.568   3.132   8.045  1.00  0.00    -0.550 OA
ENDBRANCH   5   6
ENDBRANCH   4   5
ENDBRANCH   3   4
ENDBRANCH   2   3
ENDBRANCH   1   2
BRANCH   1   9
ATOM      9  C   UNL     1      -7.072  -1.996   4.988  1.00  0.00     0.000 C 
BRANCH   9  10
ATOM     10  C   UNL     1      -6.493  -3.323   4.483  1.00  0.00    -0.000 C 
BRANCH  10  11
ATOM     11  C   UNL     1      -5.362  -3.812   5.400  1.00  0.00    -0.000 C 
BRANCH  11  12
ATOM     12  C   UNL     1      -5.337  -3.082   6.752  1.00  0.00    -0.000 C 
BRANCH  12  13
ATOM     13  C   UNL     1      -3.942  -2.554   7.114  1.00  0.00    -0.003 C 
ATOM     14  C   UNL     1      -3.785  -2.406   8.624  1.00  0.00     0.004 C 
ENDBRANCH  12  13
ENDBRANCH  11  12
ENDBRANCH  10  11
ENDBRANCH   9  10
ENDBRANCH   1   9
TORSDOF 10
ENDMDL
MODEL 3
REMARK VINA RESULT:    -4.168      2.292      5.161
REMARK INTER + INTRA:          -7.338
REMARK INTER:                  -6.164
REMARK INTRA:                  -1.174
REMARK UNBOUND:                -0.734
REMARK SMILES CCCCCCCCCCCC(=O)[O-]
REMARK SMILES IDX 7 1 8 2 9 3 10 4 11 5 12 6 13 7 14 8 6 9 5 10 4 11 3 12 2 13
REMARK SMILES IDX 1 14
REMARK H PARENT
REMARK Flexibility Score: inf
ROOT
ATOM      1  C   UNL     1      -5.320  -3.101   6.605  1.00  0.00     0.000 C 
ENDROOT
BRANCH   1   2
ATOM      2  C   UNL     1      -3.946  -2.599   7.070  1.00  0.00     0.000 C 
BRANCH   2   3
ATOM      3  C   UNL     1      -4.017  -1.247   7.802  1.00  0.00     0.000 C 
BRANCH   3   4
ATOM      4  C   UNL     1      -3.565  -0.029   6.970  1.00  0.00     0.006 C 
BRANCH   4   5
ATOM      5  C   UNL     1      -2.798   1.038   7.766  1.00  0.00     0.053 C 
BRANCH   5   6
ATOM      6  C   UNL     1      -3.650   2.233   8.067  1.00  0.00     0.041 C 
ATOM      7  O   UNL     1      -3.126   3.292   8.501  1.00  0.00    -0.550 OA
ATOM      8  O   UNL     1      -5.028   2.163   7.903  1.00  0.00    -0.550 OA
ENDBRANCH   5   6
ENDBRANCH   4   5
ENDBRANCH   3   4
ENDBRANCH   2   3
ENDBRANCH   1   2
BRANCH   1   9
ATOM      9  C   UNL     1      -5.239  -3.693   5.192  1.00  0.00     0.000 C 
BRANCH   9  10
ATOM     10  C   UNL     1      -6.620  -3.717   4.525  1.00  0.00    -0.000 C 
BRANCH  10  11
ATOM     11  C   UNL     1      -7.396  -2.426   4.822  1.00  0.00    -0.000 C 
BRANCH  11  12
ATOM     12  C   UNL     1      -6.942  -1.247   3.946  1.00  0.00    -0.000 C 
BRANCH  12  13
ATOM     13  C   UNL     1      -6.559  -0.010   4.771  1.00  0.00    -0.003 C 
ATOM     14  C   UNL     1      -7.264  -0.013   6.125  1.00  0.00     0.004 C 
ENDBRANCH  12  13
ENDBRANCH  11  12
ENDBRANCH  10  11
ENDBRANCH   9  10
ENDBRANCH   1   9
TORSDOF 10
ENDMDL
MODEL 4
REMARK VINA RESULT:    -4.132      1.458      4.208
REMARK INTER + INTRA:          -7.282
REMARK INTER:                  -6.144
REMARK INTRA:                  -1.138
REMARK UNBOUND:                -0.734
REMARK SMILES CCCCCCCCCCCC(=O)[O-]
REMARK SMILES IDX 7 1 8 2 9 3 10 4 11 5 12 6 13 7 14 8 6 9 5 10 4 11 3 12 2 13
REMARK SMILES IDX 1 14
REMARK H PARENT
REMARK Flexibility Score: inf
ROOT
ATOM      1  C   UNL     1      -4.045   1.472   7.088  1.00  0.00     0.000 C 
ENDROOT
BRANCH   1   2
ATOM      2  C   UNL     1      -5.392   1.257   7.792  1.00  0.00     0.000 C 
BRANCH   2   3
ATOM      3  C   UNL     1      -6.585   1.256   6.819  1.00  0.00     0.000 C 
BRANCH   3   4
ATOM      4  C   UNL     1      -6.221   1.006   5.340  1.00  0.00     0.006 C 
BRANCH   4   5
ATOM      5  C   UNL     1      -7.156   0.031   4.609  1.00  0.00     0.053 C 
BRANCH   5   6
ATOM      6  C   UNL     1      -7.084   0.194   3.122  1.00  0.00     0.041 C 
ATOM      7  O   UNL     1      -6.942  -0.813   2.380  1.00  0.00    -0.550 OA
ATOM      8  O   UNL     1      -7.138   1.463   2.558  1.00  0.00    -0.550 OA
ENDBRANCH   5   6
ENDBRANCH   4   5
ENDBRANCH   3   4
ENDBRANCH   2   3
ENDBRANCH   1   2
BRANCH   1   9
ATOM      9  C   UNL     1      -3.163   0.222   7.195  1.00  0.00     0.000 C 
BRANCH   9  10
ATOM     10  C   UNL     1      -3.877  -0.893   7.968  1.00  0.00    -0.000 C 
BRANCH  10  11
ATOM     11  C   UNL     1      -3.899  -2.197   7.157  1.00  0.00    -0.000 C 
BRANCH  11  12
ATOM     12  C   UNL     1      -5.273  -2.480   6.528  1.00  0.00    -0.000 C 
BRANCH  12  13
ATOM     13  C   UNL     1      -5.260  -3.709   5.607  1.00  0.00    -0.003 C 
ATOM     14  C   UNL     1      -6.350  -3.610   4.544  1.00  0.00     0.004 C 
ENDBRANCH  12  13
ENDBRANCH  11  12
ENDBRANCH  10  11
ENDBRANCH   9  10
ENDBRANCH   1   9
TORSDOF 10
ENDMDL
MODEL 5
REMARK VINA RESULT:    -4.056      1.714      3.033
REMARK INTER + INTRA:          -7.162
REMARK INTER:                  -5.923
REMARK INTRA:                  -1.239
REMARK UNBOUND:                -0.734
REMARK SMILES CCCCCCCCCCCC(=O)[O-]
REMARK SMILES IDX 7 1 8 2 9 3 10 4 11 5 12 6 13 7 14 8 6 9 5 10 4 11 3 12 2 13
REMARK SMILES IDX 1 14
REMARK H PARENT
REMARK Flexibility Score: inf
ROOT
ATOM      1  C   UNL     1      -5.014  -2.349   9.107  1.00  0.00     0.000 C 
ENDROOT
BRANCH   1   2
ATOM      2  C   UNL     1      -3.705  -2.442   8.310  1.00  0.00     0.000 C 
BRANCH   2   3
ATOM      3  C   UNL     1      -3.934  -2.584   6.794  1.00  0.00     0.000 C 
BRANCH   3   4
ATOM      4  C   UNL     1      -5.322  -3.122   6.391  1.00  0.00     0.006 C 
BRANCH   4   5
ATOM      5  C   UNL     1      -5.371  -3.788   5.007  1.00  0.00     0.053 C 
BRANCH   5   6
ATOM      6  C   UNL     1      -6.766  -3.850   4.464  1.00  0.00     0.041 C 
ATOM      7  O   UNL     1      -7.173  -2.971   3.661  1.00  0.00    -0.550 OA
ATOM      8  O   UNL     1      -7.627  -4.860   4.874  1.00  0.00    -0.550 OA
ENDBRANCH   5   6
ENDBRANCH   4   5
ENDBRANCH   3   4
ENDBRANCH   2   3
ENDBRANCH   1   2
BRANCH   1   9
ATOM      9  C   UNL     1      -5.236  -0.925   9.634  1.00  0.00     0.000 C 
BRANCH   9  10
ATOM     10  C   UNL     1      -5.923  -0.048   8.581  1.00  0.00    -0.000 C 
BRANCH  10  11
ATOM     11  C   UNL     1      -5.124   1.240   8.333  1.00  0.00    -0.000 C 
BRANCH  11  12
ATOM     12  C   UNL     1      -4.239   1.157   7.078  1.00  0.00    -0.000 C 
BRANCH  12  13
ATOM     13  C   UNL     1      -2.755   0.946   7.414  1.00  0.00    -0.003 C 
ATOM     14  C   UNL     1      -2.422   1.495   8.798  1.00  0.00     0.004 C 
ENDBRANCH  12  13
ENDBRANCH  11  12
ENDBRANCH  10  11
ENDBRANCH   9  10
ENDBRANCH   1   9
TORSDOF 10
ENDMDL
MODEL 6
REMARK VINA RESULT:    -4.035      1.289      5.217
REMARK INTER + INTRA:          -7.129
REMARK INTER:                  -6.363
REMARK INTRA:                  -0.765
REMARK UNBOUND:                -0.734
REMARK SMILES CCCCCCCCCCCC(=O)[O-]
REMARK SMILES IDX 7 1 8 2 9 3 10 4 11 5 12 6 13 7 14 8 6 9 5 10 4 11 3 12 2 13
REMARK SMILES IDX 1 14
REMARK H PARENT
REMARK Flexibility Score: inf
ROOT
ATOM      1  C   UNL     1      -3.988  -2.352   6.739  1.00  0.00     0.000 C 
ENDROOT
BRANCH   1   2
ATOM      2  C   UNL     1      -3.807  -1.991   8.219  1.00  0.00     0.000 C 
BRANCH   2   3
ATOM      3  C   UNL     1      -3.634  -0.480   8.452  1.00  0.00     0.000 C 
BRANCH   3   4
ATOM      4  C   UNL     1      -3.229   0.331   7.203  1.00  0.00     0.006 C 
BRANCH   4   5
ATOM      5  C   UNL     1      -4.033   1.624   6.994  1.00  0.00     0.053 C 
BRANCH   5   6
ATOM      6  C   UNL     1      -5.463   1.345   6.648  1.00  0.00     0.041 C 
ATOM      7  O   UNL     1      -6.391   1.908   7.286  1.00  0.00    -0.550 OA
ATOM      8  O   UNL     1      -5.771   0.435   5.644  1.00  0.00    -0.550 OA
ENDBRANCH   5   6
ENDBRANCH   4   5
ENDBRANCH   3   4
ENDBRANCH   2   3
ENDBRANCH   1   2
BRANCH   1   9
ATOM      9  C   UNL     1      -5.304  -3.108   6.514  1.00  0.00     0.000 C 
BRANCH   9  10
ATOM     10  C   UNL     1      -5.306  -3.821   5.156  1.00  0.00    -0.000 C 
BRANCH  10  11
ATOM     11  C   UNL     1      -6.740  -4.041   4.653  1.00  0.00    -0.000 C 
BRANCH  11  12
ATOM     12  C   UNL     1      -7.516  -2.726   4.476  1.00  0.00    -0.000 C 
BRANCH  12  13
ATOM     13  C   UNL     1      -7.693  -2.338   3.001  1.00  0.00    -0.003 C 
ATOM     14  C   UNL     1      -7.299  -0.883   2.765  1.00  0.00     0.004 C 
ENDBRANCH  12  13
ENDBRANCH  11  12
ENDBRANCH  10  11
ENDBRANCH   9  10
ENDBRANCH   1   9
TORSDOF 10
ENDMDL
MODEL 7
REMARK VINA RESULT:    -3.898      2.534      5.818
REMARK INTER + INTRA:          -6.911
REMARK INTER:                  -5.844
REMARK INTRA:                  -1.066
REMARK UNBOUND:                -0.734
REMARK SMILES CCCCCCCCCCCC(=O)[O-]
REMARK SMILES IDX 7 1 8 2 9 3 10 4 11 5 12 6 13 7 14 8 6 9 5 10 4 11 3 12 2 13
REMARK SMILES IDX 1 14
REMARK H PARENT
REMARK Flexibility Score: inf
ROOT
ATOM      1  C   UNL     1      -7.482  -0.127   4.530  1.00  0.00     0.000 C 
ENDROOT
BRANCH   1   2
ATOM      2  C   UNL     1      -6.417   0.881   4.984  1.00  0.00     0.000 C 
BRANCH   2   3
ATOM      3  C   UNL     1      -5.866   0.580   6.389  1.00  0.00     0.000 C 
BRANCH   3   4
ATOM      4  C   UNL     1      -4.514   1.249   6.717  1.00  0.00     0.006 C 
BRANCH   4   5
ATOM      5  C   UNL     1      -3.401   0.271   7.123  1.00  0.00     0.053 C 
BRANCH   5   6
ATOM      6  C   UNL     1      -3.540  -0.178   8.545  1.00  0.00     0.041 C 
ATOM      7  O   UNL     1      -3.599  -1.405   8.819  1.00  0.00    -0.550 OA
ATOM      8  O   UNL     1      -3.640   0.761   9.564  1.00  0.00    -0.550 OA
ENDBRANCH   5   6
ENDBRANCH   4   5
ENDBRANCH   3   4
ENDBRANCH   2   3
ENDBRANCH   1   2
BRANCH   1   9
ATOM      9  C   UNL     1      -7.074  -0.803   3.215  1.00  0.00     0.000 C 
BRANCH   9  10
ATOM     10  C   UNL     1      -7.664  -2.215   3.114  1.00  0.00    -0.000 C 
BRANCH  10  11
ATOM     11  C   UNL     1      -7.734  -2.881   4.496  1.00  0.00    -0.000 C 
BRANCH  11  12
ATOM     12  C   UNL     1      -6.863  -4.144   4.591  1.00  0.00    -0.000 C 
BRANCH  12  13
ATOM     13  C   UNL     1      -5.399  -3.828   4.930  1.00  0.00    -0.003 C 
ATOM     14  C   UNL     1      -5.294  -3.061   6.246  1.00  0.00     0.004 C 
ENDBRANCH  12  13
ENDBRANCH  11  12
ENDBRANCH  10  11
ENDBRANCH   9  10
ENDBRANCH   1   9
TORSDOF 10
ENDMDL
MODEL 8
REMARK VINA RESULT:    -3.858      2.243      4.090
REMARK INTER + INTRA:          -6.847
REMARK INTER:                  -5.277
REMARK INTRA:                  -1.571
REMARK UNBOUND:                -0.734
REMARK SMILES CCCCCCCCCCCC(=O)[O-]
REMARK SMILES IDX 7 1 8 2 9 3 10 4 11 5 12 6 13 7 14 8 6 9 5 10 4 11 3 12 2 13
REMARK SMILES IDX 1 14
REMARK H PARENT
REMARK Flexibility Score: inf
ROOT
ATOM      1  C   UNL     1      -6.056   1.169   8.600  1.00  0.00     0.000 C 
ENDROOT
BRANCH   1   2
ATOM      2  C   UNL     1      -6.170  -0.284   9.081  1.00  0.00     0.000 C 
BRANCH   2   3
ATOM      3  C   UNL     1      -4.801  -0.953   9.301  1.00  0.00     0.000 C 
BRANCH   3   4
ATOM      4  C   UNL     1      -4.624  -2.320   8.608  1.00  0.00     0.006 C 
BRANCH   4   5
ATOM      5  C   UNL     1      -4.202  -2.237   7.133  1.00  0.00     0.053 C 
BRANCH   5   6
ATOM      6  C   UNL     1      -5.280  -2.722   6.213  1.00  0.00     0.041 C 
ATOM      7  O   UNL     1      -6.398  -2.144   6.188  1.00  0.00    -0.550 OA
ATOM      8  O   UNL     1      -5.062  -3.835   5.411  1.00  0.00    -0.550 OA
ENDBRANCH   5   6
ENDBRANCH   4   5
ENDBRANCH   3   4
ENDBRANCH   2   3
ENDBRANCH   1   2
BRANCH   1   9
ATOM      9  C   UNL     1      -6.205   1.257   7.076  1.00  0.00     0.000 C 
BRANCH   9  10
ATOM     10  C   UNL     1      -4.836   1.363   6.393  1.00  0.00    -0.000 C 
BRANCH  10  11
ATOM     11  C   UNL     1      -3.848   2.154   7.264  1.00  0.00    -0.000 C 
BRANCH  11  12
ATOM     12  C   UNL     1      -2.593   1.341   7.623  1.00  0.00    -0.000 C 
BRANCH  12  13
ATOM     13  C   UNL     1      -2.128   1.580   9.067  1.00  0.00    -0.003 C 
ATOM     14  C   UNL     1      -2.882   2.745   9.701  1.00  0.00     0.004 C 
ENDBRANCH  12  13
ENDBRANCH  11  12
ENDBRANCH  10  11
ENDBRANCH   9  10
ENDBRANCH   1   9
TORSDOF 10
ENDMDL
MODEL 9
REMARK VINA RESULT:    -3.825      2.185      3.436
REMARK INTER + INTRA:          -6.796
REMARK INTER:                  -6.043
REMARK INTRA:                  -0.752
REMARK UNBOUND:                -0.734
REMARK SMILES CCCCCCCCCCCC(=O)[O-]
REMARK SMILES IDX 7 1 8 2 9 3 10 4 11 5 12 6 13 7 14 8 6 9 5 10 4 11 3 12 2 13
REMARK SMILES IDX 1 14
REMARK H PARENT
REMARK Flexibility Score: inf
ROOT
ATOM      1  C   UNL     1      -5.298   1.345   6.063  1.00  0.00     0.000 C 
ENDROOT
BRANCH   1   2
ATOM      2  C   UNL     1      -6.666   0.851   5.572  1.00  0.00     0.000 C 
BRANCH   2   3
ATOM      3  C   UNL     1      -6.630   0.319   4.128  1.00  0.00     0.000 C 
BRANCH   3   4
ATOM      4  C   UNL     1      -6.983  -1.174   3.974  1.00  0.00     0.006 C 
BRANCH   4   5
ATOM      5  C   UNL     1      -6.613  -2.046   5.184  1.00  0.00     0.053 C 
BRANCH   5   6
ATOM      6  C   UNL     1      -6.268  -3.447   4.781  1.00  0.00     0.041 C 
ATOM      7  O   UNL     1      -5.066  -3.821   4.754  1.00  0.00    -0.550 OA
ATOM      8  O   UNL     1      -7.272  -4.328   4.401  1.00  0.00    -0.550 OA
ENDBRANCH   5   6
ENDBRANCH   4   5
ENDBRANCH   3   4
ENDBRANCH   2   3
ENDBRANCH   1   2
BRANCH   1   9
ATOM      9  C   UNL     1      -4.786   0.483   7.224  1.00  0.00     0.000 C 
BRANCH   9  10
ATOM     10  C   UNL     1      -3.272   0.262   7.121  1.00  0.00    -0.000 C 
BRANCH  10  11
ATOM     11  C   UNL     1      -2.502   1.430   7.755  1.00  0.00    -0.000 C 
BRANCH  11  12
ATOM     12  C   UNL     1      -2.538   1.399   9.292  1.00  0.00    -0.000 C 
BRANCH  12  13
ATOM     13  C   UNL     1      -2.812   2.780   9.905  1.00  0.00    -0.003 C 
ATOM     14  C   UNL     1      -3.319   3.758   8.849  1.00  0.00     0.004 C 
ENDBRANCH  12  13
ENDBRANCH  11  12
ENDBRANCH  10  11
ENDBRANCH   9  10
ENDBRANCH   1   9
TORSDOF 10
ENDMDL
