MODEL 1
REMARK VINA RESULT:    -6.305      0.000      0.000
REMARK INTER + INTRA:          -7.501
REMARK INTER:                  -7.411
REMARK INTRA:                  -0.090
REMARK UNBOUND:                -0.090
REMARK SMILES Oc1ccc(-c2[o+]c3cc(O)cc(O)c3cc2O)cc1
REMARK SMILES IDX 6 1 7 2 8 3 9 4 10 5 12 6 13 7 15 8 16 9 17 10 5 11 4 12
REMARK SMILES IDX 3 13 2 14 19 15 20 16 1 17 18 19 11 21 14 23
REMARK H PARENT 1 18 18 20 11 22 14 24
REMARK Flexibility Score: inf
ROOT
ATOM      1  C   UNL     1      16.062  -9.342  12.683  1.00  0.00     0.401 A 
ATOM      2  O   UNL     1      14.749  -9.337  12.469  1.00  0.00    -0.202 OA
ATOM      3  C   UNL     1      14.017 -10.443  12.400  1.00  0.00     0.368 A 
ATOM      4  C   UNL     1      12.642 -10.336  12.175  1.00  0.00     0.162 A 
ATOM      5  C   UNL     1      11.848 -11.484  12.102  1.00  0.00     0.128 A 
ATOM      6  C   UNL     1      12.429 -12.743  12.257  1.00  0.00     0.093 A 
ATOM      7  C   UNL     1      13.805 -12.879  12.484  1.00  0.00     0.136 A 
ATOM      8  C   UNL     1      14.617 -11.717  12.556  1.00  0.00     0.125 A 
ATOM      9  C   UNL     1      16.004 -11.756  12.768  1.00  0.00     0.078 A 
ATOM     10  C   UNL     1      16.739 -10.568  12.823  1.00  0.00     0.223 A 
ENDROOT
BRANCH   1  11
ATOM     11  C   UNL     1      16.767  -8.042  12.748  1.00  0.00     0.084 A 
ATOM     12  C   UNL     1      16.411  -7.112  13.739  1.00  0.00     0.022 A 
ATOM     13  C   UNL     1      17.078  -5.886  13.834  1.00  0.00     0.047 A 
ATOM     14  C   UNL     1      18.117  -5.581  12.950  1.00  0.00     0.115 A 
ATOM     15  C   UNL     1      17.827  -7.736  11.875  1.00  0.00     0.022 A 
ATOM     16  C   UNL     1      18.492  -6.511  11.972  1.00  0.00     0.047 A 
BRANCH  14  17
ATOM     17  O   UNL     1      18.772  -4.356  13.055  1.00  0.00    -0.508 OA
ATOM     18  H   UNL     1      19.715  -4.289  13.421  1.00  0.00     0.293 HD
ENDBRANCH  14  17
ENDBRANCH   1  11
BRANCH  10  19
ATOM     19  O   UNL     1      18.125 -10.609  12.982  1.00  0.00    -0.500 OA
ATOM     20  H   UNL     1      18.552 -10.920  13.847  1.00  0.00     0.294 HD
ENDBRANCH  10  19
BRANCH   5  21
ATOM     21  O   UNL     1      10.476 -11.384  11.876  1.00  0.00    -0.507 OA
ATOM     22  H   UNL     1      10.082 -11.488  10.948  1.00  0.00     0.293 HD
ENDBRANCH   5  21
BRANCH   7  23
ATOM     23  O   UNL     1      14.309 -14.174  12.632  1.00  0.00    -0.507 OA
ATOM     24  H   UNL     1      15.287 -14.416  12.568  1.00  0.00     0.293 HD
ENDBRANCH   7  23
TORSDOF 5
ENDMDL
MODEL 2
REMARK VINA RESULT:    -5.550      1.142      2.871
REMARK INTER + INTRA:          -6.613
REMARK INTER:                  -6.779
REMARK INTRA:                   0.166
REMARK UNBOUND:                -0.090
REMARK SMILES Oc1ccc(-c2[o+]c3cc(O)cc(O)c3cc2O)cc1
REMARK SMILES IDX 6 1 7 2 8 3 9 4 10 5 12 6 13 7 15 8 16 9 17 10 5 11 4 12
REMARK SMILES IDX 3 13 2 14 19 15 20 16 1 17 18 19 11 21 14 23
REMARK H PARENT 1 18 18 20 11 22 14 24
REMARK Flexibility Score: inf
ROOT
ATOM      1  C   UNL     1      15.537  -8.428  12.644  1.00  0.00     0.401 A 
ATOM      2  O   UNL     1      15.813  -9.730  12.659  1.00  0.00    -0.202 OA
ATOM      3  C   UNL     1      14.878 -10.673  12.633  1.00  0.00     0.368 A 
ATOM      4  C   UNL     1      15.267 -12.015  12.648  1.00  0.00     0.162 A 
ATOM      5  C   UNL     1      14.304 -13.029  12.618  1.00  0.00     0.128 A 
ATOM      6  C   UNL     1      12.948 -12.699  12.572  1.00  0.00     0.093 A 
ATOM      7  C   UNL     1      12.532 -11.361  12.556  1.00  0.00     0.136 A 
ATOM      8  C   UNL     1      13.505 -10.329  12.589  1.00  0.00     0.125 A 
ATOM      9  C   UNL     1      13.182  -8.963  12.589  1.00  0.00     0.078 A 
ATOM     10  C   UNL     1      14.197  -8.001  12.627  1.00  0.00     0.223 A 
ENDROOT
BRANCH   1  11
ATOM     11  C   UNL     1      16.668  -7.472  12.666  1.00  0.00     0.084 A 
ATOM     12  C   UNL     1      17.808  -7.733  11.888  1.00  0.00     0.022 A 
ATOM     13  C   UNL     1      18.879  -6.834  11.875  1.00  0.00     0.047 A 
ATOM     14  C   UNL     1      18.817  -5.656  12.627  1.00  0.00     0.115 A 
ATOM     15  C   UNL     1      16.604  -6.276  13.404  1.00  0.00     0.022 A 
ATOM     16  C   UNL     1      17.675  -5.378  13.389  1.00  0.00     0.047 A 
BRANCH  14  17
ATOM     17  O   UNL     1      19.891  -4.770  12.606  1.00  0.00    -0.508 OA
ATOM     18  H   UNL     1      19.974  -4.055  11.892  1.00  0.00     0.293 HD
ENDBRANCH  14  17
ENDBRANCH   1  11
BRANCH  10  19
ATOM     19  O   UNL     1      13.874  -6.645  12.679  1.00  0.00    -0.500 OA
ATOM     20  H   UNL     1      14.576  -5.937  12.859  1.00  0.00     0.294 HD
ENDBRANCH  10  19
BRANCH   5  21
ATOM     21  O   UNL     1      14.684 -14.369  12.633  1.00  0.00    -0.507 OA
ATOM     22  H   UNL     1      15.655 -14.646  12.545  1.00  0.00     0.293 HD
ENDBRANCH   5  21
BRANCH   7  23
ATOM     23  O   UNL     1      11.158 -11.115  12.507  1.00  0.00    -0.507 OA
ATOM     24  H   UNL     1      10.744 -10.197  12.430  1.00  0.00     0.293 HD
ENDBRANCH   7  23
TORSDOF 5
ENDMDL
MODEL 3
REMARK VINA RESULT:    -5.503      1.157      2.679
REMARK INTER + INTRA:          -6.557
REMARK INTER:                  -6.759
REMARK INTRA:                   0.202
REMARK UNBOUND:                -0.090
REMARK SMILES Oc1ccc(-c2[o+]c3cc(O)cc(O)c3cc2O)cc1
REMARK SMILES IDX 6 1 7 2 8 3 9 4 10 5 12 6 13 7 15 8 16 9 17 10 5 11 4 12
REMARK SMILES IDX 3 13 2 14 19 15 20 16 1 17 18 19 11 21 14 23
REMARK H PARENT 1 18 18 20 11 22 14 24
REMARK Flexibility Score: inf
ROOT
ATOM      1  C   UNL     1      15.539  -8.421  12.629  1.00  0.00     0.401 A 
ATOM      2  O   UNL     1      15.829  -9.719  12.647  1.00  0.00    -0.202 OA
ATOM      3  C   UNL     1      14.905 -10.673  12.663  1.00  0.00     0.368 A 
ATOM      4  C   UNL     1      15.308 -12.011  12.678  1.00  0.00     0.162 A 
ATOM      5  C   UNL     1      14.356 -13.034  12.691  1.00  0.00     0.128 A 
ATOM      6  C   UNL     1      12.996 -12.719  12.689  1.00  0.00     0.093 A 
ATOM      7  C   UNL     1      12.565 -11.387  12.674  1.00  0.00     0.136 A 
ATOM      8  C   UNL     1      13.527 -10.343  12.663  1.00  0.00     0.125 A 
ATOM      9  C   UNL     1      13.189  -8.981  12.660  1.00  0.00     0.078 A 
ATOM     10  C   UNL     1      14.194  -8.008  12.654  1.00  0.00     0.223 A 
ENDROOT
BRANCH   1  11
ATOM     11  C   UNL     1      16.659  -7.453  12.602  1.00  0.00     0.084 A 
ATOM     12  C   UNL     1      16.572  -6.274  13.362  1.00  0.00     0.022 A 
ATOM     13  C   UNL     1      17.626  -5.356  13.371  1.00  0.00     0.047 A 
ATOM     14  C   UNL     1      18.786  -5.610  12.632  1.00  0.00     0.115 A 
ATOM     15  C   UNL     1      17.837  -7.712  11.878  1.00  0.00     0.022 A 
ATOM     16  C   UNL     1      18.890  -6.792  11.887  1.00  0.00     0.047 A 
BRANCH  14  17
ATOM     17  O   UNL     1      19.828  -4.686  12.648  1.00  0.00    -0.508 OA
ATOM     18  H   UNL     1      19.652  -3.690  12.693  1.00  0.00     0.293 HD
ENDBRANCH  14  17
ENDBRANCH   1  11
BRANCH  10  19
ATOM     19  O   UNL     1      13.858  -6.655  12.703  1.00  0.00    -0.500 OA
ATOM     20  H   UNL     1      14.479  -5.939  12.343  1.00  0.00     0.294 HD
ENDBRANCH  10  19
BRANCH   5  21
ATOM     21  O   UNL     1      14.751 -14.370  12.707  1.00  0.00    -0.507 OA
ATOM     22  H   UNL     1      14.917 -14.865  13.576  1.00  0.00     0.293 HD
ENDBRANCH   5  21
BRANCH   7  23
ATOM     23  O   UNL     1      11.187 -11.155  12.669  1.00  0.00    -0.507 OA
ATOM     24  H   UNL     1      10.488 -11.869  12.812  1.00  0.00     0.293 HD
ENDBRANCH   7  23
TORSDOF 5
ENDMDL
MODEL 4
REMARK VINA RESULT:    -5.347      1.550      7.075
REMARK INTER + INTRA:          -6.374
REMARK INTER:                  -6.807
REMARK INTRA:                   0.433
REMARK UNBOUND:                -0.090
REMARK SMILES Oc1ccc(-c2[o+]c3cc(O)cc(O)c3cc2O)cc1
REMARK SMILES IDX 6 1 7 2 8 3 9 4 10 5 12 6 13 7 15 8 16 9 17 10 5 11 4 12
REMARK SMILES IDX 3 13 2 14 19 15 20 16 1 17 18 19 11 21 14 23
REMARK H PARENT 1 18 18 20 11 22 14 24
REMARK Flexibility Score: inf
ROOT
ATOM      1  C   UNL     1      15.102  -9.456  12.480  1.00  0.00     0.401 A 
ATOM      2  O   UNL     1      16.387  -9.140  12.343  1.00  0.00    -0.202 OA
ATOM      3  C   UNL     1      16.826  -7.889  12.260  1.00  0.00     0.368 A 
ATOM      4  C   UNL     1      18.197  -7.658  12.121  1.00  0.00     0.162 A 
ATOM      5  C   UNL     1      18.687  -6.351  12.034  1.00  0.00     0.128 A 
ATOM      6  C   UNL     1      17.802  -5.272  12.087  1.00  0.00     0.093 A 
ATOM      7  C   UNL     1      16.424  -5.477  12.227  1.00  0.00     0.136 A 
ATOM      8  C   UNL     1      15.921  -6.801  12.313  1.00  0.00     0.125 A 
ATOM      9  C   UNL     1      14.556  -7.102  12.441  1.00  0.00     0.078 A 
ATOM     10  C   UNL     1      14.135  -8.434  12.515  1.00  0.00     0.223 A 
ENDROOT
BRANCH   1  11
ATOM     11  C   UNL     1      14.738 -10.888  12.572  1.00  0.00     0.084 A 
ATOM     12  C   UNL     1      15.742 -11.865  12.466  1.00  0.00     0.022 A 
ATOM     13  C   UNL     1      15.425 -13.222  12.573  1.00  0.00     0.047 A 
ATOM     14  C   UNL     1      14.105 -13.620  12.801  1.00  0.00     0.115 A 
ATOM     15  C   UNL     1      13.414 -11.295  12.823  1.00  0.00     0.022 A 
ATOM     16  C   UNL     1      13.100 -12.653  12.929  1.00  0.00     0.047 A 
BRANCH  14  17
ATOM     17  O   UNL     1      13.803 -14.976  12.904  1.00  0.00    -0.508 OA
ATOM     18  H   UNL     1      14.364 -15.602  13.469  1.00  0.00     0.293 HD
ENDBRANCH  14  17
ENDBRANCH   1  11
BRANCH  10  19
ATOM     19  O   UNL     1      12.774  -8.734  12.591  1.00  0.00    -0.500 OA
ATOM     20  H   UNL     1      12.242  -8.580  13.439  1.00  0.00     0.294 HD
ENDBRANCH  10  19
BRANCH   5  21
ATOM     21  O   UNL     1      20.052  -6.113  11.894  1.00  0.00    -0.507 OA
ATOM     22  H   UNL     1      20.562  -5.541  12.558  1.00  0.00     0.293 HD
ENDBRANCH   5  21
BRANCH   7  23
ATOM     23  O   UNL     1      15.606  -4.344  12.276  1.00  0.00    -0.507 OA
ATOM     24  H   UNL     1      15.891  -3.422  11.980  1.00  0.00     0.293 HD
ENDBRANCH   7  23
TORSDOF 5
ENDMDL
MODEL 5
REMARK VINA RESULT:    -5.239      1.821      6.415
REMARK INTER + INTRA:          -6.247
REMARK INTER:                  -6.663
REMARK INTRA:                   0.415
REMARK UNBOUND:                -0.090
REMARK SMILES Oc1ccc(-c2[o+]c3cc(O)cc(O)c3cc2O)cc1
REMARK SMILES IDX 6 1 7 2 8 3 9 4 10 5 12 6 13 7 15 8 16 9 17 10 5 11 4 12
REMARK SMILES IDX 3 13 2 14 19 15 20 16 1 17 18 19 11 21 14 23
REMARK H PARENT 1 18 18 20 11 22 14 24
REMARK Flexibility Score: inf
ROOT
ATOM      1  C   UNL     1      15.836  -9.478  12.560  1.00  0.00     0.401 A 
ATOM      2  O   UNL     1      14.969  -8.482  12.393  1.00  0.00    -0.202 OA
ATOM      3  C   UNL     1      15.330  -7.206  12.319  1.00  0.00     0.368 A 
ATOM      4  C   UNL     1      14.346  -6.230  12.139  1.00  0.00     0.162 A 
ATOM      5  C   UNL     1      14.698  -4.880  12.055  1.00  0.00     0.128 A 
ATOM      6  C   UNL     1      16.039  -4.504  12.150  1.00  0.00     0.093 A 
ATOM      7  C   UNL     1      17.045  -5.462  12.330  1.00  0.00     0.136 A 
ATOM      8  C   UNL     1      16.693  -6.834  12.419  1.00  0.00     0.125 A 
ATOM      9  C   UNL     1      17.630  -7.860  12.612  1.00  0.00     0.078 A 
ATOM     10  C   UNL     1      17.207  -9.191  12.694  1.00  0.00     0.223 A 
ENDROOT
BRANCH   1  11
ATOM     11  C   UNL     1      15.312 -10.861  12.617  1.00  0.00     0.084 A 
ATOM     12  C   UNL     1      13.923 -11.074  12.633  1.00  0.00     0.022 A 
ATOM     13  C   UNL     1      13.404 -12.372  12.663  1.00  0.00     0.047 A 
ATOM     14  C   UNL     1      14.265 -13.473  12.664  1.00  0.00     0.115 A 
ATOM     15  C   UNL     1      16.172 -11.974  12.596  1.00  0.00     0.022 A 
ATOM     16  C   UNL     1      15.651 -13.271  12.627  1.00  0.00     0.047 A 
BRANCH  14  17
ATOM     17  O   UNL     1      13.736 -14.761  12.696  1.00  0.00    -0.508 OA
ATOM     18  H   UNL     1      13.302 -15.135  13.532  1.00  0.00     0.293 HD
ENDBRANCH  14  17
ENDBRANCH   1  11
BRANCH  10  19
ATOM     19  O   UNL     1      18.133 -10.206  12.937  1.00  0.00    -0.500 OA
ATOM     20  H   UNL     1      18.074 -10.795  13.760  1.00  0.00     0.294 HD
ENDBRANCH  10  19
BRANCH   5  21
ATOM     21  O   UNL     1      13.722  -3.902  11.876  1.00  0.00    -0.507 OA
ATOM     22  H   UNL     1      13.733  -3.282  11.073  1.00  0.00     0.293 HD
ENDBRANCH   5  21
BRANCH   7  23
ATOM     23  O   UNL     1      18.363  -5.004  12.412  1.00  0.00    -0.507 OA
ATOM     24  H   UNL     1      18.670  -4.252  13.012  1.00  0.00     0.293 HD
ENDBRANCH   7  23
TORSDOF 5
ENDMDL
MODEL 6
REMARK VINA RESULT:    -4.703      1.454      6.599
REMARK INTER + INTRA:          -5.617
REMARK INTER:                  -5.972
REMARK INTRA:                   0.355
REMARK UNBOUND:                -0.090
REMARK SMILES Oc1ccc(-c2[o+]c3cc(O)cc(O)c3cc2O)cc1
REMARK SMILES IDX 6 1 7 2 8 3 9 4 10 5 12 6 13 7 15 8 16 9 17 10 5 11 4 12
REMARK SMILES IDX 3 13 2 14 19 15 20 16 1 17 18 19 11 21 14 23
REMARK H PARENT 1 18 18 20 11 22 14 24
REMARK Flexibility Score: inf
ROOT
ATOM      1  C   UNL     1      15.084  -9.759  12.350  1.00  0.00     0.401 A 
ATOM      2  O   UNL     1      14.863  -8.456  12.195  1.00  0.00    -0.202 OA
ATOM      3  C   UNL     1      15.829  -7.545  12.218  1.00  0.00     0.368 A 
ATOM      4  C   UNL     1      15.498  -6.199  12.041  1.00  0.00     0.162 A 
ATOM      5  C   UNL     1      16.496  -5.219  12.058  1.00  0.00     0.128 A 
ATOM      6  C   UNL     1      17.829  -5.587  12.249  1.00  0.00     0.093 A 
ATOM      7  C   UNL     1      18.187  -6.929  12.428  1.00  0.00     0.136 A 
ATOM      8  C   UNL     1      17.178  -7.927  12.416  1.00  0.00     0.125 A 
ATOM      9  C   UNL     1      17.442  -9.294  12.599  1.00  0.00     0.078 A 
ATOM     10  C   UNL     1      16.394 -10.220  12.578  1.00  0.00     0.223 A 
ENDROOT
BRANCH   1  11
ATOM     11  C   UNL     1      13.925 -10.678  12.295  1.00  0.00     0.084 A 
ATOM     12  C   UNL     1      12.623 -10.154  12.379  1.00  0.00     0.022 A 
ATOM     13  C   UNL     1      11.513 -11.000  12.307  1.00  0.00     0.047 A 
ATOM     14  C   UNL     1      11.687 -12.377  12.136  1.00  0.00     0.115 A 
ATOM     15  C   UNL     1      14.092 -12.061  12.102  1.00  0.00     0.022 A 
ATOM     16  C   UNL     1      12.980 -12.905  12.030  1.00  0.00     0.047 A 
BRANCH  14  17
ATOM     17  O   UNL     1      10.572 -13.208  12.067  1.00  0.00    -0.508 OA
ATOM     18  H   UNL     1      10.621 -14.184  12.334  1.00  0.00     0.293 HD
ENDBRANCH  14  17
ENDBRANCH   1  11
BRANCH  10  19
ATOM     19  O   UNL     1      16.650 -11.572  12.811  1.00  0.00    -0.500 OA
ATOM     20  H   UNL     1      15.982 -12.290  12.559  1.00  0.00     0.294 HD
ENDBRANCH  10  19
BRANCH   5  21
ATOM     21  O   UNL     1      16.173  -3.875  11.883  1.00  0.00    -0.507 OA
ATOM     22  H   UNL     1      16.580  -3.324  11.136  1.00  0.00     0.293 HD
ENDBRANCH   5  21
BRANCH   7  23
ATOM     23  O   UNL     1      19.543  -7.215  12.611  1.00  0.00    -0.507 OA
ATOM     24  H   UNL     1      20.277  -6.521  12.616  1.00  0.00     0.293 HD
ENDBRANCH   7  23
TORSDOF 5
ENDMDL
