MODEL 1
REMARK VINA RESULT:    -2.856      0.000      0.000
REMARK INTER + INTRA:          -3.220
REMARK INTER:                  -3.190
REMARK INTRA:                  -0.030
REMARK UNBOUND:                -0.030
REMARK SMILES CCCC(=O)[O-]
REMARK SMILES IDX 3 1 4 2 5 3 6 4 2 5 1 6
REMARK H PARENT
REMARK Flexibility Score: inf
ROOT
ATOM      1  C   UNL     1       9.324 -30.019 -17.457  1.00  0.00     0.052 C 
ENDROOT
BRANCH   1   2
ATOM      2  C   UNL     1       8.030 -29.280 -17.611  1.00  0.00     0.041 C 
ATOM      3  O   UNL     1       7.426 -28.843 -16.598  1.00  0.00    -0.550 OA
ATOM      4  O   UNL     1       7.508 -29.047 -18.878  1.00  0.00    -0.550 OA
ENDBRANCH   1   2
BRANCH   1   5
ATOM      5  C   UNL     1       9.441 -30.679 -16.077  1.00  0.00     0.003 C 
ATOM      6  C   UNL     1       9.312 -32.200 -16.147  1.00  0.00     0.004 C 
ENDBRANCH   1   5
TORSDOF 2
ENDMDL
MODEL 2
REMARK VINA RESULT:    -2.829      0.189      1.332
REMARK INTER + INTRA:          -3.189
REMARK INTER:                  -3.158
REMARK INTRA:                  -0.031
REMARK UNBOUND:                -0.030
REMARK SMILES CCCC(=O)[O-]
REMARK SMILES IDX 3 1 4 2 5 3 6 4 2 5 1 6
REMARK H PARENT
REMARK Flexibility Score: inf
ROOT
ATOM      1  C   UNL     1       9.484 -30.084 -17.367  1.00  0.00     0.052 C 
ENDROOT
BRANCH   1   2
ATOM      2  C   UNL     1       8.190 -29.370 -17.608  1.00  0.00     0.041 C 
ATOM      3  O   UNL     1       7.750 -29.233 -18.780  1.00  0.00    -0.550 OA
ATOM      4  O   UNL     1       7.452 -28.884 -16.535  1.00  0.00    -0.550 OA
ENDBRANCH   1   2
BRANCH   1   5
ATOM      5  C   UNL     1       9.495 -30.798 -16.009  1.00  0.00     0.003 C 
ATOM      6  C   UNL     1       9.281 -32.306 -16.143  1.00  0.00     0.004 C 
ENDBRANCH   1   5
TORSDOF 2
ENDMDL
MODEL 3
REMARK VINA RESULT:    -2.485      0.806      1.072
REMARK INTER + INTRA:          -2.806
REMARK INTER:                  -2.991
REMARK INTRA:                   0.185
REMARK UNBOUND:                -0.030
REMARK SMILES CCCC(=O)[O-]
REMARK SMILES IDX 3 1 4 2 5 3 6 4 2 5 1 6
REMARK H PARENT
REMARK Flexibility Score: inf
ROOT
ATOM      1  C   UNL     1       9.743 -30.210 -17.301  1.00  0.00     0.052 C 
ENDROOT
BRANCH   1   2
ATOM      2  C   UNL     1       8.510 -29.566 -17.858  1.00  0.00     0.041 C 
ATOM      3  O   UNL     1       7.735 -28.923 -17.104  1.00  0.00    -0.550 OA
ATOM      4  O   UNL     1       8.235 -29.650 -19.218  1.00  0.00    -0.550 OA
ENDBRANCH   1   2
BRANCH   1   5
ATOM      5  C   UNL     1       9.410 -31.196 -16.174  1.00  0.00     0.003 C 
ATOM      6  C   UNL     1       9.176 -30.493 -14.837  1.00  0.00     0.004 C 
ENDBRANCH   1   5
TORSDOF 2
ENDMDL
MODEL 4
REMARK VINA RESULT:    -2.368      1.927      3.212
REMARK INTER + INTRA:          -2.675
REMARK INTER:                  -2.667
REMARK INTRA:                  -0.009
REMARK UNBOUND:                -0.030
REMARK SMILES CCCC(=O)[O-]
REMARK SMILES IDX 3 1 4 2 5 3 6 4 2 5 1 6
REMARK H PARENT
REMARK Flexibility Score: inf
ROOT
ATOM      1  C   UNL     1       8.816 -29.775 -17.755  1.00  0.00     0.052 C 
ENDROOT
BRANCH   1   2
ATOM      2  C   UNL     1       9.041 -30.277 -16.362  1.00  0.00     0.041 C 
ATOM      3  O   UNL     1       8.579 -29.644 -15.378  1.00  0.00    -0.550 OA
ATOM      4  O   UNL     1       9.734 -31.465 -16.154  1.00  0.00    -0.550 OA
ENDBRANCH   1   2
BRANCH   1   5
ATOM      5  C   UNL     1       7.477 -29.037 -17.884  1.00  0.00     0.003 C 
ATOM      6  C   UNL     1       7.038 -28.879 -19.339  1.00  0.00     0.004 C 
ENDBRANCH   1   5
TORSDOF 2
ENDMDL
MODEL 5
REMARK VINA RESULT:    -2.315      2.469      4.166
REMARK INTER + INTRA:          -2.615
REMARK INTER:                  -2.602
REMARK INTRA:                  -0.014
REMARK UNBOUND:                -0.030
REMARK SMILES CCCC(=O)[O-]
REMARK SMILES IDX 3 1 4 2 5 3 6 4 2 5 1 6
REMARK H PARENT
REMARK Flexibility Score: inf
ROOT
ATOM      1  C   UNL     1       6.640 -28.682 -19.138  1.00  0.00     0.052 C 
ENDROOT
BRANCH   1   2
ATOM      2  C   UNL     1       7.632 -29.117 -18.104  1.00  0.00     0.041 C 
ATOM      3  O   UNL     1       8.690 -29.705 -18.449  1.00  0.00    -0.550 OA
ATOM      4  O   UNL     1       7.403 -28.843 -16.760  1.00  0.00    -0.550 OA
ENDBRANCH   1   2
BRANCH   1   5
ATOM      5  C   UNL     1       7.010 -29.198 -20.535  1.00  0.00     0.003 C 
ATOM      6  C   UNL     1       6.371 -28.371 -21.649  1.00  0.00     0.004 C 
ENDBRANCH   1   5
TORSDOF 2
ENDMDL
MODEL 6
REMARK VINA RESULT:    -2.261      2.275      3.425
REMARK INTER + INTRA:          -2.555
REMARK INTER:                  -2.549
REMARK INTRA:                  -0.006
REMARK UNBOUND:                -0.030
REMARK SMILES CCCC(=O)[O-]
REMARK SMILES IDX 3 1 4 2 5 3 6 4 2 5 1 6
REMARK H PARENT
REMARK Flexibility Score: inf
ROOT
ATOM      1  C   UNL     1       9.044 -29.979 -17.308  1.00  0.00     0.052 C 
ENDROOT
BRANCH   1   2
ATOM      2  C   UNL     1       9.295 -30.867 -16.127  1.00  0.00     0.041 C 
ATOM      3  O   UNL     1       9.606 -32.075 -16.298  1.00  0.00    -0.550 OA
ATOM      4  O   UNL     1       9.219 -30.351 -14.839  1.00  0.00    -0.550 OA
ENDBRANCH   1   2
BRANCH   1   5
ATOM      5  C   UNL     1       7.773 -29.139 -17.127  1.00  0.00     0.003 C 
ATOM      6  C   UNL     1       7.062 -28.867 -18.452  1.00  0.00     0.004 C 
ENDBRANCH   1   5
TORSDOF 2
ENDMDL
MODEL 7
REMARK VINA RESULT:    -2.170      2.822      3.798
REMARK INTER + INTRA:          -2.453
REMARK INTER:                  -2.429
REMARK INTRA:                  -0.024
REMARK UNBOUND:                -0.030
REMARK SMILES CCCC(=O)[O-]
REMARK SMILES IDX 3 1 4 2 5 3 6 4 2 5 1 6
REMARK H PARENT
REMARK Flexibility Score: inf
ROOT
ATOM      1  C   UNL     1       9.487 -31.055 -15.645  1.00  0.00     0.052 C 
ENDROOT
BRANCH   1   2
ATOM      2  C   UNL     1       9.267 -32.490 -16.015  1.00  0.00     0.041 C 
ATOM      3  O   UNL     1       9.541 -32.894 -17.175  1.00  0.00    -0.550 OA
ATOM      4  O   UNL     1       8.791 -33.389 -15.067  1.00  0.00    -0.550 OA
ENDBRANCH   1   2
BRANCH   1   5
ATOM      5  C   UNL     1       9.266 -30.119 -16.841  1.00  0.00     0.003 C 
ATOM      6  C   UNL     1       8.014 -29.259 -16.682  1.00  0.00     0.004 C 
ENDBRANCH   1   5
TORSDOF 2
ENDMDL
MODEL 8
REMARK VINA RESULT:    -1.792      1.610      2.032
REMARK INTER + INTRA:          -2.031
REMARK INTER:                  -1.965
REMARK INTRA:                  -0.066
REMARK UNBOUND:                -0.030
REMARK SMILES CCCC(=O)[O-]
REMARK SMILES IDX 3 1 4 2 5 3 6 4 2 5 1 6
REMARK H PARENT
REMARK Flexibility Score: inf
ROOT
ATOM      1  C   UNL     1       9.234 -31.162 -16.922  1.00  0.00     0.052 C 
ENDROOT
BRANCH   1   2
ATOM      2  C   UNL     1       9.388 -29.992 -17.845  1.00  0.00     0.041 C 
ATOM      3  O   UNL     1      10.465 -29.341 -17.868  1.00  0.00    -0.550 OA
ATOM      4  O   UNL     1       8.353 -29.642 -18.704  1.00  0.00    -0.550 OA
ENDBRANCH   1   2
BRANCH   1   5
ATOM      5  C   UNL     1       9.488 -30.770 -15.461  1.00  0.00     0.003 C 
ATOM      6  C   UNL     1       8.483 -29.737 -14.953  1.00  0.00     0.004 C 
ENDBRANCH   1   5
TORSDOF 2
ENDMDL
MODEL 9
REMARK VINA RESULT:    -1.169      2.507      3.035
REMARK INTER + INTRA:          -1.336
REMARK INTER:                  -1.324
REMARK INTRA:                  -0.011
REMARK UNBOUND:                -0.030
REMARK SMILES CCCC(=O)[O-]
REMARK SMILES IDX 3 1 4 2 5 3 6 4 2 5 1 6
REMARK H PARENT
REMARK Flexibility Score: inf
ROOT
ATOM      1  C   UNL     1       6.788 -28.762 -18.442  1.00  0.00     0.052 C 
ENDROOT
BRANCH   1   2
ATOM      2  C   UNL     1       7.084 -28.974 -19.896  1.00  0.00     0.041 C 
ATOM      3  O   UNL     1       8.145 -29.550 -20.248  1.00  0.00    -0.550 OA
ATOM      4  O   UNL     1       6.170 -28.564 -20.859  1.00  0.00    -0.550 OA
ENDBRANCH   1   2
BRANCH   1   5
ATOM      5  C   UNL     1       7.902 -29.322 -17.548  1.00  0.00     0.003 C 
ATOM      6  C   UNL     1       7.750 -28.887 -16.090  1.00  0.00     0.004 C 
ENDBRANCH   1   5
TORSDOF 2
ENDMDL
