MODEL 1
REMARK VINA RESULT:    -4.246      0.000      0.000
REMARK INTER + INTRA:          -6.044
REMARK INTER:                  -5.736
REMARK INTRA:                  -0.308
REMARK UNBOUND:                -0.308
REMARK SMILES CCCCCCCC(=O)[O-]
REMARK SMILES IDX 5 1 6 2 7 3 8 4 9 5 10 6 4 7 3 8 2 9 1 10
REMARK H PARENT
REMARK Flexibility Score: inf
ROOT
ATOM      1  C   UNL     1      16.881 -36.332  -2.211  1.00  0.00     0.000 C 
ENDROOT
BRANCH   1   2
ATOM      2  C   UNL     1      17.940 -37.419  -1.994  1.00  0.00     0.006 C 
BRANCH   2   3
ATOM      3  C   UNL     1      17.687 -38.181  -0.689  1.00  0.00     0.053 C 
BRANCH   3   4
ATOM      4  C   UNL     1      18.406 -37.525   0.448  1.00  0.00     0.041 C 
ATOM      5  O   UNL     1      17.856 -36.592   1.092  1.00  0.00    -0.550 OA
ATOM      6  O   UNL     1      19.663 -37.977   0.828  1.00  0.00    -0.550 OA
ENDBRANCH   3   4
ENDBRANCH   2   3
ENDBRANCH   1   2
BRANCH   1   7
ATOM      7  C   UNL     1      17.494 -34.930  -2.058  1.00  0.00     0.000 C 
BRANCH   7   8
ATOM      8  C   UNL     1      16.623 -33.993  -1.207  1.00  0.00    -0.000 C 
BRANCH   8   9
ATOM      9  C   UNL     1      15.904 -32.928  -2.047  1.00  0.00    -0.003 C 
ATOM     10  C   UNL     1      14.484 -33.366  -2.393  1.00  0.00     0.004 C 
ENDBRANCH   8   9
ENDBRANCH   7   8
ENDBRANCH   1   7
TORSDOF 6
ENDMDL
MODEL 2
REMARK VINA RESULT:    -4.132      1.007      1.463
REMARK INTER + INTRA:          -5.889
REMARK INTER:                  -5.733
REMARK INTRA:                  -0.156
REMARK UNBOUND:                -0.308
REMARK SMILES CCCCCCCC(=O)[O-]
REMARK SMILES IDX 5 1 6 2 7 3 8 4 9 5 10 6 4 7 3 8 2 9 1 10
REMARK H PARENT
REMARK Flexibility Score: inf
ROOT
ATOM      1  C   UNL     1      16.713 -35.572  -1.902  1.00  0.00     0.000 C 
ENDROOT
BRANCH   1   2
ATOM      2  C   UNL     1      17.779 -36.615  -2.256  1.00  0.00     0.006 C 
BRANCH   2   3
ATOM      3  C   UNL     1      17.602 -37.887  -1.420  1.00  0.00     0.053 C 
BRANCH   3   4
ATOM      4  C   UNL     1      18.511 -37.863  -0.231  1.00  0.00     0.041 C 
ATOM      5  O   UNL     1      19.398 -38.746  -0.093  1.00  0.00    -0.550 OA
ATOM      6  O   UNL     1      18.410 -36.837   0.699  1.00  0.00    -0.550 OA
ENDBRANCH   3   4
ENDBRANCH   2   3
ENDBRANCH   1   2
BRANCH   1   7
ATOM      7  C   UNL     1      17.306 -34.154  -1.913  1.00  0.00     0.000 C 
BRANCH   7   8
ATOM      8  C   UNL     1      16.259 -33.078  -2.237  1.00  0.00    -0.000 C 
BRANCH   8   9
ATOM      9  C   UNL     1      14.973 -33.235  -1.412  1.00  0.00    -0.003 C 
ATOM     10  C   UNL     1      14.228 -31.909  -1.298  1.00  0.00     0.004 C 
ENDBRANCH   8   9
ENDBRANCH   7   8
ENDBRANCH   1   7
TORSDOF 6
ENDMDL
MODEL 3
REMARK VINA RESULT:    -4.073      1.688      2.855
REMARK INTER + INTRA:          -5.810
REMARK INTER:                  -5.297
REMARK INTRA:                  -0.512
REMARK UNBOUND:                -0.308
REMARK SMILES CCCCCCCC(=O)[O-]
REMARK SMILES IDX 5 1 6 2 7 3 8 4 9 5 10 6 4 7 3 8 2 9 1 10
REMARK H PARENT
REMARK Flexibility Score: inf
ROOT
ATOM      1  C   UNL     1      16.741 -35.312   0.423  1.00  0.00     0.000 C 
ENDROOT
BRANCH   1   2
ATOM      2  C   UNL     1      17.678 -36.076   1.365  1.00  0.00     0.006 C 
BRANCH   2   3
ATOM      3  C   UNL     1      17.335 -37.568   1.390  1.00  0.00     0.053 C 
BRANCH   3   4
ATOM      4  C   UNL     1      18.554 -38.391   1.112  1.00  0.00     0.041 C 
ATOM      5  O   UNL     1      19.633 -37.833   0.779  1.00  0.00    -0.550 OA
ATOM      6  O   UNL     1      18.512 -39.770   1.269  1.00  0.00    -0.550 OA
ENDBRANCH   3   4
ENDBRANCH   2   3
ENDBRANCH   1   2
BRANCH   1   7
ATOM      7  C   UNL     1      17.539 -34.425  -0.546  1.00  0.00     0.000 C 
BRANCH   7   8
ATOM      8  C   UNL     1      17.383 -34.860  -2.011  1.00  0.00    -0.000 C 
BRANCH   8   9
ATOM      9  C   UNL     1      16.890 -36.308  -2.149  1.00  0.00    -0.003 C 
ATOM     10  C   UNL     1      18.050 -37.258  -2.436  1.00  0.00     0.004 C 
ENDBRANCH   8   9
ENDBRANCH   7   8
ENDBRANCH   1   7
TORSDOF 6
ENDMDL
MODEL 4
REMARK VINA RESULT:    -3.924      1.720      2.647
REMARK INTER + INTRA:          -5.609
REMARK INTER:                  -4.952
REMARK INTRA:                  -0.657
REMARK UNBOUND:                -0.308
REMARK SMILES CCCCCCCC(=O)[O-]
REMARK SMILES IDX 5 1 6 2 7 3 8 4 9 5 10 6 4 7 3 8 2 9 1 10
REMARK H PARENT
REMARK Flexibility Score: inf
ROOT
ATOM      1  C   UNL     1      17.524 -35.039  -2.035  1.00  0.00     0.000 C 
ENDROOT
BRANCH   1   2
ATOM      2  C   UNL     1      16.985 -36.468  -2.167  1.00  0.00     0.006 C 
BRANCH   2   3
ATOM      3  C   UNL     1      18.122 -37.492  -2.095  1.00  0.00     0.053 C 
BRANCH   3   4
ATOM      4  C   UNL     1      18.197 -38.096  -0.727  1.00  0.00     0.041 C 
ATOM      5  O   UNL     1      19.293 -38.131  -0.109  1.00  0.00    -0.550 OA
ATOM      6  O   UNL     1      17.045 -38.576  -0.116  1.00  0.00    -0.550 OA
ENDBRANCH   3   4
ENDBRANCH   2   3
ENDBRANCH   1   2
BRANCH   1   7
ATOM      7  C   UNL     1      17.007 -34.374  -0.749  1.00  0.00     0.000 C 
BRANCH   7   8
ATOM      8  C   UNL     1      17.908 -34.652   0.464  1.00  0.00    -0.000 C 
BRANCH   8   9
ATOM      9  C   UNL     1      17.174 -35.399   1.587  1.00  0.00    -0.003 C 
ATOM     10  C   UNL     1      15.697 -35.583   1.250  1.00  0.00     0.004 C 
ENDBRANCH   8   9
ENDBRANCH   7   8
ENDBRANCH   1   7
TORSDOF 6
ENDMDL
MODEL 5
REMARK VINA RESULT:    -3.914      1.489      2.500
REMARK INTER + INTRA:          -5.596
REMARK INTER:                  -5.097
REMARK INTRA:                  -0.498
REMARK UNBOUND:                -0.308
REMARK SMILES CCCCCCCC(=O)[O-]
REMARK SMILES IDX 5 1 6 2 7 3 8 4 9 5 10 6 4 7 3 8 2 9 1 10
REMARK H PARENT
REMARK Flexibility Score: inf
ROOT
ATOM      1  C   UNL     1      17.789 -37.888  -1.041  1.00  0.00     0.000 C 
ENDROOT
BRANCH   1   2
ATOM      2  C   UNL     1      18.495 -37.455   0.249  1.00  0.00     0.006 C 
BRANCH   2   3
ATOM      3  C   UNL     1      17.480 -37.139   1.351  1.00  0.00     0.053 C 
BRANCH   3   4
ATOM      4  C   UNL     1      17.174 -35.674   1.377  1.00  0.00     0.041 C 
ATOM      5  O   UNL     1      18.108 -34.830   1.359  1.00  0.00    -0.550 OA
ATOM      6  O   UNL     1      15.854 -35.241   1.370  1.00  0.00    -0.550 OA
ENDBRANCH   3   4
ENDBRANCH   2   3
ENDBRANCH   1   2
BRANCH   1   7
ATOM      7  C   UNL     1      17.969 -36.835  -2.147  1.00  0.00     0.000 C 
BRANCH   7   8
ATOM      8  C   UNL     1      16.869 -35.762  -2.127  1.00  0.00    -0.000 C 
BRANCH   8   9
ATOM      9  C   UNL     1      17.435 -34.337  -2.042  1.00  0.00    -0.003 C 
ATOM     10  C   UNL     1      16.322 -33.316  -1.826  1.00  0.00     0.004 C 
ENDBRANCH   8   9
ENDBRANCH   7   8
ENDBRANCH   1   7
TORSDOF 6
ENDMDL
MODEL 6
REMARK VINA RESULT:    -3.865      3.128      4.792
REMARK INTER + INTRA:          -5.529
REMARK INTER:                  -5.066
REMARK INTRA:                  -0.463
REMARK UNBOUND:                -0.308
REMARK SMILES CCCCCCCC(=O)[O-]
REMARK SMILES IDX 5 1 6 2 7 3 8 4 9 5 10 6 4 7 3 8 2 9 1 10
REMARK H PARENT
REMARK Flexibility Score: inf
ROOT
ATOM      1  C   UNL     1      17.134 -34.448  -0.647  1.00  0.00     0.000 C 
ENDROOT
BRANCH   1   2
ATOM      2  C   UNL     1      17.038 -33.816  -2.041  1.00  0.00     0.006 C 
BRANCH   2   3
ATOM      3  C   UNL     1      15.885 -32.810  -2.109  1.00  0.00     0.053 C 
BRANCH   3   4
ATOM      4  C   UNL     1      14.604 -33.451  -1.674  1.00  0.00     0.041 C 
ATOM      5  O   UNL     1      14.003 -33.033  -0.650  1.00  0.00    -0.550 OA
ATOM      6  O   UNL     1      14.050 -34.477  -2.428  1.00  0.00    -0.550 OA
ENDBRANCH   3   4
ENDBRANCH   2   3
ENDBRANCH   1   2
BRANCH   1   7
ATOM      7  C   UNL     1      17.560 -35.922  -0.741  1.00  0.00     0.000 C 
BRANCH   7   8
ATOM      8  C   UNL     1      17.696 -36.408  -2.192  1.00  0.00    -0.000 C 
BRANCH   8   9
ATOM      9  C   UNL     1      17.017 -37.765  -2.427  1.00  0.00    -0.003 C 
ATOM     10  C   UNL     1      15.516 -37.682  -2.160  1.00  0.00     0.004 C 
ENDBRANCH   8   9
ENDBRANCH   7   8
ENDBRANCH   1   7
TORSDOF 6
ENDMDL
MODEL 7
REMARK VINA RESULT:    -3.757      2.736      4.838
REMARK INTER + INTRA:          -5.383
REMARK INTER:                  -4.904
REMARK INTRA:                  -0.480
REMARK UNBOUND:                -0.308
REMARK SMILES CCCCCCCC(=O)[O-]
REMARK SMILES IDX 5 1 6 2 7 3 8 4 9 5 10 6 4 7 3 8 2 9 1 10
REMARK H PARENT
REMARK Flexibility Score: inf
ROOT
ATOM      1  C   UNL     1      16.249 -36.288  -2.098  1.00  0.00     0.000 C 
ENDROOT
BRANCH   1   2
ATOM      2  C   UNL     1      17.394 -35.270  -2.107  1.00  0.00     0.006 C 
BRANCH   2   3
ATOM      3  C   UNL     1      17.139 -34.146  -1.098  1.00  0.00     0.053 C 
BRANCH   3   4
ATOM      4  C   UNL     1      15.908 -33.380  -1.469  1.00  0.00     0.041 C 
ATOM      5  O   UNL     1      15.880 -32.699  -2.528  1.00  0.00    -0.550 OA
ATOM      6  O   UNL     1      14.775 -33.457  -0.669  1.00  0.00    -0.550 OA
ENDBRANCH   3   4
ENDBRANCH   2   3
ENDBRANCH   1   2
BRANCH   1   7
ATOM      7  C   UNL     1      16.787 -37.720  -1.946  1.00  0.00     0.000 C 
BRANCH   7   8
ATOM      8  C   UNL     1      18.301 -37.759  -1.688  1.00  0.00    -0.000 C 
BRANCH   8   9
ATOM      9  C   UNL     1      18.652 -38.344  -0.312  1.00  0.00    -0.003 C 
ATOM     10  C   UNL     1      18.288 -37.372   0.807  1.00  0.00     0.004 C 
ENDBRANCH   8   9
ENDBRANCH   7   8
ENDBRANCH   1   7
TORSDOF 6
ENDMDL
MODEL 8
REMARK VINA RESULT:    -3.678      2.020      2.439
REMARK INTER + INTRA:          -5.277
REMARK INTER:                  -4.797
REMARK INTRA:                  -0.480
REMARK UNBOUND:                -0.308
REMARK SMILES CCCCCCCC(=O)[O-]
REMARK SMILES IDX 5 1 6 2 7 3 8 4 9 5 10 6 4 7 3 8 2 9 1 10
REMARK H PARENT
REMARK Flexibility Score: inf
ROOT
ATOM      1  C   UNL     1      17.186 -35.859   0.463  1.00  0.00     0.000 C 
ENDROOT
BRANCH   1   2
ATOM      2  C   UNL     1      18.209 -36.990   0.309  1.00  0.00     0.006 C 
BRANCH   2   3
ATOM      3  C   UNL     1      17.625 -38.150  -0.504  1.00  0.00     0.053 C 
BRANCH   3   4
ATOM      4  C   UNL     1      17.357 -37.721  -1.912  1.00  0.00     0.041 C 
ATOM      5  O   UNL     1      16.185 -37.746  -2.371  1.00  0.00    -0.550 OA
ATOM      6  O   UNL     1      18.396 -37.245  -2.703  1.00  0.00    -0.550 OA
ENDBRANCH   3   4
ENDBRANCH   2   3
ENDBRANCH   1   2
BRANCH   1   7
ATOM      7  C   UNL     1      17.800 -34.505   0.069  1.00  0.00     0.000 C 
BRANCH   7   8
ATOM      8  C   UNL     1      17.547 -34.148  -1.404  1.00  0.00    -0.000 C 
BRANCH   8   9
ATOM      9  C   UNL     1      16.054 -34.123  -1.759  1.00  0.00    -0.003 C 
ATOM     10  C   UNL     1      15.591 -32.707  -2.088  1.00  0.00     0.004 C 
ENDBRANCH   8   9
ENDBRANCH   7   8
ENDBRANCH   1   7
TORSDOF 6
ENDMDL
MODEL 9
REMARK VINA RESULT:    -3.652      1.771      3.060
REMARK INTER + INTRA:          -5.241
REMARK INTER:                  -4.670
REMARK INTRA:                  -0.571
REMARK UNBOUND:                -0.308
REMARK SMILES CCCCCCCC(=O)[O-]
REMARK SMILES IDX 5 1 6 2 7 3 8 4 9 5 10 6 4 7 3 8 2 9 1 10
REMARK H PARENT
REMARK Flexibility Score: inf
ROOT
ATOM      1  C   UNL     1      17.712 -34.833  -0.867  1.00  0.00     0.000 C 
ENDROOT
BRANCH   1   2
ATOM      2  C   UNL     1      17.010 -35.334   0.401  1.00  0.00     0.006 C 
BRANCH   2   3
ATOM      3  C   UNL     1      18.005 -36.005   1.352  1.00  0.00     0.053 C 
BRANCH   3   4
ATOM      4  C   UNL     1      18.229 -37.431   0.957  1.00  0.00     0.041 C 
ATOM      5  O   UNL     1      19.387 -37.838   0.680  1.00  0.00    -0.550 OA
ATOM      6  O   UNL     1      17.163 -38.322   0.942  1.00  0.00    -0.550 OA
ENDBRANCH   3   4
ENDBRANCH   2   3
ENDBRANCH   1   2
BRANCH   1   7
ATOM      7  C   UNL     1      17.148 -35.526  -2.118  1.00  0.00     0.000 C 
BRANCH   7   8
ATOM      8  C   UNL     1      17.865 -36.846  -2.438  1.00  0.00    -0.000 C 
BRANCH   8   9
ATOM      9  C   UNL     1      16.907 -38.045  -2.476  1.00  0.00    -0.003 C 
ATOM     10  C   UNL     1      15.482 -37.621  -2.133  1.00  0.00     0.004 C 
ENDBRANCH   8   9
ENDBRANCH   7   8
ENDBRANCH   1   7
TORSDOF 6
ENDMDL
