MODEL 1
REMARK VINA RESULT:    -1.903      0.000      0.000
REMARK INTER + INTRA:          -1.903
REMARK INTER:                  -1.903
REMARK INTRA:                   0.000
REMARK UNBOUND:                 0.000
REMARK SMILES CC(=O)[O-]
REMARK SMILES IDX 1 1 2 2 3 3 4 4
REMARK H PARENT
REMARK Flexibility Score: inf
ROOT
ATOM      1  C   UNL     1      24.736  -7.948 -28.270  1.00  0.00     0.063 C 
ATOM      2  C   UNL     1      25.863  -7.494 -29.133  1.00  0.00     0.038 C 
ATOM      3  O   UNL     1      26.961  -8.109 -29.114  1.00  0.00    -0.550 OA
ATOM      4  O   UNL     1      25.723  -6.358 -29.920  1.00  0.00    -0.550 OA
ENDROOT
TORSDOF 0
ENDMDL
MODEL 2
REMARK VINA RESULT:    -1.889      8.632      8.952
REMARK INTER + INTRA:          -1.889
REMARK INTER:                  -1.889
REMARK INTRA:                   0.000
REMARK UNBOUND:                 0.000
REMARK SMILES CC(=O)[O-]
REMARK SMILES IDX 1 1 2 2 3 3 4 4
REMARK H PARENT
REMARK Flexibility Score: inf
ROOT
ATOM      1  C   UNL     1      17.450  -7.163 -27.250  1.00  0.00     0.063 C 
ATOM      2  C   UNL     1      17.680  -6.112 -26.219  1.00  0.00     0.038 C 
ATOM      3  O   UNL     1      17.248  -4.944 -26.399  1.00  0.00    -0.550 OA
ATOM      4  O   UNL     1      18.421  -6.405 -25.080  1.00  0.00    -0.550 OA
ENDROOT
TORSDOF 0
ENDMDL
MODEL 3
REMARK VINA RESULT:    -1.849     16.292     16.829
REMARK INTER + INTRA:          -1.849
REMARK INTER:                  -1.849
REMARK INTRA:                   0.000
REMARK UNBOUND:                 0.000
REMARK SMILES CC(=O)[O-]
REMARK SMILES IDX 1 1 2 2 3 3 4 4
REMARK H PARENT
REMARK Flexibility Score: inf
ROOT
ATOM      1  C   UNL     1      35.375   5.375 -33.188  1.00  0.00     0.063 C 
ATOM      2  C   UNL     1      35.630   5.815 -31.787  1.00  0.00     0.038 C 
ATOM      3  O   UNL     1      36.125   6.949 -31.561  1.00  0.00    -0.550 OA
ATOM      4  O   UNL     1      35.373   4.951 -30.729  1.00  0.00    -0.550 OA
ENDROOT
TORSDOF 0
ENDMDL
MODEL 4
REMARK VINA RESULT:    -1.848     15.077     15.624
REMARK INTER + INTRA:          -1.848
REMARK INTER:                  -1.848
REMARK INTRA:                   0.000
REMARK UNBOUND:                 0.000
REMARK SMILES CC(=O)[O-]
REMARK SMILES IDX 1 1 2 2 3 3 4 4
REMARK H PARENT
REMARK Flexibility Score: inf
ROOT
ATOM      1  C   UNL     1      33.908   3.537 -33.426  1.00  0.00     0.063 C 
ATOM      2  C   UNL     1      34.782   4.666 -32.996  1.00  0.00     0.038 C 
ATOM      3  O   UNL     1      35.270   5.449 -33.852  1.00  0.00    -0.550 OA
ATOM      4  O   UNL     1      35.104   4.825 -31.654  1.00  0.00    -0.550 OA
ENDROOT
TORSDOF 0
ENDMDL
MODEL 5
REMARK VINA RESULT:    -1.831     16.472     16.975
REMARK INTER + INTRA:          -1.831
REMARK INTER:                  -1.831
REMARK INTRA:                   0.000
REMARK UNBOUND:                 0.000
REMARK SMILES CC(=O)[O-]
REMARK SMILES IDX 1 1 2 2 3 3 4 4
REMARK H PARENT
REMARK Flexibility Score: inf
ROOT
ATOM      1  C   UNL     1      35.340   5.089 -30.704  1.00  0.00     0.063 C 
ATOM      2  C   UNL     1      35.753   6.021 -31.790  1.00  0.00     0.038 C 
ATOM      3  O   UNL     1      36.125   7.191 -31.512  1.00  0.00    -0.550 OA
ATOM      4  O   UNL     1      35.677   5.621 -33.118  1.00  0.00    -0.550 OA
ENDROOT
TORSDOF 0
ENDMDL
MODEL 6
REMARK VINA RESULT:    -1.788     16.041     16.556
REMARK INTER + INTRA:          -1.788
REMARK INTER:                  -1.788
REMARK INTRA:                   0.000
REMARK UNBOUND:                 0.000
REMARK SMILES CC(=O)[O-]
REMARK SMILES IDX 1 1 2 2 3 3 4 4
REMARK H PARENT
REMARK Flexibility Score: inf
ROOT
ATOM      1  C   UNL     1      36.125   6.515 -31.612  1.00  0.00     0.063 C 
ATOM      2  C   UNL     1      35.375   5.474 -32.369  1.00  0.00     0.038 C 
ATOM      3  O   UNL     1      34.647   4.649 -31.757  1.00  0.00    -0.550 OA
ATOM      4  O   UNL     1      35.520   5.375 -33.747  1.00  0.00    -0.550 OA
ENDROOT
TORSDOF 0
ENDMDL
MODEL 7
REMARK VINA RESULT:    -1.785      8.593      8.958
REMARK INTER + INTRA:          -1.785
REMARK INTER:                  -1.785
REMARK INTRA:                   0.000
REMARK UNBOUND:                 0.000
REMARK SMILES CC(=O)[O-]
REMARK SMILES IDX 1 1 2 2 3 3 4 4
REMARK H PARENT
REMARK Flexibility Score: inf
ROOT
ATOM      1  C   UNL     1      17.288  -5.253 -26.138  1.00  0.00     0.063 C 
ATOM      2  C   UNL     1      17.585  -6.696 -26.362  1.00  0.00     0.038 C 
ATOM      3  O   UNL     1      17.633  -7.157 -27.532  1.00  0.00    -0.550 OA
ATOM      4  O   UNL     1      17.756  -7.548 -25.278  1.00  0.00    -0.550 OA
ENDROOT
TORSDOF 0
ENDMDL
MODEL 8
REMARK VINA RESULT:    -1.727      9.394     10.019
REMARK INTER + INTRA:          -1.727
REMARK INTER:                  -1.727
REMARK INTRA:                   0.000
REMARK UNBOUND:                 0.000
REMARK SMILES CC(=O)[O-]
REMARK SMILES IDX 1 1 2 2 3 3 4 4
REMARK H PARENT
REMARK Flexibility Score: inf
ROOT
ATOM      1  C   UNL     1      19.902   0.896 -31.669  1.00  0.00     0.063 C 
ATOM      2  C   UNL     1      20.204  -0.204 -32.628  1.00  0.00     0.038 C 
ATOM      3  O   UNL     1      20.094  -0.010 -33.867  1.00  0.00    -0.550 OA
ATOM      4  O   UNL     1      20.556  -1.462 -32.156  1.00  0.00    -0.550 OA
ENDROOT
TORSDOF 0
ENDMDL
MODEL 9
REMARK VINA RESULT:    -1.721      1.431      2.123
REMARK INTER + INTRA:          -1.721
REMARK INTER:                  -1.721
REMARK INTRA:                   0.000
REMARK UNBOUND:                 0.000
REMARK SMILES CC(=O)[O-]
REMARK SMILES IDX 1 1 2 2 3 3 4 4
REMARK H PARENT
REMARK Flexibility Score: inf
ROOT
ATOM      1  C   UNL     1      24.836  -7.764 -28.762  1.00  0.00     0.063 C 
ATOM      2  C   UNL     1      24.813  -6.587 -29.677  1.00  0.00     0.038 C 
ATOM      3  O   UNL     1      23.724  -6.188 -30.167  1.00  0.00    -0.550 OA
ATOM      4  O   UNL     1      26.000  -5.961 -30.036  1.00  0.00    -0.550 OA
ENDROOT
TORSDOF 0
ENDMDL
