MODEL 1
REMARK VINA RESULT:    -4.127      0.000      0.000
REMARK INTER + INTRA:          -6.624
REMARK INTER:                  -6.298
REMARK INTRA:                  -0.326
REMARK UNBOUND:                -0.326
REMARK SMILES CC1=CCC[C@@H](C)C(=O)C[C@H](C(C)C)C(=O)C1
REMARK SMILES IDX 8 1 9 2 6 3 7 4 5 5 4 6 3 7 2 8 1 9 10 11 11 12 15 13 16 14
REMARK SMILES IDX 17 15 12 17 13 18 14 19
REMARK H PARENT
REMARK Flexibility Score: 70.00
ROOT
ATOM      1  C   UNL     1     -12.901  13.132 -28.055  1.00  0.00     0.136 C 
ATOM      2  O   UNL     1     -11.981  12.530 -28.590  1.00  0.00    -0.299 OA
ENDROOT
BRANCH   1   3
ATOM      3  C   UNL     1     -13.611  12.517 -26.866  1.00  0.00     0.053 C 
ATOM      4  C   UNL     1     -12.575  12.044 -25.840  1.00  0.00     0.016 C 
BRANCH   3   5
ATOM      5  C   UNL     1     -14.523  11.345 -27.286  1.00  0.00     0.015 C 
BRANCH   5   6
ATOM      6  C   UNL     1     -16.028  11.658 -27.234  1.00  0.00     0.028 C 
BRANCH   6   7
ATOM      7  C   UNL     1     -16.692  11.680 -28.591  1.00  0.00    -0.028 C 
ATOM      8  C   UNL     1     -16.816  12.729 -29.445  1.00  0.00    -0.070 CG0
ATOM      9  C   UNL     1     -17.445  12.438 -30.788  1.00  0.00     0.039 C 
ATOM     10  G   UNL     1     -16.457  14.177 -29.131  1.00  0.00     0.000 G0
ENDBRANCH   6   7
ENDBRANCH   5   6
ENDBRANCH   3   5
ENDBRANCH   1   3
BRANCH   1  11
ATOM     11  C   UNL     1     -13.281  14.495 -28.577  1.00  0.00     0.087 C 
BRANCH  11  12
ATOM     12  C   UNL     1     -13.922  14.435 -29.991  1.00  0.00     0.066 C 
BRANCH  12  13
ATOM     13  C   UNL     1     -15.402  14.816 -30.041  1.00  0.00     0.140 C 
ATOM     14  O   UNL     1     -15.744  15.723 -30.786  1.00  0.00    -0.299 OA
BRANCH  13  15
ATOM     15  C   UNL     1     -16.450  14.198 -29.143  1.00  0.00     0.106 CG0
ATOM     16  G   UNL     1     -16.801  12.748 -29.460  1.00  0.00     0.000 G0
ENDBRANCH  13  15
ENDBRANCH  12  13
BRANCH  12  17
ATOM     17  C   UNL     1     -13.070  15.222 -31.034  1.00  0.00    -0.006 C 
ATOM     18  C   UNL     1     -11.614  15.393 -30.573  1.00  0.00     0.008 C 
ATOM     19  C   UNL     1     -13.106  14.610 -32.445  1.00  0.00     0.008 C 
ENDBRANCH  12  17
ENDBRANCH  11  12
ENDBRANCH   1  11
TORSDOF 1
ENDMDL
MODEL 2
REMARK VINA RESULT:    -3.899      1.845      4.921
REMARK INTER + INTRA:          -6.276
REMARK INTER:                  -6.080
REMARK INTRA:                  -0.196
REMARK UNBOUND:                -0.326
REMARK SMILES CC1=CCC[C@@H](C)C(=O)C[C@H](C(C)C)C(=O)C1
REMARK SMILES IDX 8 1 9 2 6 3 7 4 5 5 4 6 3 7 2 8 1 9 10 11 11 12 15 13 16 14
REMARK SMILES IDX 17 15 12 17 13 18 14 19
REMARK H PARENT
REMARK Flexibility Score: 70.00
ROOT
ATOM      1  C   UNL     1     -15.241  14.773 -30.777  1.00  0.00     0.136 C 
ATOM      2  O   UNL     1     -15.745  14.517 -31.862  1.00  0.00    -0.299 OA
ENDROOT
BRANCH   1   3
ATOM      3  C   UNL     1     -13.901  15.479 -30.721  1.00  0.00     0.053 C 
ATOM      4  C   UNL     1     -13.201  15.359 -32.079  1.00  0.00     0.016 C 
BRANCH   3   5
ATOM      5  C   UNL     1     -13.000  14.912 -29.602  1.00  0.00     0.015 C 
BRANCH   5   6
ATOM      6  C   UNL     1     -12.449  13.503 -29.879  1.00  0.00     0.028 C 
BRANCH   6   7
ATOM      7  C   UNL     1     -12.140  12.715 -28.628  1.00  0.00    -0.028 C 
ATOM      8  C   UNL     1     -12.981  12.400 -27.608  1.00  0.00    -0.070 CG0
ATOM      9  C   UNL     1     -12.424  11.509 -26.522  1.00  0.00     0.039 C 
ATOM     10  G   UNL     1     -14.395  12.939 -27.425  1.00  0.00     0.000 G0
ENDBRANCH   6   7
ENDBRANCH   5   6
ENDBRANCH   3   5
ENDBRANCH   1   3
BRANCH   1  11
ATOM     11  C   UNL     1     -15.988  14.407 -29.520  1.00  0.00     0.087 C 
BRANCH  11  12
ATOM     12  C   UNL     1     -16.211  12.876 -29.382  1.00  0.00     0.066 C 
BRANCH  12  13
ATOM     13  C   UNL     1     -15.466  12.222 -28.217  1.00  0.00     0.140 C 
ATOM     14  O   UNL     1     -15.807  11.102 -27.865  1.00  0.00    -0.299 OA
BRANCH  13  15
ATOM     15  C   UNL     1     -14.398  12.928 -27.414  1.00  0.00     0.106 CG0
ATOM     16  G   UNL     1     -12.984  12.387 -27.599  1.00  0.00     0.000 G0
ENDBRANCH  13  15
ENDBRANCH  12  13
BRANCH  12  17
ATOM     17  C   UNL     1     -17.729  12.520 -29.391  1.00  0.00    -0.006 C 
ATOM     18  C   UNL     1     -18.597  13.699 -28.923  1.00  0.00     0.008 C 
ATOM     19  C   UNL     1     -18.233  12.004 -30.750  1.00  0.00     0.008 C 
ENDBRANCH  12  17
ENDBRANCH  11  12
ENDBRANCH   1  11
TORSDOF 1
ENDMDL
MODEL 3
REMARK VINA RESULT:    -3.684      1.860      4.695
REMARK INTER + INTRA:          -5.948
REMARK INTER:                  -6.068
REMARK INTRA:                   0.121
REMARK UNBOUND:                -0.326
REMARK SMILES CC1=CCC[C@@H](C)C(=O)C[C@H](C(C)C)C(=O)C1
REMARK SMILES IDX 8 1 9 2 6 3 7 4 5 5 4 6 3 7 2 8 1 9 10 11 11 12 15 13 16 14
REMARK SMILES IDX 17 15 12 17 13 18 14 19
REMARK H PARENT
REMARK Flexibility Score: 70.00
ROOT
ATOM      1  C   UNL     1     -16.947  13.635 -28.956  1.00  0.00     0.136 C 
ATOM      2  O   UNL     1     -16.892  14.854 -29.030  1.00  0.00    -0.299 OA
ENDROOT
BRANCH   1   3
ATOM      3  C   UNL     1     -17.840  12.865 -29.909  1.00  0.00     0.053 C 
ATOM      4  C   UNL     1     -17.715  11.364 -29.628  1.00  0.00     0.016 C 
BRANCH   3   5
ATOM      5  C   UNL     1     -17.500  13.165 -31.383  1.00  0.00     0.015 C 
BRANCH   5   6
ATOM      6  C   UNL     1     -16.090  12.726 -31.816  1.00  0.00     0.028 C 
BRANCH   6   7
ATOM      7  C   UNL     1     -15.135  13.876 -32.034  1.00  0.00    -0.028 C 
ATOM      8  C   UNL     1     -13.879  14.027 -31.537  1.00  0.00    -0.070 CG0
ATOM      9  C   UNL     1     -13.108  15.240 -32.003  1.00  0.00     0.039 C 
ATOM     10  G   UNL     1     -13.225  13.130 -30.491  1.00  0.00     0.000 G0
ENDBRANCH   6   7
ENDBRANCH   5   6
ENDBRANCH   3   5
ENDBRANCH   1   3
BRANCH   1  11
ATOM     11  C   UNL     1     -16.092  12.926 -27.937  1.00  0.00     0.087 C 
BRANCH  11  12
ATOM     12  C   UNL     1     -14.846  12.249 -28.571  1.00  0.00     0.066 C 
BRANCH  12  13
ATOM     13  C   UNL     1     -13.790  13.219 -29.103  1.00  0.00     0.140 C 
ATOM     14  O   UNL     1     -13.457  14.160 -28.397  1.00  0.00    -0.299 OA
BRANCH  13  15
ATOM     15  C   UNL     1     -13.211  13.132 -30.497  1.00  0.00     0.106 CG0
ATOM     16  G   UNL     1     -13.876  14.031 -31.532  1.00  0.00     0.000 G0
ENDBRANCH  13  15
ENDBRANCH  12  13
BRANCH  12  17
ATOM     17  C   UNL     1     -14.238  11.173 -27.618  1.00  0.00    -0.006 C 
ATOM     18  C   UNL     1     -12.739  11.409 -27.371  1.00  0.00     0.008 C 
ATOM     19  C   UNL     1     -14.978  11.051 -26.276  1.00  0.00     0.008 C 
ENDBRANCH  12  17
ENDBRANCH  11  12
ENDBRANCH   1  11
TORSDOF 1
ENDMDL
MODEL 4
REMARK VINA RESULT:    -3.242     11.693     14.371
REMARK INTER + INTRA:          -5.273
REMARK INTER:                  -5.882
REMARK INTRA:                   0.609
REMARK UNBOUND:                -0.326
REMARK SMILES CC1=CCC[C@@H](C)C(=O)C[C@H](C(C)C)C(=O)C1
REMARK SMILES IDX 8 1 9 2 6 3 7 4 5 5 4 6 3 7 2 8 1 9 10 11 11 12 15 13 16 14
REMARK SMILES IDX 17 15 12 17 13 18 14 19
REMARK H PARENT
REMARK Flexibility Score: 70.00
ROOT
ATOM      1  C   UNL     1     -26.471  13.814 -29.984  1.00  0.00     0.136 C 
ATOM      2  O   UNL     1     -25.968  13.289 -29.000  1.00  0.00    -0.299 OA
ENDROOT
BRANCH   1   3
ATOM      3  C   UNL     1     -25.835  15.054 -30.580  1.00  0.00     0.053 C 
ATOM      4  C   UNL     1     -24.390  15.178 -30.084  1.00  0.00     0.016 C 
BRANCH   3   5
ATOM      5  C   UNL     1     -26.632  16.330 -30.233  1.00  0.00     0.015 C 
BRANCH   5   6
ATOM      6  C   UNL     1     -26.500  17.465 -31.263  1.00  0.00     0.028 C 
BRANCH   6   7
ATOM      7  C   UNL     1     -27.807  17.848 -31.916  1.00  0.00    -0.028 C 
ATOM      8  C   UNL     1     -28.820  17.031 -32.306  1.00  0.00    -0.070 CG0
ATOM      9  C   UNL     1     -30.062  17.701 -32.846  1.00  0.00     0.039 C 
ATOM     10  G   UNL     1     -28.772  15.507 -32.327  1.00  0.00     0.000 G0
ENDBRANCH   6   7
ENDBRANCH   5   6
ENDBRANCH   3   5
ENDBRANCH   1   3
BRANCH   1  11
ATOM     11  C   UNL     1     -27.696  13.187 -30.600  1.00  0.00     0.087 C 
BRANCH  11  12
ATOM     12  C   UNL     1     -29.006  13.916 -30.195  1.00  0.00     0.066 C 
BRANCH  12  13
ATOM     13  C   UNL     1     -29.612  14.799 -31.288  1.00  0.00     0.140 C 
ATOM     14  O   UNL     1     -30.830  14.876 -31.363  1.00  0.00    -0.299 OA
BRANCH  13  15
ATOM     15  C   UNL     1     -28.787  15.501 -32.341  1.00  0.00     0.106 CG0
ATOM     16  G   UNL     1     -28.825  17.024 -32.286  1.00  0.00     0.000 G0
ENDBRANCH  13  15
ENDBRANCH  12  13
BRANCH  12  17
ATOM     17  C   UNL     1     -30.045  12.923 -29.589  1.00  0.00    -0.006 C 
ATOM     18  C   UNL     1     -30.322  11.739 -30.529  1.00  0.00     0.008 C 
ATOM     19  C   UNL     1     -29.661  12.406 -28.192  1.00  0.00     0.008 C 
ENDBRANCH  12  17
ENDBRANCH  11  12
ENDBRANCH   1  11
TORSDOF 1
ENDMDL
MODEL 5
REMARK VINA RESULT:    -3.154     11.164     13.549
REMARK INTER + INTRA:          -5.140
REMARK INTER:                  -5.312
REMARK INTRA:                   0.173
REMARK UNBOUND:                -0.326
REMARK SMILES CC1=CCC[C@@H](C)C(=O)C[C@H](C(C)C)C(=O)C1
REMARK SMILES IDX 8 1 9 2 6 3 7 4 5 5 4 6 3 7 2 8 1 9 10 11 11 12 15 13 16 14
REMARK SMILES IDX 17 15 12 17 13 18 14 19
REMARK H PARENT
REMARK Flexibility Score: 70.00
ROOT
ATOM      1  C   UNL     1     -29.946  13.775 -30.551  1.00  0.00     0.136 C 
ATOM      2  O   UNL     1     -31.081  14.216 -30.445  1.00  0.00    -0.299 OA
ENDROOT
BRANCH   1   3
ATOM      3  C   UNL     1     -29.626  12.390 -30.024  1.00  0.00     0.053 C 
ATOM      4  C   UNL     1     -30.596  11.374 -30.636  1.00  0.00     0.016 C 
BRANCH   3   5
ATOM      5  C   UNL     1     -29.692  12.334 -28.483  1.00  0.00     0.015 C 
BRANCH   5   6
ATOM      6  C   UNL     1     -28.361  12.639 -27.775  1.00  0.00     0.028 C 
BRANCH   6   7
ATOM      7  C   UNL     1     -27.240  11.701 -28.156  1.00  0.00    -0.028 C 
ATOM      8  C   UNL     1     -26.054  12.010 -28.745  1.00  0.00    -0.070 CG0
ATOM      9  C   UNL     1     -25.072  10.875 -28.922  1.00  0.00     0.039 C 
ATOM     10  G   UNL     1     -25.673  13.371 -29.314  1.00  0.00     0.000 G0
ENDBRANCH   6   7
ENDBRANCH   5   6
ENDBRANCH   3   5
ENDBRANCH   1   3
BRANCH   1  11
ATOM     11  C   UNL     1     -28.898  14.614 -31.238  1.00  0.00     0.087 C 
BRANCH  11  12
ATOM     12  C   UNL     1     -27.654  14.867 -30.342  1.00  0.00     0.066 C 
BRANCH  12  13
ATOM     13  C   UNL     1     -26.538  13.831 -30.489  1.00  0.00     0.140 C 
ATOM     14  O   UNL     1     -26.387  13.288 -31.574  1.00  0.00    -0.299 OA
BRANCH  13  15
ATOM     15  C   UNL     1     -25.675  13.372 -29.335  1.00  0.00     0.106 CG0
ATOM     16  G   UNL     1     -26.040  12.010 -28.755  1.00  0.00     0.000 G0
ENDBRANCH  13  15
ENDBRANCH  12  13
BRANCH  12  17
ATOM     17  C   UNL     1     -27.132  16.329 -30.494  1.00  0.00    -0.006 C 
ATOM     18  C   UNL     1     -25.597  16.394 -30.476  1.00  0.00     0.008 C 
ATOM     19  C   UNL     1     -27.673  17.049 -31.742  1.00  0.00     0.008 C 
ENDBRANCH  12  17
ENDBRANCH  11  12
ENDBRANCH   1  11
TORSDOF 1
ENDMDL
MODEL 6
REMARK VINA RESULT:    -3.057     10.813     13.464
REMARK INTER + INTRA:          -4.990
REMARK INTER:                  -5.314
REMARK INTRA:                   0.324
REMARK UNBOUND:                -0.326
REMARK SMILES CC1=CCC[C@@H](C)C(=O)C[C@H](C(C)C)C(=O)C1
REMARK SMILES IDX 8 1 9 2 6 3 7 4 5 5 4 6 3 7 2 8 1 9 10 11 11 12 15 13 16 14
REMARK SMILES IDX 17 15 12 17 13 18 14 19
REMARK H PARENT
REMARK Flexibility Score: 70.00
ROOT
ATOM      1  C   UNL     1     -29.130  13.824 -30.439  1.00  0.00     0.136 C 
ATOM      2  O   UNL     1     -30.215  14.274 -30.097  1.00  0.00    -0.299 OA
ENDROOT
BRANCH   1   3
ATOM      3  C   UNL     1     -28.577  12.593 -29.748  1.00  0.00     0.053 C 
ATOM      4  C   UNL     1     -28.629  12.792 -28.229  1.00  0.00     0.016 C 
BRANCH   3   5
ATOM      5  C   UNL     1     -27.134  12.283 -30.199  1.00  0.00     0.015 C 
BRANCH   5   6
ATOM      6  C   UNL     1     -26.041  12.865 -29.286  1.00  0.00     0.028 C 
BRANCH   6   7
ATOM      7  C   UNL     1     -25.076  13.782 -30.002  1.00  0.00    -0.028 C 
ATOM      8  C   UNL     1     -25.146  15.133 -30.131  1.00  0.00    -0.070 CG0
ATOM      9  C   UNL     1     -23.982  15.808 -30.820  1.00  0.00     0.039 C 
ATOM     10  G   UNL     1     -26.328  16.004 -29.722  1.00  0.00     0.000 G0
ENDBRANCH   6   7
ENDBRANCH   5   6
ENDBRANCH   3   5
ENDBRANCH   1   3
BRANCH   1  11
ATOM     11  C   UNL     1     -28.387  14.490 -31.569  1.00  0.00     0.087 C 
BRANCH  11  12
ATOM     12  C   UNL     1     -28.387  16.039 -31.452  1.00  0.00     0.066 C 
BRANCH  12  13
ATOM     13  C   UNL     1     -27.109  16.638 -30.863  1.00  0.00     0.140 C 
ATOM     14  O   UNL     1     -26.638  17.636 -31.391  1.00  0.00    -0.299 OA
BRANCH  13  15
ATOM     15  C   UNL     1     -26.342  16.003 -29.726  1.00  0.00     0.106 CG0
ATOM     16  G   UNL     1     -25.143  15.158 -30.144  1.00  0.00     0.000 G0
ENDBRANCH  13  15
ENDBRANCH  12  13
BRANCH  12  17
ATOM     17  C   UNL     1     -28.792  16.710 -32.800  1.00  0.00    -0.006 C 
ATOM     18  C   UNL     1     -30.016  16.030 -33.434  1.00  0.00     0.008 C 
ATOM     19  C   UNL     1     -29.035  18.225 -32.685  1.00  0.00     0.008 C 
ENDBRANCH  12  17
ENDBRANCH  11  12
ENDBRANCH   1  11
TORSDOF 1
ENDMDL
MODEL 7
REMARK VINA RESULT:    -2.844     11.893     14.633
REMARK INTER + INTRA:          -4.666
REMARK INTER:                  -5.767
REMARK INTRA:                   1.101
REMARK UNBOUND:                -0.326
REMARK SMILES CC1=CCC[C@@H](C)C(=O)C[C@H](C(C)C)C(=O)C1
REMARK SMILES IDX 8 1 9 2 6 3 7 4 5 5 4 6 3 7 2 8 1 9 10 11 11 12 15 13 16 14
REMARK SMILES IDX 17 15 12 17 13 18 14 19
REMARK H PARENT
REMARK Flexibility Score: 70.00
ROOT
ATOM      1  C   UNL     1     -28.345  15.250 -31.476  1.00  0.00     0.136 C 
ATOM      2  O   UNL     1     -27.998  16.239 -30.847  1.00  0.00    -0.299 OA
ENDROOT
BRANCH   1   3
ATOM      3  C   UNL     1     -29.394  15.382 -32.563  1.00  0.00     0.053 C 
ATOM      4  C   UNL     1     -29.041  16.563 -33.474  1.00  0.00     0.016 C 
BRANCH   3   5
ATOM      5  C   UNL     1     -30.809  15.563 -31.974  1.00  0.00     0.015 C 
BRANCH   5   6
ATOM      6  C   UNL     1     -31.081  14.743 -30.701  1.00  0.00     0.028 C 
BRANCH   6   7
ATOM      7  C   UNL     1     -30.986  13.250 -30.907  1.00  0.00    -0.028 C 
ATOM      8  C   UNL     1     -30.433  12.324 -30.079  1.00  0.00    -0.070 CG0
ATOM      9  C   UNL     1     -30.568  10.878 -30.496  1.00  0.00     0.039 C 
ATOM     10  G   UNL     1     -29.622  12.627 -28.825  1.00  0.00     0.000 G0
ENDBRANCH   6   7
ENDBRANCH   5   6
ENDBRANCH   3   5
ENDBRANCH   1   3
BRANCH   1  11
ATOM     11  C   UNL     1     -27.689  13.926 -31.176  1.00  0.00     0.087 C 
BRANCH  11  12
ATOM     12  C   UNL     1     -27.356  13.753 -29.669  1.00  0.00     0.066 C 
BRANCH  12  13
ATOM     13  C   UNL     1     -28.127  12.635 -28.965  1.00  0.00     0.140 C 
ATOM     14  O   UNL     1     -27.507  11.654 -28.581  1.00  0.00    -0.299 OA
BRANCH  13  15
ATOM     15  C   UNL     1     -29.631  12.635 -28.809  1.00  0.00     0.106 CG0
ATOM     16  G   UNL     1     -30.414  12.337 -30.083  1.00  0.00     0.000 G0
ENDBRANCH  13  15
ENDBRANCH  12  13
BRANCH  12  17
ATOM     17  C   UNL     1     -25.817  13.652 -29.435  1.00  0.00    -0.006 C 
ATOM     18  C   UNL     1     -25.278  12.253 -29.773  1.00  0.00     0.008 C 
ATOM     19  C   UNL     1     -25.008  14.722 -30.187  1.00  0.00     0.008 C 
ENDBRANCH  12  17
ENDBRANCH  11  12
ENDBRANCH   1  11
TORSDOF 1
ENDMDL
MODEL 8
REMARK VINA RESULT:    -2.838     11.598     14.729
REMARK INTER + INTRA:          -4.656
REMARK INTER:                  -4.440
REMARK INTRA:                  -0.216
REMARK UNBOUND:                -0.326
REMARK SMILES CC1=CCC[C@@H](C)C(=O)C[C@H](C(C)C)C(=O)C1
REMARK SMILES IDX 8 1 9 2 6 3 7 4 5 5 4 6 3 7 2 8 1 9 10 11 11 12 15 13 16 14
REMARK SMILES IDX 17 15 12 17 13 18 14 19
REMARK H PARENT
REMARK Flexibility Score: 70.00
ROOT
ATOM      1  C   UNL     1     -30.312  14.792 -31.670  1.00  0.00     0.136 C 
ATOM      2  O   UNL     1     -31.059  13.996 -32.219  1.00  0.00    -0.299 OA
ENDROOT
BRANCH   1   3
ATOM      3  C   UNL     1     -30.076  16.153 -32.294  1.00  0.00     0.053 C 
ATOM      4  C   UNL     1     -30.854  16.254 -33.611  1.00  0.00     0.016 C 
BRANCH   3   5
ATOM      5  C   UNL     1     -28.576  16.421 -32.536  1.00  0.00     0.015 C 
BRANCH   5   6
ATOM      6  C   UNL     1     -27.891  17.253 -31.438  1.00  0.00     0.028 C 
BRANCH   6   7
ATOM      7  C   UNL     1     -26.447  16.877 -31.201  1.00  0.00    -0.028 C 
ATOM      8  C   UNL     1     -25.962  15.844 -30.464  1.00  0.00    -0.070 CG0
ATOM      9  C   UNL     1     -24.464  15.645 -30.482  1.00  0.00     0.039 C 
ATOM     10  G   UNL     1     -26.786  14.934 -29.559  1.00  0.00     0.000 G0
ENDBRANCH   6   7
ENDBRANCH   5   6
ENDBRANCH   3   5
ENDBRANCH   1   3
BRANCH   1  11
ATOM     11  C   UNL     1     -29.670  14.408 -30.361  1.00  0.00     0.087 C 
BRANCH  11  12
ATOM     12  C   UNL     1     -28.654  13.243 -30.514  1.00  0.00     0.066 C 
BRANCH  12  13
ATOM     13  C   UNL     1     -27.202  13.616 -30.209  1.00  0.00     0.140 C 
ATOM     14  O   UNL     1     -26.332  12.783 -30.421  1.00  0.00    -0.299 OA
BRANCH  13  15
ATOM     15  C   UNL     1     -26.797  14.923 -29.567  1.00  0.00     0.106 CG0
ATOM     16  G   UNL     1     -25.962  15.846 -30.447  1.00  0.00     0.000 G0
ENDBRANCH  13  15
ENDBRANCH  12  13
BRANCH  12  17
ATOM     17  C   UNL     1     -29.119  11.977 -29.731  1.00  0.00    -0.006 C 
ATOM     18  C   UNL     1     -29.320  12.269 -28.235  1.00  0.00     0.008 C 
ATOM     19  C   UNL     1     -30.384  11.324 -30.313  1.00  0.00     0.008 C 
ENDBRANCH  12  17
ENDBRANCH  11  12
ENDBRANCH   1  11
TORSDOF 1
ENDMDL
MODEL 9
REMARK VINA RESULT:    -2.650      1.603      2.049
REMARK INTER + INTRA:          -4.370
REMARK INTER:                  -5.930
REMARK INTRA:                   1.560
REMARK UNBOUND:                -0.326
REMARK SMILES CC1=CCC[C@@H](C)C(=O)C[C@H](C(C)C)C(=O)C1
REMARK SMILES IDX 8 1 9 2 6 3 7 4 5 5 4 6 3 7 2 8 1 9 10 11 11 12 15 13 16 14
REMARK SMILES IDX 17 15 12 17 13 18 14 19
REMARK H PARENT
REMARK Flexibility Score: 70.00
ROOT
ATOM      1  C   UNL     1     -14.298  12.744 -28.027  1.00  0.00     0.136 C 
ATOM      2  O   UNL     1     -13.441  13.615 -28.052  1.00  0.00    -0.299 OA
ENDROOT
BRANCH   1   3
ATOM      3  C   UNL     1     -14.919  12.340 -26.705  1.00  0.00     0.053 C 
ATOM      4  C   UNL     1     -14.502  10.907 -26.359  1.00  0.00     0.016 C 
BRANCH   3   5
ATOM      5  C   UNL     1     -16.458  12.458 -26.734  1.00  0.00     0.015 C 
BRANCH   5   6
ATOM      6  C   UNL     1     -17.177  11.270 -27.396  1.00  0.00     0.028 C 
BRANCH   6   7
ATOM      7  C   UNL     1     -18.424  11.660 -28.154  1.00  0.00    -0.028 C 
ATOM      8  C   UNL     1     -18.571  12.653 -29.070  1.00  0.00    -0.070 CG0
ATOM      9  C   UNL     1     -19.917  12.755 -29.748  1.00  0.00     0.039 C 
ATOM     10  G   UNL     1     -17.529  13.716 -29.402  1.00  0.00     0.000 G0
ENDBRANCH   6   7
ENDBRANCH   5   6
ENDBRANCH   3   5
ENDBRANCH   1   3
BRANCH   1  11
ATOM     11  C   UNL     1     -14.740  12.117 -29.325  1.00  0.00     0.087 C 
BRANCH  11  12
ATOM     12  C   UNL     1     -15.109  13.173 -30.403  1.00  0.00     0.066 C 
BRANCH  12  13
ATOM     13  C   UNL     1     -16.609  13.420 -30.571  1.00  0.00     0.140 C 
ATOM     14  O   UNL     1     -17.070  13.446 -31.704  1.00  0.00    -0.299 OA
BRANCH  13  15
ATOM     15  C   UNL     1     -17.534  13.732 -29.417  1.00  0.00     0.106 CG0
ATOM     16  G   UNL     1     -18.545  12.641 -29.084  1.00  0.00     0.000 G0
ENDBRANCH  13  15
ENDBRANCH  12  13
BRANCH  12  17
ATOM     17  C   UNL     1     -14.308  14.496 -30.199  1.00  0.00    -0.006 C 
ATOM     18  C   UNL     1     -13.230  14.686 -31.278  1.00  0.00     0.008 C 
ATOM     19  C   UNL     1     -15.198  15.748 -30.120  1.00  0.00     0.008 C 
ENDBRANCH  12  17
ENDBRANCH  11  12
ENDBRANCH   1  11
TORSDOF 1
ENDMDL
