MODEL 1
REMARK VINA RESULT:    -2.667      0.000      0.000
REMARK INTER + INTRA:          -3.335
REMARK INTER:                  -3.290
REMARK INTRA:                  -0.044
REMARK UNBOUND:                -0.044
REMARK SMILES CCCCCC(=O)[O-]
REMARK SMILES IDX 4 1 5 2 6 3 7 4 8 5 3 6 2 7 1 8
REMARK H PARENT
REMARK Flexibility Score: inf
ROOT
ATOM      1  C   UNL     1       8.038 -29.305 -18.076  1.00  0.00     0.006 C 
ENDROOT
BRANCH   1   2
ATOM      2  C   UNL     1       9.302 -30.026 -17.596  1.00  0.00     0.053 C 
BRANCH   2   3
ATOM      3  C   UNL     1       9.167 -30.417 -16.159  1.00  0.00     0.041 C 
ATOM      4  O   UNL     1       8.583 -29.653 -15.345  1.00  0.00    -0.550 OA
ATOM      5  O   UNL     1       9.729 -31.605 -15.706  1.00  0.00    -0.550 OA
ENDBRANCH   2   3
ENDBRANCH   1   2
BRANCH   1   6
ATOM      6  C   UNL     1       7.926 -29.349 -19.604  1.00  0.00     0.000 C 
BRANCH   6   7
ATOM      7  C   UNL     1       6.581 -28.784 -20.074  1.00  0.00    -0.003 C 
ATOM      8  C   UNL     1       6.563 -28.589 -21.587  1.00  0.00     0.004 C 
ENDBRANCH   6   7
ENDBRANCH   1   6
TORSDOF 4
ENDMDL
MODEL 2
REMARK VINA RESULT:    -2.438      2.729      4.811
REMARK INTER + INTRA:          -3.053
REMARK INTER:                  -2.959
REMARK INTRA:                  -0.095
REMARK UNBOUND:                -0.044
REMARK SMILES CCCCCC(=O)[O-]
REMARK SMILES IDX 4 1 5 2 6 3 7 4 8 5 3 6 2 7 1 8
REMARK H PARENT
REMARK Flexibility Score: inf
ROOT
ATOM      1  C   UNL     1       8.523 -29.618 -17.403  1.00  0.00     0.006 C 
ENDROOT
BRANCH   1   2
ATOM      2  C   UNL     1       7.276 -28.975 -18.019  1.00  0.00     0.053 C 
BRANCH   2   3
ATOM      3  C   UNL     1       7.386 -28.943 -19.510  1.00  0.00     0.041 C 
ATOM      4  O   UNL     1       8.265 -29.629 -20.096  1.00  0.00    -0.550 OA
ATOM      5  O   UNL     1       6.549 -28.119 -20.251  1.00  0.00    -0.550 OA
ENDBRANCH   2   3
ENDBRANCH   1   2
BRANCH   1   6
ATOM      6  C   UNL     1       8.464 -29.577 -15.872  1.00  0.00     0.000 C 
BRANCH   6   7
ATOM      7  C   UNL     1       9.330 -30.683 -15.258  1.00  0.00    -0.003 C 
ATOM      8  C   UNL     1       9.438 -31.883 -16.194  1.00  0.00     0.004 C 
ENDBRANCH   6   7
ENDBRANCH   1   6
TORSDOF 4
ENDMDL
MODEL 3
REMARK VINA RESULT:    -2.023      2.664      4.549
REMARK INTER + INTRA:          -2.540
REMARK INTER:                  -2.434
REMARK INTRA:                  -0.106
REMARK UNBOUND:                -0.044
REMARK SMILES CCCCCC(=O)[O-]
REMARK SMILES IDX 4 1 5 2 6 3 7 4 8 5 3 6 2 7 1 8
REMARK H PARENT
REMARK Flexibility Score: inf
ROOT
ATOM      1  C   UNL     1       8.106 -29.279 -16.326  1.00  0.00     0.006 C 
ENDROOT
BRANCH   1   2
ATOM      2  C   UNL     1       8.566 -29.554 -17.762  1.00  0.00     0.053 C 
BRANCH   2   3
ATOM      3  C   UNL     1       7.537 -29.087 -18.740  1.00  0.00     0.041 C 
ATOM      4  O   UNL     1       6.500 -28.497 -18.336  1.00  0.00    -0.550 OA
ATOM      5  O   UNL     1       7.698 -29.344 -20.096  1.00  0.00    -0.550 OA
ENDBRANCH   2   3
ENDBRANCH   1   2
BRANCH   1   6
ATOM      6  C   UNL     1       8.851 -30.174 -15.329  1.00  0.00     0.000 C 
BRANCH   6   7
ATOM      7  C   UNL     1       9.734 -31.194 -16.058  1.00  0.00    -0.003 C 
ATOM      8  C   UNL     1       9.205 -32.613 -15.874  1.00  0.00     0.004 C 
ENDBRANCH   6   7
ENDBRANCH   1   6
TORSDOF 4
ENDMDL
MODEL 4
REMARK VINA RESULT:    -1.822      2.683      4.741
REMARK INTER + INTRA:          -2.292
REMARK INTER:                  -2.406
REMARK INTRA:                   0.114
REMARK UNBOUND:                -0.044
REMARK SMILES CCCCCC(=O)[O-]
REMARK SMILES IDX 4 1 5 2 6 3 7 4 8 5 3 6 2 7 1 8
REMARK H PARENT
REMARK Flexibility Score: inf
ROOT
ATOM      1  C   UNL     1       9.208 -29.690 -17.470  1.00  0.00     0.006 C 
ENDROOT
BRANCH   1   2
ATOM      2  C   UNL     1       7.760 -29.298 -17.782  1.00  0.00     0.053 C 
BRANCH   2   3
ATOM      3  C   UNL     1       7.583 -29.075 -19.250  1.00  0.00     0.041 C 
ATOM      4  O   UNL     1       8.338 -29.655 -20.075  1.00  0.00    -0.550 OA
ATOM      5  O   UNL     1       6.615 -28.190 -19.707  1.00  0.00    -0.550 OA
ENDBRANCH   2   3
ENDBRANCH   1   2
BRANCH   1   6
ATOM      6  C   UNL     1       9.295 -31.148 -17.004  1.00  0.00     0.000 C 
BRANCH   6   7
ATOM      7  C   UNL     1       9.516 -31.229 -15.489  1.00  0.00    -0.003 C 
ATOM      8  C   UNL     1       8.831 -30.071 -14.769  1.00  0.00     0.004 C 
ENDBRANCH   6   7
ENDBRANCH   1   6
TORSDOF 4
ENDMDL
MODEL 5
REMARK VINA RESULT:    -1.801      2.080      2.808
REMARK INTER + INTRA:          -2.267
REMARK INTER:                  -2.173
REMARK INTRA:                  -0.094
REMARK UNBOUND:                -0.044
REMARK SMILES CCCCCC(=O)[O-]
REMARK SMILES IDX 4 1 5 2 6 3 7 4 8 5 3 6 2 7 1 8
REMARK H PARENT
REMARK Flexibility Score: inf
ROOT
ATOM      1  C   UNL     1       9.104 -30.159 -16.780  1.00  0.00     0.006 C 
ENDROOT
BRANCH   1   2
ATOM      2  C   UNL     1       9.599 -31.172 -15.741  1.00  0.00     0.053 C 
BRANCH   2   3
ATOM      3  C   UNL     1       9.233 -32.563 -16.152  1.00  0.00     0.041 C 
ATOM      4  O   UNL     1       8.840 -33.395 -15.292  1.00  0.00    -0.550 OA
ATOM      5  O   UNL     1       9.371 -32.956 -17.477  1.00  0.00    -0.550 OA
ENDBRANCH   2   3
ENDBRANCH   1   2
BRANCH   1   6
ATOM      6  C   UNL     1       8.134 -29.154 -16.148  1.00  0.00     0.000 C 
BRANCH   6   7
ATOM      7  C   UNL     1       7.023 -28.769 -17.132  1.00  0.00    -0.003 C 
ATOM      8  C   UNL     1       7.453 -29.020 -18.575  1.00  0.00     0.004 C 
ENDBRANCH   6   7
ENDBRANCH   1   6
TORSDOF 4
ENDMDL
MODEL 6
REMARK VINA RESULT:    -0.486      1.317      1.797
REMARK INTER + INTRA:          -0.644
REMARK INTER:                  -0.532
REMARK INTRA:                  -0.112
REMARK UNBOUND:                -0.044
REMARK SMILES CCCCCC(=O)[O-]
REMARK SMILES IDX 4 1 5 2 6 3 7 4 8 5 3 6 2 7 1 8
REMARK H PARENT
REMARK Flexibility Score: inf
ROOT
ATOM      1  C   UNL     1       6.897 -29.271 -18.520  1.00  0.00     0.006 C 
ENDROOT
BRANCH   1   2
ATOM      2  C   UNL     1       7.238 -28.767 -17.113  1.00  0.00     0.053 C 
BRANCH   2   3
ATOM      3  C   UNL     1       8.450 -29.467 -16.587  1.00  0.00     0.041 C 
ATOM      4  O   UNL     1       9.327 -29.900 -17.381  1.00  0.00    -0.550 OA
ATOM      5  O   UNL     1       8.590 -29.683 -15.222  1.00  0.00    -0.550 OA
ENDBRANCH   2   3
ENDBRANCH   1   2
BRANCH   1   6
ATOM      6  C   UNL     1       6.425 -28.120 -19.417  1.00  0.00     0.000 C 
BRANCH   6   7
ATOM      7  C   UNL     1       6.470 -28.522 -20.895  1.00  0.00    -0.003 C 
ATOM      8  C   UNL     1       7.594 -29.517 -21.164  1.00  0.00     0.004 C 
ENDBRANCH   6   7
ENDBRANCH   1   6
TORSDOF 4
ENDMDL
