MODEL 1
REMARK VINA RESULT:    -4.816      0.000      0.000
REMARK INTER + INTRA:          -6.876
REMARK INTER:                  -6.505
REMARK INTRA:                  -0.371
REMARK UNBOUND:                -0.371
REMARK SMILES CCCCCCCC(=O)[O-]
REMARK SMILES IDX 5 1 6 2 7 3 8 4 9 5 10 6 4 7 3 8 2 9 1 10
REMARK H PARENT
REMARK Flexibility Score: inf
ROOT
ATOM      1  C   UNL     1      85.912 325.457 193.399  1.00  0.00     0.000 C 
ENDROOT
BRANCH   1   2
ATOM      2  C   UNL     1      86.812 326.510 194.063  1.00  0.00     0.006 C 
BRANCH   2   3
ATOM      3  C   UNL     1      86.584 326.547 195.578  1.00  0.00     0.053 C 
BRANCH   3   4
ATOM      4  C   UNL     1      87.795 326.046 196.301  1.00  0.00     0.041 C 
ATOM      5  O   UNL     1      88.312 326.732 197.221  1.00  0.00    -0.550 OA
ATOM      6  O   UNL     1      88.323 324.799 195.991  1.00  0.00    -0.550 OA
ENDBRANCH   3   4
ENDBRANCH   2   3
ENDBRANCH   1   2
BRANCH   1   7
ATOM      7  C   UNL     1      86.710 324.420 192.593  1.00  0.00     0.000 C 
BRANCH   7   8
ATOM      8  C   UNL     1      88.133 324.900 192.257  1.00  0.00    -0.000 C 
BRANCH   8   9
ATOM      9  C   UNL     1      88.647 324.330 190.926  1.00  0.00    -0.003 C 
ATOM     10  C   UNL     1      87.698 323.296 190.322  1.00  0.00     0.004 C 
ENDBRANCH   8   9
ENDBRANCH   7   8
ENDBRANCH   1   7
TORSDOF 6
ENDMDL
MODEL 2
REMARK VINA RESULT:    -4.766      1.526      1.975
REMARK INTER + INTRA:          -6.809
REMARK INTER:                  -6.570
REMARK INTRA:                  -0.239
REMARK UNBOUND:                -0.371
REMARK SMILES CCCCCCCC(=O)[O-]
REMARK SMILES IDX 5 1 6 2 7 3 8 4 9 5 10 6 4 7 3 8 2 9 1 10
REMARK H PARENT
REMARK Flexibility Score: inf
ROOT
ATOM      1  C   UNL     1      88.424 324.328 193.521  1.00  0.00     0.000 C 
ENDROOT
BRANCH   1   2
ATOM      2  C   UNL     1      87.683 325.654 193.292  1.00  0.00     0.006 C 
BRANCH   2   3
ATOM      3  C   UNL     1      88.130 326.713 194.305  1.00  0.00     0.053 C 
BRANCH   3   4
ATOM      4  C   UNL     1      87.468 326.483 195.627  1.00  0.00     0.041 C 
ATOM      5  O   UNL     1      86.227 326.651 195.752  1.00  0.00    -0.550 OA
ATOM      6  O   UNL     1      88.214 326.037 196.710  1.00  0.00    -0.550 OA
ENDBRANCH   3   4
ENDBRANCH   2   3
ENDBRANCH   1   2
BRANCH   1   7
ATOM      7  C   UNL     1      88.560 323.496 192.237  1.00  0.00     0.000 C 
BRANCH   7   8
ATOM      8  C   UNL     1      88.546 324.363 190.966  1.00  0.00    -0.000 C 
BRANCH   8   9
ATOM      9  C   UNL     1      88.638 323.525 189.681  1.00  0.00    -0.003 C 
ATOM     10  C   UNL     1      89.808 323.940 188.790  1.00  0.00     0.004 C 
ENDBRANCH   8   9
ENDBRANCH   7   8
ENDBRANCH   1   7
TORSDOF 6
ENDMDL
MODEL 3
REMARK VINA RESULT:    -4.722      2.887      5.197
REMARK INTER + INTRA:          -6.749
REMARK INTER:                  -6.434
REMARK INTRA:                  -0.315
REMARK UNBOUND:                -0.371
REMARK SMILES CCCCCCCC(=O)[O-]
REMARK SMILES IDX 5 1 6 2 7 3 8 4 9 5 10 6 4 7 3 8 2 9 1 10
REMARK H PARENT
REMARK Flexibility Score: inf
ROOT
ATOM      1  C   UNL     1      88.147 326.393 193.508  1.00  0.00     0.000 C 
ENDROOT
BRANCH   1   2
ATOM      2  C   UNL     1      87.871 324.933 193.116  1.00  0.00     0.006 C 
BRANCH   2   3
ATOM      3  C   UNL     1      88.332 324.655 191.682  1.00  0.00     0.053 C 
BRANCH   3   4
ATOM      4  C   UNL     1      87.362 323.752 190.987  1.00  0.00     0.041 C 
ATOM      5  O   UNL     1      87.722 323.094 189.976  1.00  0.00    -0.550 OA
ATOM      6  O   UNL     1      86.074 323.600 191.484  1.00  0.00    -0.550 OA
ENDBRANCH   3   4
ENDBRANCH   2   3
ENDBRANCH   1   2
BRANCH   1   7
ATOM      7  C   UNL     1      86.992 327.020 194.303  1.00  0.00     0.000 C 
BRANCH   7   8
ATOM      8  C   UNL     1      86.806 326.374 195.687  1.00  0.00    -0.000 C 
BRANCH   8   9
ATOM      9  C   UNL     1      88.060 326.499 196.567  1.00  0.00    -0.003 C 
ATOM     10  C   UNL     1      88.602 325.142 197.015  1.00  0.00     0.004 C 
ENDBRANCH   8   9
ENDBRANCH   7   8
ENDBRANCH   1   7
TORSDOF 6
ENDMDL
MODEL 4
REMARK VINA RESULT:    -4.614     19.749     21.155
REMARK INTER + INTRA:          -6.603
REMARK INTER:                  -6.399
REMARK INTRA:                  -0.204
REMARK UNBOUND:                -0.371
REMARK SMILES CCCCCCCC(=O)[O-]
REMARK SMILES IDX 5 1 6 2 7 3 8 4 9 5 10 6 4 7 3 8 2 9 1 10
REMARK H PARENT
REMARK Flexibility Score: inf
ROOT
ATOM      1  C   UNL     1     105.638 312.825 192.417  1.00  0.00     0.000 C 
ENDROOT
BRANCH   1   2
ATOM      2  C   UNL     1     105.237 311.672 193.350  1.00  0.00     0.006 C 
BRANCH   2   3
ATOM      3  C   UNL     1     105.777 311.901 194.765  1.00  0.00     0.053 C 
BRANCH   3   4
ATOM      4  C   UNL     1     104.653 312.172 195.715  1.00  0.00     0.041 C 
ATOM      5  O   UNL     1     104.429 311.386 196.672  1.00  0.00    -0.550 OA
ATOM      6  O   UNL     1     103.884 313.320 195.573  1.00  0.00    -0.550 OA
ENDBRANCH   3   4
ENDBRANCH   2   3
ENDBRANCH   1   2
BRANCH   1   7
ATOM      7  C   UNL     1     104.458 313.746 192.073  1.00  0.00     0.000 C 
BRANCH   7   8
ATOM      8  C   UNL     1     103.888 313.479 190.670  1.00  0.00    -0.000 C 
BRANCH   8   9
ATOM      9  C   UNL     1     103.621 314.773 189.886  1.00  0.00    -0.003 C 
ATOM     10  C   UNL     1     102.813 314.535 188.611  1.00  0.00     0.004 C 
ENDBRANCH   8   9
ENDBRANCH   7   8
ENDBRANCH   1   7
TORSDOF 6
ENDMDL
MODEL 5
REMARK VINA RESULT:    -4.580     19.994     21.121
REMARK INTER + INTRA:          -6.557
REMARK INTER:                  -6.222
REMARK INTRA:                  -0.335
REMARK UNBOUND:                -0.371
REMARK SMILES CCCCCCCC(=O)[O-]
REMARK SMILES IDX 5 1 6 2 7 3 8 4 9 5 10 6 4 7 3 8 2 9 1 10
REMARK H PARENT
REMARK Flexibility Score: inf
ROOT
ATOM      1  C   UNL     1     105.708 311.476 193.380  1.00  0.00     0.000 C 
ENDROOT
BRANCH   1   2
ATOM      2  C   UNL     1     105.794 311.894 194.856  1.00  0.00     0.006 C 
BRANCH   2   3
ATOM      3  C   UNL     1     104.395 312.075 195.455  1.00  0.00     0.053 C 
BRANCH   3   4
ATOM      4  C   UNL     1     104.265 313.428 196.081  1.00  0.00     0.041 C 
ATOM      5  O   UNL     1     104.494 314.464 195.403  1.00  0.00    -0.550 OA
ATOM      6  O   UNL     1     103.845 313.547 197.400  1.00  0.00    -0.550 OA
ENDBRANCH   3   4
ENDBRANCH   2   3
ENDBRANCH   1   2
BRANCH   1   7
ATOM      7  C   UNL     1     104.568 312.181 192.630  1.00  0.00     0.000 C 
BRANCH   7   8
ATOM      8  C   UNL     1     105.035 313.456 191.906  1.00  0.00    -0.000 C 
BRANCH   8   9
ATOM      9  C   UNL     1     103.863 314.291 191.367  1.00  0.00    -0.003 C 
ATOM     10  C   UNL     1     103.607 314.055 189.879  1.00  0.00     0.004 C 
ENDBRANCH   8   9
ENDBRANCH   7   8
ENDBRANCH   1   7
TORSDOF 6
ENDMDL
MODEL 6
REMARK VINA RESULT:    -4.566     19.840     21.266
REMARK INTER + INTRA:          -6.539
REMARK INTER:                  -6.377
REMARK INTRA:                  -0.162
REMARK UNBOUND:                -0.371
REMARK SMILES CCCCCCCC(=O)[O-]
REMARK SMILES IDX 5 1 6 2 7 3 8 4 9 5 10 6 4 7 3 8 2 9 1 10
REMARK H PARENT
REMARK Flexibility Score: inf
ROOT
ATOM      1  C   UNL     1     104.272 313.625 192.110  1.00  0.00     0.000 C 
ENDROOT
BRANCH   1   2
ATOM      2  C   UNL     1     103.870 313.549 190.629  1.00  0.00     0.006 C 
BRANCH   2   3
ATOM      3  C   UNL     1     103.818 314.946 190.004  1.00  0.00     0.053 C 
BRANCH   3   4
ATOM      4  C   UNL     1     103.406 314.861 188.568  1.00  0.00     0.041 C 
ATOM      5  O   UNL     1     102.378 314.212 188.241  1.00  0.00    -0.550 OA
ATOM      6  O   UNL     1     104.129 315.541 187.595  1.00  0.00    -0.550 OA
ENDBRANCH   3   4
ENDBRANCH   2   3
ENDBRANCH   1   2
BRANCH   1   7
ATOM      7  C   UNL     1     104.619 312.250 192.701  1.00  0.00     0.000 C 
BRANCH   7   8
ATOM      8  C   UNL     1     105.933 312.264 193.501  1.00  0.00    -0.000 C 
BRANCH   8   9
ATOM      9  C   UNL     1     105.733 311.853 194.968  1.00  0.00    -0.003 C 
ATOM     10  C   UNL     1     104.272 311.934 195.409  1.00  0.00     0.004 C 
ENDBRANCH   8   9
ENDBRANCH   7   8
ENDBRANCH   1   7
TORSDOF 6
ENDMDL
MODEL 7
REMARK VINA RESULT:    -4.519     20.373     21.714
REMARK INTER + INTRA:          -6.476
REMARK INTER:                  -6.039
REMARK INTRA:                  -0.436
REMARK UNBOUND:                -0.371
REMARK SMILES CCCCCCCC(=O)[O-]
REMARK SMILES IDX 5 1 6 2 7 3 8 4 9 5 10 6 4 7 3 8 2 9 1 10
REMARK H PARENT
REMARK Flexibility Score: inf
ROOT
ATOM      1  C   UNL     1     105.385 311.623 193.264  1.00  0.00     0.000 C 
ENDROOT
BRANCH   1   2
ATOM      2  C   UNL     1     105.586 312.808 192.306  1.00  0.00     0.006 C 
BRANCH   2   3
ATOM      3  C   UNL     1     104.239 313.350 191.818  1.00  0.00     0.053 C 
BRANCH   3   4
ATOM      4  C   UNL     1     104.402 314.050 190.505  1.00  0.00     0.041 C 
ATOM      5  O   UNL     1     105.494 314.604 190.214  1.00  0.00    -0.550 OA
ATOM      6  O   UNL     1     103.364 314.047 189.582  1.00  0.00    -0.550 OA
ENDBRANCH   3   4
ENDBRANCH   2   3
ENDBRANCH   1   2
BRANCH   1   7
ATOM      7  C   UNL     1     106.043 311.852 194.634  1.00  0.00     0.000 C 
BRANCH   7   8
ATOM      8  C   UNL     1     105.026 311.853 195.787  1.00  0.00    -0.000 C 
BRANCH   8   9
ATOM      9  C   UNL     1     103.858 312.821 195.540  1.00  0.00    -0.003 C 
ATOM     10  C   UNL     1     104.281 314.288 195.618  1.00  0.00     0.004 C 
ENDBRANCH   8   9
ENDBRANCH   7   8
ENDBRANCH   1   7
TORSDOF 6
ENDMDL
MODEL 8
REMARK VINA RESULT:    -4.504      3.640      5.618
REMARK INTER + INTRA:          -6.454
REMARK INTER:                  -6.232
REMARK INTRA:                  -0.223
REMARK UNBOUND:                -0.371
REMARK SMILES CCCCCCCC(=O)[O-]
REMARK SMILES IDX 5 1 6 2 7 3 8 4 9 5 10 6 4 7 3 8 2 9 1 10
REMARK H PARENT
REMARK Flexibility Score: inf
ROOT
ATOM      1  C   UNL     1      86.874 324.930 192.833  1.00  0.00     0.000 C 
ENDROOT
BRANCH   1   2
ATOM      2  C   UNL     1      87.243 323.877 191.776  1.00  0.00     0.006 C 
BRANCH   2   3
ATOM      3  C   UNL     1      88.510 324.285 191.017  1.00  0.00     0.053 C 
BRANCH   3   4
ATOM      4  C   UNL     1      88.571 323.592 189.692  1.00  0.00     0.041 C 
ATOM      5  O   UNL     1      87.691 322.750 189.376  1.00  0.00    -0.550 OA
ATOM      6  O   UNL     1      89.574 323.913 188.786  1.00  0.00    -0.550 OA
ENDBRANCH   3   4
ENDBRANCH   2   3
ENDBRANCH   1   2
BRANCH   1   7
ATOM      7  C   UNL     1      88.081 325.769 193.279  1.00  0.00     0.000 C 
BRANCH   7   8
ATOM      8  C   UNL     1      87.677 326.966 194.157  1.00  0.00    -0.000 C 
BRANCH   8   9
ATOM      9  C   UNL     1      87.007 326.533 195.471  1.00  0.00    -0.003 C 
ATOM     10  C   UNL     1      88.003 326.389 196.621  1.00  0.00     0.004 C 
ENDBRANCH   8   9
ENDBRANCH   7   8
ENDBRANCH   1   7
TORSDOF 6
ENDMDL
MODEL 9
REMARK VINA RESULT:    -4.485      2.456      4.595
REMARK INTER + INTRA:          -6.430
REMARK INTER:                  -5.961
REMARK INTRA:                  -0.469
REMARK UNBOUND:                -0.371
REMARK SMILES CCCCCCCC(=O)[O-]
REMARK SMILES IDX 5 1 6 2 7 3 8 4 9 5 10 6 4 7 3 8 2 9 1 10
REMARK H PARENT
REMARK Flexibility Score: inf
ROOT
ATOM      1  C   UNL     1      86.851 326.959 194.505  1.00  0.00     0.000 C 
ENDROOT
BRANCH   1   2
ATOM      2  C   UNL     1      87.890 326.270 193.607  1.00  0.00     0.006 C 
BRANCH   2   3
ATOM      3  C   UNL     1      87.392 324.895 193.150  1.00  0.00     0.053 C 
BRANCH   3   4
ATOM      4  C   UNL     1      88.404 324.241 192.263  1.00  0.00     0.041 C 
ATOM      5  O   UNL     1      89.011 323.207 192.649  1.00  0.00    -0.550 OA
ATOM      6  O   UNL     1      88.642 324.744 190.991  1.00  0.00    -0.550 OA
ENDBRANCH   3   4
ENDBRANCH   2   3
ENDBRANCH   1   2
BRANCH   1   7
ATOM      7  C   UNL     1      86.953 326.520 195.973  1.00  0.00     0.000 C 
BRANCH   7   8
ATOM      8  C   UNL     1      88.407 326.452 196.471  1.00  0.00    -0.000 C 
BRANCH   8   9
ATOM      9  C   UNL     1      88.687 325.189 197.300  1.00  0.00    -0.003 C 
ATOM     10  C   UNL     1      89.074 323.990 196.436  1.00  0.00     0.004 C 
ENDBRANCH   8   9
ENDBRANCH   7   8
ENDBRANCH   1   7
TORSDOF 6
ENDMDL
