MODEL 1
REMARK VINA RESULT:    -2.294      0.000      0.000
REMARK INTER + INTRA:          -2.294
REMARK INTER:                  -2.294
REMARK INTRA:                   0.000
REMARK UNBOUND:                 0.000
REMARK SMILES CC(=O)[O-]
REMARK SMILES IDX 1 1 2 2 3 3 4 4
REMARK H PARENT
REMARK Flexibility Score: inf
ROOT
ATOM      1  C   UNL     1      -6.760 -34.515  46.068  1.00  0.00     0.063 C 
ATOM      2  C   UNL     1      -6.124 -34.614  44.722  1.00  0.00     0.038 C 
ATOM      3  O   UNL     1      -6.348 -33.733  43.852  1.00  0.00    -0.550 OA
ATOM      4  O   UNL     1      -5.326 -35.707  44.408  1.00  0.00    -0.550 OA
ENDROOT
TORSDOF 0
ENDMDL
MODEL 2
REMARK VINA RESULT:    -2.207     12.772     13.311
REMARK INTER + INTRA:          -2.207
REMARK INTER:                  -2.207
REMARK INTRA:                   0.000
REMARK UNBOUND:                 0.000
REMARK SMILES CC(=O)[O-]
REMARK SMILES IDX 1 1 2 2 3 3 4 4
REMARK H PARENT
REMARK Flexibility Score: inf
ROOT
ATOM      1  C   UNL     1      -6.852 -20.895  46.810  1.00  0.00     0.063 C 
ATOM      2  C   UNL     1      -8.076 -21.735  46.949  1.00  0.00     0.038 C 
ATOM      3  O   UNL     1      -9.162 -21.213  47.310  1.00  0.00    -0.550 OA
ATOM      4  O   UNL     1      -8.007 -23.106  46.734  1.00  0.00    -0.550 OA
ENDROOT
TORSDOF 0
ENDMDL
MODEL 3
REMARK VINA RESULT:    -2.205      1.379      1.752
REMARK INTER + INTRA:          -2.205
REMARK INTER:                  -2.205
REMARK INTRA:                   0.000
REMARK UNBOUND:                 0.000
REMARK SMILES CC(=O)[O-]
REMARK SMILES IDX 1 1 2 2 3 3 4 4
REMARK H PARENT
REMARK Flexibility Score: inf
ROOT
ATOM      1  C   UNL     1      -5.095 -35.661  44.596  1.00  0.00     0.063 C 
ATOM      2  C   UNL     1      -6.185 -34.655  44.753  1.00  0.00     0.038 C 
ATOM      3  O   UNL     1      -6.350 -33.761  43.882  1.00  0.00    -0.550 OA
ATOM      4  O   UNL     1      -6.987 -34.669  45.887  1.00  0.00    -0.550 OA
ENDROOT
TORSDOF 0
ENDMDL
MODEL 4
REMARK VINA RESULT:    -2.141     12.627     13.215
REMARK INTER + INTRA:          -2.141
REMARK INTER:                  -2.141
REMARK INTRA:                   0.000
REMARK UNBOUND:                 0.000
REMARK SMILES CC(=O)[O-]
REMARK SMILES IDX 1 1 2 2 3 3 4 4
REMARK H PARENT
REMARK Flexibility Score: inf
ROOT
ATOM      1  C   UNL     1      -8.693 -22.130  47.253  1.00  0.00     0.063 C 
ATOM      2  C   UNL     1      -7.247 -21.831  47.046  1.00  0.00     0.038 C 
ATOM      3  O   UNL     1      -6.383 -22.724  47.242  1.00  0.00    -0.550 OA
ATOM      4  O   UNL     1      -6.845 -20.549  46.689  1.00  0.00    -0.550 OA
ENDROOT
TORSDOF 0
ENDMDL
MODEL 5
REMARK VINA RESULT:    -2.131     16.534     16.839
REMARK INTER + INTRA:          -2.131
REMARK INTER:                  -2.131
REMARK INTRA:                   0.000
REMARK UNBOUND:                 0.000
REMARK SMILES CC(=O)[O-]
REMARK SMILES IDX 1 1 2 2 3 3 4 4
REMARK H PARENT
REMARK Flexibility Score: inf
ROOT
ATOM      1  C   UNL     1       2.390 -19.949  45.259  1.00  0.00     0.063 C 
ATOM      2  C   UNL     1       2.620 -20.476  46.635  1.00  0.00     0.038 C 
ATOM      3  O   UNL     1       3.346 -19.840  47.442  1.00  0.00    -0.550 OA
ATOM      4  O   UNL     1       2.079 -21.699  47.011  1.00  0.00    -0.550 OA
ENDROOT
TORSDOF 0
ENDMDL
MODEL 6
REMARK VINA RESULT:    -2.122     16.650     16.944
REMARK INTER + INTRA:          -2.122
REMARK INTER:                  -2.122
REMARK INTRA:                   0.000
REMARK UNBOUND:                 0.000
REMARK SMILES CC(=O)[O-]
REMARK SMILES IDX 1 1 2 2 3 3 4 4
REMARK H PARENT
REMARK Flexibility Score: inf
ROOT
ATOM      1  C   UNL     1       2.039 -21.316  46.922  1.00  0.00     0.063 C 
ATOM      2  C   UNL     1       2.766 -20.298  46.111  1.00  0.00     0.038 C 
ATOM      3  O   UNL     1       2.221 -19.792  45.096  1.00  0.00    -0.550 OA
ATOM      4  O   UNL     1       4.069 -19.946  46.442  1.00  0.00    -0.550 OA
ENDROOT
TORSDOF 0
ENDMDL
MODEL 7
REMARK VINA RESULT:    -1.971     12.728     13.153
REMARK INTER + INTRA:          -1.971
REMARK INTER:                  -1.971
REMARK INTRA:                   0.000
REMARK UNBOUND:                 0.000
REMARK SMILES CC(=O)[O-]
REMARK SMILES IDX 1 1 2 2 3 3 4 4
REMARK H PARENT
REMARK Flexibility Score: inf
ROOT
ATOM      1  C   UNL     1      -8.816 -23.413  47.991  1.00  0.00     0.063 C 
ATOM      2  C   UNL     1      -9.538 -22.274  47.352  1.00  0.00     0.038 C 
ATOM      3  O   UNL     1      -8.949 -21.178  47.167  1.00  0.00    -0.550 OA
ATOM      4  O   UNL     1     -10.878 -22.405  47.009  1.00  0.00    -0.550 OA
ENDROOT
TORSDOF 0
ENDMDL
MODEL 8
REMARK VINA RESULT:    -1.951     11.169     11.487
REMARK INTER + INTRA:          -1.951
REMARK INTER:                  -1.951
REMARK INTRA:                   0.000
REMARK UNBOUND:                 0.000
REMARK SMILES CC(=O)[O-]
REMARK SMILES IDX 1 1 2 2 3 3 4 4
REMARK H PARENT
REMARK Flexibility Score: inf
ROOT
ATOM      1  C   UNL     1      -4.677 -25.092  48.121  1.00  0.00     0.063 C 
ATOM      2  C   UNL     1      -4.817 -23.704  47.593  1.00  0.00     0.038 C 
ATOM      3  O   UNL     1      -3.825 -23.117  47.090  1.00  0.00    -0.550 OA
ATOM      4  O   UNL     1      -6.031 -23.037  47.704  1.00  0.00    -0.550 OA
ENDROOT
TORSDOF 0
ENDMDL
MODEL 9
REMARK VINA RESULT:    -1.930     16.159     16.482
REMARK INTER + INTRA:          -1.930
REMARK INTER:                  -1.930
REMARK INTRA:                   0.000
REMARK UNBOUND:                 0.000
REMARK SMILES CC(=O)[O-]
REMARK SMILES IDX 1 1 2 2 3 3 4 4
REMARK H PARENT
REMARK Flexibility Score: inf
ROOT
ATOM      1  C   UNL     1       5.204 -22.953  46.492  1.00  0.00     0.063 C 
ATOM      2  C   UNL     1       4.060 -22.051  46.812  1.00  0.00     0.038 C 
ATOM      3  O   UNL     1       3.125 -22.456  47.550  1.00  0.00    -0.550 OA
ATOM      4  O   UNL     1       3.997 -20.781  46.252  1.00  0.00    -0.550 OA
ENDROOT
TORSDOF 0
ENDMDL
