MODEL 1
REMARK VINA RESULT:    -3.808      0.000      0.000
REMARK INTER + INTRA:          -5.319
REMARK INTER:                  -5.144
REMARK INTRA:                  -0.175
REMARK UNBOUND:                -0.175
REMARK SMILES CCCCCCCC(=O)[O-]
REMARK SMILES IDX 5 1 6 2 7 3 8 4 9 5 10 6 4 7 3 8 2 9 1 10
REMARK H PARENT
REMARK Flexibility Score: inf
ROOT
ATOM      1  C   UNL     1       0.318   3.861   8.067  1.00  0.00     0.000 C 
ENDROOT
BRANCH   1   2
ATOM      2  C   UNL     1       0.567   4.564   6.717  1.00  0.00     0.006 C 
BRANCH   2   3
ATOM      3  C   UNL     1      -0.355   5.764   6.448  1.00  0.00     0.053 C 
BRANCH   3   4
ATOM      4  C   UNL     1      -0.532   6.017   4.982  1.00  0.00     0.041 C 
ATOM      5  O   UNL     1      -0.011   5.242   4.138  1.00  0.00    -0.550 OA
ATOM      6  O   UNL     1      -1.244   7.128   4.548  1.00  0.00    -0.550 OA
ENDBRANCH   3   4
ENDBRANCH   2   3
ENDBRANCH   1   2
BRANCH   1   7
ATOM      7  C   UNL     1       1.071   2.530   8.259  1.00  0.00     0.000 C 
BRANCH   7   8
ATOM      8  C   UNL     1       1.591   1.880   6.962  1.00  0.00    -0.000 C 
BRANCH   8   9
ATOM      9  C   UNL     1       1.882   0.372   7.066  1.00  0.00    -0.003 C 
ATOM     10  C   UNL     1       1.314  -0.426   5.893  1.00  0.00     0.004 C 
ENDBRANCH   8   9
ENDBRANCH   7   8
ENDBRANCH   1   7
TORSDOF 6
ENDMDL
MODEL 2
REMARK VINA RESULT:    -3.742      5.913      7.320
REMARK INTER + INTRA:          -5.229
REMARK INTER:                  -4.968
REMARK INTRA:                  -0.261
REMARK UNBOUND:                -0.175
REMARK SMILES CCCCCCCC(=O)[O-]
REMARK SMILES IDX 5 1 6 2 7 3 8 4 9 5 10 6 4 7 3 8 2 9 1 10
REMARK H PARENT
REMARK Flexibility Score: inf
ROOT
ATOM      1  C   UNL     1      -0.982  -2.468   5.869  1.00  0.00     0.000 C 
ENDROOT
BRANCH   1   2
ATOM      2  C   UNL     1       0.113  -1.807   5.007  1.00  0.00     0.006 C 
BRANCH   2   3
ATOM      3  C   UNL     1       1.142  -0.990   5.805  1.00  0.00     0.053 C 
BRANCH   3   4
ATOM      4  C   UNL     1       2.537  -1.495   5.603  1.00  0.00     0.041 C 
ATOM      5  O   UNL     1       2.806  -2.242   4.626  1.00  0.00    -0.550 OA
ATOM      6  O   UNL     1       3.535  -1.169   6.514  1.00  0.00    -0.550 OA
ENDBRANCH   3   4
ENDBRANCH   2   3
ENDBRANCH   1   2
BRANCH   1   7
ATOM      7  C   UNL     1      -2.326  -2.703   5.151  1.00  0.00     0.000 C 
BRANCH   7   8
ATOM      8  C   UNL     1      -2.623  -1.737   3.988  1.00  0.00    -0.000 C 
BRANCH   8   9
ATOM      9  C   UNL     1      -4.036  -1.126   3.999  1.00  0.00    -0.003 C 
ATOM     10  C   UNL     1      -4.655  -1.085   5.396  1.00  0.00     0.004 C 
ENDBRANCH   8   9
ENDBRANCH   7   8
ENDBRANCH   1   7
TORSDOF 6
ENDMDL
MODEL 3
REMARK VINA RESULT:    -3.640      0.537      1.282
REMARK INTER + INTRA:          -5.091
REMARK INTER:                  -4.875
REMARK INTRA:                  -0.217
REMARK UNBOUND:                -0.175
REMARK SMILES CCCCCCCC(=O)[O-]
REMARK SMILES IDX 5 1 6 2 7 3 8 4 9 5 10 6 4 7 3 8 2 9 1 10
REMARK H PARENT
REMARK Flexibility Score: inf
ROOT
ATOM      1  C   UNL     1       0.248   4.073   8.163  1.00  0.00     0.000 C 
ENDROOT
BRANCH   1   2
ATOM      2  C   UNL     1       0.533   4.798   6.832  1.00  0.00     0.006 C 
BRANCH   2   3
ATOM      3  C   UNL     1      -0.479   5.901   6.482  1.00  0.00     0.053 C 
BRANCH   3   4
ATOM      4  C   UNL     1      -0.600   6.101   5.003  1.00  0.00     0.041 C 
ATOM      5  O   UNL     1      -1.279   7.059   4.546  1.00  0.00    -0.550 OA
ATOM      6  O   UNL     1       0.009   5.211   4.127  1.00  0.00    -0.550 OA
ENDBRANCH   3   4
ENDBRANCH   2   3
ENDBRANCH   1   2
BRANCH   1   7
ATOM      7  C   UNL     1       0.877   2.670   8.290  1.00  0.00     0.000 C 
BRANCH   7   8
ATOM      8  C   UNL     1       1.601   2.161   7.028  1.00  0.00    -0.000 C 
BRANCH   8   9
ATOM      9  C   UNL     1       1.775   0.634   6.954  1.00  0.00    -0.003 C 
ATOM     10  C   UNL     1       1.303  -0.080   8.220  1.00  0.00     0.004 C 
ENDBRANCH   8   9
ENDBRANCH   7   8
ENDBRANCH   1   7
TORSDOF 6
ENDMDL
MODEL 4
REMARK VINA RESULT:    -3.628      6.188      7.496
REMARK INTER + INTRA:          -5.076
REMARK INTER:                  -4.865
REMARK INTRA:                  -0.211
REMARK UNBOUND:                -0.175
REMARK SMILES CCCCCCCC(=O)[O-]
REMARK SMILES IDX 5 1 6 2 7 3 8 4 9 5 10 6 4 7 3 8 2 9 1 10
REMARK H PARENT
REMARK Flexibility Score: inf
ROOT
ATOM      1  C   UNL     1      -1.322  -2.754   5.792  1.00  0.00     0.000 C 
ENDROOT
BRANCH   1   2
ATOM      2  C   UNL     1       0.042  -2.260   6.315  1.00  0.00     0.006 C 
BRANCH   2   3
ATOM      3  C   UNL     1       0.866  -1.469   5.287  1.00  0.00     0.053 C 
BRANCH   3   4
ATOM      4  C   UNL     1       2.339  -1.656   5.487  1.00  0.00     0.041 C 
ATOM      5  O   UNL     1       2.897  -1.226   6.531  1.00  0.00    -0.550 OA
ATOM      6  O   UNL     1       3.102  -2.275   4.505  1.00  0.00    -0.550 OA
ENDBRANCH   3   4
ENDBRANCH   2   3
ENDBRANCH   1   2
BRANCH   1   7
ATOM      7  C   UNL     1      -1.780  -2.122   4.462  1.00  0.00     0.000 C 
BRANCH   7   8
ATOM      8  C   UNL     1      -3.274  -2.304   4.131  1.00  0.00    -0.000 C 
BRANCH   8   9
ATOM      9  C   UNL     1      -4.107  -1.010   4.170  1.00  0.00    -0.003 C 
ATOM     10  C   UNL     1      -4.820  -0.802   5.505  1.00  0.00     0.004 C 
ENDBRANCH   8   9
ENDBRANCH   7   8
ENDBRANCH   1   7
TORSDOF 6
ENDMDL
MODEL 5
REMARK VINA RESULT:    -3.588      5.673      6.962
REMARK INTER + INTRA:          -5.021
REMARK INTER:                  -4.808
REMARK INTRA:                  -0.213
REMARK UNBOUND:                -0.175
REMARK SMILES CCCCCCCC(=O)[O-]
REMARK SMILES IDX 5 1 6 2 7 3 8 4 9 5 10 6 4 7 3 8 2 9 1 10
REMARK H PARENT
REMARK Flexibility Score: inf
ROOT
ATOM      1  C   UNL     1      -0.261  -2.466   6.203  1.00  0.00     0.000 C 
ENDROOT
BRANCH   1   2
ATOM      2  C   UNL     1      -1.695  -2.636   5.661  1.00  0.00     0.006 C 
BRANCH   2   3
ATOM      3  C   UNL     1      -1.776  -2.860   4.143  1.00  0.00     0.053 C 
BRANCH   3   4
ATOM      4  C   UNL     1      -3.062  -2.349   3.569  1.00  0.00     0.041 C 
ATOM      5  O   UNL     1      -3.385  -1.141   3.713  1.00  0.00    -0.550 OA
ATOM      6  O   UNL     1      -3.921  -3.216   2.903  1.00  0.00    -0.550 OA
ENDBRANCH   3   4
ENDBRANCH   2   3
ENDBRANCH   1   2
BRANCH   1   7
ATOM      7  C   UNL     1       0.724  -1.775   5.239  1.00  0.00     0.000 C 
BRANCH   7   8
ATOM      8  C   UNL     1       1.806  -0.912   5.918  1.00  0.00    -0.000 C 
BRANCH   8   9
ATOM      9  C   UNL     1       3.222  -1.515   5.895  1.00  0.00    -0.003 C 
ATOM     10  C   UNL     1       3.420  -2.524   4.764  1.00  0.00     0.004 C 
ENDBRANCH   8   9
ENDBRANCH   7   8
ENDBRANCH   1   7
TORSDOF 6
ENDMDL
MODEL 6
REMARK VINA RESULT:    -3.584      5.785      7.622
REMARK INTER + INTRA:          -5.017
REMARK INTER:                  -4.786
REMARK INTRA:                  -0.230
REMARK UNBOUND:                -0.175
REMARK SMILES CCCCCCCC(=O)[O-]
REMARK SMILES IDX 5 1 6 2 7 3 8 4 9 5 10 6 4 7 3 8 2 9 1 10
REMARK H PARENT
REMARK Flexibility Score: inf
ROOT
ATOM      1  C   UNL     1      -2.271  -2.832   4.081  1.00  0.00     0.000 C 
ENDROOT
BRANCH   1   2
ATOM      2  C   UNL     1      -1.254  -1.755   4.509  1.00  0.00     0.006 C 
BRANCH   2   3
ATOM      3  C   UNL     1      -0.148  -2.266   5.447  1.00  0.00     0.053 C 
BRANCH   3   4
ATOM      4  C   UNL     1       1.121  -1.486   5.293  1.00  0.00     0.041 C 
ATOM      5  O   UNL     1       1.163  -0.271   5.619  1.00  0.00    -0.550 OA
ATOM      6  O   UNL     1       2.251  -2.094   4.758  1.00  0.00    -0.550 OA
ENDBRANCH   3   4
ENDBRANCH   2   3
ENDBRANCH   1   2
BRANCH   1   7
ATOM      7  C   UNL     1      -3.652  -2.294   3.654  1.00  0.00     0.000 C 
BRANCH   7   8
ATOM      8  C   UNL     1      -4.146  -1.063   4.441  1.00  0.00    -0.000 C 
BRANCH   8   9
ATOM      9  C   UNL     1      -4.677  -1.369   5.853  1.00  0.00    -0.003 C 
ATOM     10  C   UNL     1      -5.538  -0.242   6.420  1.00  0.00     0.004 C 
ENDBRANCH   8   9
ENDBRANCH   7   8
ENDBRANCH   1   7
TORSDOF 6
ENDMDL
MODEL 7
REMARK VINA RESULT:    -3.310      1.855      2.713
REMARK INTER + INTRA:          -4.646
REMARK INTER:                  -4.188
REMARK INTRA:                  -0.459
REMARK UNBOUND:                -0.175
REMARK SMILES CCCCCCCC(=O)[O-]
REMARK SMILES IDX 5 1 6 2 7 3 8 4 9 5 10 6 4 7 3 8 2 9 1 10
REMARK H PARENT
REMARK Flexibility Score: inf
ROOT
ATOM      1  C   UNL     1       1.821   5.397   5.679  1.00  0.00     0.000 C 
ENDROOT
BRANCH   1   2
ATOM      2  C   UNL     1       0.655   5.096   4.716  1.00  0.00     0.006 C 
BRANCH   2   3
ATOM      3  C   UNL     1      -0.708   5.633   5.182  1.00  0.00     0.053 C 
BRANCH   3   4
ATOM      4  C   UNL     1      -0.754   7.130   5.168  1.00  0.00     0.041 C 
ATOM      5  O   UNL     1      -0.801   7.752   4.074  1.00  0.00    -0.550 OA
ATOM      6  O   UNL     1      -0.714   7.840   6.362  1.00  0.00    -0.550 OA
ENDBRANCH   3   4
ENDBRANCH   2   3
ENDBRANCH   1   2
BRANCH   1   7
ATOM      7  C   UNL     1       2.400   4.169   6.409  1.00  0.00     0.000 C 
BRANCH   7   8
ATOM      8  C   UNL     1       1.410   3.006   6.620  1.00  0.00    -0.000 C 
BRANCH   8   9
ATOM      9  C   UNL     1       0.957   2.799   8.076  1.00  0.00    -0.003 C 
ATOM     10  C   UNL     1       0.081   3.939   8.594  1.00  0.00     0.004 C 
ENDBRANCH   8   9
ENDBRANCH   7   8
ENDBRANCH   1   7
TORSDOF 6
ENDMDL
MODEL 8
REMARK VINA RESULT:    -3.267      7.006      8.501
REMARK INTER + INTRA:          -4.588
REMARK INTER:                  -4.197
REMARK INTRA:                  -0.391
REMARK UNBOUND:                -0.175
REMARK SMILES CCCCCCCC(=O)[O-]
REMARK SMILES IDX 5 1 6 2 7 3 8 4 9 5 10 6 4 7 3 8 2 9 1 10
REMARK H PARENT
REMARK Flexibility Score: inf
ROOT
ATOM      1  C   UNL     1      -5.285  -1.795   4.184  1.00  0.00     0.000 C 
ENDROOT
BRANCH   1   2
ATOM      2  C   UNL     1      -3.885  -1.187   3.968  1.00  0.00     0.006 C 
BRANCH   2   3
ATOM      3  C   UNL     1      -2.761  -2.224   3.814  1.00  0.00     0.053 C 
BRANCH   3   4
ATOM      4  C   UNL     1      -1.909  -2.313   5.042  1.00  0.00     0.041 C 
ATOM      5  O   UNL     1      -2.422  -2.625   6.149  1.00  0.00    -0.550 OA
ATOM      6  O   UNL     1      -0.552  -2.021   4.972  1.00  0.00    -0.550 OA
ENDBRANCH   3   4
ENDBRANCH   2   3
ENDBRANCH   1   2
BRANCH   1   7
ATOM      7  C   UNL     1      -5.832  -1.682   5.622  1.00  0.00     0.000 C 
BRANCH   7   8
ATOM      8  C   UNL     1      -5.328  -0.463   6.419  1.00  0.00    -0.000 C 
BRANCH   8   9
ATOM      9  C   UNL     1      -6.436   0.401   7.048  1.00  0.00    -0.003 C 
ATOM     10  C   UNL     1      -7.819  -0.240   6.948  1.00  0.00     0.004 C 
ENDBRANCH   8   9
ENDBRANCH   7   8
ENDBRANCH   1   7
TORSDOF 6
ENDMDL
MODEL 9
REMARK VINA RESULT:    -3.238      8.583     11.043
REMARK INTER + INTRA:          -4.549
REMARK INTER:                  -4.369
REMARK INTRA:                  -0.180
REMARK UNBOUND:                -0.175
REMARK SMILES CCCCCCCC(=O)[O-]
REMARK SMILES IDX 5 1 6 2 7 3 8 4 9 5 10 6 4 7 3 8 2 9 1 10
REMARK H PARENT
REMARK Flexibility Score: inf
ROOT
ATOM      1  C   UNL     1      -2.926  -5.527   0.388  1.00  0.00     0.000 C 
ENDROOT
BRANCH   1   2
ATOM      2  C   UNL     1      -1.868  -4.629  -0.284  1.00  0.00     0.006 C 
BRANCH   2   3
ATOM      3  C   UNL     1      -1.764  -4.803  -1.808  1.00  0.00     0.053 C 
BRANCH   3   4
ATOM      4  C   UNL     1      -0.486  -4.242  -2.350  1.00  0.00     0.041 C 
ATOM      5  O   UNL     1      -0.509  -3.270  -3.151  1.00  0.00    -0.550 OA
ATOM      6  O   UNL     1       0.731  -4.812  -1.997  1.00  0.00    -0.550 OA
ENDBRANCH   3   4
ENDBRANCH   2   3
ENDBRANCH   1   2
BRANCH   1   7
ATOM      7  C   UNL     1      -3.456  -5.012   1.741  1.00  0.00     0.000 C 
BRANCH   7   8
ATOM      8  C   UNL     1      -2.641  -3.864   2.369  1.00  0.00    -0.000 C 
BRANCH   8   9
ATOM      9  C   UNL     1      -3.438  -2.947   3.314  1.00  0.00    -0.003 C 
ATOM     10  C   UNL     1      -2.594  -1.810   3.889  1.00  0.00     0.004 C 
ENDBRANCH   8   9
ENDBRANCH   7   8
ENDBRANCH   1   7
TORSDOF 6
ENDMDL
