MODEL 1
REMARK VINA RESULT:     9.589      0.000      0.000
REMARK INTER + INTRA:           9.589
REMARK INTER:                   9.589
REMARK INTRA:                   0.000
REMARK UNBOUND:                 0.000
REMARK SMILES O=c1ccc2ccccc2o1
REMARK SMILES IDX 7 1 8 2 9 3 10 4 5 5 6 6 4 7 3 8 2 9 1 10 11 11
REMARK H PARENT
REMARK Flexibility Score: inf
ROOT
ATOM      1  C   UNL     1       2.968  80.104  10.124  1.00  0.00     0.001 A 
ATOM      2  C   UNL     1       2.889  78.715   9.982  1.00  0.00     0.004 A 
ATOM      3  C   UNL     1       2.966  78.133   8.712  1.00  0.00     0.048 A 
ATOM      4  C   UNL     1       3.122  78.939   7.580  1.00  0.00     0.138 A 
ATOM      5  C   UNL     1       3.202  80.343   7.723  1.00  0.00     0.018 A 
ATOM      6  C   UNL     1       3.123  80.920   8.998  1.00  0.00     0.012 A 
ATOM      7  C   UNL     1       3.358  81.122   6.574  1.00  0.00     0.019 A 
ATOM      8  C   UNL     1       3.429  80.499   5.328  1.00  0.00     0.094 A 
ATOM      9  C   UNL     1       3.344  79.104   5.262  1.00  0.00     0.336 A 
ATOM     10  O   UNL     1       3.406  78.523   4.147  1.00  0.00    -0.246 OA
ATOM     11  O   UNL     1       3.195  78.385   6.372  1.00  0.00    -0.423 OA
ENDROOT
TORSDOF 0
ENDMDL
