MODEL 1
REMARK VINA RESULT:    -4.790      0.000      0.000
REMARK INTER + INTRA:          -6.053
REMARK INTER:                  -5.910
REMARK INTRA:                  -0.142
REMARK UNBOUND:                -0.142
REMARK SMILES CCCCC=CC(C)=O
REMARK SMILES IDX 4 1 3 2 2 3 1 4 5 5 6 6 7 7 9 8 8 9
REMARK H PARENT
REMARK Flexibility Score: inf
ROOT
ATOM      1  C   UNL     1      13.231  15.083  13.771  1.00  0.00     0.027 C 
ENDROOT
BRANCH   1   2
ATOM      2  C   UNL     1      13.568  13.977  14.779  1.00  0.00     0.004 C 
BRANCH   2   3
ATOM      3  C   UNL     1      14.122  14.572  16.080  1.00  0.00    -0.003 C 
ATOM      4  C   UNL     1      15.530  15.123  15.877  1.00  0.00     0.004 C 
ENDBRANCH   2   3
ENDBRANCH   1   2
BRANCH   1   5
ATOM      5  C   UNL     1      11.824  15.575  13.955  1.00  0.00    -0.023 C 
ATOM      6  C   UNL     1      11.135  16.121  12.947  1.00  0.00     0.042 C 
BRANCH   6   7
ATOM      7  C   UNL     1       9.759  16.623  13.111  1.00  0.00     0.152 C 
ATOM      8  O   UNL     1       8.953  16.051  13.895  1.00  0.00    -0.295 OA
ATOM      9  C   UNL     1       9.312  17.820  12.337  1.00  0.00     0.093 C 
ENDBRANCH   6   7
ENDBRANCH   1   5
TORSDOF 4
ENDMDL
MODEL 2
REMARK VINA RESULT:    -4.760      0.843      1.221
REMARK INTER + INTRA:          -6.016
REMARK INTER:                  -5.823
REMARK INTRA:                  -0.192
REMARK UNBOUND:                -0.142
REMARK SMILES CCCCC=CC(C)=O
REMARK SMILES IDX 4 1 3 2 2 3 1 4 5 5 6 6 7 7 9 8 8 9
REMARK H PARENT
REMARK Flexibility Score: inf
ROOT
ATOM      1  C   UNL     1      13.228  15.096  13.432  1.00  0.00     0.027 C 
ENDROOT
BRANCH   1   2
ATOM      2  C   UNL     1      13.967  14.623  14.690  1.00  0.00     0.004 C 
BRANCH   2   3
ATOM      3  C   UNL     1      12.978  14.280  15.811  1.00  0.00    -0.003 C 
ATOM      4  C   UNL     1      13.140  12.832  16.264  1.00  0.00     0.004 C 
ENDBRANCH   2   3
ENDBRANCH   1   2
BRANCH   1   5
ATOM      5  C   UNL     1      11.842  15.570  13.763  1.00  0.00    -0.023 C 
ATOM      6  C   UNL     1      11.068  16.165  12.847  1.00  0.00     0.042 C 
BRANCH   6   7
ATOM      7  C   UNL     1       9.712  16.650  13.155  1.00  0.00     0.152 C 
ATOM      8  O   UNL     1       8.949  15.996  13.919  1.00  0.00    -0.295 OA
ATOM      9  C   UNL     1       9.230  17.931  12.554  1.00  0.00     0.093 C 
ENDBRANCH   6   7
ENDBRANCH   1   5
TORSDOF 4
ENDMDL
MODEL 3
REMARK VINA RESULT:    -4.693      3.912      6.356
REMARK INTER + INTRA:          -5.933
REMARK INTER:                  -5.658
REMARK INTRA:                  -0.275
REMARK UNBOUND:                -0.142
REMARK SMILES CCCCC=CC(C)=O
REMARK SMILES IDX 4 1 3 2 2 3 1 4 5 5 6 6 7 7 9 8 8 9
REMARK H PARENT
REMARK Flexibility Score: inf
ROOT
ATOM      1  C   UNL     1      14.665  14.694  16.226  1.00  0.00     0.027 C 
ENDROOT
BRANCH   1   2
ATOM      2  C   UNL     1      13.244  14.160  16.005  1.00  0.00     0.004 C 
BRANCH   2   3
ATOM      3  C   UNL     1      12.447  15.088  15.080  1.00  0.00    -0.003 C 
ATOM      4  C   UNL     1      12.945  14.990  13.641  1.00  0.00     0.004 C 
ENDBRANCH   2   3
ENDBRANCH   1   2
BRANCH   1   5
ATOM      5  C   UNL     1      15.695  13.696  15.780  1.00  0.00    -0.023 C 
ATOM      6  C   UNL     1      15.414  12.390  15.697  1.00  0.00     0.042 C 
BRANCH   6   7
ATOM      7  C   UNL     1      16.414  11.393  15.275  1.00  0.00     0.152 C 
ATOM      8  O   UNL     1      16.330  10.193  15.655  1.00  0.00    -0.295 OA
ATOM      9  C   UNL     1      17.544  11.808  14.389  1.00  0.00     0.093 C 
ENDBRANCH   6   7
ENDBRANCH   1   5
TORSDOF 4
ENDMDL
MODEL 4
REMARK VINA RESULT:    -4.657      2.645      5.624
REMARK INTER + INTRA:          -5.889
REMARK INTER:                  -5.790
REMARK INTRA:                  -0.098
REMARK UNBOUND:                -0.142
REMARK SMILES CCCCC=CC(C)=O
REMARK SMILES IDX 4 1 3 2 2 3 1 4 5 5 6 6 7 7 9 8 8 9
REMARK H PARENT
REMARK Flexibility Score: inf
ROOT
ATOM      1  C   UNL     1      12.263  15.238  13.273  1.00  0.00     0.027 C 
ENDROOT
BRANCH   1   2
ATOM      2  C   UNL     1      11.088  16.160  13.620  1.00  0.00     0.004 C 
BRANCH   2   3
ATOM      3  C   UNL     1      10.460  16.749  12.351  1.00  0.00    -0.003 C 
ATOM      4  C   UNL     1       9.322  17.707  12.694  1.00  0.00     0.004 C 
ENDBRANCH   2   3
ENDBRANCH   1   2
BRANCH   1   5
ATOM      5  C   UNL     1      13.144  15.009  14.467  1.00  0.00    -0.023 C 
ATOM      6  C   UNL     1      14.478  14.998  14.362  1.00  0.00     0.042 C 
BRANCH   6   7
ATOM      7  C   UNL     1      15.360  14.761  15.518  1.00  0.00     0.152 C 
ATOM      8  O   UNL     1      16.031  15.704  16.023  1.00  0.00    -0.295 OA
ATOM      9  C   UNL     1      15.465  13.389  16.099  1.00  0.00     0.093 C 
ENDBRANCH   6   7
ENDBRANCH   1   5
TORSDOF 4
ENDMDL
MODEL 5
REMARK VINA RESULT:    -4.611      2.164      5.196
REMARK INTER + INTRA:          -5.832
REMARK INTER:                  -5.676
REMARK INTRA:                  -0.156
REMARK UNBOUND:                -0.142
REMARK SMILES CCCCC=CC(C)=O
REMARK SMILES IDX 4 1 3 2 2 3 1 4 5 5 6 6 7 7 9 8 8 9
REMARK H PARENT
REMARK Flexibility Score: inf
ROOT
ATOM      1  C   UNL     1      12.264  15.351  12.591  1.00  0.00     0.027 C 
ENDROOT
BRANCH   1   2
ATOM      2  C   UNL     1      11.113  16.129  13.242  1.00  0.00     0.004 C 
BRANCH   2   3
ATOM      3  C   UNL     1      10.271  16.851  12.183  1.00  0.00    -0.003 C 
ATOM      4  C   UNL     1       9.236  17.766  12.832  1.00  0.00     0.004 C 
ENDBRANCH   2   3
ENDBRANCH   1   2
BRANCH   1   5
ATOM      5  C   UNL     1      13.311  14.984  13.603  1.00  0.00    -0.023 C 
ATOM      6  C   UNL     1      13.003  14.787  14.890  1.00  0.00     0.042 C 
BRANCH   6   7
ATOM      7  C   UNL     1      14.017  14.440  15.901  1.00  0.00     0.152 C 
ATOM      8  O   UNL     1      13.752  13.629  16.831  1.00  0.00    -0.295 OA
ATOM      9  C   UNL     1      15.376  15.057  15.827  1.00  0.00     0.093 C 
ENDBRANCH   6   7
ENDBRANCH   1   5
TORSDOF 4
ENDMDL
MODEL 6
REMARK VINA RESULT:    -4.342      2.223      3.132
REMARK INTER + INTRA:          -5.500
REMARK INTER:                  -5.287
REMARK INTRA:                  -0.212
REMARK UNBOUND:                -0.142
REMARK SMILES CCCCC=CC(C)=O
REMARK SMILES IDX 4 1 3 2 2 3 1 4 5 5 6 6 7 7 9 8 8 9
REMARK H PARENT
REMARK Flexibility Score: inf
ROOT
ATOM      1  C   UNL     1      13.759  13.576  16.597  1.00  0.00     0.027 C 
ENDROOT
BRANCH   1   2
ATOM      2  C   UNL     1      15.234  13.555  16.174  1.00  0.00     0.004 C 
BRANCH   2   3
ATOM      3  C   UNL     1      15.702  12.123  15.890  1.00  0.00    -0.003 C 
ATOM      4  C   UNL     1      16.825  12.106  14.857  1.00  0.00     0.004 C 
ENDBRANCH   2   3
ENDBRANCH   1   2
BRANCH   1   5
ATOM      5  C   UNL     1      12.904  14.228  15.550  1.00  0.00    -0.023 C 
ATOM      6  C   UNL     1      13.377  14.499  14.328  1.00  0.00     0.042 C 
BRANCH   6   7
ATOM      7  C   UNL     1      12.559  15.151  13.290  1.00  0.00     0.152 C 
ATOM      8  O   UNL     1      11.425  15.631  13.568  1.00  0.00    -0.295 OA
ATOM      9  C   UNL     1      13.074  15.242  11.890  1.00  0.00     0.093 C 
ENDBRANCH   6   7
ENDBRANCH   1   5
TORSDOF 4
ENDMDL
MODEL 7
REMARK VINA RESULT:    -4.286      3.237      4.445
REMARK INTER + INTRA:          -5.431
REMARK INTER:                  -5.306
REMARK INTRA:                  -0.125
REMARK UNBOUND:                -0.142
REMARK SMILES CCCCC=CC(C)=O
REMARK SMILES IDX 4 1 3 2 2 3 1 4 5 5 6 6 7 7 9 8 8 9
REMARK H PARENT
REMARK Flexibility Score: inf
ROOT
ATOM      1  C   UNL     1      15.988  12.634  15.957  1.00  0.00     0.027 C 
ENDROOT
BRANCH   1   2
ATOM      2  C   UNL     1      16.391  11.333  15.252  1.00  0.00     0.004 C 
BRANCH   2   3
ATOM      3  C   UNL     1      17.645  11.539  14.394  1.00  0.00    -0.003 C 
ATOM      4  C   UNL     1      18.528  10.294  14.402  1.00  0.00     0.004 C 
ENDBRANCH   2   3
ENDBRANCH   1   2
BRANCH   1   5
ATOM      5  C   UNL     1      14.600  13.055  15.567  1.00  0.00    -0.023 C 
ATOM      6  C   UNL     1      14.367  14.228  14.967  1.00  0.00     0.042 C 
BRANCH   6   7
ATOM      7  C   UNL     1      13.012  14.666  14.589  1.00  0.00     0.152 C 
ATOM      8  O   UNL     1      12.082  14.699  15.442  1.00  0.00    -0.295 OA
ATOM      9  C   UNL     1      12.733  15.074  13.179  1.00  0.00     0.093 C 
ENDBRANCH   6   7
ENDBRANCH   1   5
TORSDOF 4
ENDMDL
MODEL 8
REMARK VINA RESULT:    -4.270      4.523      6.155
REMARK INTER + INTRA:          -5.411
REMARK INTER:                  -5.264
REMARK INTRA:                  -0.147
REMARK UNBOUND:                -0.142
REMARK SMILES CCCCC=CC(C)=O
REMARK SMILES IDX 4 1 3 2 2 3 1 4 5 5 6 6 7 7 9 8 8 9
REMARK H PARENT
REMARK Flexibility Score: inf
ROOT
ATOM      1  C   UNL     1      16.490  11.091  15.287  1.00  0.00     0.027 C 
ENDROOT
BRANCH   1   2
ATOM      2  C   UNL     1      17.660  11.491  14.379  1.00  0.00     0.004 C 
BRANCH   2   3
ATOM      3  C   UNL     1      18.586  10.296  14.120  1.00  0.00    -0.003 C 
ATOM      4  C   UNL     1      18.810  10.089  12.625  1.00  0.00     0.004 C 
ENDBRANCH   2   3
ENDBRANCH   1   2
BRANCH   1   5
ATOM      5  C   UNL     1      15.806  12.302  15.855  1.00  0.00    -0.023 C 
ATOM      6  C   UNL     1      15.850  13.487  15.235  1.00  0.00     0.042 C 
BRANCH   6   7
ATOM      7  C   UNL     1      15.198  14.689  15.783  1.00  0.00     0.152 C 
ATOM      8  O   UNL     1      15.876  15.707  16.094  1.00  0.00    -0.295 OA
ATOM      9  C   UNL     1      13.716  14.704  15.975  1.00  0.00     0.093 C 
ENDBRANCH   6   7
ENDBRANCH   1   5
TORSDOF 4
ENDMDL
MODEL 9
REMARK VINA RESULT:    -4.087      5.387      7.628
REMARK INTER + INTRA:          -5.185
REMARK INTER:                  -5.093
REMARK INTRA:                  -0.092
REMARK UNBOUND:                -0.142
REMARK SMILES CCCCC=CC(C)=O
REMARK SMILES IDX 4 1 3 2 2 3 1 4 5 5 6 6 7 7 9 8 8 9
REMARK H PARENT
REMARK Flexibility Score: inf
ROOT
ATOM      1  C   UNL     1      15.863  12.682  15.869  1.00  0.00     0.027 C 
ENDROOT
BRANCH   1   2
ATOM      2  C   UNL     1      14.353  12.696  15.598  1.00  0.00     0.004 C 
BRANCH   2   3
ATOM      3  C   UNL     1      13.642  13.703  16.511  1.00  0.00    -0.003 C 
ATOM      4  C   UNL     1      12.781  14.668  15.700  1.00  0.00     0.004 C 
ENDBRANCH   2   3
ENDBRANCH   1   2
BRANCH   1   5
ATOM      5  C   UNL     1      16.527  11.524  15.182  1.00  0.00    -0.023 C 
ATOM      6  C   UNL     1      17.704  11.659  14.560  1.00  0.00     0.042 C 
BRANCH   6   7
ATOM      7  C   UNL     1      18.365  10.538  13.868  1.00  0.00     0.152 C 
ATOM      8  O   UNL     1      19.068   9.709  14.508  1.00  0.00    -0.295 OA
ATOM      9  C   UNL     1      18.204  10.382  12.391  1.00  0.00     0.093 C 
ENDBRANCH   6   7
ENDBRANCH   1   5
TORSDOF 4
ENDMDL
