MODEL 1
REMARK VINA RESULT:    99.437      0.000      0.000
REMARK INTER + INTRA:         107.998
REMARK INTER:                 108.156
REMARK INTRA:                  -0.159
REMARK UNBOUND:                -0.159
REMARK SMILES C[C@H]1[C@H](C)CC[C@]2(C(=O)[O-])CC[C@]3(C)C(=CC[C@H]4[C@]5(C)CC[C@@H](O)C(C)(C)[C@@H]5CC[C@@]43C)[C@H]12
REMARK SMILES IDX 7 1 6 2 11 3 33 4 5 5 12 6 15 7 2 8 3 9 13 10 16 11 1 12
REMARK SMILES IDX 4 13 14 14 31 15 17 16 18 17 30 18 32 19 19 20 29 21 28 22
REMARK SMILES IDX 21 23 20 24 25 25 22 26 23 27 26 28 27 29 8 30 9 31 10 32
REMARK SMILES IDX 24 33
REMARK H PARENT 24 34
REMARK Flexibility Score: inf
ROOT
ATOM      1  C   UNL     1       4.464  -5.000 -13.598  1.00  0.00     0.017 C 
ATOM      2  C   UNL     1       5.240  -3.782 -12.994  1.00  0.00     0.014 C 
ATOM      3  C   UNL     1       4.011  -5.908 -12.416  1.00  0.00     0.014 C 
ATOM      4  C   UNL     1       5.368  -5.810 -14.601  1.00  0.00     0.030 C 
ATOM      5  C   UNL     1       6.370  -3.290 -13.902  1.00  0.00     0.004 C 
ATOM      6  C   UNL     1       3.354  -7.234 -12.857  1.00  0.00     0.013 C 
ATOM      7  C   UNL     1       4.739  -7.177 -14.933  1.00  0.00    -0.063 C 
ATOM      8  C   UNL     1       6.868  -5.833 -14.185  1.00  0.00    -0.003 C 
ATOM      9  C   UNL     1       7.453  -4.379 -14.112  1.00  0.00    -0.011 C 
ATOM     10  C   UNL     1       4.239  -8.113 -13.803  1.00  0.00    -0.006 C 
ATOM     11  C   UNL     1       4.407  -7.380 -16.232  1.00  0.00    -0.027 C 
ATOM     12  C   UNL     1       7.707  -6.681 -15.161  1.00  0.00     0.008 C 
ATOM     13  C   UNL     1       8.540  -4.279 -13.028  1.00  0.00     0.008 C 
ATOM     14  C   UNL     1       5.450  -8.639 -12.962  1.00  0.00     0.017 C 
ATOM     15  C   UNL     1       3.429  -9.380 -14.408  1.00  0.00    -0.020 C 
ATOM     16  C   UNL     1       3.397  -8.381 -16.719  1.00  0.00     0.032 C 
ATOM     17  C   UNL     1       2.495  -8.914 -15.574  1.00  0.00     0.006 C 
ATOM     18  C   UNL     1       2.518 -10.017 -13.336  1.00  0.00     0.008 C 
ATOM     19  C   UNL     1       4.455 -10.451 -14.927  1.00  0.00     0.012 C 
ATOM     20  C   UNL     1       1.270  -9.902 -15.988  1.00  0.00    -0.025 C 
ATOM     21  C   UNL     1       1.772 -11.267 -13.798  1.00  0.00     0.005 C 
ATOM     22  C   UNL     1       1.339 -11.339 -15.301  1.00  0.00     0.003 C 
ATOM     23  C   UNL     1      -0.068  -9.230 -15.541  1.00  0.00     0.010 C 
ATOM     24  C   UNL     1       1.241 -10.044 -17.540  1.00  0.00     0.012 C 
ATOM     25  C   UNL     1       0.035 -12.258 -15.465  1.00  0.00    -0.006 C 
ATOM     26  C   UNL     1      -1.324 -10.085 -15.765  1.00  0.00     0.033 C 
ATOM     27  C   UNL     1      -1.239 -11.448 -15.060  1.00  0.00     0.120 C 
ATOM     28  C   UNL     1       0.135 -13.518 -14.545  1.00  0.00     0.014 C 
ATOM     29  C   UNL     1      -0.109 -12.831 -16.915  1.00  0.00     0.014 C 
ENDROOT
BRANCH   1  30
ATOM     30  C   UNL     1       3.241  -4.456 -14.339  1.00  0.00     0.048 C 
ATOM     31  O   UNL     1       3.277  -4.245 -15.581  1.00  0.00    -0.550 OA
ATOM     32  O   UNL     1       2.030  -4.286 -13.676  1.00  0.00    -0.550 OA
ENDBRANCH   1  30
BRANCH  27  33
ATOM     33  O   UNL     1      -2.408 -12.175 -15.354  1.00  0.00    -0.393 OA
ATOM     34  H   UNL     1      -3.149 -11.766 -14.836  1.00  0.00     0.210 HD
ENDBRANCH  27  33
TORSDOF 2
ENDMDL
