MODEL 1
REMARK VINA RESULT:    -5.540      0.000      0.000
REMARK INTER + INTRA:          -5.634
REMARK INTER:                  -6.026
REMARK INTRA:                   0.391
REMARK UNBOUND:                 0.391
REMARK SMILES C[C@H]1[C@H](C)CC[C@@]2(C(=O)[O-])CC[C@]3(C)C(=CC[C@H]4[C@]5(C)CC[C@@H](O)C(C)(C)[C@@H]5CC[C@]43C)[C@H]12
REMARK SMILES IDX 7 1 6 2 11 3 33 4 5 5 12 6 15 7 2 8 3 9 13 10 16 11 1 12
REMARK SMILES IDX 4 13 14 14 31 15 17 16 18 17 30 18 32 19 19 20 29 21 28 22
REMARK SMILES IDX 21 23 20 24 25 25 22 26 23 27 26 28 27 29 8 30 9 31 10 32
REMARK SMILES IDX 24 33
REMARK H PARENT 24 34
REMARK Flexibility Score: inf
ROOT
ATOM      1  C   UNL     1      94.560  86.811 100.365  1.00  0.00     0.017 C 
ATOM      2  C   UNL     1      95.154  85.643 101.192  1.00  0.00     0.014 C 
ATOM      3  C   UNL     1      94.801  86.607  98.844  1.00  0.00     0.014 C 
ATOM      4  C   UNL     1      93.004  86.746 100.566  1.00  0.00     0.030 C 
ATOM      5  C   UNL     1      94.794  85.790 102.688  1.00  0.00     0.004 C 
ATOM      6  C   UNL     1      94.182  87.743  97.965  1.00  0.00     0.013 C 
ATOM      7  C   UNL     1      92.187  87.383  99.413  1.00  0.00    -0.063 C 
ATOM      8  C   UNL     1      92.555  86.985 102.038  1.00  0.00    -0.003 C 
ATOM      9  C   UNL     1      93.268  85.932 102.961  1.00  0.00    -0.011 C 
ATOM     10  C   UNL     1      92.840  88.419  98.494  1.00  0.00    -0.006 C 
ATOM     11  C   UNL     1      91.130  86.666  98.989  1.00  0.00    -0.027 C 
ATOM     12  C   UNL     1      91.023  86.890 102.193  1.00  0.00     0.008 C 
ATOM     13  C   UNL     1      93.055  86.240 104.453  1.00  0.00     0.008 C 
ATOM     14  C   UNL     1      93.201  89.683  99.360  1.00  0.00     0.017 C 
ATOM     15  C   UNL     1      91.884  88.886  97.263  1.00  0.00    -0.020 C 
ATOM     16  C   UNL     1      90.489  86.765  97.651  1.00  0.00     0.032 C 
ATOM     17  C   UNL     1      91.204  87.637  96.567  1.00  0.00     0.006 C 
ATOM     18  C   UNL     1      90.692  89.790  97.726  1.00  0.00     0.008 C 
ATOM     19  C   UNL     1      92.804  89.697  96.286  1.00  0.00     0.012 C 
ATOM     20  C   UNL     1      90.167  87.934  95.368  1.00  0.00    -0.025 C 
ATOM     21  C   UNL     1      89.704  90.166  96.603  1.00  0.00     0.005 C 
ATOM     22  C   UNL     1      89.063  88.977  95.827  1.00  0.00     0.003 C 
ATOM     23  C   UNL     1      90.878  88.451  94.075  1.00  0.00     0.010 C 
ATOM     24  C   UNL     1      89.524  86.555  94.985  1.00  0.00     0.012 C 
ATOM     25  C   UNL     1      88.096  89.485  94.659  1.00  0.00    -0.006 C 
ATOM     26  C   UNL     1      89.924  88.862  92.942  1.00  0.00     0.033 C 
ATOM     27  C   UNL     1      88.916  89.925  93.407  1.00  0.00     0.120 C 
ATOM     28  C   UNL     1      87.047  88.397  94.279  1.00  0.00     0.014 C 
ATOM     29  C   UNL     1      87.256  90.711  95.129  1.00  0.00     0.014 C 
ENDROOT
BRANCH   1  30
ATOM     30  C   UNL     1      95.313  88.065 100.819  1.00  0.00     0.048 C 
ATOM     31  O   UNL     1      96.434  88.339 100.309  1.00  0.00    -0.550 OA
ATOM     32  O   UNL     1      94.865  88.869 101.859  1.00  0.00    -0.550 OA
ENDBRANCH   1  30
BRANCH  27  33
ATOM     33  O   UNL     1      88.047  90.236  92.344  1.00  0.00    -0.393 OA
ATOM     34  H   UNL     1      87.609  89.390  92.068  1.00  0.00     0.210 HD
ENDBRANCH  27  33
TORSDOF 2
ENDMDL
MODEL 2
REMARK VINA RESULT:    -5.465      1.895      8.383
REMARK INTER + INTRA:          -5.553
REMARK INTER:                  -5.941
REMARK INTRA:                   0.388
REMARK UNBOUND:                 0.391
REMARK SMILES C[C@H]1[C@H](C)CC[C@@]2(C(=O)[O-])CC[C@]3(C)C(=CC[C@H]4[C@]5(C)CC[C@@H](O)C(C)(C)[C@@H]5CC[C@]43C)[C@H]12
REMARK SMILES IDX 7 1 6 2 11 3 33 4 5 5 12 6 15 7 2 8 3 9 13 10 16 11 1 12
REMARK SMILES IDX 4 13 14 14 31 15 17 16 18 17 30 18 32 19 19 20 29 21 28 22
REMARK SMILES IDX 21 23 20 24 25 25 22 26 23 27 26 28 27 29 8 30 9 31 10 32
REMARK SMILES IDX 24 33
REMARK H PARENT 24 34
REMARK Flexibility Score: inf
ROOT
ATOM      1  C   UNL     1      89.561  88.788  92.583  1.00  0.00     0.017 C 
ATOM      2  C   UNL     1      88.205  88.837  91.835  1.00  0.00     0.014 C 
ATOM      3  C   UNL     1      89.666  89.920  93.641  1.00  0.00     0.014 C 
ATOM      4  C   UNL     1      89.569  87.441  93.392  1.00  0.00     0.030 C 
ATOM      5  C   UNL     1      88.058  87.630  90.882  1.00  0.00     0.004 C 
ATOM      6  C   UNL     1      91.004  89.884  94.450  1.00  0.00     0.013 C 
ATOM      7  C   UNL     1      90.492  87.453  94.637  1.00  0.00    -0.063 C 
ATOM      8  C   UNL     1      89.522  86.172  92.492  1.00  0.00    -0.003 C 
ATOM      9  C   UNL     1      88.249  86.249  91.574  1.00  0.00    -0.011 C 
ATOM     10  C   UNL     1      91.649  88.454  94.722  1.00  0.00    -0.006 C 
ATOM     11  C   UNL     1      89.960  86.931  95.757  1.00  0.00    -0.027 C 
ATOM     12  C   UNL     1      89.509  84.876  93.327  1.00  0.00     0.008 C 
ATOM     13  C   UNL     1      88.250  85.149  90.499  1.00  0.00     0.008 C 
ATOM     14  C   UNL     1      92.671  88.117  93.574  1.00  0.00     0.017 C 
ATOM     15  C   UNL     1      92.434  88.415  96.147  1.00  0.00    -0.020 C 
ATOM     16  C   UNL     1      90.385  87.234  97.149  1.00  0.00     0.032 C 
ATOM     17  C   UNL     1      91.413  88.395  97.356  1.00  0.00     0.006 C 
ATOM     18  C   UNL     1      93.303  87.126  96.329  1.00  0.00     0.008 C 
ATOM     19  C   UNL     1      93.363  89.678  96.161  1.00  0.00     0.012 C 
ATOM     20  C   UNL     1      92.030  88.286  98.843  1.00  0.00    -0.025 C 
ATOM     21  C   UNL     1      93.979  87.004  97.710  1.00  0.00     0.005 C 
ATOM     22  C   UNL     1      93.030  87.059  98.945  1.00  0.00     0.003 C 
ATOM     23  C   UNL     1      92.756  89.598  99.287  1.00  0.00     0.010 C 
ATOM     24  C   UNL     1      90.814  88.113  99.818  1.00  0.00     0.012 C 
ATOM     25  C   UNL     1      93.843  86.971 100.319  1.00  0.00    -0.006 C 
ATOM     26  C   UNL     1      93.465  89.506 100.647  1.00  0.00     0.033 C 
ATOM     27  C   UNL     1      94.476  88.349 100.683  1.00  0.00     0.120 C 
ATOM     28  C   UNL     1      92.938  86.455 101.480  1.00  0.00     0.014 C 
ATOM     29  C   UNL     1      94.999  85.931 100.214  1.00  0.00     0.014 C 
ENDROOT
BRANCH   1  30
ATOM     30  C   UNL     1      90.633  89.013  91.512  1.00  0.00     0.048 C 
ATOM     31  O   UNL     1      90.893  90.185  91.126  1.00  0.00    -0.550 OA
ATOM     32  O   UNL     1      91.265  87.964  90.857  1.00  0.00    -0.550 OA
ENDBRANCH   1  30
BRANCH  27  33
ATOM     33  O   UNL     1      95.068  88.289 101.959  1.00  0.00    -0.393 OA
ATOM     34  H   UNL     1      95.781  87.600 101.917  1.00  0.00     0.210 HD
ENDBRANCH  27  33
TORSDOF 2
ENDMDL
MODEL 3
REMARK VINA RESULT:    -5.464      5.523      8.223
REMARK INTER + INTRA:          -5.552
REMARK INTER:                  -5.956
REMARK INTRA:                   0.404
REMARK UNBOUND:                 0.391
REMARK SMILES C[C@H]1[C@H](C)CC[C@@]2(C(=O)[O-])CC[C@]3(C)C(=CC[C@H]4[C@]5(C)CC[C@@H](O)C(C)(C)[C@@H]5CC[C@]43C)[C@H]12
REMARK SMILES IDX 7 1 6 2 11 3 33 4 5 5 12 6 15 7 2 8 3 9 13 10 16 11 1 12
REMARK SMILES IDX 4 13 14 14 31 15 17 16 18 17 30 18 32 19 19 20 29 21 28 22
REMARK SMILES IDX 21 23 20 24 25 25 22 26 23 27 26 28 27 29 8 30 9 31 10 32
REMARK SMILES IDX 24 33
REMARK H PARENT 24 34
REMARK Flexibility Score: inf
ROOT
ATOM      1  C   UNL     1      90.674  87.990  93.058  1.00  0.00     0.017 C 
ATOM      2  C   UNL     1      91.411  87.200  91.948  1.00  0.00     0.014 C 
ATOM      3  C   UNL     1      91.517  89.199  93.548  1.00  0.00     0.014 C 
ATOM      4  C   UNL     1      89.392  88.602  92.387  1.00  0.00     0.030 C 
ATOM      5  C   UNL     1      90.509  86.082  91.377  1.00  0.00     0.004 C 
ATOM      6  C   UNL     1      90.794  90.050  94.643  1.00  0.00     0.013 C 
ATOM      7  C   UNL     1      88.853  89.874  93.090  1.00  0.00    -0.063 C 
ATOM      8  C   UNL     1      88.385  87.533  91.873  1.00  0.00    -0.003 C 
ATOM      9  C   UNL     1      89.127  86.582  90.866  1.00  0.00    -0.011 C 
ATOM     10  C   UNL     1      89.207  90.146  94.555  1.00  0.00    -0.006 C 
ATOM     11  C   UNL     1      88.513  90.887  92.272  1.00  0.00    -0.027 C 
ATOM     12  C   UNL     1      87.155  88.177  91.203  1.00  0.00     0.008 C 
ATOM     13  C   UNL     1      88.266  85.365  90.486  1.00  0.00     0.008 C 
ATOM     14  C   UNL     1      88.567  89.006  95.432  1.00  0.00     0.017 C 
ATOM     15  C   UNL     1      88.666  91.584  95.095  1.00  0.00    -0.020 C 
ATOM     16  C   UNL     1      88.441  92.324  92.646  1.00  0.00     0.032 C 
ATOM     17  C   UNL     1      88.983  92.735  94.055  1.00  0.00     0.006 C 
ATOM     18  C   UNL     1      87.112  91.621  95.280  1.00  0.00     0.008 C 
ATOM     19  C   UNL     1      89.362  91.813  96.481  1.00  0.00     0.012 C 
ATOM     20  C   UNL     1      88.449  94.216  94.408  1.00  0.00    -0.025 C 
ATOM     21  C   UNL     1      86.552  92.998  95.688  1.00  0.00     0.005 C 
ATOM     22  C   UNL     1      86.899  94.188  94.744  1.00  0.00     0.003 C 
ATOM     23  C   UNL     1      89.235  94.869  95.591  1.00  0.00     0.010 C 
ATOM     24  C   UNL     1      88.743  95.105  93.150  1.00  0.00     0.012 C 
ATOM     25  C   UNL     1      86.308  95.569  95.291  1.00  0.00    -0.006 C 
ATOM     26  C   UNL     1      88.689  96.231  96.045  1.00  0.00     0.033 C 
ATOM     27  C   UNL     1      87.203  96.148  96.430  1.00  0.00     0.120 C 
ATOM     28  C   UNL     1      86.137  96.607  94.140  1.00  0.00     0.014 C 
ATOM     29  C   UNL     1      84.875  95.368  95.870  1.00  0.00     0.014 C 
ENDROOT
BRANCH   1  30
ATOM     30  C   UNL     1      90.501  87.006  94.220  1.00  0.00     0.048 C 
ATOM     31  O   UNL     1      91.425  86.876  95.069  1.00  0.00    -0.550 OA
ATOM     32  O   UNL     1      89.406  86.159  94.324  1.00  0.00    -0.550 OA
ENDBRANCH   1  30
BRANCH  27  33
ATOM     33  O   UNL     1      86.747  97.426  96.802  1.00  0.00    -0.393 OA
ATOM     34  H   UNL     1      86.269  97.325  97.666  1.00  0.00     0.210 HD
ENDBRANCH  27  33
TORSDOF 2
ENDMDL
MODEL 4
REMARK VINA RESULT:    -5.311      5.842      9.701
REMARK INTER + INTRA:          -5.386
REMARK INTER:                  -5.785
REMARK INTRA:                   0.399
REMARK UNBOUND:                 0.391
REMARK SMILES C[C@H]1[C@H](C)CC[C@@]2(C(=O)[O-])CC[C@]3(C)C(=CC[C@H]4[C@]5(C)CC[C@@H](O)C(C)(C)[C@@H]5CC[C@]43C)[C@H]12
REMARK SMILES IDX 7 1 6 2 11 3 33 4 5 5 12 6 15 7 2 8 3 9 13 10 16 11 1 12
REMARK SMILES IDX 4 13 14 14 31 15 17 16 18 17 30 18 32 19 19 20 29 21 28 22
REMARK SMILES IDX 21 23 20 24 25 25 22 26 23 27 26 28 27 29 8 30 9 31 10 32
REMARK SMILES IDX 24 33
REMARK H PARENT 24 34
REMARK Flexibility Score: inf
ROOT
ATOM      1  C   UNL     1      89.432  88.534  93.336  1.00  0.00     0.017 C 
ATOM      2  C   UNL     1      90.522  88.271  94.404  1.00  0.00     0.014 C 
ATOM      3  C   UNL     1      88.709  89.887  93.584  1.00  0.00     0.014 C 
ATOM      4  C   UNL     1      90.185  88.694  91.967  1.00  0.00     0.030 C 
ATOM      5  C   UNL     1      91.321  86.991  94.071  1.00  0.00     0.004 C 
ATOM      6  C   UNL     1      87.625  90.213  92.505  1.00  0.00     0.013 C 
ATOM      7  C   UNL     1      89.418  89.534  90.914  1.00  0.00    -0.063 C 
ATOM      8  C   UNL     1      90.936  87.408  91.514  1.00  0.00    -0.003 C 
ATOM      9  C   UNL     1      91.943  86.986  92.644  1.00  0.00    -0.011 C 
ATOM     10  C   UNL     1      87.899  89.696  91.024  1.00  0.00    -0.006 C 
ATOM     11  C   UNL     1      90.154  90.446  90.253  1.00  0.00    -0.027 C 
ATOM     12  C   UNL     1      91.680  87.618  90.179  1.00  0.00     0.008 C 
ATOM     13  C   UNL     1      92.560  85.602  92.375  1.00  0.00     0.008 C 
ATOM     14  C   UNL     1      87.241  88.279  90.837  1.00  0.00     0.017 C 
ATOM     15  C   UNL     1      87.275  90.711  89.914  1.00  0.00    -0.020 C 
ATOM     16  C   UNL     1      89.635  91.668  89.583  1.00  0.00     0.032 C 
ATOM     17  C   UNL     1      88.132  92.037  89.813  1.00  0.00     0.006 C 
ATOM     18  C   UNL     1      87.283  90.112  88.468  1.00  0.00     0.008 C 
ATOM     19  C   UNL     1      85.796  90.979  90.359  1.00  0.00     0.012 C 
ATOM     20  C   UNL     1      87.687  93.122  88.705  1.00  0.00    -0.025 C 
ATOM     21  C   UNL     1      86.797  91.084  87.374  1.00  0.00     0.005 C 
ATOM     22  C   UNL     1      87.552  92.443  87.278  1.00  0.00     0.003 C 
ATOM     23  C   UNL     1      86.350  93.842  89.077  1.00  0.00     0.010 C 
ATOM     24  C   UNL     1      88.792  94.236  88.705  1.00  0.00     0.012 C 
ATOM     25  C   UNL     1      86.934  93.385  86.144  1.00  0.00    -0.006 C 
ATOM     26  C   UNL     1      85.819  94.799  87.998  1.00  0.00     0.033 C 
ATOM     27  C   UNL     1      85.635  94.087  86.648  1.00  0.00     0.120 C 
ATOM     28  C   UNL     1      87.974  94.437  85.652  1.00  0.00     0.014 C 
ATOM     29  C   UNL     1      86.564  92.558  84.877  1.00  0.00     0.014 C 
ENDROOT
BRANCH   1  30
ATOM     30  C   UNL     1      88.416  87.397  93.492  1.00  0.00     0.048 C 
ATOM     31  O   UNL     1      87.497  87.495  94.350  1.00  0.00    -0.550 OA
ATOM     32  O   UNL     1      88.527  86.198  92.799  1.00  0.00    -0.550 OA
ENDBRANCH   1  30
BRANCH  27  33
ATOM     33  O   UNL     1      85.183  95.015  85.691  1.00  0.00    -0.393 OA
ATOM     34  H   UNL     1      84.505  94.551  85.134  1.00  0.00     0.210 HD
ENDBRANCH  27  33
TORSDOF 2
ENDMDL
MODEL 5
REMARK VINA RESULT:    -5.306      6.485      8.652
REMARK INTER + INTRA:          -5.380
REMARK INTER:                  -5.771
REMARK INTRA:                   0.391
REMARK UNBOUND:                 0.391
REMARK SMILES C[C@H]1[C@H](C)CC[C@@]2(C(=O)[O-])CC[C@]3(C)C(=CC[C@H]4[C@]5(C)CC[C@@H](O)C(C)(C)[C@@H]5CC[C@]43C)[C@H]12
REMARK SMILES IDX 7 1 6 2 11 3 33 4 5 5 12 6 15 7 2 8 3 9 13 10 16 11 1 12
REMARK SMILES IDX 4 13 14 14 31 15 17 16 18 17 30 18 32 19 19 20 29 21 28 22
REMARK SMILES IDX 21 23 20 24 25 25 22 26 23 27 26 28 27 29 8 30 9 31 10 32
REMARK SMILES IDX 24 33
REMARK H PARENT 24 34
REMARK Flexibility Score: inf
ROOT
ATOM      1  C   UNL     1      87.215  94.810  94.988  1.00  0.00     0.017 C 
ATOM      2  C   UNL     1      87.700  96.255  95.268  1.00  0.00     0.014 C 
ATOM      3  C   UNL     1      87.354  94.447  93.484  1.00  0.00     0.014 C 
ATOM      4  C   UNL     1      88.202  93.858  95.753  1.00  0.00     0.030 C 
ATOM      5  C   UNL     1      87.681  96.557  96.784  1.00  0.00     0.004 C 
ATOM      6  C   UNL     1      86.913  92.982  93.161  1.00  0.00     0.013 C 
ATOM      7  C   UNL     1      88.298  92.430  95.157  1.00  0.00    -0.063 C 
ATOM      8  C   UNL     1      88.169  94.035  97.300  1.00  0.00    -0.003 C 
ATOM      9  C   UNL     1      88.482  95.537  97.643  1.00  0.00    -0.011 C 
ATOM     10  C   UNL     1      87.160  91.886  94.290  1.00  0.00    -0.006 C 
ATOM     11  C   UNL     1      89.544  91.938  95.033  1.00  0.00    -0.027 C 
ATOM     12  C   UNL     1      89.168  93.098  98.007  1.00  0.00     0.008 C 
ATOM     13  C   UNL     1      88.247  95.845  99.132  1.00  0.00     0.008 C 
ATOM     14  C   UNL     1      85.874  91.766  95.189  1.00  0.00     0.017 C 
ATOM     15  C   UNL     1      87.481  90.427  93.642  1.00  0.00    -0.020 C 
ATOM     16  C   UNL     1      89.970  90.867  94.094  1.00  0.00     0.032 C 
ATOM     17  C   UNL     1      88.936  90.390  93.021  1.00  0.00     0.006 C 
ATOM     18  C   UNL     1      87.462  89.273  94.700  1.00  0.00     0.008 C 
ATOM     19  C   UNL     1      86.360  90.174  92.575  1.00  0.00     0.012 C 
ATOM     20  C   UNL     1      89.438  88.989  92.399  1.00  0.00    -0.025 C 
ATOM     21  C   UNL     1      87.865  87.893  94.144  1.00  0.00     0.005 C 
ATOM     22  C   UNL     1      89.257  87.813  93.448  1.00  0.00     0.003 C 
ATOM     23  C   UNL     1      88.703  88.628  91.067  1.00  0.00     0.010 C 
ATOM     24  C   UNL     1      90.947  89.187  92.020  1.00  0.00     0.012 C 
ATOM     25  C   UNL     1      89.546  86.351  92.870  1.00  0.00    -0.006 C 
ATOM     26  C   UNL     1      89.058  87.247  90.496  1.00  0.00     0.033 C 
ATOM     27  C   UNL     1      88.802  86.127  91.517  1.00  0.00     0.120 C 
ATOM     28  C   UNL     1      91.077  86.098  92.707  1.00  0.00     0.014 C 
ATOM     29  C   UNL     1      89.059  85.255  93.865  1.00  0.00     0.014 C 
ENDROOT
BRANCH   1  30
ATOM     30  C   UNL     1      85.730  94.792  95.365  1.00  0.00     0.048 C 
ATOM     31  O   UNL     1      84.875  95.240  94.552  1.00  0.00    -0.550 OA
ATOM     32  O   UNL     1      85.283  94.401  96.620  1.00  0.00    -0.550 OA
ENDBRANCH   1  30
BRANCH  27  33
ATOM     33  O   UNL     1      89.178  84.892  90.956  1.00  0.00    -0.393 OA
ATOM     34  H   UNL     1      89.211  84.233  91.698  1.00  0.00     0.210 HD
ENDBRANCH  27  33
TORSDOF 2
ENDMDL
MODEL 6
REMARK VINA RESULT:    -5.298      2.076      9.019
REMARK INTER + INTRA:          -5.371
REMARK INTER:                  -5.761
REMARK INTRA:                   0.390
REMARK UNBOUND:                 0.391
REMARK SMILES C[C@H]1[C@H](C)CC[C@@]2(C(=O)[O-])CC[C@]3(C)C(=CC[C@H]4[C@]5(C)CC[C@@H](O)C(C)(C)[C@@H]5CC[C@]43C)[C@H]12
REMARK SMILES IDX 7 1 6 2 11 3 33 4 5 5 12 6 15 7 2 8 3 9 13 10 16 11 1 12
REMARK SMILES IDX 4 13 14 14 31 15 17 16 18 17 30 18 32 19 19 20 29 21 28 22
REMARK SMILES IDX 21 23 20 24 25 25 22 26 23 27 26 28 27 29 8 30 9 31 10 32
REMARK SMILES IDX 24 33
REMARK H PARENT 24 34
REMARK Flexibility Score: inf
ROOT
ATOM      1  C   UNL     1      86.827  90.907  93.419  1.00  0.00     0.017 C 
ATOM      2  C   UNL     1      85.424  90.661  92.810  1.00  0.00     0.014 C 
ATOM      3  C   UNL     1      86.774  90.943  94.971  1.00  0.00     0.014 C 
ATOM      4  C   UNL     1      87.695  89.653  93.047  1.00  0.00     0.030 C 
ATOM      5  C   UNL     1      85.511  90.497  91.276  1.00  0.00     0.004 C 
ATOM      6  C   UNL     1      88.176  91.149  95.631  1.00  0.00     0.013 C 
ATOM      7  C   UNL     1      88.878  89.388  94.013  1.00  0.00    -0.063 C 
ATOM      8  C   UNL     1      87.911  89.475  91.515  1.00  0.00    -0.003 C 
ATOM      9  C   UNL     1      86.508  89.395  90.813  1.00  0.00    -0.011 C 
ATOM     10  C   UNL     1      89.432  90.528  94.873  1.00  0.00    -0.006 C 
ATOM     11  C   UNL     1      89.039  88.108  94.394  1.00  0.00    -0.027 C 
ATOM     12  C   UNL     1      88.748  88.220  91.195  1.00  0.00     0.008 C 
ATOM     13  C   UNL     1      86.630  89.446  89.280  1.00  0.00     0.008 C 
ATOM     14  C   UNL     1      90.048  91.612  93.911  1.00  0.00     0.017 C 
ATOM     15  C   UNL     1      90.582  90.048  95.921  1.00  0.00    -0.020 C 
ATOM     16  C   UNL     1      89.728  87.644  95.628  1.00  0.00     0.032 C 
ATOM     17  C   UNL     1      90.145  88.728  96.676  1.00  0.00     0.006 C 
ATOM     18  C   UNL     1      91.933  89.685  95.219  1.00  0.00     0.008 C 
ATOM     19  C   UNL     1      90.808  91.256  96.895  1.00  0.00     0.012 C 
ATOM     20  C   UNL     1      91.207  88.078  97.703  1.00  0.00    -0.025 C 
ATOM     21  C   UNL     1      93.013  89.126  96.167  1.00  0.00     0.005 C 
ATOM     22  C   UNL     1      92.613  87.871  96.999  1.00  0.00     0.003 C 
ATOM     23  C   UNL     1      91.385  88.934  98.999  1.00  0.00     0.010 C 
ATOM     24  C   UNL     1      90.595  86.711  98.169  1.00  0.00     0.012 C 
ATOM     25  C   UNL     1      93.790  87.410  97.977  1.00  0.00    -0.006 C 
ATOM     26  C   UNL     1      92.473  88.423  99.957  1.00  0.00     0.033 C 
ATOM     27  C   UNL     1      93.836  88.303  99.256  1.00  0.00     0.120 C 
ATOM     28  C   UNL     1      93.651  85.904  98.360  1.00  0.00     0.014 C 
ATOM     29  C   UNL     1      95.174  87.522  97.271  1.00  0.00     0.014 C 
ENDROOT
BRANCH   1  30
ATOM     30  C   UNL     1      87.264  92.285  92.910  1.00  0.00     0.048 C 
ATOM     31  O   UNL     1      86.810  93.326  93.460  1.00  0.00    -0.550 OA
ATOM     32  O   UNL     1      88.061  92.446  91.784  1.00  0.00    -0.550 OA
ENDBRANCH   1  30
BRANCH  27  33
ATOM     33  O   UNL     1      94.783  87.798 100.166  1.00  0.00    -0.393 OA
ATOM     34  H   UNL     1      95.411  87.230  99.647  1.00  0.00     0.210 HD
ENDBRANCH  27  33
TORSDOF 2
ENDMDL
MODEL 7
REMARK VINA RESULT:    -5.198      6.131      9.631
REMARK INTER + INTRA:          -5.263
REMARK INTER:                  -5.666
REMARK INTRA:                   0.403
REMARK UNBOUND:                 0.391
REMARK SMILES C[C@H]1[C@H](C)CC[C@@]2(C(=O)[O-])CC[C@]3(C)C(=CC[C@H]4[C@]5(C)CC[C@@H](O)C(C)(C)[C@@H]5CC[C@]43C)[C@H]12
REMARK SMILES IDX 7 1 6 2 11 3 33 4 5 5 12 6 15 7 2 8 3 9 13 10 16 11 1 12
REMARK SMILES IDX 4 13 14 14 31 15 17 16 18 17 30 18 32 19 19 20 29 21 28 22
REMARK SMILES IDX 21 23 20 24 25 25 22 26 23 27 26 28 27 29 8 30 9 31 10 32
REMARK SMILES IDX 24 33
REMARK H PARENT 24 34
REMARK Flexibility Score: inf
ROOT
ATOM      1  C   UNL     1      85.806  94.267  94.489  1.00  0.00     0.017 C 
ATOM      2  C   UNL     1      84.875  95.388  93.964  1.00  0.00     0.014 C 
ATOM      3  C   UNL     1      85.149  92.867  94.337  1.00  0.00     0.014 C 
ATOM      4  C   UNL     1      87.061  94.257  93.545  1.00  0.00     0.030 C 
ATOM      5  C   UNL     1      85.590  96.758  93.997  1.00  0.00     0.004 C 
ATOM      6  C   UNL     1      86.071  91.699  94.819  1.00  0.00     0.013 C 
ATOM      7  C   UNL     1      87.801  92.897  93.484  1.00  0.00    -0.063 C 
ATOM      8  C   UNL     1      87.892  95.573  93.598  1.00  0.00    -0.003 C 
ATOM      9  C   UNL     1      86.951  96.780  93.243  1.00  0.00    -0.011 C 
ATOM     10  C   UNL     1      87.640  91.887  94.625  1.00  0.00    -0.006 C 
ATOM     11  C   UNL     1      88.149  92.482  92.253  1.00  0.00    -0.027 C 
ATOM     12  C   UNL     1      89.100  95.528  92.640  1.00  0.00     0.008 C 
ATOM     13  C   UNL     1      87.637  98.134  93.493  1.00  0.00     0.008 C 
ATOM     14  C   UNL     1      88.254  92.522  95.928  1.00  0.00     0.017 C 
ATOM     15  C   UNL     1      88.379  90.466  94.339  1.00  0.00    -0.020 C 
ATOM     16  C   UNL     1      88.407  91.076  91.845  1.00  0.00     0.032 C 
ATOM     17  C   UNL     1      88.069  89.949  92.876  1.00  0.00     0.006 C 
ATOM     18  C   UNL     1      89.940  90.565  94.412  1.00  0.00     0.008 C 
ATOM     19  C   UNL     1      87.868  89.484  95.450  1.00  0.00     0.012 C 
ATOM     20  C   UNL     1      88.785  88.581  92.408  1.00  0.00    -0.025 C 
ATOM     21  C   UNL     1      90.679  89.262  94.043  1.00  0.00     0.005 C 
ATOM     22  C   UNL     1      90.352  88.660  92.643  1.00  0.00     0.003 C 
ATOM     23  C   UNL     1      88.205  87.323  93.132  1.00  0.00     0.010 C 
ATOM     24  C   UNL     1      88.446  88.399  90.887  1.00  0.00     0.012 C 
ATOM     25  C   UNL     1      91.137  87.291  92.391  1.00  0.00    -0.006 C 
ATOM     26  C   UNL     1      88.933  86.009  92.812  1.00  0.00     0.033 C 
ATOM     27  C   UNL     1      90.436  86.102  93.119  1.00  0.00     0.120 C 
ATOM     28  C   UNL     1      91.284  86.995  90.867  1.00  0.00     0.014 C 
ATOM     29  C   UNL     1      92.597  87.381  92.928  1.00  0.00     0.014 C 
ENDROOT
BRANCH   1  30
ATOM     30  C   UNL     1      86.005  94.559  95.980  1.00  0.00     0.048 C 
ATOM     31  O   UNL     1      85.075  94.308  96.794  1.00  0.00    -0.550 OA
ATOM     32  O   UNL     1      87.136  95.198  96.470  1.00  0.00    -0.550 OA
ENDBRANCH   1  30
BRANCH  27  33
ATOM     33  O   UNL     1      91.058  84.888  92.774  1.00  0.00    -0.393 OA
ATOM     34  H   UNL     1      90.565  84.520  91.995  1.00  0.00     0.210 HD
ENDBRANCH  27  33
TORSDOF 2
ENDMDL
MODEL 8
REMARK VINA RESULT:    -5.064     11.461     14.680
REMARK INTER + INTRA:          -5.117
REMARK INTER:                  -5.502
REMARK INTRA:                   0.386
REMARK UNBOUND:                 0.391
REMARK SMILES C[C@H]1[C@H](C)CC[C@@]2(C(=O)[O-])CC[C@]3(C)C(=CC[C@H]4[C@]5(C)CC[C@@H](O)C(C)(C)[C@@H]5CC[C@]43C)[C@H]12
REMARK SMILES IDX 7 1 6 2 11 3 33 4 5 5 12 6 15 7 2 8 3 9 13 10 16 11 1 12
REMARK SMILES IDX 4 13 14 14 31 15 17 16 18 17 30 18 32 19 19 20 29 21 28 22
REMARK SMILES IDX 21 23 20 24 25 25 22 26 23 27 26 28 27 29 8 30 9 31 10 32
REMARK SMILES IDX 24 33
REMARK H PARENT 24 34
REMARK Flexibility Score: inf
ROOT
ATOM      1  C   UNL     1     103.407  90.027  93.449  1.00  0.00     0.017 C 
ATOM      2  C   UNL     1     104.327  88.953  92.818  1.00  0.00     0.014 C 
ATOM      3  C   UNL     1     103.400  89.927  94.999  1.00  0.00     0.014 C 
ATOM      4  C   UNL     1     104.055  91.417  93.110  1.00  0.00     0.030 C 
ATOM      5  C   UNL     1     104.429  89.146  91.288  1.00  0.00     0.004 C 
ATOM      6  C   UNL     1     102.514  91.020  95.682  1.00  0.00     0.013 C 
ATOM      7  C   UNL     1     103.685  92.549  94.102  1.00  0.00    -0.063 C 
ATOM      8  C   UNL     1     104.103  91.728  91.585  1.00  0.00    -0.003 C 
ATOM      9  C   UNL     1     104.880  90.572  90.858  1.00  0.00    -0.011 C 
ATOM     10  C   UNL     1     102.419  92.434  94.957  1.00  0.00    -0.006 C 
ATOM     11  C   UNL     1     104.709  93.324  94.503  1.00  0.00    -0.027 C 
ATOM     12  C   UNL     1     104.766  93.090  91.298  1.00  0.00     0.008 C 
ATOM     13  C   UNL     1     104.777  90.687  89.327  1.00  0.00     0.008 C 
ATOM     14  C   UNL     1     101.176  92.443  93.992  1.00  0.00     0.017 C 
ATOM     15  C   UNL     1     102.253  93.645  96.032  1.00  0.00    -0.020 C 
ATOM     16  C   UNL     1     104.761  94.125  95.755  1.00  0.00     0.032 C 
ATOM     17  C   UNL     1     103.612  93.916  96.797  1.00  0.00     0.006 C 
ATOM     18  C   UNL     1     101.887  95.011  95.360  1.00  0.00     0.008 C 
ATOM     19  C   UNL     1     101.094  93.211  96.994  1.00  0.00     0.012 C 
ATOM     20  C   UNL     1     103.636  95.136  97.852  1.00  0.00    -0.025 C 
ATOM     21  C   UNL     1     101.825  96.204  96.335  1.00  0.00     0.005 C 
ATOM     22  C   UNL     1     103.109  96.471  97.176  1.00  0.00     0.003 C 
ATOM     23  C   UNL     1     102.804  94.830  99.139  1.00  0.00     0.010 C 
ATOM     24  C   UNL     1     105.125  95.285  98.324  1.00  0.00     0.012 C 
ATOM     25  C   UNL     1     102.913  97.697  98.183  1.00  0.00    -0.006 C 
ATOM     26  C   UNL     1     102.696  96.005 100.123  1.00  0.00     0.033 C 
ATOM     27  C   UNL     1     102.115  97.259  99.450  1.00  0.00     0.120 C 
ATOM     28  C   UNL     1     104.282  98.327  98.583  1.00  0.00     0.014 C 
ATOM     29  C   UNL     1     102.120  98.853  97.501  1.00  0.00     0.014 C 
ENDROOT
BRANCH   1  30
ATOM     30  C   UNL     1     101.998  89.722  92.930  1.00  0.00     0.048 C 
ATOM     31  O   UNL     1     101.317  88.809  93.473  1.00  0.00    -0.550 OA
ATOM     32  O   UNL     1     101.469  90.337  91.803  1.00  0.00    -0.550 OA
ENDBRANCH   1  30
BRANCH  27  33
ATOM     33  O   UNL     1     102.072  98.310 100.384  1.00  0.00    -0.393 OA
ATOM     34  H   UNL     1     101.256  98.180 100.932  1.00  0.00     0.210 HD
ENDBRANCH  27  33
TORSDOF 2
ENDMDL
MODEL 9
REMARK VINA RESULT:    -5.056      5.200      9.968
REMARK INTER + INTRA:          -5.109
REMARK INTER:                  -5.494
REMARK INTRA:                   0.386
REMARK UNBOUND:                 0.391
REMARK SMILES C[C@H]1[C@H](C)CC[C@@]2(C(=O)[O-])CC[C@]3(C)C(=CC[C@H]4[C@]5(C)CC[C@@H](O)C(C)(C)[C@@H]5CC[C@]43C)[C@H]12
REMARK SMILES IDX 7 1 6 2 11 3 33 4 5 5 12 6 15 7 2 8 3 9 13 10 16 11 1 12
REMARK SMILES IDX 4 13 14 14 31 15 17 16 18 17 30 18 32 19 19 20 29 21 28 22
REMARK SMILES IDX 21 23 20 24 25 25 22 26 23 27 26 28 27 29 8 30 9 31 10 32
REMARK SMILES IDX 24 33
REMARK H PARENT 24 34
REMARK Flexibility Score: inf
ROOT
ATOM      1  C   UNL     1      86.212  95.941  95.692  1.00  0.00     0.017 C 
ATOM      2  C   UNL     1      84.897  96.757  95.754  1.00  0.00     0.014 C 
ATOM      3  C   UNL     1      86.190  94.756  96.697  1.00  0.00     0.014 C 
ATOM      4  C   UNL     1      86.262  95.292  94.263  1.00  0.00     0.030 C 
ATOM      5  C   UNL     1      84.876  97.849  94.660  1.00  0.00     0.004 C 
ATOM      6  C   UNL     1      87.484  93.879  96.642  1.00  0.00     0.013 C 
ATOM      7  C   UNL     1      87.116  94.001  94.181  1.00  0.00    -0.063 C 
ATOM      8  C   UNL     1      86.342  96.332  93.108  1.00  0.00    -0.003 C 
ATOM      9  C   UNL     1      85.116  97.309  93.221  1.00  0.00    -0.011 C 
ATOM     10  C   UNL     1      88.202  93.735  95.228  1.00  0.00    -0.006 C 
ATOM     11  C   UNL     1      86.560  92.982  93.502  1.00  0.00    -0.027 C 
ATOM     12  C   UNL     1      86.366  95.652  91.724  1.00  0.00     0.008 C 
ATOM     13  C   UNL     1      85.242  98.500  92.255  1.00  0.00     0.008 C 
ATOM     14  C   UNL     1      89.302  94.851  95.086  1.00  0.00     0.017 C 
ATOM     15  C   UNL     1      88.912  92.279  95.067  1.00  0.00    -0.020 C 
ATOM     16  C   UNL     1      86.892  91.541  93.663  1.00  0.00     0.032 C 
ATOM     17  C   UNL     1      87.833  91.142  94.848  1.00  0.00     0.006 C 
ATOM     18  C   UNL     1      89.850  92.193  93.816  1.00  0.00     0.008 C 
ATOM     19  C   UNL     1      89.759  92.066  96.369  1.00  0.00     0.012 C 
ATOM     20  C   UNL     1      88.377  89.644  94.600  1.00  0.00    -0.025 C 
ATOM     21  C   UNL     1      90.458  90.798  93.571  1.00  0.00     0.005 C 
ATOM     22  C   UNL     1      89.445  89.623  93.427  1.00  0.00     0.003 C 
ATOM     23  C   UNL     1      88.995  89.011  95.889  1.00  0.00     0.010 C 
ATOM     24  C   UNL     1      87.124  88.769  94.246  1.00  0.00     0.012 C 
ATOM     25  C   UNL     1      90.188  88.222  93.224  1.00  0.00    -0.006 C 
ATOM     26  C   UNL     1      89.636  87.631  95.678  1.00  0.00     0.033 C 
ATOM     27  C   UNL     1      90.715  87.667  94.583  1.00  0.00     0.120 C 
ATOM     28  C   UNL     1      89.259  87.183  92.525  1.00  0.00     0.014 C 
ATOM     29  C   UNL     1      91.411  88.377  92.270  1.00  0.00     0.014 C 
ENDROOT
BRANCH   1  30
ATOM     30  C   UNL     1      87.323  96.914  96.101  1.00  0.00     0.048 C 
ATOM     31  O   UNL     1      87.501  97.179  97.322  1.00  0.00    -0.550 OA
ATOM     32  O   UNL     1      88.081  97.613  95.172  1.00  0.00    -0.550 OA
ENDBRANCH   1  30
BRANCH  27  33
ATOM     33  O   UNL     1      91.241  86.373  94.407  1.00  0.00    -0.393 OA
ATOM     34  H   UNL     1      92.211  86.476  94.227  1.00  0.00     0.210 HD
ENDBRANCH  27  33
TORSDOF 2
ENDMDL
