MODEL 1
REMARK VINA RESULT:    -3.994      0.000      0.000
REMARK INTER + INTRA:          -6.021
REMARK INTER:                  -5.628
REMARK INTRA:                  -0.393
REMARK UNBOUND:                -0.393
REMARK SMILES CCCCCCCCC(=O)[O-]
REMARK SMILES IDX 6 1 7 2 8 3 9 4 10 5 11 6 5 7 4 8 3 9 2 10 1 11
REMARK H PARENT
REMARK Flexibility Score: inf
ROOT
ATOM      1  C   UNL     1      42.507  49.874   8.854  1.00  0.00     0.000 C 
ENDROOT
BRANCH   1   2
ATOM      2  C   UNL     1      41.470  50.831   8.238  1.00  0.00     0.006 C 
BRANCH   2   3
ATOM      3  C   UNL     1      40.878  51.841   9.237  1.00  0.00     0.053 C 
BRANCH   3   4
ATOM      4  C   UNL     1      41.127  53.264   8.838  1.00  0.00     0.041 C 
ATOM      5  O   UNL     1      40.694  54.209   9.548  1.00  0.00    -0.550 OA
ATOM      6  O   UNL     1      41.866  53.547   7.695  1.00  0.00    -0.550 OA
ENDBRANCH   3   4
ENDBRANCH   2   3
ENDBRANCH   1   2
BRANCH   1   7
ATOM      7  C   UNL     1      43.947  50.180   8.408  1.00  0.00     0.000 C 
BRANCH   7   8
ATOM      8  C   UNL     1      44.993  49.399   9.221  1.00  0.00    -0.000 C 
BRANCH   8   9
ATOM      9  C   UNL     1      44.385  48.195   9.962  1.00  0.00    -0.000 C 
BRANCH   9  10
ATOM     10  C   UNL     1      45.118  46.881   9.651  1.00  0.00    -0.003 C 
ATOM     11  C   UNL     1      45.125  46.545   8.160  1.00  0.00     0.004 C 
ENDBRANCH   9  10
ENDBRANCH   8   9
ENDBRANCH   7   8
ENDBRANCH   1   7
TORSDOF 7
ENDMDL
MODEL 2
REMARK VINA RESULT:    -3.688     18.728     19.955
REMARK INTER + INTRA:          -5.590
REMARK INTER:                  -4.923
REMARK INTRA:                  -0.667
REMARK UNBOUND:                -0.393
REMARK SMILES CCCCCCCCC(=O)[O-]
REMARK SMILES IDX 6 1 7 2 8 3 9 4 10 5 11 6 5 7 4 8 3 9 2 10 1 11
REMARK H PARENT
REMARK Flexibility Score: inf
ROOT
ATOM      1  C   UNL     1      33.380  51.507  26.106  1.00  0.00     0.000 C 
ENDROOT
BRANCH   1   2
ATOM      2  C   UNL     1      34.134  50.505  25.213  1.00  0.00     0.006 C 
BRANCH   2   3
ATOM      3  C   UNL     1      33.370  49.192  24.960  1.00  0.00     0.053 C 
BRANCH   3   4
ATOM      4  C   UNL     1      34.211  47.976  25.206  1.00  0.00     0.041 C 
ATOM      5  O   UNL     1      33.674  46.844  25.324  1.00  0.00    -0.550 OA
ATOM      6  O   UNL     1      35.595  48.089  25.271  1.00  0.00    -0.550 OA
ENDBRANCH   3   4
ENDBRANCH   2   3
ENDBRANCH   1   2
BRANCH   1   7
ATOM      7  C   UNL     1      33.216  52.889  25.452  1.00  0.00     0.000 C 
BRANCH   7   8
ATOM      8  C   UNL     1      31.757  53.191  25.071  1.00  0.00    -0.000 C 
BRANCH   8   9
ATOM      9  C   UNL     1      30.753  52.333  25.861  1.00  0.00    -0.000 C 
BRANCH   9  10
ATOM     10  C   UNL     1      29.923  51.411  24.954  1.00  0.00    -0.003 C 
ATOM     11  C   UNL     1      30.441  51.373  23.517  1.00  0.00     0.004 C 
ENDBRANCH   9  10
ENDBRANCH   8   9
ENDBRANCH   7   8
ENDBRANCH   1   7
TORSDOF 7
ENDMDL
MODEL 3
REMARK VINA RESULT:    -3.333     10.800     12.313
REMARK INTER + INTRA:          -5.091
REMARK INTER:                  -4.519
REMARK INTRA:                  -0.572
REMARK UNBOUND:                -0.393
REMARK SMILES CCCCCCCCC(=O)[O-]
REMARK SMILES IDX 6 1 7 2 8 3 9 4 10 5 11 6 5 7 4 8 3 9 2 10 1 11
REMARK H PARENT
REMARK Flexibility Score: inf
ROOT
ATOM      1  C   UNL     1      31.700  48.317   6.712  1.00  0.00     0.000 C 
ENDROOT
BRANCH   1   2
ATOM      2  C   UNL     1      31.379  49.822   6.641  1.00  0.00     0.006 C 
BRANCH   2   3
ATOM      3  C   UNL     1      32.427  50.718   7.326  1.00  0.00     0.053 C 
BRANCH   3   4
ATOM      4  C   UNL     1      32.309  52.157   6.924  1.00  0.00     0.041 C 
ATOM      5  O   UNL     1      31.186  52.646   6.630  1.00  0.00    -0.550 OA
ATOM      6  O   UNL     1      33.436  52.969   6.907  1.00  0.00    -0.550 OA
ENDBRANCH   3   4
ENDBRANCH   2   3
ENDBRANCH   1   2
BRANCH   1   7
ATOM      7  C   UNL     1      31.987  47.831   8.143  1.00  0.00     0.000 C 
BRANCH   7   8
ATOM      8  C   UNL     1      31.221  46.543   8.491  1.00  0.00    -0.000 C 
BRANCH   8   9
ATOM      9  C   UNL     1      29.695  46.730   8.429  1.00  0.00    -0.000 C 
BRANCH   9  10
ATOM     10  C   UNL     1      29.179  47.716   9.488  1.00  0.00    -0.003 C 
ATOM     11  C   UNL     1      28.455  48.916   8.878  1.00  0.00     0.004 C 
ENDBRANCH   9  10
ENDBRANCH   8   9
ENDBRANCH   7   8
ENDBRANCH   1   7
TORSDOF 7
ENDMDL
MODEL 4
REMARK VINA RESULT:    -3.328     18.640     20.155
REMARK INTER + INTRA:          -5.082
REMARK INTER:                  -4.806
REMARK INTRA:                  -0.276
REMARK UNBOUND:                -0.393
REMARK SMILES CCCCCCCCC(=O)[O-]
REMARK SMILES IDX 6 1 7 2 8 3 9 4 10 5 11 6 5 7 4 8 3 9 2 10 1 11
REMARK H PARENT
REMARK Flexibility Score: inf
ROOT
ATOM      1  C   UNL     1      32.278  51.109  25.196  1.00  0.00     0.000 C 
ENDROOT
BRANCH   1   2
ATOM      2  C   UNL     1      32.819  49.690  25.451  1.00  0.00     0.006 C 
BRANCH   2   3
ATOM      3  C   UNL     1      34.343  49.560  25.274  1.00  0.00     0.053 C 
BRANCH   3   4
ATOM      4  C   UNL     1      34.813  48.138  25.330  1.00  0.00     0.041 C 
ATOM      5  O   UNL     1      33.982  47.192  25.327  1.00  0.00    -0.550 OA
ATOM      6  O   UNL     1      36.174  47.856  25.352  1.00  0.00    -0.550 OA
ENDBRANCH   3   4
ENDBRANCH   2   3
ENDBRANCH   1   2
BRANCH   1   7
ATOM      7  C   UNL     1      33.248  52.213  25.651  1.00  0.00     0.000 C 
BRANCH   7   8
ATOM      8  C   UNL     1      32.715  53.624  25.350  1.00  0.00    -0.000 C 
BRANCH   8   9
ATOM      9  C   UNL     1      31.415  53.600  24.527  1.00  0.00    -0.000 C 
BRANCH   9  10
ATOM     10  C   UNL     1      30.730  54.975  24.467  1.00  0.00    -0.003 C 
ATOM     11  C   UNL     1      29.532  55.081  25.409  1.00  0.00     0.004 C 
ENDBRANCH   9  10
ENDBRANCH   8   9
ENDBRANCH   7   8
ENDBRANCH   1   7
TORSDOF 7
ENDMDL
MODEL 5
REMARK VINA RESULT:    -3.320     11.301     12.645
REMARK INTER + INTRA:          -5.072
REMARK INTER:                  -4.819
REMARK INTRA:                  -0.253
REMARK UNBOUND:                -0.393
REMARK SMILES CCCCCCCCC(=O)[O-]
REMARK SMILES IDX 6 1 7 2 8 3 9 4 10 5 11 6 5 7 4 8 3 9 2 10 1 11
REMARK H PARENT
REMARK Flexibility Score: inf
ROOT
ATOM      1  C   UNL     1      31.526  48.777   6.616  1.00  0.00     0.000 C 
ENDROOT
BRANCH   1   2
ATOM      2  C   UNL     1      32.036  48.388   8.016  1.00  0.00     0.006 C 
BRANCH   2   3
ATOM      3  C   UNL     1      31.617  46.976   8.466  1.00  0.00     0.053 C 
BRANCH   3   4
ATOM      4  C   UNL     1      30.133  46.836   8.624  1.00  0.00     0.041 C 
ATOM      5  O   UNL     1      29.491  46.020   7.912  1.00  0.00    -0.550 OA
ATOM      6  O   UNL     1      29.463  47.583   9.585  1.00  0.00    -0.550 OA
ENDBRANCH   3   4
ENDBRANCH   2   3
ENDBRANCH   1   2
BRANCH   1   7
ATOM      7  C   UNL     1      31.154  50.265   6.505  1.00  0.00     0.000 C 
BRANCH   7   8
ATOM      8  C   UNL     1      32.185  51.182   7.184  1.00  0.00    -0.000 C 
BRANCH   8   9
ATOM      9  C   UNL     1      32.408  52.494   6.411  1.00  0.00    -0.000 C 
BRANCH   9  10
ATOM     10  C   UNL     1      33.509  53.366   7.034  1.00  0.00    -0.003 C 
ATOM     11  C   UNL     1      34.301  54.153   5.991  1.00  0.00     0.004 C 
ENDBRANCH   9  10
ENDBRANCH   8   9
ENDBRANCH   7   8
ENDBRANCH   1   7
TORSDOF 7
ENDMDL
MODEL 6
REMARK VINA RESULT:    -3.309     11.506     13.122
REMARK INTER + INTRA:          -5.056
REMARK INTER:                  -4.292
REMARK INTRA:                  -0.764
REMARK UNBOUND:                -0.393
REMARK SMILES CCCCCCCCC(=O)[O-]
REMARK SMILES IDX 6 1 7 2 8 3 9 4 10 5 11 6 5 7 4 8 3 9 2 10 1 11
REMARK H PARENT
REMARK Flexibility Score: inf
ROOT
ATOM      1  C   UNL     1      29.716  46.749   8.522  1.00  0.00     0.000 C 
ENDROOT
BRANCH   1   2
ATOM      2  C   UNL     1      29.262  47.934   9.395  1.00  0.00     0.006 C 
BRANCH   2   3
ATOM      3  C   UNL     1      28.210  48.837   8.727  1.00  0.00     0.053 C 
BRANCH   3   4
ATOM      4  C   UNL     1      28.708  50.230   8.490  1.00  0.00     0.041 C 
ATOM      5  O   UNL     1      29.428  50.804   9.348  1.00  0.00    -0.550 OA
ATOM      6  O   UNL     1      28.403  50.885   7.302  1.00  0.00    -0.550 OA
ENDBRANCH   3   4
ENDBRANCH   2   3
ENDBRANCH   1   2
BRANCH   1   7
ATOM      7  C   UNL     1      31.245  46.619   8.435  1.00  0.00     0.000 C 
BRANCH   7   8
ATOM      8  C   UNL     1      31.926  47.938   8.030  1.00  0.00    -0.000 C 
BRANCH   8   9
ATOM      9  C   UNL     1      31.634  48.327   6.570  1.00  0.00    -0.000 C 
BRANCH   9  10
ATOM     10  C   UNL     1      31.663  49.848   6.348  1.00  0.00    -0.003 C 
ATOM     11  C   UNL     1      32.427  50.591   7.444  1.00  0.00     0.004 C 
ENDBRANCH   9  10
ENDBRANCH   8   9
ENDBRANCH   7   8
ENDBRANCH   1   7
TORSDOF 7
ENDMDL
MODEL 7
REMARK VINA RESULT:    -3.285     11.712     13.304
REMARK INTER + INTRA:          -5.022
REMARK INTER:                  -4.499
REMARK INTRA:                  -0.523
REMARK UNBOUND:                -0.393
REMARK SMILES CCCCCCCCC(=O)[O-]
REMARK SMILES IDX 6 1 7 2 8 3 9 4 10 5 11 6 5 7 4 8 3 9 2 10 1 11
REMARK H PARENT
REMARK Flexibility Score: inf
ROOT
ATOM      1  C   UNL     1      31.435  46.651   8.459  1.00  0.00     0.000 C 
ENDROOT
BRANCH   1   2
ATOM      2  C   UNL     1      29.896  46.655   8.500  1.00  0.00     0.006 C 
BRANCH   2   3
ATOM      3  C   UNL     1      29.298  47.671   9.489  1.00  0.00     0.053 C 
BRANCH   3   4
ATOM      4  C   UNL     1      28.148  48.437   8.909  1.00  0.00     0.041 C 
ATOM      5  O   UNL     1      28.354  49.392   8.116  1.00  0.00    -0.550 OA
ATOM      6  O   UNL     1      26.843  48.073   9.220  1.00  0.00    -0.550 OA
ENDBRANCH   3   4
ENDBRANCH   2   3
ENDBRANCH   1   2
BRANCH   1   7
ATOM      7  C   UNL     1      32.027  47.990   7.988  1.00  0.00     0.000 C 
BRANCH   7   8
ATOM      8  C   UNL     1      31.576  48.364   6.565  1.00  0.00    -0.000 C 
BRANCH   8   9
ATOM      9  C   UNL     1      31.565  49.885   6.332  1.00  0.00    -0.000 C 
BRANCH   9  10
ATOM     10  C   UNL     1      32.354  50.651   7.405  1.00  0.00    -0.003 C 
ATOM     11  C   UNL     1      32.720  52.070   6.970  1.00  0.00     0.004 C 
ENDBRANCH   9  10
ENDBRANCH   8   9
ENDBRANCH   7   8
ENDBRANCH   1   7
TORSDOF 7
ENDMDL
MODEL 8
REMARK VINA RESULT:    -3.276      1.381      2.240
REMARK INTER + INTRA:          -5.010
REMARK INTER:                  -4.643
REMARK INTRA:                  -0.367
REMARK UNBOUND:                -0.393
REMARK SMILES CCCCCCCCC(=O)[O-]
REMARK SMILES IDX 6 1 7 2 8 3 9 4 10 5 11 6 5 7 4 8 3 9 2 10 1 11
REMARK H PARENT
REMARK Flexibility Score: inf
ROOT
ATOM      1  C   UNL     1      43.501  51.907   8.119  1.00  0.00     0.000 C 
ENDROOT
BRANCH   1   2
ATOM      2  C   UNL     1      43.027  53.310   7.695  1.00  0.00     0.006 C 
BRANCH   2   3
ATOM      3  C   UNL     1      41.590  53.644   8.133  1.00  0.00     0.053 C 
BRANCH   3   4
ATOM      4  C   UNL     1      41.543  54.571   9.310  1.00  0.00     0.041 C 
ATOM      5  O   UNL     1      42.595  55.124   9.727  1.00  0.00    -0.550 OA
ATOM      6  O   UNL     1      40.330  54.850   9.927  1.00  0.00    -0.550 OA
ENDBRANCH   3   4
ENDBRANCH   2   3
ENDBRANCH   1   2
BRANCH   1   7
ATOM      7  C   UNL     1      42.340  50.961   8.468  1.00  0.00     0.000 C 
BRANCH   7   8
ATOM      8  C   UNL     1      42.773  49.486   8.502  1.00  0.00    -0.000 C 
BRANCH   8   9
ATOM      9  C   UNL     1      44.267  49.303   8.179  1.00  0.00    -0.000 C 
BRANCH   9  10
ATOM     10  C   UNL     1      44.775  47.893   8.517  1.00  0.00    -0.003 C 
ATOM     11  C   UNL     1      44.481  47.488   9.962  1.00  0.00     0.004 C 
ENDBRANCH   9  10
ENDBRANCH   8   9
ENDBRANCH   7   8
ENDBRANCH   1   7
TORSDOF 7
ENDMDL
MODEL 9
REMARK VINA RESULT:    -3.270     18.645     19.814
REMARK INTER + INTRA:          -5.001
REMARK INTER:                  -4.596
REMARK INTRA:                  -0.405
REMARK UNBOUND:                -0.393
REMARK SMILES CCCCCCCCC(=O)[O-]
REMARK SMILES IDX 6 1 7 2 8 3 9 4 10 5 11 6 5 7 4 8 3 9 2 10 1 11
REMARK H PARENT
REMARK Flexibility Score: inf
ROOT
ATOM      1  C   UNL     1      34.343  50.037  24.872  1.00  0.00     0.000 C 
ENDROOT
BRANCH   1   2
ATOM      2  C   UNL     1      34.928  48.899  25.729  1.00  0.00     0.006 C 
BRANCH   2   3
ATOM      3  C   UNL     1      34.170  47.566  25.602  1.00  0.00     0.053 C 
BRANCH   3   4
ATOM      4  C   UNL     1      35.051  46.375  25.824  1.00  0.00     0.041 C 
ATOM      5  O   UNL     1      36.303  46.504  25.847  1.00  0.00    -0.550 OA
ATOM      6  O   UNL     1      34.487  45.123  26.040  1.00  0.00    -0.550 OA
ENDBRANCH   3   4
ENDBRANCH   2   3
ENDBRANCH   1   2
BRANCH   1   7
ATOM      7  C   UNL     1      33.987  51.287  25.695  1.00  0.00     0.000 C 
BRANCH   7   8
ATOM      8  C   UNL     1      32.479  51.588  25.685  1.00  0.00    -0.000 C 
BRANCH   8   9
ATOM      9  C   UNL     1      31.742  50.870  24.541  1.00  0.00    -0.000 C 
BRANCH   9  10
ATOM     10  C   UNL     1      30.977  51.843  23.630  1.00  0.00    -0.003 C 
ATOM     11  C   UNL     1      30.979  53.276  24.161  1.00  0.00     0.004 C 
ENDBRANCH   9  10
ENDBRANCH   8   9
ENDBRANCH   7   8
ENDBRANCH   1   7
TORSDOF 7
ENDMDL
