MODEL 1
REMARK VINA RESULT:    -3.262      0.000      0.000
REMARK INTER + INTRA:          -5.436
REMARK INTER:                  -4.978
REMARK INTRA:                  -0.457
REMARK UNBOUND:                -0.457
REMARK SMILES CCCCCCCCCCC(=O)[O-]
REMARK SMILES IDX 7 1 8 2 9 3 10 4 11 5 12 6 13 7 6 8 5 9 4 10 3 11 2 12 1 13
REMARK H PARENT
REMARK Flexibility Score: inf
ROOT
ATOM      1  C   UNL     1      15.220  16.883   8.430  1.00  0.00     0.000 C 
ENDROOT
BRANCH   1   2
ATOM      2  C   UNL     1      16.023  16.089   7.394  1.00  0.00     0.000 C 
BRANCH   2   3
ATOM      3  C   UNL     1      16.388  14.696   7.927  1.00  0.00     0.006 C 
BRANCH   3   4
ATOM      4  C   UNL     1      15.659  13.576   7.175  1.00  0.00     0.053 C 
BRANCH   4   5
ATOM      5  C   UNL     1      14.425  13.129   7.900  1.00  0.00     0.041 C 
ATOM      6  O   UNL     1      14.368  13.203   9.155  1.00  0.00    -0.550 OA
ATOM      7  O   UNL     1      13.328  12.664   7.186  1.00  0.00    -0.550 OA
ENDBRANCH   4   5
ENDBRANCH   3   4
ENDBRANCH   2   3
ENDBRANCH   1   2
BRANCH   1   8
ATOM      8  C   UNL     1      16.149  17.550   9.454  1.00  0.00     0.000 C 
BRANCH   8   9
ATOM      9  C   UNL     1      16.394  19.041   9.158  1.00  0.00    -0.000 C 
BRANCH   9  10
ATOM     10  C   UNL     1      15.869  20.016  10.232  1.00  0.00    -0.000 C 
BRANCH  10  11
ATOM     11  C   UNL     1      14.674  19.500  11.053  1.00  0.00    -0.000 C 
BRANCH  11  12
ATOM     12  C   UNL     1      13.864  20.631  11.702  1.00  0.00    -0.003 C 
ATOM     13  C   UNL     1      14.641  21.944  11.684  1.00  0.00     0.004 C 
ENDBRANCH  11  12
ENDBRANCH  10  11
ENDBRANCH   9  10
ENDBRANCH   8   9
ENDBRANCH   1   8
TORSDOF 9
ENDMDL
MODEL 2
REMARK VINA RESULT:    -3.214      3.356      6.743
REMARK INTER + INTRA:          -5.363
REMARK INTER:                  -4.846
REMARK INTRA:                  -0.517
REMARK UNBOUND:                -0.457
REMARK SMILES CCCCCCCCCCC(=O)[O-]
REMARK SMILES IDX 7 1 8 2 9 3 10 4 11 5 12 6 13 7 6 8 5 9 4 10 3 11 2 12 1 13
REMARK H PARENT
REMARK Flexibility Score: inf
ROOT
ATOM      1  C   UNL     1      15.553  17.325   8.667  1.00  0.00     0.000 C 
ENDROOT
BRANCH   1   2
ATOM      2  C   UNL     1      15.989  18.660   9.279  1.00  0.00     0.000 C 
BRANCH   2   3
ATOM      3  C   UNL     1      15.312  18.892  10.638  1.00  0.00     0.006 C 
BRANCH   3   4
ATOM      4  C   UNL     1      15.074  20.379  10.924  1.00  0.00     0.053 C 
BRANCH   4   5
ATOM      5  C   UNL     1      13.755  20.613  11.597  1.00  0.00     0.041 C 
ATOM      6  O   UNL     1      13.125  19.649  12.104  1.00  0.00    -0.550 OA
ATOM      7  O   UNL     1      13.240  21.900  11.693  1.00  0.00    -0.550 OA
ENDBRANCH   4   5
ENDBRANCH   3   4
ENDBRANCH   2   3
ENDBRANCH   1   2
BRANCH   1   8
ATOM      8  C   UNL     1      16.749  16.585   8.049  1.00  0.00     0.000 C 
BRANCH   8   9
ATOM      9  C   UNL     1      16.871  15.131   8.538  1.00  0.00    -0.000 C 
BRANCH   9  10
ATOM     10  C   UNL     1      15.778  14.680   9.528  1.00  0.00    -0.000 C 
BRANCH  10  11
ATOM     11  C   UNL     1      14.930  13.482   9.062  1.00  0.00    -0.000 C 
BRANCH  11  12
ATOM     12  C   UNL     1      14.735  13.446   7.540  1.00  0.00    -0.003 C 
ATOM     13  C   UNL     1      13.492  12.645   7.164  1.00  0.00     0.004 C 
ENDBRANCH  11  12
ENDBRANCH  10  11
ENDBRANCH   9  10
ENDBRANCH   8   9
ENDBRANCH   1   8
TORSDOF 9
ENDMDL
MODEL 3
REMARK VINA RESULT:    -3.168      1.371      1.768
REMARK INTER + INTRA:          -5.292
REMARK INTER:                  -4.758
REMARK INTRA:                  -0.534
REMARK UNBOUND:                -0.457
REMARK SMILES CCCCCCCCCCC(=O)[O-]
REMARK SMILES IDX 7 1 8 2 9 3 10 4 11 5 12 6 13 7 6 8 5 9 4 10 3 11 2 12 1 13
REMARK H PARENT
REMARK Flexibility Score: inf
ROOT
ATOM      1  C   UNL     1      16.711  16.012   9.150  1.00  0.00     0.000 C 
ENDROOT
BRANCH   1   2
ATOM      2  C   UNL     1      16.226  15.038  10.229  1.00  0.00     0.000 C 
BRANCH   2   3
ATOM      3  C   UNL     1      16.045  13.624   9.657  1.00  0.00     0.006 C 
BRANCH   3   4
ATOM      4  C   UNL     1      14.597  13.347   9.237  1.00  0.00     0.053 C 
BRANCH   4   5
ATOM      5  C   UNL     1      14.475  13.141   7.758  1.00  0.00     0.041 C 
ATOM      6  O   UNL     1      15.445  13.407   7.001  1.00  0.00    -0.550 OA
ATOM      7  O   UNL     1      13.303  12.623   7.220  1.00  0.00    -0.550 OA
ENDBRANCH   4   5
ENDBRANCH   3   4
ENDBRANCH   2   3
ENDBRANCH   1   2
BRANCH   1   8
ATOM      8  C   UNL     1      15.578  16.948   8.704  1.00  0.00     0.000 C 
BRANCH   8   9
ATOM      9  C   UNL     1      15.821  18.414   9.106  1.00  0.00    -0.000 C 
BRANCH   9  10
ATOM     10  C   UNL     1      15.578  18.734  10.595  1.00  0.00    -0.000 C 
BRANCH  10  11
ATOM     11  C   UNL     1      15.471  20.231  10.932  1.00  0.00    -0.000 C 
BRANCH  11  12
ATOM     12  C   UNL     1      14.062  20.641  11.387  1.00  0.00    -0.003 C 
ATOM     13  C   UNL     1      13.478  19.618  12.356  1.00  0.00     0.004 C 
ENDBRANCH  11  12
ENDBRANCH  10  11
ENDBRANCH   9  10
ENDBRANCH   8   9
ENDBRANCH   1   8
TORSDOF 9
ENDMDL
MODEL 4
REMARK VINA RESULT:    -3.118      3.304      6.126
REMARK INTER + INTRA:          -5.217
REMARK INTER:                  -4.562
REMARK INTRA:                  -0.655
REMARK UNBOUND:                -0.457
REMARK SMILES CCCCCCCCCCC(=O)[O-]
REMARK SMILES IDX 7 1 8 2 9 3 10 4 11 5 12 6 13 7 6 8 5 9 4 10 3 11 2 12 1 13
REMARK H PARENT
REMARK Flexibility Score: inf
ROOT
ATOM      1  C   UNL     1      14.936  13.526   7.035  1.00  0.00     0.000 C 
ENDROOT
BRANCH   1   2
ATOM      2  C   UNL     1      16.413  13.508   7.445  1.00  0.00     0.000 C 
BRANCH   2   3
ATOM      3  C   UNL     1      17.043  14.901   7.300  1.00  0.00     0.006 C 
BRANCH   3   4
ATOM      4  C   UNL     1      17.076  15.666   8.629  1.00  0.00     0.053 C 
BRANCH   4   5
ATOM      5  C   UNL     1      16.280  16.934   8.561  1.00  0.00     0.041 C 
ATOM      6  O   UNL     1      16.851  18.047   8.703  1.00  0.00    -0.550 OA
ATOM      7  O   UNL     1      14.915  16.887   8.306  1.00  0.00    -0.550 OA
ENDBRANCH   4   5
ENDBRANCH   3   4
ENDBRANCH   2   3
ENDBRANCH   1   2
BRANCH   1   8
ATOM      8  C   UNL     1      14.061  12.846   8.098  1.00  0.00     0.000 C 
BRANCH   8   9
ATOM      9  C   UNL     1      14.446  13.243   9.534  1.00  0.00    -0.000 C 
BRANCH   9  10
ATOM     10  C   UNL     1      14.032  12.234  10.625  1.00  0.00    -0.000 C 
BRANCH  10  11
ATOM     11  C   UNL     1      14.427  12.626  12.060  1.00  0.00    -0.000 C 
BRANCH  11  12
ATOM     12  C   UNL     1      15.303  11.569  12.747  1.00  0.00    -0.003 C 
ATOM     13  C   UNL     1      16.212  10.870  11.740  1.00  0.00     0.004 C 
ENDBRANCH  11  12
ENDBRANCH  10  11
ENDBRANCH   9  10
ENDBRANCH   8   9
ENDBRANCH   1   8
TORSDOF 9
ENDMDL
MODEL 5
REMARK VINA RESULT:    -3.036      1.618      2.766
REMARK INTER + INTRA:          -5.091
REMARK INTER:                  -4.695
REMARK INTRA:                  -0.396
REMARK UNBOUND:                -0.457
REMARK SMILES CCCCCCCCCCC(=O)[O-]
REMARK SMILES IDX 7 1 8 2 9 3 10 4 11 5 12 6 13 7 6 8 5 9 4 10 3 11 2 12 1 13
REMARK H PARENT
REMARK Flexibility Score: inf
ROOT
ATOM      1  C   UNL     1      16.030  14.567   7.535  1.00  0.00     0.000 C 
ENDROOT
BRANCH   1   2
ATOM      2  C   UNL     1      14.880  13.641   7.122  1.00  0.00     0.000 C 
BRANCH   2   3
ATOM      3  C   UNL     1      14.195  13.028   8.352  1.00  0.00     0.006 C 
BRANCH   3   4
ATOM      4  C   UNL     1      15.054  13.149   9.617  1.00  0.00     0.053 C 
BRANCH   4   5
ATOM      5  C   UNL     1      14.526  12.299  10.732  1.00  0.00     0.041 C 
ATOM      6  O   UNL     1      13.459  12.617  11.318  1.00  0.00    -0.550 OA
ATOM      7  O   UNL     1      15.195  11.138  11.101  1.00  0.00    -0.550 OA
ENDBRANCH   4   5
ENDBRANCH   3   4
ENDBRANCH   2   3
ENDBRANCH   1   2
BRANCH   1   8
ATOM      8  C   UNL     1      15.649  16.041   7.335  1.00  0.00     0.000 C 
BRANCH   8   9
ATOM      9  C   UNL     1      16.494  16.999   8.193  1.00  0.00    -0.000 C 
BRANCH   9  10
ATOM     10  C   UNL     1      15.686  17.961   9.087  1.00  0.00    -0.000 C 
BRANCH  10  11
ATOM     11  C   UNL     1      16.283  19.372   9.233  1.00  0.00    -0.000 C 
BRANCH  11  12
ATOM     12  C   UNL     1      16.023  19.989  10.615  1.00  0.00    -0.003 C 
ATOM     13  C   UNL     1      14.603  19.698  11.089  1.00  0.00     0.004 C 
ENDBRANCH  11  12
ENDBRANCH  10  11
ENDBRANCH   9  10
ENDBRANCH   8   9
ENDBRANCH   1   8
TORSDOF 9
ENDMDL
MODEL 6
REMARK VINA RESULT:    -3.004      2.986      6.227
REMARK INTER + INTRA:          -5.042
REMARK INTER:                  -4.577
REMARK INTRA:                  -0.465
REMARK UNBOUND:                -0.457
REMARK SMILES CCCCCCCCCCC(=O)[O-]
REMARK SMILES IDX 7 1 8 2 9 3 10 4 11 5 12 6 13 7 6 8 5 9 4 10 3 11 2 12 1 13
REMARK H PARENT
REMARK Flexibility Score: inf
ROOT
ATOM      1  C   UNL     1      15.806  15.872   7.128  1.00  0.00     0.000 C 
ENDROOT
BRANCH   1   2
ATOM      2  C   UNL     1      17.107  16.673   7.254  1.00  0.00     0.000 C 
BRANCH   2   3
ATOM      3  C   UNL     1      17.080  17.578   8.495  1.00  0.00     0.006 C 
BRANCH   3   4
ATOM      4  C   UNL     1      15.651  17.895   8.953  1.00  0.00     0.053 C 
BRANCH   4   5
ATOM      5  C   UNL     1      15.633  18.569  10.292  1.00  0.00     0.041 C 
ATOM      6  O   UNL     1      16.028  17.952  11.316  1.00  0.00    -0.550 OA
ATOM      7  O   UNL     1      15.211  19.888  10.403  1.00  0.00    -0.550 OA
ENDBRANCH   4   5
ENDBRANCH   3   4
ENDBRANCH   2   3
ENDBRANCH   1   2
BRANCH   1   8
ATOM      8  C   UNL     1      16.009  14.418   7.577  1.00  0.00     0.000 C 
BRANCH   8   9
ATOM      9  C   UNL     1      14.889  13.480   7.093  1.00  0.00    -0.000 C 
BRANCH   9  10
ATOM     10  C   UNL     1      14.067  12.811   8.214  1.00  0.00    -0.000 C 
BRANCH  10  11
ATOM     11  C   UNL     1      14.482  13.195   9.645  1.00  0.00    -0.000 C 
BRANCH  11  12
ATOM     12  C   UNL     1      13.972  12.202  10.700  1.00  0.00    -0.003 C 
ATOM     13  C   UNL     1      15.120  11.387  11.287  1.00  0.00     0.004 C 
ENDBRANCH  11  12
ENDBRANCH  10  11
ENDBRANCH   9  10
ENDBRANCH   8   9
ENDBRANCH   1   8
TORSDOF 9
ENDMDL
MODEL 7
REMARK VINA RESULT:    -2.972      2.965      6.527
REMARK INTER + INTRA:          -4.992
REMARK INTER:                  -4.472
REMARK INTRA:                  -0.521
REMARK UNBOUND:                -0.457
REMARK SMILES CCCCCCCCCCC(=O)[O-]
REMARK SMILES IDX 7 1 8 2 9 3 10 4 11 5 12 6 13 7 6 8 5 9 4 10 3 11 2 12 1 13
REMARK H PARENT
REMARK Flexibility Score: inf
ROOT
ATOM      1  C   UNL     1      15.256  16.939   8.383  1.00  0.00     0.000 C 
ENDROOT
BRANCH   1   2
ATOM      2  C   UNL     1      16.453  17.627   9.047  1.00  0.00     0.000 C 
BRANCH   2   3
ATOM      3  C   UNL     1      16.260  19.150   9.090  1.00  0.00     0.006 C 
BRANCH   3   4
ATOM      4  C   UNL     1      16.474  19.724  10.496  1.00  0.00     0.053 C 
BRANCH   4   5
ATOM      5  C   UNL     1      15.189  19.816  11.262  1.00  0.00     0.041 C 
ATOM      6  O   UNL     1      14.459  20.835  11.152  1.00  0.00    -0.550 OA
ATOM      7  O   UNL     1      14.782  18.762  12.070  1.00  0.00    -0.550 OA
ENDBRANCH   4   5
ENDBRANCH   3   4
ENDBRANCH   2   3
ENDBRANCH   1   2
BRANCH   1   8
ATOM      8  C   UNL     1      15.710  16.043   7.222  1.00  0.00     0.000 C 
BRANCH   8   9
ATOM      9  C   UNL     1      16.018  14.601   7.663  1.00  0.00    -0.000 C 
BRANCH   9  10
ATOM     10  C   UNL     1      15.081  13.523   7.080  1.00  0.00    -0.000 C 
BRANCH  10  11
ATOM     11  C   UNL     1      14.055  12.945   8.070  1.00  0.00    -0.000 C 
BRANCH  11  12
ATOM     12  C   UNL     1      14.432  13.200   9.536  1.00  0.00    -0.003 C 
ATOM     13  C   UNL     1      14.112  11.988  10.406  1.00  0.00     0.004 C 
ENDBRANCH  11  12
ENDBRANCH  10  11
ENDBRANCH   9  10
ENDBRANCH   8   9
ENDBRANCH   1   8
TORSDOF 9
ENDMDL
MODEL 8
REMARK VINA RESULT:    -2.856      3.369      5.451
REMARK INTER + INTRA:          -4.816
REMARK INTER:                  -4.003
REMARK INTRA:                  -0.813
REMARK UNBOUND:                -0.457
REMARK SMILES CCCCCCCCCCC(=O)[O-]
REMARK SMILES IDX 7 1 8 2 9 3 10 4 11 5 12 6 13 7 6 8 5 9 4 10 3 11 2 12 1 13
REMARK H PARENT
REMARK Flexibility Score: inf
ROOT
ATOM      1  C   UNL     1      16.652  14.409   9.969  1.00  0.00     0.000 C 
ENDROOT
BRANCH   1   2
ATOM      2  C   UNL     1      16.060  15.614   9.230  1.00  0.00     0.000 C 
BRANCH   2   3
ATOM      3  C   UNL     1      15.639  15.234   7.803  1.00  0.00     0.006 C 
BRANCH   3   4
ATOM      4  C   UNL     1      15.731  13.724   7.551  1.00  0.00     0.053 C 
BRANCH   4   5
ATOM      5  C   UNL     1      14.380  13.076   7.548  1.00  0.00     0.041 C 
ATOM      6  O   UNL     1      13.697  13.043   6.492  1.00  0.00    -0.550 OA
ATOM      7  O   UNL     1      13.890  12.480   8.704  1.00  0.00    -0.550 OA
ENDBRANCH   4   5
ENDBRANCH   3   4
ENDBRANCH   2   3
ENDBRANCH   1   2
BRANCH   1   8
ATOM      8  C   UNL     1      16.986  14.765  11.424  1.00  0.00     0.000 C 
BRANCH   8   9
ATOM      9  C   UNL     1      15.808  14.523  12.385  1.00  0.00    -0.000 C 
BRANCH   9  10
ATOM     10  C   UNL     1      14.767  13.495  11.898  1.00  0.00    -0.000 C 
BRANCH  10  11
ATOM     11  C   UNL     1      14.515  12.318  12.857  1.00  0.00    -0.000 C 
BRANCH  11  12
ATOM     12  C   UNL     1      15.698  11.341  12.926  1.00  0.00    -0.003 C 
ATOM     13  C   UNL     1      16.106  10.872  11.533  1.00  0.00     0.004 C 
ENDBRANCH  11  12
ENDBRANCH  10  11
ENDBRANCH   9  10
ENDBRANCH   8   9
ENDBRANCH   1   8
TORSDOF 9
ENDMDL
MODEL 9
REMARK VINA RESULT:    -2.668      2.400      3.367
REMARK INTER + INTRA:          -4.529
REMARK INTER:                  -4.033
REMARK INTRA:                  -0.497
REMARK UNBOUND:                -0.457
REMARK SMILES CCCCCCCCCCC(=O)[O-]
REMARK SMILES IDX 7 1 8 2 9 3 10 4 11 5 12 6 13 7 6 8 5 9 4 10 3 11 2 12 1 13
REMARK H PARENT
REMARK Flexibility Score: inf
ROOT
ATOM      1  C   UNL     1      14.955  14.711   8.240  1.00  0.00     0.000 C 
ENDROOT
BRANCH   1   2
ATOM      2  C   UNL     1      15.255  13.990   9.559  1.00  0.00     0.000 C 
BRANCH   2   3
ATOM      3  C   UNL     1      14.401  12.721   9.701  1.00  0.00     0.006 C 
BRANCH   3   4
ATOM      4  C   UNL     1      13.957  12.477  11.148  1.00  0.00     0.053 C 
BRANCH   4   5
ATOM      5  C   UNL     1      15.056  11.885  11.976  1.00  0.00     0.041 C 
ATOM      6  O   UNL     1      15.608  10.811  11.619  1.00  0.00    -0.550 OA
ATOM      7  O   UNL     1      15.494  12.536  13.123  1.00  0.00    -0.550 OA
ENDBRANCH   4   5
ENDBRANCH   3   4
ENDBRANCH   2   3
ENDBRANCH   1   2
BRANCH   1   8
ATOM      8  C   UNL     1      15.902  15.902   8.036  1.00  0.00     0.000 C 
BRANCH   8   9
ATOM      9  C   UNL     1      15.258  17.249   8.408  1.00  0.00    -0.000 C 
BRANCH   9  10
ATOM     10  C   UNL     1      16.151  18.194   9.239  1.00  0.00    -0.000 C 
BRANCH  10  11
ATOM     11  C   UNL     1      16.269  17.836  10.731  1.00  0.00    -0.000 C 
BRANCH  11  12
ATOM     12  C   UNL     1      15.407  18.734  11.630  1.00  0.00    -0.003 C 
ATOM     13  C   UNL     1      14.969  19.994  10.890  1.00  0.00     0.004 C 
ENDBRANCH  11  12
ENDBRANCH  10  11
ENDBRANCH   9  10
ENDBRANCH   8   9
ENDBRANCH   1   8
TORSDOF 9
ENDMDL
