MODEL 1
REMARK VINA RESULT:    -3.927      0.000      0.000
REMARK INTER + INTRA:          -5.129
REMARK INTER:                  -5.535
REMARK INTRA:                   0.405
REMARK UNBOUND:                 0.405
REMARK SMILES CC1=CCC(=C(C)C)C(=O)CC(C)=CCC1
REMARK SMILES IDX 12 1 14 2 13 3 15 4 16 5 2 6 1 7 3 8 11 10 9 11 10 12 5 13
REMARK SMILES IDX 6 14 7 15 8 16 4 17
REMARK H PARENT
REMARK Flexibility Score: 60.00
ROOT
ATOM      1  C   UNL     1       6.609   4.637  -5.742  1.00  0.00    -0.070 C 
ATOM      2  C   UNL     1       7.465   4.358  -4.735  1.00  0.00    -0.027 C 
ATOM      3  C   UNL     1       6.363   6.087  -6.077  1.00  0.00     0.039 C 
ENDROOT
BRANCH   2   4
ATOM      4  C   UNL     1       7.915   2.975  -4.315  1.00  0.00     0.032 C 
BRANCH   4   5
ATOM      5  C   UNL     1       9.318   2.571  -4.814  1.00  0.00     0.034 C 
BRANCH   5   6
ATOM      6  C   UNL     1       9.309   1.318  -5.672  1.00  0.00    -0.077 C 
ATOM      7  C   UNL     1       9.514  -0.007  -4.980  1.00  0.00     0.039 C 
ATOM      8  C   UNL     1       9.061   1.306  -7.004  1.00  0.00    -0.023 CG0
ATOM      9  G   UNL     1       8.846   2.506  -7.906  1.00  0.00     0.000 G0
ENDBRANCH   5   6
ENDBRANCH   4   5
ENDBRANCH   2   4
BRANCH   1  10
ATOM     10  C   UNL     1       5.964   3.571  -6.604  1.00  0.00     0.111 C 
BRANCH  10  11
ATOM     11  C   UNL     1       6.508   3.589  -8.009  1.00  0.00     0.163 C 
ATOM     12  O   UNL     1       6.187   4.551  -8.757  1.00  0.00    -0.294 OA
BRANCH  11  13
ATOM     13  C   UNL     1       7.453   2.550  -8.516  1.00  0.00    -0.002 C 
ATOM     14  C   UNL     1       7.102   1.732  -9.554  1.00  0.00    -0.069 C 
ATOM     15  C   UNL     1       8.089   0.780 -10.192  1.00  0.00     0.039 C 
ATOM     16  C   UNL     1       5.699   1.742 -10.120  1.00  0.00     0.039 C 
BRANCH  13  17
ATOM     17  C   UNL     1       8.839   2.509  -7.895  1.00  0.00     0.066 CG0
ATOM     18  G   UNL     1       9.037   1.298  -7.004  1.00  0.00     0.000 G0
ENDBRANCH  13  17
ENDBRANCH  11  13
ENDBRANCH  10  11
ENDBRANCH   1  10
TORSDOF 0
ENDMDL
MODEL 2
REMARK VINA RESULT:    -3.680      1.906      3.855
REMARK INTER + INTRA:          -4.781
REMARK INTER:                  -5.768
REMARK INTRA:                   0.986
REMARK UNBOUND:                 0.405
REMARK SMILES CC1=CCC(=C(C)C)C(=O)CC(C)=CCC1
REMARK SMILES IDX 12 1 14 2 13 3 15 4 16 5 2 6 1 7 3 8 11 10 9 11 10 12 5 13
REMARK SMILES IDX 6 14 7 15 8 16 4 17
REMARK H PARENT
REMARK Flexibility Score: 60.00
ROOT
ATOM      1  C   UNL     1       6.951   4.022  -5.478  1.00  0.00    -0.070 C 
ATOM      2  C   UNL     1       7.163   5.159  -6.177  1.00  0.00    -0.027 C 
ATOM      3  C   UNL     1       7.523   3.933  -4.085  1.00  0.00     0.039 C 
ENDROOT
BRANCH   2   4
ATOM      4  C   UNL     1       6.593   5.476  -7.542  1.00  0.00     0.032 C 
BRANCH   4   5
ATOM      5  C   UNL     1       5.996   4.266  -8.291  1.00  0.00     0.034 C 
BRANCH   5   6
ATOM      6  C   UNL     1       6.803   3.862  -9.512  1.00  0.00    -0.077 C 
ATOM      7  C   UNL     1       7.088   4.923 -10.546  1.00  0.00     0.039 C 
ATOM      8  C   UNL     1       7.339   2.632  -9.701  1.00  0.00    -0.023 CG0
ATOM      9  G   UNL     1       7.172   1.415  -8.813  1.00  0.00     0.000 G0
ENDBRANCH   5   6
ENDBRANCH   4   5
ENDBRANCH   2   4
BRANCH   1  10
ATOM     10  C   UNL     1       6.094   2.880  -5.987  1.00  0.00     0.111 C 
BRANCH  10  11
ATOM     11  C   UNL     1       6.919   1.652  -6.270  1.00  0.00     0.163 C 
ATOM     12  O   UNL     1       6.788   0.660  -5.503  1.00  0.00    -0.294 OA
BRANCH  11  13
ATOM     13  C   UNL     1       7.825   1.550  -7.452  1.00  0.00    -0.002 C 
ATOM     14  C   UNL     1       9.182   1.514  -7.291  1.00  0.00    -0.069 C 
ATOM     15  C   UNL     1      10.120   1.254  -8.450  1.00  0.00     0.039 C 
ATOM     16  C   UNL     1       9.817   1.734  -5.935  1.00  0.00     0.039 C 
BRANCH  13  17
ATOM     17  C   UNL     1       7.175   1.392  -8.816  1.00  0.00     0.066 CG0
ATOM     18  G   UNL     1       7.338   2.628  -9.679  1.00  0.00     0.000 G0
ENDBRANCH  13  17
ENDBRANCH  11  13
ENDBRANCH  10  11
ENDBRANCH   1  10
TORSDOF 0
ENDMDL
MODEL 3
REMARK VINA RESULT:    -3.674     15.358     17.159
REMARK INTER + INTRA:          -4.772
REMARK INTER:                  -5.288
REMARK INTRA:                   0.516
REMARK UNBOUND:                 0.405
REMARK SMILES CC1=CCC(=C(C)C)C(=O)CC(C)=CCC1
REMARK SMILES IDX 12 1 14 2 13 3 15 4 16 5 2 6 1 7 3 8 11 10 9 11 10 12 5 13
REMARK SMILES IDX 6 14 7 15 8 16 4 17
REMARK H PARENT
REMARK Flexibility Score: 60.00
ROOT
ATOM      1  C   UNL     1      -3.380  13.940  -5.416  1.00  0.00    -0.070 C 
ATOM      2  C   UNL     1      -3.265  14.017  -4.072  1.00  0.00    -0.027 C 
ATOM      3  C   UNL     1      -2.121  13.732  -6.220  1.00  0.00     0.039 C 
ENDROOT
BRANCH   2   4
ATOM      4  C   UNL     1      -4.414  14.125  -3.092  1.00  0.00     0.032 C 
BRANCH   4   5
ATOM      5  C   UNL     1      -5.214  12.822  -2.887  1.00  0.00     0.034 C 
BRANCH   5   6
ATOM      6  C   UNL     1      -6.682  12.957  -3.253  1.00  0.00    -0.077 C 
ATOM      7  C   UNL     1      -7.522  13.909  -2.437  1.00  0.00     0.039 C 
ATOM      8  C   UNL     1      -7.268  12.335  -4.303  1.00  0.00    -0.023 CG0
ATOM      9  G   UNL     1      -6.631  11.329  -5.243  1.00  0.00     0.000 G0
ENDBRANCH   5   6
ENDBRANCH   4   5
ENDBRANCH   2   4
BRANCH   1  10
ATOM     10  C   UNL     1      -4.711  13.957  -6.140  1.00  0.00     0.111 C 
BRANCH  10  11
ATOM     11  C   UNL     1      -5.010  12.628  -6.783  1.00  0.00     0.163 C 
ATOM     12  O   UNL     1      -4.088  12.060  -7.427  1.00  0.00    -0.294 OA
BRANCH  11  13
ATOM     13  C   UNL     1      -6.327  11.942  -6.629  1.00  0.00    -0.002 C 
ATOM     14  C   UNL     1      -7.173  11.807  -7.695  1.00  0.00    -0.069 C 
ATOM     15  C   UNL     1      -8.440  10.983  -7.613  1.00  0.00     0.039 C 
ATOM     16  C   UNL     1      -6.881  12.479  -9.018  1.00  0.00     0.039 C 
BRANCH  13  17
ATOM     17  C   UNL     1      -6.637  11.325  -5.276  1.00  0.00     0.066 CG0
ATOM     18  G   UNL     1      -7.256  12.322  -4.315  1.00  0.00     0.000 G0
ENDBRANCH  13  17
ENDBRANCH  11  13
ENDBRANCH  10  11
ENDBRANCH   1  10
TORSDOF 0
ENDMDL
MODEL 4
REMARK VINA RESULT:    -3.648     16.252     18.759
REMARK INTER + INTRA:          -4.736
REMARK INTER:                  -5.004
REMARK INTRA:                   0.268
REMARK UNBOUND:                 0.405
REMARK SMILES CC1=CCC(=C(C)C)C(=O)CC(C)=CCC1
REMARK SMILES IDX 12 1 14 2 13 3 15 4 16 5 2 6 1 7 3 8 11 10 9 11 10 12 5 13
REMARK SMILES IDX 6 14 7 15 8 16 4 17
REMARK H PARENT
REMARK Flexibility Score: 60.00
ROOT
ATOM      1  C   UNL     1      -7.566  11.767  -7.352  1.00  0.00    -0.070 C 
ATOM      2  C   UNL     1      -8.870  11.573  -7.055  1.00  0.00    -0.027 C 
ATOM      3  C   UNL     1      -7.222  12.254  -8.737  1.00  0.00     0.039 C 
ENDROOT
BRANCH   2   4
ATOM      4  C   UNL     1      -9.420  11.183  -5.700  1.00  0.00     0.032 C 
BRANCH   4   5
ATOM      5  C   UNL     1      -9.912  12.364  -4.837  1.00  0.00     0.034 C 
BRANCH   5   6
ATOM      6  C   UNL     1      -9.318  12.371  -3.440  1.00  0.00    -0.077 C 
ATOM      7  C   UNL     1      -9.973  11.500  -2.396  1.00  0.00     0.039 C 
ATOM      8  C   UNL     1      -8.201  13.052  -3.087  1.00  0.00    -0.023 CG0
ATOM      9  G   UNL     1      -7.393  13.997  -3.955  1.00  0.00     0.000 G0
ENDBRANCH   5   6
ENDBRANCH   4   5
ENDBRANCH   2   4
BRANCH   1  10
ATOM     10  C   UNL     1      -6.451  11.609  -6.338  1.00  0.00     0.111 C 
BRANCH  10  11
ATOM     11  C   UNL     1      -5.961  12.944  -5.840  1.00  0.00     0.163 C 
ATOM     12  O   UNL     1      -5.487  13.754  -6.681  1.00  0.00    -0.294 OA
BRANCH  11  13
ATOM     13  C   UNL     1      -6.076  13.356  -4.409  1.00  0.00    -0.002 C 
ATOM     14  C   UNL     1      -5.007  13.254  -3.564  1.00  0.00    -0.069 C 
ATOM     15  C   UNL     1      -5.042  13.807  -2.156  1.00  0.00     0.039 C 
ATOM     16  C   UNL     1      -3.725  12.578  -4.000  1.00  0.00     0.039 C 
BRANCH  13  17
ATOM     17  C   UNL     1      -7.391  13.976  -3.968  1.00  0.00     0.066 CG0
ATOM     18  G   UNL     1      -8.193  13.052  -3.073  1.00  0.00     0.000 G0
ENDBRANCH  13  17
ENDBRANCH  11  13
ENDBRANCH  10  11
ENDBRANCH   1  10
TORSDOF 0
ENDMDL
MODEL 5
REMARK VINA RESULT:    -3.480     14.937     17.349
REMARK INTER + INTRA:          -4.499
REMARK INTER:                  -4.875
REMARK INTRA:                   0.376
REMARK UNBOUND:                 0.405
REMARK SMILES CC1=CCC(=C(C)C)C(=O)CC(C)=CCC1
REMARK SMILES IDX 12 1 14 2 13 3 15 4 16 5 2 6 1 7 3 8 11 10 9 11 10 12 5 13
REMARK SMILES IDX 6 14 7 15 8 16 4 17
REMARK H PARENT
REMARK Flexibility Score: 60.00
ROOT
ATOM      1  C   UNL     1      -5.797  13.119  -3.125  1.00  0.00    -0.070 C 
ATOM      2  C   UNL     1      -4.571  13.637  -3.359  1.00  0.00    -0.027 C 
ATOM      3  C   UNL     1      -6.651  13.777  -2.071  1.00  0.00     0.039 C 
ENDROOT
BRANCH   2   4
ATOM      4  C   UNL     1      -3.609  13.181  -4.435  1.00  0.00     0.032 C 
BRANCH   4   5
ATOM      5  C   UNL     1      -3.899  13.744  -5.842  1.00  0.00     0.034 C 
BRANCH   5   6
ATOM      6  C   UNL     1      -4.123  12.662  -6.884  1.00  0.00    -0.077 C 
ATOM      7  C   UNL     1      -2.927  11.851  -7.319  1.00  0.00     0.039 C 
ATOM      8  C   UNL     1      -5.333  12.334  -7.397  1.00  0.00    -0.023 CG0
ATOM      9  G   UNL     1      -6.659  13.017  -7.124  1.00  0.00     0.000 G0
ENDBRANCH   5   6
ENDBRANCH   4   5
ENDBRANCH   2   4
BRANCH   1  10
ATOM     10  C   UNL     1      -6.384  11.977  -3.930  1.00  0.00     0.111 C 
BRANCH  10  11
ATOM     11  C   UNL     1      -7.528  12.438  -4.794  1.00  0.00     0.163 C 
ATOM     12  O   UNL     1      -8.446  13.111  -4.253  1.00  0.00    -0.294 OA
BRANCH  11  13
ATOM     13  C   UNL     1      -7.576  12.180  -6.264  1.00  0.00    -0.002 C 
ATOM     14  C   UNL     1      -8.470  11.288  -6.788  1.00  0.00    -0.069 C 
ATOM     15  C   UNL     1      -8.653  11.120  -8.281  1.00  0.00     0.039 C 
ATOM     16  C   UNL     1      -9.327  10.419  -5.894  1.00  0.00     0.039 C 
BRANCH  13  17
ATOM     17  C   UNL     1      -6.665  13.016  -7.147  1.00  0.00     0.066 CG0
ATOM     18  G   UNL     1      -5.333  12.339  -7.406  1.00  0.00     0.000 G0
ENDBRANCH  13  17
ENDBRANCH  11  13
ENDBRANCH  10  11
ENDBRANCH   1  10
TORSDOF 0
ENDMDL
MODEL 6
REMARK VINA RESULT:    -3.458      2.055      5.256
REMARK INTER + INTRA:          -4.468
REMARK INTER:                  -4.892
REMARK INTRA:                   0.424
REMARK UNBOUND:                 0.405
REMARK SMILES CC1=CCC(=C(C)C)C(=O)CC(C)=CCC1
REMARK SMILES IDX 12 1 14 2 13 3 15 4 16 5 2 6 1 7 3 8 11 10 9 11 10 12 5 13
REMARK SMILES IDX 6 14 7 15 8 16 4 17
REMARK H PARENT
REMARK Flexibility Score: 60.00
ROOT
ATOM      1  C   UNL     1       7.657   2.049 -10.036  1.00  0.00    -0.070 C 
ATOM      2  C   UNL     1       6.619   2.801 -10.464  1.00  0.00    -0.027 C 
ATOM      3  C   UNL     1       8.757   1.739 -11.020  1.00  0.00     0.039 C 
ENDROOT
BRANCH   2   4
ATOM      4  C   UNL     1       5.474   3.297  -9.607  1.00  0.00     0.032 C 
BRANCH   4   5
ATOM      5  C   UNL     1       5.335   4.832  -9.539  1.00  0.00     0.034 C 
BRANCH   5   6
ATOM      6  C   UNL     1       6.593   5.525  -9.043  1.00  0.00    -0.077 C 
ATOM      7  C   UNL     1       7.197   6.592  -9.922  1.00  0.00     0.039 C 
ATOM      8  C   UNL     1       7.166   5.296  -7.838  1.00  0.00    -0.023 CG0
ATOM      9  G   UNL     1       6.748   4.268  -6.805  1.00  0.00     0.000 G0
ENDBRANCH   5   6
ENDBRANCH   4   5
ENDBRANCH   2   4
BRANCH   1  10
ATOM     10  C   UNL     1       7.811   1.585  -8.601  1.00  0.00     0.111 C 
BRANCH  10  11
ATOM     11  C   UNL     1       8.502   2.622  -7.755  1.00  0.00     0.163 C 
ATOM     12  O   UNL     1       9.643   3.018  -8.115  1.00  0.00    -0.294 OA
BRANCH  11  13
ATOM     13  C   UNL     1       7.859   3.233  -6.554  1.00  0.00    -0.002 C 
ATOM     14  C   UNL     1       8.302   2.934  -5.295  1.00  0.00    -0.069 C 
ATOM     15  C   UNL     1       7.780   3.652  -4.070  1.00  0.00     0.039 C 
ATOM     16  C   UNL     1       9.344   1.861  -5.065  1.00  0.00     0.039 C 
BRANCH  13  17
ATOM     17  C   UNL     1       6.769   4.264  -6.797  1.00  0.00     0.066 CG0
ATOM     18  G   UNL     1       7.172   5.297  -7.831  1.00  0.00     0.000 G0
ENDBRANCH  13  17
ENDBRANCH  11  13
ENDBRANCH  10  11
ENDBRANCH   1  10
TORSDOF 0
ENDMDL
MODEL 7
REMARK VINA RESULT:    -3.434      2.068      2.950
REMARK INTER + INTRA:          -4.433
REMARK INTER:                  -5.057
REMARK INTRA:                   0.623
REMARK UNBOUND:                 0.405
REMARK SMILES CC1=CCC(=C(C)C)C(=O)CC(C)=CCC1
REMARK SMILES IDX 12 1 14 2 13 3 15 4 16 5 2 6 1 7 3 8 11 10 9 11 10 12 5 13
REMARK SMILES IDX 6 14 7 15 8 16 4 17
REMARK H PARENT
REMARK Flexibility Score: 60.00
ROOT
ATOM      1  C   UNL     1       6.712   6.618  -6.969  1.00  0.00    -0.070 C 
ATOM      2  C   UNL     1       6.406   5.986  -5.815  1.00  0.00    -0.027 C 
ATOM      3  C   UNL     1       5.825   7.758  -7.405  1.00  0.00     0.039 C 
ENDROOT
BRANCH   2   4
ATOM      4  C   UNL     1       7.224   4.891  -5.164  1.00  0.00     0.032 C 
BRANCH   4   5
ATOM      5  C   UNL     1       6.514   3.524  -5.067  1.00  0.00     0.034 C 
BRANCH   5   6
ATOM      6  C   UNL     1       7.011   2.518  -6.089  1.00  0.00    -0.077 C 
ATOM      7  C   UNL     1       7.928   1.422  -5.604  1.00  0.00     0.039 C 
ATOM      8  C   UNL     1       6.632   2.499  -7.390  1.00  0.00    -0.023 CG0
ATOM      9  G   UNL     1       5.741   3.500  -8.098  1.00  0.00     0.000 G0
ENDBRANCH   5   6
ENDBRANCH   4   5
ENDBRANCH   2   4
BRANCH   1  10
ATOM     10  C   UNL     1       7.945   6.301  -7.790  1.00  0.00     0.111 C 
BRANCH  10  11
ATOM     11  C   UNL     1       7.820   4.973  -8.489  1.00  0.00     0.163 C 
ATOM     12  O   UNL     1       8.853   4.259  -8.597  1.00  0.00    -0.294 OA
BRANCH  11  13
ATOM     13  C   UNL     1       6.514   4.454  -8.995  1.00  0.00    -0.002 C 
ATOM     14  C   UNL     1       6.083   4.758 -10.257  1.00  0.00    -0.069 C 
ATOM     15  C   UNL     1       4.847   4.124 -10.856  1.00  0.00     0.039 C 
ATOM     16  C   UNL     1       6.829   5.750 -11.123  1.00  0.00     0.039 C 
BRANCH  13  17
ATOM     17  C   UNL     1       5.743   3.508  -8.091  1.00  0.00     0.066 CG0
ATOM     18  G   UNL     1       6.647   2.504  -7.402  1.00  0.00     0.000 G0
ENDBRANCH  13  17
ENDBRANCH  11  13
ENDBRANCH  10  11
ENDBRANCH   1  10
TORSDOF 0
ENDMDL
MODEL 8
REMARK VINA RESULT:    -3.334      2.439      4.637
REMARK INTER + INTRA:          -4.294
REMARK INTER:                  -4.730
REMARK INTRA:                   0.436
REMARK UNBOUND:                 0.405
REMARK SMILES CC1=CCC(=C(C)C)C(=O)CC(C)=CCC1
REMARK SMILES IDX 12 1 14 2 13 3 15 4 16 5 2 6 1 7 3 8 11 10 9 11 10 12 5 13
REMARK SMILES IDX 6 14 7 15 8 16 4 17
REMARK H PARENT
REMARK Flexibility Score: 60.00
ROOT
ATOM      1  C   UNL     1       6.724   2.399  -7.308  1.00  0.00    -0.070 C 
ATOM      2  C   UNL     1       6.694   1.511  -8.326  1.00  0.00    -0.027 C 
ATOM      3  C   UNL     1       7.426   1.992  -6.037  1.00  0.00     0.039 C 
ENDROOT
BRANCH   2   4
ATOM      4  C   UNL     1       6.127   1.767  -9.706  1.00  0.00     0.032 C 
BRANCH   4   5
ATOM      5  C   UNL     1       7.158   1.702 -10.851  1.00  0.00     0.034 C 
BRANCH   5   6
ATOM      6  C   UNL     1       8.398   2.538 -10.587  1.00  0.00    -0.077 C 
ATOM      7  C   UNL     1       9.722   1.818 -10.503  1.00  0.00     0.039 C 
ATOM      8  C   UNL     1       8.403   3.889 -10.492  1.00  0.00    -0.023 CG0
ATOM      9  G   UNL     1       7.202   4.813 -10.528  1.00  0.00     0.000 G0
ENDBRANCH   5   6
ENDBRANCH   4   5
ENDBRANCH   2   4
BRANCH   1  10
ATOM     10  C   UNL     1       6.174   3.807  -7.416  1.00  0.00     0.111 C 
BRANCH  10  11
ATOM     11  C   UNL     1       7.197   4.761  -7.974  1.00  0.00     0.163 C 
ATOM     12  O   UNL     1       8.307   4.853  -7.385  1.00  0.00    -0.294 OA
BRANCH  11  13
ATOM     13  C   UNL     1       6.964   5.544  -9.225  1.00  0.00    -0.002 C 
ATOM     14  C   UNL     1       6.634   6.870  -9.168  1.00  0.00    -0.069 C 
ATOM     15  C   UNL     1       6.546   7.727 -10.412  1.00  0.00     0.039 C 
ATOM     16  C   UNL     1       6.340   7.549  -7.849  1.00  0.00     0.039 C 
BRANCH  13  17
ATOM     17  C   UNL     1       7.202   4.832 -10.546  1.00  0.00     0.066 CG0
ATOM     18  G   UNL     1       8.396   3.899 -10.492  1.00  0.00     0.000 G0
ENDBRANCH  13  17
ENDBRANCH  11  13
ENDBRANCH  10  11
ENDBRANCH   1  10
TORSDOF 0
ENDMDL
MODEL 9
REMARK VINA RESULT:    -3.274      1.801      3.856
REMARK INTER + INTRA:          -4.208
REMARK INTER:                  -5.274
REMARK INTRA:                   1.066
REMARK UNBOUND:                 0.405
REMARK SMILES CC1=CCC(=C(C)C)C(=O)CC(C)=CCC1
REMARK SMILES IDX 12 1 14 2 13 3 15 4 16 5 2 6 1 7 3 8 11 10 9 11 10 12 5 13
REMARK SMILES IDX 6 14 7 15 8 16 4 17
REMARK H PARENT
REMARK Flexibility Score: 60.00
ROOT
ATOM      1  C   UNL     1       8.248   2.875  -5.122  1.00  0.00    -0.070 C 
ATOM      2  C   UNL     1       7.543   3.988  -4.820  1.00  0.00    -0.027 C 
ATOM      3  C   UNL     1       9.366   2.475  -4.193  1.00  0.00     0.039 C 
ENDROOT
BRANCH   2   4
ATOM      4  C   UNL     1       6.330   4.497  -5.569  1.00  0.00     0.032 C 
BRANCH   4   5
ATOM      5  C   UNL     1       6.368   6.000  -5.916  1.00  0.00     0.034 C 
BRANCH   5   6
ATOM      6  C   UNL     1       6.814   6.273  -7.342  1.00  0.00    -0.077 C 
ATOM      7  C   UNL     1       7.459   7.606  -7.631  1.00  0.00     0.039 C 
ATOM      8  C   UNL     1       6.733   5.375  -8.353  1.00  0.00    -0.023 CG0
ATOM      9  G   UNL     1       6.112   3.992  -8.302  1.00  0.00     0.000 G0
ENDBRANCH   5   6
ENDBRANCH   4   5
ENDBRANCH   2   4
BRANCH   1  10
ATOM     10  C   UNL     1       7.909   1.968  -6.288  1.00  0.00     0.111 C 
BRANCH  10  11
ATOM     11  C   UNL     1       8.193   2.633  -7.609  1.00  0.00     0.163 C 
ATOM     12  O   UNL     1       9.388   2.931  -7.878  1.00  0.00    -0.294 OA
BRANCH  11  13
ATOM     13  C   UNL     1       7.127   2.888  -8.623  1.00  0.00    -0.002 C 
ATOM     14  C   UNL     1       7.023   2.105  -9.739  1.00  0.00    -0.069 C 
ATOM     15  C   UNL     1       5.864   2.236 -10.704  1.00  0.00     0.039 C 
ATOM     16  C   UNL     1       8.068   1.062 -10.066  1.00  0.00     0.039 C 
BRANCH  13  17
ATOM     17  C   UNL     1       6.119   3.982  -8.313  1.00  0.00     0.066 CG0
ATOM     18  G   UNL     1       6.739   5.365  -8.350  1.00  0.00     0.000 G0
ENDBRANCH  13  17
ENDBRANCH  11  13
ENDBRANCH  10  11
ENDBRANCH   1  10
TORSDOF 0
ENDMDL
