MODEL 1
REMARK VINA RESULT:    -5.305      0.000      0.000
REMARK INTER + INTRA:          -6.846
REMARK INTER:                  -6.390
REMARK INTRA:                  -0.455
REMARK UNBOUND:                -0.455
REMARK SMILES O=c1ccn([C@H]2O[C@@H](CO)[C@H](O)[C@H]2O)c(=O)[nH]1
REMARK SMILES IDX 6 1 13 2 11 3 8 4 7 5 5 6 3 7 4 8 2 9 17 10 1 11 15 12 16 14
REMARK SMILES IDX 14 15 12 17 9 19 10 20
REMARK H PARENT 17 13 14 16 12 18 10 21
REMARK Flexibility Score: inf
ROOT
ATOM      1  C   UNL     1      30.647   9.027   8.200  1.00  0.00     0.255 C 
ATOM      2  C   UNL     1      31.434   9.852   9.237  1.00  0.00     0.196 C 
ATOM      3  C   UNL     1      32.723   9.076   9.407  1.00  0.00     0.179 C 
ATOM      4  C   UNL     1      32.313   7.679   8.954  1.00  0.00     0.178 C 
ATOM      5  O   UNL     1      31.335   7.817   7.950  1.00  0.00    -0.347 OA
ENDROOT
BRANCH   1   6
ATOM      6  N   UNL     1      30.408   9.765   6.940  1.00  0.00    -0.271 N 
ATOM      7  C   UNL     1      30.982  10.104   4.634  1.00  0.00     0.090 A 
ATOM      8  C   UNL     1      31.173   9.452   5.848  1.00  0.00     0.099 A 
ATOM      9  C   UNL     1      29.990  11.074   4.546  1.00  0.00     0.253 A 
ATOM     10  N   UNL     1      29.228  11.361   5.634  1.00  0.00    -0.274 N 
ATOM     11  O   UNL     1      29.797  11.682   3.459  1.00  0.00    -0.269 OA
ATOM     12  C   UNL     1      29.420  10.716   6.818  1.00  0.00     0.330 A 
ATOM     13  H   UNL     1      28.478  12.085   5.558  1.00  0.00     0.175 HD
ATOM     14  O   UNL     1      28.671  10.996   7.793  1.00  0.00    -0.248 OA
ENDBRANCH   1   6
BRANCH   2  15
ATOM     15  O   UNL     1      31.642  11.195   8.866  1.00  0.00    -0.386 OA
ATOM     16  H   UNL     1      32.594  11.424   9.019  1.00  0.00     0.211 HD
ENDBRANCH   2  15
BRANCH   3  17
ATOM     17  O   UNL     1      33.141   9.062  10.746  1.00  0.00    -0.387 OA
ATOM     18  H   UNL     1      32.783   8.224  11.142  1.00  0.00     0.211 HD
ENDBRANCH   3  17
BRANCH   4  19
ATOM     19  C   UNL     1      33.498   6.867   8.413  1.00  0.00     0.191 C 
BRANCH  19  20
ATOM     20  O   UNL     1      34.659   7.123   9.157  1.00  0.00    -0.394 OA
ATOM     21  H   UNL     1      34.885   6.279   9.628  1.00  0.00     0.210 HD
ENDBRANCH  19  20
ENDBRANCH   4  19
TORSDOF 5
ENDMDL
MODEL 2
REMARK VINA RESULT:    -5.113     11.072     12.560
REMARK INTER + INTRA:          -6.615
REMARK INTER:                  -6.300
REMARK INTRA:                  -0.315
REMARK UNBOUND:                -0.455
REMARK SMILES O=c1ccn([C@H]2O[C@@H](CO)[C@H](O)[C@H]2O)c(=O)[nH]1
REMARK SMILES IDX 6 1 13 2 11 3 8 4 7 5 5 6 3 7 4 8 2 9 17 10 1 11 15 12 16 14
REMARK SMILES IDX 14 15 12 17 9 19 10 20
REMARK H PARENT 17 13 14 16 12 18 10 21
REMARK Flexibility Score: inf
ROOT
ATOM      1  C   UNL     1      21.221   2.068   7.110  1.00  0.00     0.255 C 
ATOM      2  C   UNL     1      20.279   2.633   6.030  1.00  0.00     0.196 C 
ATOM      3  C   UNL     1      20.143   4.094   6.402  1.00  0.00     0.179 C 
ATOM      4  C   UNL     1      20.496   4.077   7.885  1.00  0.00     0.178 C 
ATOM      5  O   UNL     1      21.446   3.059   8.094  1.00  0.00    -0.347 OA
ENDROOT
BRANCH   1   6
ATOM      6  N   UNL     1      22.503   1.579   6.556  1.00  0.00    -0.271 N 
ATOM      7  C   UNL     1      24.837   1.973   6.160  1.00  0.00     0.090 A 
ATOM      8  C   UNL     1      23.603   2.388   6.650  1.00  0.00     0.099 A 
ATOM      9  C   UNL     1      24.935   0.714   5.579  1.00  0.00     0.253 A 
ATOM     10  N   UNL     1      23.838  -0.084   5.509  1.00  0.00    -0.274 N 
ATOM     11  O   UNL     1      26.040   0.312   5.124  1.00  0.00    -0.269 OA
ATOM     12  C   UNL     1      22.634   0.329   5.995  1.00  0.00     0.330 A 
ATOM     13  H   UNL     1      23.921  -1.034   5.079  1.00  0.00     0.175 HD
ATOM     14  O   UNL     1      21.649  -0.456   5.932  1.00  0.00    -0.248 OA
ENDBRANCH   1   6
BRANCH   2  15
ATOM     15  O   UNL     1      20.733   2.437   4.710  1.00  0.00    -0.386 OA
ATOM     16  H   UNL     1      20.660   1.474   4.488  1.00  0.00     0.211 HD
ENDBRANCH   2  15
BRANCH   3  17
ATOM     17  O   UNL     1      18.832   4.555   6.208  1.00  0.00    -0.387 OA
ATOM     18  H   UNL     1      18.706   4.630   5.226  1.00  0.00     0.211 HD
ENDBRANCH   3  17
BRANCH   4  19
ATOM     19  C   UNL     1      21.061   5.419   8.369  1.00  0.00     0.191 C 
BRANCH  19  20
ATOM     20  O   UNL     1      22.454   5.352   8.512  1.00  0.00    -0.394 OA
ATOM     21  H   UNL     1      22.830   6.110   7.993  1.00  0.00     0.210 HD
ENDBRANCH  19  20
ENDBRANCH   4  19
TORSDOF 5
ENDMDL
MODEL 3
REMARK VINA RESULT:    -5.072      1.907      5.507
REMARK INTER + INTRA:          -6.565
REMARK INTER:                  -6.152
REMARK INTRA:                  -0.413
REMARK UNBOUND:                -0.455
REMARK SMILES O=c1ccn([C@H]2O[C@@H](CO)[C@H](O)[C@H]2O)c(=O)[nH]1
REMARK SMILES IDX 6 1 13 2 11 3 8 4 7 5 5 6 3 7 4 8 2 9 17 10 1 11 15 12 16 14
REMARK SMILES IDX 14 15 12 17 9 19 10 20
REMARK H PARENT 17 13 14 16 12 18 10 21
REMARK Flexibility Score: inf
ROOT
ATOM      1  C   UNL     1      30.555  11.250   6.247  1.00  0.00     0.255 C 
ATOM      2  C   UNL     1      29.704  10.940   5.001  1.00  0.00     0.196 C 
ATOM      3  C   UNL     1      30.535  11.483   3.857  1.00  0.00     0.179 C 
ATOM      4  C   UNL     1      31.411  12.512   4.563  1.00  0.00     0.178 C 
ATOM      5  O   UNL     1      31.660  12.048   5.869  1.00  0.00    -0.347 OA
ENDROOT
BRANCH   1   6
ATOM      6  N   UNL     1      31.007  10.030   6.953  1.00  0.00    -0.271 N 
ATOM      7  C   UNL     1      32.588   8.231   7.111  1.00  0.00     0.090 A 
ATOM      8  C   UNL     1      32.111   9.375   6.478  1.00  0.00     0.099 A 
ATOM      9  C   UNL     1      31.927   7.770   8.243  1.00  0.00     0.253 A 
ATOM     10  N   UNL     1      30.843   8.442   8.713  1.00  0.00    -0.274 N 
ATOM     11  O   UNL     1      32.336   6.736   8.836  1.00  0.00    -0.269 OA
ATOM     12  C   UNL     1      30.385   9.562   8.089  1.00  0.00     0.330 A 
ATOM     13  H   UNL     1      30.357   8.095   9.571  1.00  0.00     0.175 HD
ATOM     14  O   UNL     1      29.391  10.168   8.575  1.00  0.00    -0.248 OA
ENDBRANCH   1   6
BRANCH   2  15
ATOM     15  O   UNL     1      29.378   9.578   4.851  1.00  0.00    -0.386 OA
ATOM     16  H   UNL     1      28.811   9.300   5.615  1.00  0.00     0.211 HD
ENDBRANCH   2  15
BRANCH   3  17
ATOM     17  O   UNL     1      29.730  12.098   2.885  1.00  0.00    -0.387 OA
ATOM     18  H   UNL     1      28.796  11.825   3.082  1.00  0.00     0.211 HD
ENDBRANCH   3  17
BRANCH   4  19
ATOM     19  C   UNL     1      32.741  12.747   3.834  1.00  0.00     0.191 C 
BRANCH  19  20
ATOM     20  O   UNL     1      32.529  13.367   2.595  1.00  0.00    -0.394 OA
ATOM     21  H   UNL     1      33.194  12.982   1.967  1.00  0.00     0.210 HD
ENDBRANCH  19  20
ENDBRANCH   4  19
TORSDOF 5
ENDMDL
MODEL 4
REMARK VINA RESULT:    -5.021      1.818      5.330
REMARK INTER + INTRA:          -6.504
REMARK INTER:                  -6.114
REMARK INTRA:                  -0.391
REMARK UNBOUND:                -0.455
REMARK SMILES O=c1ccn([C@H]2O[C@@H](CO)[C@H](O)[C@H]2O)c(=O)[nH]1
REMARK SMILES IDX 6 1 13 2 11 3 8 4 7 5 5 6 3 7 4 8 2 9 17 10 1 11 15 12 16 14
REMARK SMILES IDX 14 15 12 17 9 19 10 20
REMARK H PARENT 17 13 14 16 12 18 10 21
REMARK Flexibility Score: inf
ROOT
ATOM      1  C   UNL     1      31.628  10.378   7.598  1.00  0.00     0.255 C 
ATOM      2  C   UNL     1      30.144  10.278   7.999  1.00  0.00     0.196 C 
ATOM      3  C   UNL     1      29.405  10.567   6.709  1.00  0.00     0.179 C 
ATOM      4  C   UNL     1      30.447  11.345   5.915  1.00  0.00     0.178 C 
ATOM      5  O   UNL     1      31.719  10.855   6.269  1.00  0.00    -0.347 OA
ENDROOT
BRANCH   1   6
ATOM      6  N   UNL     1      32.351   9.095   7.745  1.00  0.00    -0.271 N 
ATOM      7  C   UNL     1      33.261   7.135   6.701  1.00  0.00     0.090 A 
ATOM      8  C   UNL     1      32.574   8.342   6.624  1.00  0.00     0.099 A 
ATOM      9  C   UNL     1      33.727   6.711   7.940  1.00  0.00     0.253 A 
ATOM     10  N   UNL     1      33.513   7.478   9.040  1.00  0.00    -0.274 N 
ATOM     11  O   UNL     1      34.351   5.620   8.040  1.00  0.00    -0.269 OA
ATOM     12  C   UNL     1      32.842   8.660   8.955  1.00  0.00     0.330 A 
ATOM     13  H   UNL     1      33.875   7.158   9.967  1.00  0.00     0.175 HD
ATOM     14  O   UNL     1      32.690   9.352   9.998  1.00  0.00    -0.248 OA
ENDBRANCH   1   6
BRANCH   2  15
ATOM     15  O   UNL     1      29.786   9.044   8.578  1.00  0.00    -0.386 OA
ATOM     16  H   UNL     1      29.923   8.326   7.908  1.00  0.00     0.211 HD
ENDBRANCH   2  15
BRANCH   3  17
ATOM     17  O   UNL     1      28.263  11.352   6.936  1.00  0.00    -0.387 OA
ATOM     18  H   UNL     1      27.655  11.189   6.168  1.00  0.00     0.211 HD
ENDBRANCH   3  17
BRANCH   4  19
ATOM     19  C   UNL     1      30.246  11.214   4.399  1.00  0.00     0.191 C 
BRANCH  19  20
ATOM     20  O   UNL     1      29.237  12.080   3.952  1.00  0.00    -0.394 OA
ATOM     21  H   UNL     1      29.307  12.110   2.963  1.00  0.00     0.210 HD
ENDBRANCH  19  20
ENDBRANCH   4  19
TORSDOF 5
ENDMDL
MODEL 5
REMARK VINA RESULT:    -4.918      8.130     10.049
REMARK INTER + INTRA:          -6.380
REMARK INTER:                  -5.921
REMARK INTRA:                  -0.459
REMARK UNBOUND:                -0.455
REMARK SMILES O=c1ccn([C@H]2O[C@@H](CO)[C@H](O)[C@H]2O)c(=O)[nH]1
REMARK SMILES IDX 6 1 13 2 11 3 8 4 7 5 5 6 3 7 4 8 2 9 17 10 1 11 15 12 16 14
REMARK SMILES IDX 14 15 12 17 9 19 10 20
REMARK H PARENT 17 13 14 16 12 18 10 21
REMARK Flexibility Score: inf
ROOT
ATOM      1  C   UNL     1      29.191   0.271   6.463  1.00  0.00     0.255 C 
ATOM      2  C   UNL     1      28.910   0.602   4.986  1.00  0.00     0.196 C 
ATOM      3  C   UNL     1      27.450   0.241   4.811  1.00  0.00     0.179 C 
ATOM      4  C   UNL     1      27.232  -0.756   5.944  1.00  0.00     0.178 C 
ATOM      5  O   UNL     1      28.065  -0.382   7.016  1.00  0.00    -0.347 OA
ENDROOT
BRANCH   1   6
ATOM      6  N   UNL     1      29.550   1.464   7.262  1.00  0.00    -0.271 N 
ATOM      7  C   UNL     1      28.819   3.341   8.567  1.00  0.00     0.090 A 
ATOM      8  C   UNL     1      28.539   2.217   7.796  1.00  0.00     0.099 A 
ATOM      9  C   UNL     1      30.147   3.680   8.795  1.00  0.00     0.253 A 
ATOM     10  N   UNL     1      31.139   2.912   8.273  1.00  0.00    -0.274 N 
ATOM     11  O   UNL     1      30.430   4.694   9.488  1.00  0.00    -0.269 OA
ATOM     12  C   UNL     1      30.856   1.812   7.522  1.00  0.00     0.330 A 
ATOM     13  H   UNL     1      32.136   3.168   8.456  1.00  0.00     0.175 HD
ATOM     14  O   UNL     1      31.809   1.114   7.080  1.00  0.00    -0.248 OA
ENDBRANCH   1   6
BRANCH   2  15
ATOM     15  O   UNL     1      29.197   1.935   4.630  1.00  0.00    -0.386 OA
ATOM     16  H   UNL     1      28.359   2.463   4.674  1.00  0.00     0.211 HD
ENDBRANCH   2  15
BRANCH   3  17
ATOM     17  O   UNL     1      27.216  -0.363   3.565  1.00  0.00    -0.387 OA
ATOM     18  H   UNL     1      28.105  -0.479   3.140  1.00  0.00     0.211 HD
ENDBRANCH   3  17
BRANCH   4  19
ATOM     19  C   UNL     1      25.772  -0.799   6.413  1.00  0.00     0.191 C 
BRANCH  19  20
ATOM     20  O   UNL     1      24.910  -1.073   5.341  1.00  0.00    -0.394 OA
ATOM     21  H   UNL     1      25.486  -1.239   4.550  1.00  0.00     0.210 HD
ENDBRANCH  19  20
ENDBRANCH   4  19
TORSDOF 5
ENDMDL
MODEL 6
REMARK VINA RESULT:    -4.881      2.114      3.337
REMARK INTER + INTRA:          -6.335
REMARK INTER:                  -6.025
REMARK INTRA:                  -0.310
REMARK UNBOUND:                -0.455
REMARK SMILES O=c1ccn([C@H]2O[C@@H](CO)[C@H](O)[C@H]2O)c(=O)[nH]1
REMARK SMILES IDX 6 1 13 2 11 3 8 4 7 5 5 6 3 7 4 8 2 9 17 10 1 11 15 12 16 14
REMARK SMILES IDX 14 15 12 17 9 19 10 20
REMARK H PARENT 17 13 14 16 12 18 10 21
REMARK Flexibility Score: inf
ROOT
ATOM      1  C   UNL     1      31.132  10.178   5.915  1.00  0.00     0.255 C 
ATOM      2  C   UNL     1      29.874  10.128   6.803  1.00  0.00     0.196 C 
ATOM      3  C   UNL     1      30.429  10.173   8.212  1.00  0.00     0.179 C 
ATOM      4  C   UNL     1      31.851   9.662   8.008  1.00  0.00     0.178 C 
ATOM      5  O   UNL     1      32.282  10.074   6.732  1.00  0.00    -0.347 OA
ENDROOT
BRANCH   1   6
ATOM      6  N   UNL     1      31.194  11.394   5.074  1.00  0.00    -0.271 N 
ATOM      7  C   UNL     1      32.157  13.557   4.684  1.00  0.00     0.090 A 
ATOM      8  C   UNL     1      32.047  12.398   5.445  1.00  0.00     0.099 A 
ATOM      9  C   UNL     1      31.390  13.673   3.531  1.00  0.00     0.253 A 
ATOM     10  N   UNL     1      30.561  12.661   3.167  1.00  0.00    -0.274 N 
ATOM     11  O   UNL     1      31.467  14.713   2.823  1.00  0.00    -0.269 OA
ATOM     12  C   UNL     1      30.462  11.528   3.916  1.00  0.00     0.330 A 
ATOM     13  H   UNL     1      29.994  12.751   2.293  1.00  0.00     0.175 HD
ATOM     14  O   UNL     1      29.699  10.602   3.525  1.00  0.00    -0.248 OA
ENDBRANCH   1   6
BRANCH   2  15
ATOM     15  O   UNL     1      28.943  11.153   6.542  1.00  0.00    -0.386 OA
ATOM     16  H   UNL     1      29.082  11.883   7.198  1.00  0.00     0.211 HD
ENDBRANCH   2  15
BRANCH   3  17
ATOM     17  O   UNL     1      29.714   9.326   9.073  1.00  0.00    -0.387 OA
ATOM     18  H   UNL     1      30.213   9.315   9.931  1.00  0.00     0.211 HD
ENDBRANCH   3  17
BRANCH   4  19
ATOM     19  C   UNL     1      32.820  10.186   9.076  1.00  0.00     0.191 C 
BRANCH  19  20
ATOM     20  O   UNL     1      32.756  11.584   9.165  1.00  0.00    -0.394 OA
ATOM     21  H   UNL     1      33.625  11.930   8.832  1.00  0.00     0.210 HD
ENDBRANCH  19  20
ENDBRANCH   4  19
TORSDOF 5
ENDMDL
MODEL 7
REMARK VINA RESULT:    -4.867      7.791      9.936
REMARK INTER + INTRA:          -6.318
REMARK INTER:                  -5.946
REMARK INTRA:                  -0.372
REMARK UNBOUND:                -0.455
REMARK SMILES O=c1ccn([C@H]2O[C@@H](CO)[C@H](O)[C@H]2O)c(=O)[nH]1
REMARK SMILES IDX 6 1 13 2 11 3 8 4 7 5 5 6 3 7 4 8 2 9 17 10 1 11 15 12 16 14
REMARK SMILES IDX 14 15 12 17 9 19 10 20
REMARK H PARENT 17 13 14 16 12 18 10 21
REMARK Flexibility Score: inf
ROOT
ATOM      1  C   UNL     1      28.457   2.353   7.222  1.00  0.00     0.255 C 
ATOM      2  C   UNL     1      27.009   1.837   7.319  1.00  0.00     0.196 C 
ATOM      3  C   UNL     1      26.881   0.906   6.132  1.00  0.00     0.179 C 
ATOM      4  C   UNL     1      27.977   1.420   5.206  1.00  0.00     0.178 C 
ATOM      5  O   UNL     1      29.028   1.908   6.007  1.00  0.00    -0.347 OA
ENDROOT
BRANCH   1   6
ATOM      6  N   UNL     1      29.292   1.945   8.374  1.00  0.00    -0.271 N 
ATOM      7  C   UNL     1      30.540   0.219   9.480  1.00  0.00     0.090 A 
ATOM      8  C   UNL     1      29.740   0.653   8.428  1.00  0.00     0.099 A 
ATOM      9  C   UNL     1      30.885   1.127  10.474  1.00  0.00     0.253 A 
ATOM     10  N   UNL     1      30.447   2.411  10.397  1.00  0.00    -0.274 N 
ATOM     11  O   UNL     1      31.606   0.761  11.440  1.00  0.00    -0.269 OA
ATOM     12  C   UNL     1      29.667   2.828   9.362  1.00  0.00     0.330 A 
ATOM     13  H   UNL     1      30.719   3.091  11.143  1.00  0.00     0.175 HD
ATOM     14  O   UNL     1      29.306   4.036   9.318  1.00  0.00    -0.248 OA
ENDBRANCH   1   6
BRANCH   2  15
ATOM     15  O   UNL     1      26.700   1.216   8.546  1.00  0.00    -0.386 OA
ATOM     16  H   UNL     1      26.412   1.912   9.191  1.00  0.00     0.211 HD
ENDBRANCH   2  15
BRANCH   3  17
ATOM     17  O   UNL     1      25.621   1.020   5.524  1.00  0.00    -0.387 OA
ATOM     18  H   UNL     1      25.789   1.098   4.548  1.00  0.00     0.211 HD
ENDBRANCH   3  17
BRANCH   4  19
ATOM     19  C   UNL     1      28.507   0.331   4.264  1.00  0.00     0.191 C 
BRANCH  19  20
ATOM     20  O   UNL     1      27.449  -0.372   3.670  1.00  0.00    -0.394 OA
ATOM     21  H   UNL     1      27.812  -0.785   2.843  1.00  0.00     0.210 HD
ENDBRANCH  19  20
ENDBRANCH   4  19
TORSDOF 5
ENDMDL
MODEL 8
REMARK VINA RESULT:    -4.825      3.005      4.930
REMARK INTER + INTRA:          -6.267
REMARK INTER:                  -5.802
REMARK INTRA:                  -0.465
REMARK UNBOUND:                -0.455
REMARK SMILES O=c1ccn([C@H]2O[C@@H](CO)[C@H](O)[C@H]2O)c(=O)[nH]1
REMARK SMILES IDX 6 1 13 2 11 3 8 4 7 5 5 6 3 7 4 8 2 9 17 10 1 11 15 12 16 14
REMARK SMILES IDX 14 15 12 17 9 19 10 20
REMARK H PARENT 17 13 14 16 12 18 10 21
REMARK Flexibility Score: inf
ROOT
ATOM      1  C   UNL     1      31.227   9.984   4.050  1.00  0.00     0.255 C 
ATOM      2  C   UNL     1      29.724   9.652   4.045  1.00  0.00     0.196 C 
ATOM      3  C   UNL     1      29.692   8.138   4.072  1.00  0.00     0.179 C 
ATOM      4  C   UNL     1      31.064   7.783   3.511  1.00  0.00     0.178 C 
ATOM      5  O   UNL     1      31.968   8.788   3.907  1.00  0.00    -0.347 OA
ENDROOT
BRANCH   1   6
ATOM      6  N   UNL     1      31.650  10.721   5.263  1.00  0.00    -0.271 N 
ATOM      7  C   UNL     1      32.544  10.643   7.488  1.00  0.00     0.090 A 
ATOM      8  C   UNL     1      32.120  10.002   6.328  1.00  0.00     0.099 A 
ATOM      9  C   UNL     1      32.490  12.031   7.541  1.00  0.00     0.253 A 
ATOM     10  N   UNL     1      32.037  12.730   6.468  1.00  0.00    -0.274 N 
ATOM     11  O   UNL     1      32.866  12.638   8.580  1.00  0.00    -0.269 OA
ATOM     12  C   UNL     1      31.627  12.095   5.336  1.00  0.00     0.330 A 
ATOM     13  H   UNL     1      32.009  13.775   6.512  1.00  0.00     0.175 HD
ATOM     14  O   UNL     1      31.240  12.786   4.355  1.00  0.00    -0.248 OA
ENDBRANCH   1   6
BRANCH   2  15
ATOM     15  O   UNL     1      29.000  10.239   5.102  1.00  0.00    -0.386 OA
ATOM     16  H   UNL     1      28.283   9.615   5.382  1.00  0.00     0.211 HD
ENDBRANCH   2  15
BRANCH   3  17
ATOM     17  O   UNL     1      28.673   7.631   3.251  1.00  0.00    -0.387 OA
ATOM     18  H   UNL     1      27.951   8.313   3.248  1.00  0.00     0.211 HD
ENDBRANCH   3  17
BRANCH   4  19
ATOM     19  C   UNL     1      31.562   6.417   4.002  1.00  0.00     0.191 C 
BRANCH  19  20
ATOM     20  O   UNL     1      30.488   5.606   4.395  1.00  0.00    -0.394 OA
ATOM     21  H   UNL     1      30.442   5.656   5.385  1.00  0.00     0.210 HD
ENDBRANCH  19  20
ENDBRANCH   4  19
TORSDOF 5
ENDMDL
MODEL 9
REMARK VINA RESULT:    -4.816      7.669      9.108
REMARK INTER + INTRA:          -6.257
REMARK INTER:                  -5.800
REMARK INTRA:                  -0.457
REMARK UNBOUND:                -0.455
REMARK SMILES O=c1ccn([C@H]2O[C@@H](CO)[C@H](O)[C@H]2O)c(=O)[nH]1
REMARK SMILES IDX 6 1 13 2 11 3 8 4 7 5 5 6 3 7 4 8 2 9 17 10 1 11 15 12 16 14
REMARK SMILES IDX 14 15 12 17 9 19 10 20
REMARK H PARENT 17 13 14 16 12 18 10 21
REMARK Flexibility Score: inf
ROOT
ATOM      1  C   UNL     1      30.333   1.176   7.399  1.00  0.00     0.255 C 
ATOM      2  C   UNL     1      30.311   0.708   8.867  1.00  0.00     0.196 C 
ATOM      3  C   UNL     1      30.461   1.993   9.654  1.00  0.00     0.179 C 
ATOM      4  C   UNL     1      31.120   2.914   8.633  1.00  0.00     0.178 C 
ATOM      5  O   UNL     1      30.649   2.554   7.355  1.00  0.00    -0.347 OA
ENDROOT
BRANCH   1   6
ATOM      6  N   UNL     1      29.062   0.906   6.691  1.00  0.00    -0.271 N 
ATOM      7  C   UNL     1      26.831   1.617   6.160  1.00  0.00     0.090 A 
ATOM      8  C   UNL     1      28.043   1.812   6.816  1.00  0.00     0.099 A 
ATOM      9  C   UNL     1      26.677   0.487   5.366  1.00  0.00     0.253 A 
ATOM     10  N   UNL     1      27.704  -0.394   5.238  1.00  0.00    -0.274 N 
ATOM     11  O   UNL     1      25.590   0.283   4.762  1.00  0.00    -0.269 OA
ATOM     12  C   UNL     1      28.888  -0.193   5.881  1.00  0.00     0.330 A 
ATOM     13  H   UNL     1      27.584  -1.237   4.631  1.00  0.00     0.175 HD
ATOM     14  O   UNL     1      29.822  -1.023   5.712  1.00  0.00    -0.248 OA
ENDBRANCH   1   6
BRANCH   2  15
ATOM     15  O   UNL     1      29.161  -0.026   9.220  1.00  0.00    -0.386 OA
ATOM     16  H   UNL     1      29.160  -0.163  10.202  1.00  0.00     0.211 HD
ENDBRANCH   2  15
BRANCH   3  17
ATOM     17  O   UNL     1      31.291   1.816  10.772  1.00  0.00    -0.387 OA
ATOM     18  H   UNL     1      31.940   2.567  10.760  1.00  0.00     0.211 HD
ENDBRANCH   3  17
BRANCH   4  19
ATOM     19  C   UNL     1      30.816   4.395   8.898  1.00  0.00     0.191 C 
BRANCH  19  20
ATOM     20  O   UNL     1      30.117   4.553  10.103  1.00  0.00    -0.394 OA
ATOM     21  H   UNL     1      29.485   3.790  10.167  1.00  0.00     0.210 HD
ENDBRANCH  19  20
ENDBRANCH   4  19
TORSDOF 5
ENDMDL
