MODEL 1
REMARK VINA RESULT:    -4.210      0.000      0.000
REMARK INTER + INTRA:          -5.326
REMARK INTER:                  -5.195
REMARK INTRA:                  -0.131
REMARK UNBOUND:                -0.131
REMARK SMILES CCCCCC(=O)[O-]
REMARK SMILES IDX 4 1 5 2 6 3 7 4 8 5 3 6 2 7 1 8
REMARK H PARENT
REMARK Flexibility Score: inf
ROOT
ATOM      1  C   UNL     1      25.228   3.629  62.940  1.00  0.00     0.006 C 
ENDROOT
BRANCH   1   2
ATOM      2  C   UNL     1      24.015   3.967  63.816  1.00  0.00     0.053 C 
BRANCH   2   3
ATOM      3  C   UNL     1      24.071   3.264  65.137  1.00  0.00     0.041 C 
ATOM      4  O   UNL     1      25.171   3.118  65.733  1.00  0.00    -0.550 OA
ATOM      5  O   UNL     1      22.911   2.739  65.695  1.00  0.00    -0.550 OA
ENDBRANCH   2   3
ENDBRANCH   1   2
BRANCH   1   6
ATOM      6  C   UNL     1      25.041   2.311  62.172  1.00  0.00     0.000 C 
BRANCH   6   7
ATOM      7  C   UNL     1      25.920   1.203  62.763  1.00  0.00    -0.003 C 
ATOM      8  C   UNL     1      25.635  -0.141  62.098  1.00  0.00     0.004 C 
ENDBRANCH   6   7
ENDBRANCH   1   6
TORSDOF 4
ENDMDL
MODEL 2
REMARK VINA RESULT:    -4.143      5.298      7.043
REMARK INTER + INTRA:          -5.244
REMARK INTER:                  -5.084
REMARK INTRA:                  -0.160
REMARK UNBOUND:                -0.131
REMARK SMILES CCCCCC(=O)[O-]
REMARK SMILES IDX 4 1 5 2 6 3 7 4 8 5 3 6 2 7 1 8
REMARK H PARENT
REMARK Flexibility Score: inf
ROOT
ATOM      1  C   UNL     1      25.191  -3.418  61.539  1.00  0.00     0.006 C 
ENDROOT
BRANCH   1   2
ATOM      2  C   UNL     1      24.181  -4.026  60.558  1.00  0.00     0.053 C 
BRANCH   2   3
ATOM      3  C   UNL     1      24.164  -3.292  59.253  1.00  0.00     0.041 C 
ATOM      4  O   UNL     1      25.232  -3.114  58.611  1.00  0.00    -0.550 OA
ATOM      5  O   UNL     1      22.971  -2.775  58.761  1.00  0.00    -0.550 OA
ENDBRANCH   2   3
ENDBRANCH   1   2
BRANCH   1   6
ATOM      6  C   UNL     1      24.802  -1.994  61.966  1.00  0.00     0.000 C 
BRANCH   6   7
ATOM      7  C   UNL     1      25.920  -0.997  61.635  1.00  0.00    -0.003 C 
ATOM      8  C   UNL     1      25.666   0.355  62.294  1.00  0.00     0.004 C 
ENDBRANCH   6   7
ENDBRANCH   1   6
TORSDOF 4
ENDMDL
MODEL 3
REMARK VINA RESULT:    -4.120      2.353      3.538
REMARK INTER + INTRA:          -5.214
REMARK INTER:                  -5.025
REMARK INTRA:                  -0.189
REMARK UNBOUND:                -0.131
REMARK SMILES CCCCCC(=O)[O-]
REMARK SMILES IDX 4 1 5 2 6 3 7 4 8 5 3 6 2 7 1 8
REMARK H PARENT
REMARK Flexibility Score: inf
ROOT
ATOM      1  C   UNL     1      25.603   1.747  63.144  1.00  0.00     0.006 C 
ENDROOT
BRANCH   1   2
ATOM      2  C   UNL     1      25.309   2.911  62.188  1.00  0.00     0.053 C 
BRANCH   2   3
ATOM      3  C   UNL     1      23.864   2.958  61.799  1.00  0.00     0.041 C 
ATOM      4  O   UNL     1      23.469   3.769  60.921  1.00  0.00    -0.550 OA
ATOM      5  O   UNL     1      22.946   2.127  62.431  1.00  0.00    -0.550 OA
ENDBRANCH   2   3
ENDBRANCH   1   2
BRANCH   1   6
ATOM      6  C   UNL     1      26.157   2.229  64.494  1.00  0.00     0.000 C 
BRANCH   6   7
ATOM      7  C   UNL     1      25.372   3.442  65.007  1.00  0.00    -0.003 C 
ATOM      8  C   UNL     1      24.072   3.013  65.680  1.00  0.00     0.004 C 
ENDBRANCH   6   7
ENDBRANCH   1   6
TORSDOF 4
ENDMDL
MODEL 4
REMARK VINA RESULT:    -4.094      6.023      7.351
REMARK INTER + INTRA:          -5.182
REMARK INTER:                  -4.948
REMARK INTRA:                  -0.235
REMARK UNBOUND:                -0.131
REMARK SMILES CCCCCC(=O)[O-]
REMARK SMILES IDX 4 1 5 2 6 3 7 4 8 5 3 6 2 7 1 8
REMARK H PARENT
REMARK Flexibility Score: inf
ROOT
ATOM      1  C   UNL     1      23.131  -2.580  61.202  1.00  0.00     0.006 C 
ENDROOT
BRANCH   1   2
ATOM      2  C   UNL     1      23.108  -3.605  60.061  1.00  0.00     0.053 C 
BRANCH   2   3
ATOM      3  C   UNL     1      23.752  -3.069  58.820  1.00  0.00     0.041 C 
ATOM      4  O   UNL     1      23.043  -2.622  57.880  1.00  0.00    -0.550 OA
ATOM      5  O   UNL     1      25.135  -3.094  58.687  1.00  0.00    -0.550 OA
ENDBRANCH   2   3
ENDBRANCH   1   2
BRANCH   1   6
ATOM      6  C   UNL     1      24.006  -3.038  62.378  1.00  0.00     0.000 C 
BRANCH   6   7
ATOM      7  C   UNL     1      25.478  -2.684  62.137  1.00  0.00    -0.003 C 
ATOM      8  C   UNL     1      25.637  -1.215  61.756  1.00  0.00     0.004 C 
ENDBRANCH   6   7
ENDBRANCH   1   6
TORSDOF 4
ENDMDL
MODEL 5
REMARK VINA RESULT:    -4.080      5.315      6.110
REMARK INTER + INTRA:          -5.165
REMARK INTER:                  -5.034
REMARK INTRA:                  -0.131
REMARK UNBOUND:                -0.131
REMARK SMILES CCCCCC(=O)[O-]
REMARK SMILES IDX 4 1 5 2 6 3 7 4 8 5 3 6 2 7 1 8
REMARK H PARENT
REMARK Flexibility Score: inf
ROOT
ATOM      1  C   UNL     1      25.831  -1.671  61.119  1.00  0.00     0.006 C 
ENDROOT
BRANCH   1   2
ATOM      2  C   UNL     1      25.421  -2.804  62.069  1.00  0.00     0.053 C 
BRANCH   2   3
ATOM      3  C   UNL     1      23.968  -2.730  62.425  1.00  0.00     0.041 C 
ATOM      4  O   UNL     1      23.457  -3.594  63.186  1.00  0.00    -0.550 OA
ATOM      5  O   UNL     1      23.171  -1.726  61.890  1.00  0.00    -0.550 OA
ENDBRANCH   2   3
ENDBRANCH   1   2
BRANCH   1   6
ATOM      6  C   UNL     1      26.214  -2.191  59.725  1.00  0.00     0.000 C 
BRANCH   6   7
ATOM      7  C   UNL     1      25.381  -3.422  59.350  1.00  0.00    -0.003 C 
ATOM      8  C   UNL     1      24.106  -3.021  58.613  1.00  0.00     0.004 C 
ENDBRANCH   6   7
ENDBRANCH   1   6
TORSDOF 4
ENDMDL
MODEL 6
REMARK VINA RESULT:    -4.059      1.701      2.308
REMARK INTER + INTRA:          -5.140
REMARK INTER:                  -4.938
REMARK INTRA:                  -0.202
REMARK UNBOUND:                -0.131
REMARK SMILES CCCCCC(=O)[O-]
REMARK SMILES IDX 4 1 5 2 6 3 7 4 8 5 3 6 2 7 1 8
REMARK H PARENT
REMARK Flexibility Score: inf
ROOT
ATOM      1  C   UNL     1      25.137   3.428  64.749  1.00  0.00     0.006 C 
ENDROOT
BRANCH   1   2
ATOM      2  C   UNL     1      23.919   3.012  65.584  1.00  0.00     0.053 C 
BRANCH   2   3
ATOM      3  C   UNL     1      22.666   2.985  64.763  1.00  0.00     0.041 C 
ATOM      4  O   UNL     1      21.707   2.239  65.092  1.00  0.00    -0.550 OA
ATOM      5  O   UNL     1      22.572   3.761  63.613  1.00  0.00    -0.550 OA
ENDBRANCH   2   3
ENDBRANCH   1   2
BRANCH   1   6
ATOM      6  C   UNL     1      26.146   2.282  64.581  1.00  0.00     0.000 C 
BRANCH   6   7
ATOM      7  C   UNL     1      25.923   1.546  63.255  1.00  0.00    -0.003 C 
ATOM      8  C   UNL     1      25.438   2.501  62.168  1.00  0.00     0.004 C 
ENDBRANCH   6   7
ENDBRANCH   1   6
TORSDOF 4
ENDMDL
MODEL 7
REMARK VINA RESULT:    -4.032      2.425      3.159
REMARK INTER + INTRA:          -5.106
REMARK INTER:                  -4.882
REMARK INTRA:                  -0.224
REMARK UNBOUND:                -0.131
REMARK SMILES CCCCCC(=O)[O-]
REMARK SMILES IDX 4 1 5 2 6 3 7 4 8 5 3 6 2 7 1 8
REMARK H PARENT
REMARK Flexibility Score: inf
ROOT
ATOM      1  C   UNL     1      24.013   3.031  64.998  1.00  0.00     0.006 C 
ENDROOT
BRANCH   1   2
ATOM      2  C   UNL     1      25.478   3.415  64.755  1.00  0.00     0.053 C 
BRANCH   2   3
ATOM      3  C   UNL     1      26.309   2.226  64.383  1.00  0.00     0.041 C 
ATOM      4  O   UNL     1      27.350   1.950  65.036  1.00  0.00    -0.550 OA
ATOM      5  O   UNL     1      25.952   1.443  63.293  1.00  0.00    -0.550 OA
ENDBRANCH   2   3
ENDBRANCH   1   2
BRANCH   1   6
ATOM      6  C   UNL     1      23.055   3.758  64.042  1.00  0.00     0.000 C 
BRANCH   6   7
ATOM      7  C   UNL     1      22.842   2.948  62.757  1.00  0.00    -0.003 C 
ATOM      8  C   UNL     1      23.565   3.587  61.576  1.00  0.00     0.004 C 
ENDBRANCH   6   7
ENDBRANCH   1   6
TORSDOF 4
ENDMDL
MODEL 8
REMARK VINA RESULT:    -4.009      6.213      6.983
REMARK INTER + INTRA:          -5.077
REMARK INTER:                  -4.862
REMARK INTRA:                  -0.215
REMARK UNBOUND:                -0.131
REMARK SMILES CCCCCC(=O)[O-]
REMARK SMILES IDX 4 1 5 2 6 3 7 4 8 5 3 6 2 7 1 8
REMARK H PARENT
REMARK Flexibility Score: inf
ROOT
ATOM      1  C   UNL     1      25.437  -2.999  62.020  1.00  0.00     0.006 C 
ENDROOT
BRANCH   1   2
ATOM      2  C   UNL     1      25.580  -1.826  61.042  1.00  0.00     0.053 C 
BRANCH   2   3
ATOM      3  C   UNL     1      26.124  -2.270  59.719  1.00  0.00     0.041 C 
ATOM      4  O   UNL     1      27.292  -1.951  59.373  1.00  0.00    -0.550 OA
ATOM      5  O   UNL     1      25.328  -3.010  58.853  1.00  0.00    -0.550 OA
ENDBRANCH   2   3
ENDBRANCH   1   2
BRANCH   1   6
ATOM      6  C   UNL     1      23.987  -3.495  62.125  1.00  0.00     0.000 C 
BRANCH   6   7
ATOM      7  C   UNL     1      23.006  -2.434  61.613  1.00  0.00    -0.003 C 
ATOM      8  C   UNL     1      22.095  -3.002  60.529  1.00  0.00     0.004 C 
ENDBRANCH   6   7
ENDBRANCH   1   6
TORSDOF 4
ENDMDL
MODEL 9
REMARK VINA RESULT:    -4.004      2.403      3.715
REMARK INTER + INTRA:          -5.072
REMARK INTER:                  -4.841
REMARK INTRA:                  -0.231
REMARK UNBOUND:                -0.131
REMARK SMILES CCCCCC(=O)[O-]
REMARK SMILES IDX 4 1 5 2 6 3 7 4 8 5 3 6 2 7 1 8
REMARK H PARENT
REMARK Flexibility Score: inf
ROOT
ATOM      1  C   UNL     1      25.417   3.390  64.844  1.00  0.00     0.006 C 
ENDROOT
BRANCH   1   2
ATOM      2  C   UNL     1      26.191   2.185  64.295  1.00  0.00     0.053 C 
BRANCH   2   3
ATOM      3  C   UNL     1      25.835   1.899  62.869  1.00  0.00     0.041 C 
ATOM      4  O   UNL     1      25.816   0.713  62.445  1.00  0.00    -0.550 OA
ATOM      5  O   UNL     1      25.557   2.946  61.999  1.00  0.00    -0.550 OA
ENDBRANCH   2   3
ENDBRANCH   1   2
BRANCH   1   6
ATOM      6  C   UNL     1      23.969   3.032  65.213  1.00  0.00     0.000 C 
BRANCH   6   7
ATOM      7  C   UNL     1      22.977   3.718  64.267  1.00  0.00    -0.003 C 
ATOM      8  C   UNL     1      22.108   2.695  63.542  1.00  0.00     0.004 C 
ENDBRANCH   6   7
ENDBRANCH   1   6
TORSDOF 4
ENDMDL
