MODEL 1
REMARK VINA RESULT:    -5.148      0.000      0.000
REMARK INTER + INTRA:          -5.299
REMARK INTER:                  -5.299
REMARK INTRA:                   0.000
REMARK UNBOUND:                 0.000
REMARK SMILES O=c1ccc2cc(O)ccc2o1
REMARK SMILES IDX 9 1 10 2 11 3 5 4 4 5 3 6 2 7 1 8 12 9 6 10 7 11 8 12
REMARK H PARENT 8 13
REMARK Flexibility Score: inf
ROOT
ATOM      1  C   UNL     1       5.448   9.706   2.878  1.00  0.00     0.050 A 
ATOM      2  C   UNL     1       4.406   9.402   3.760  1.00  0.00     0.052 A 
ATOM      3  C   UNL     1       3.936  10.373   4.652  1.00  0.00     0.138 A 
ATOM      4  C   UNL     1       4.518  11.660   4.657  1.00  0.00     0.021 A 
ATOM      5  C   UNL     1       4.029  12.609   5.559  1.00  0.00     0.019 A 
ATOM      6  C   UNL     1       2.988  12.261   6.420  1.00  0.00     0.094 A 
ATOM      7  C   UNL     1       2.460  10.968   6.359  1.00  0.00     0.336 A 
ATOM      8  O   UNL     1       1.521  10.635   7.127  1.00  0.00    -0.246 OA
ATOM      9  O   UNL     1       2.944  10.082   5.490  1.00  0.00    -0.423 OA
ATOM     10  C   UNL     1       5.563  11.959   3.771  1.00  0.00     0.058 A 
ATOM     11  C   UNL     1       6.028  10.983   2.881  1.00  0.00     0.116 A 
ENDROOT
BRANCH  11  12
ATOM     12  O   UNL     1       7.067  11.292   2.005  1.00  0.00    -0.508 OA
ATOM     13  H   UNL     1       7.726  10.587   1.697  1.00  0.00     0.293 HD
ENDBRANCH  11  12
TORSDOF 1
ENDMDL
MODEL 2
REMARK VINA RESULT:    -5.097      0.931      2.083
REMARK INTER + INTRA:          -5.246
REMARK INTER:                  -5.246
REMARK INTRA:                   0.000
REMARK UNBOUND:                 0.000
REMARK SMILES O=c1ccc2cc(O)ccc2o1
REMARK SMILES IDX 9 1 10 2 11 3 5 4 4 5 3 6 2 7 1 8 12 9 6 10 7 11 8 12
REMARK H PARENT 8 13
REMARK Flexibility Score: inf
ROOT
ATOM      1  C   UNL     1       5.849  12.582   3.677  1.00  0.00     0.050 A 
ATOM      2  C   UNL     1       4.845  12.696   4.644  1.00  0.00     0.052 A 
ATOM      3  C   UNL     1       4.030  11.598   4.943  1.00  0.00     0.138 A 
ATOM      4  C   UNL     1       4.226  10.375   4.265  1.00  0.00     0.021 A 
ATOM      5  C   UNL     1       3.397   9.295   4.584  1.00  0.00     0.019 A 
ATOM      6  C   UNL     1       2.409   9.456   5.556  1.00  0.00     0.094 A 
ATOM      7  C   UNL     1       2.273  10.697   6.186  1.00  0.00     0.336 A 
ATOM      8  O   UNL     1       1.387  10.861   7.065  1.00  0.00    -0.246 OA
ATOM      9  O   UNL     1       3.075  11.709   5.864  1.00  0.00    -0.423 OA
ATOM     10  C   UNL     1       5.234  10.265   3.296  1.00  0.00     0.058 A 
ATOM     11  C   UNL     1       6.046  11.368   3.003  1.00  0.00     0.116 A 
ENDROOT
BRANCH  11  12
ATOM     12  O   UNL     1       7.044  11.247   2.038  1.00  0.00    -0.508 OA
ATOM     13  H   UNL     1       6.934  11.641   1.110  1.00  0.00     0.293 HD
ENDBRANCH  11  12
TORSDOF 1
ENDMDL
MODEL 3
REMARK VINA RESULT:    -4.991      7.465      9.022
REMARK INTER + INTRA:          -5.137
REMARK INTER:                  -5.137
REMARK INTRA:                   0.000
REMARK UNBOUND:                 0.000
REMARK SMILES O=c1ccc2cc(O)ccc2o1
REMARK SMILES IDX 9 1 10 2 11 3 5 4 4 5 3 6 2 7 1 8 12 9 6 10 7 11 8 12
REMARK H PARENT 8 13
REMARK Flexibility Score: inf
ROOT
ATOM      1  C   UNL     1       3.915   1.634  -1.039  1.00  0.00     0.050 A 
ATOM      2  C   UNL     1       4.638   2.276  -0.027  1.00  0.00     0.052 A 
ATOM      3  C   UNL     1       4.494   3.653   0.172  1.00  0.00     0.138 A 
ATOM      4  C   UNL     1       3.615   4.393  -0.651  1.00  0.00     0.021 A 
ATOM      5  C   UNL     1       3.491   5.767  -0.428  1.00  0.00     0.019 A 
ATOM      6  C   UNL     1       4.232   6.363   0.593  1.00  0.00     0.094 A 
ATOM      7  C   UNL     1       5.082   5.569   1.368  1.00  0.00     0.336 A 
ATOM      8  O   UNL     1       5.759   6.089   2.293  1.00  0.00    -0.246 OA
ATOM      9  O   UNL     1       5.182   4.262   1.136  1.00  0.00    -0.423 OA
ATOM     10  C   UNL     1       2.893   3.745  -1.663  1.00  0.00     0.058 A 
ATOM     11  C   UNL     1       3.042   2.366  -1.857  1.00  0.00     0.116 A 
ENDROOT
BRANCH  11  12
ATOM     12  O   UNL     1       2.319   1.733  -2.867  1.00  0.00    -0.508 OA
ATOM     13  H   UNL     1       1.884   0.830  -2.719  1.00  0.00     0.293 HD
ENDBRANCH  11  12
TORSDOF 1
ENDMDL
MODEL 4
REMARK VINA RESULT:    -4.941      3.333      5.323
REMARK INTER + INTRA:          -5.086
REMARK INTER:                  -5.086
REMARK INTRA:                   0.000
REMARK UNBOUND:                 0.000
REMARK SMILES O=c1ccc2cc(O)ccc2o1
REMARK SMILES IDX 9 1 10 2 11 3 5 4 4 5 3 6 2 7 1 8 12 9 6 10 7 11 8 12
REMARK H PARENT 8 13
REMARK Flexibility Score: inf
ROOT
ATOM      1  C   UNL     1       5.300  10.089   3.137  1.00  0.00     0.050 A 
ATOM      2  C   UNL     1       4.624   8.879   3.322  1.00  0.00     0.052 A 
ATOM      3  C   UNL     1       5.041   7.731   2.640  1.00  0.00     0.138 A 
ATOM      4  C   UNL     1       6.148   7.798   1.765  1.00  0.00     0.021 A 
ATOM      5  C   UNL     1       6.542   6.635   1.098  1.00  0.00     0.019 A 
ATOM      6  C   UNL     1       5.837   5.451   1.314  1.00  0.00     0.094 A 
ATOM      7  C   UNL     1       4.751   5.458   2.195  1.00  0.00     0.336 A 
ATOM      8  O   UNL     1       4.103   4.400   2.403  1.00  0.00    -0.246 OA
ATOM      9  O   UNL     1       4.397   6.579   2.818  1.00  0.00    -0.423 OA
ATOM     10  C   UNL     1       6.823   9.014   1.583  1.00  0.00     0.058 A 
ATOM     11  C   UNL     1       6.400  10.159   2.269  1.00  0.00     0.116 A 
ENDROOT
BRANCH  11  12
ATOM     12  O   UNL     1       7.078  11.361   2.079  1.00  0.00    -0.508 OA
ATOM     13  H   UNL     1       6.879  11.962   1.287  1.00  0.00     0.293 HD
ENDBRANCH  11  12
TORSDOF 1
ENDMDL
MODEL 5
REMARK VINA RESULT:    -4.907      2.281      3.323
REMARK INTER + INTRA:          -5.051
REMARK INTER:                  -5.051
REMARK INTRA:                   0.000
REMARK UNBOUND:                 0.000
REMARK SMILES O=c1ccc2cc(O)ccc2o1
REMARK SMILES IDX 9 1 10 2 11 3 5 4 4 5 3 6 2 7 1 8 12 9 6 10 7 11 8 12
REMARK H PARENT 8 13
REMARK Flexibility Score: inf
ROOT
ATOM      1  C   UNL     1       6.067   7.076   0.849  1.00  0.00     0.050 A 
ATOM      2  C   UNL     1       5.033   7.142   1.788  1.00  0.00     0.052 A 
ATOM      3  C   UNL     1       4.908   8.263   2.616  1.00  0.00     0.138 A 
ATOM      4  C   UNL     1       5.830   9.327   2.500  1.00  0.00     0.021 A 
ATOM      5  C   UNL     1       5.681  10.434   3.340  1.00  0.00     0.019 A 
ATOM      6  C   UNL     1       4.634  10.456   4.262  1.00  0.00     0.094 A 
ATOM      7  C   UNL     1       3.759   9.367   4.321  1.00  0.00     0.336 A 
ATOM      8  O   UNL     1       2.808   9.368   5.146  1.00  0.00    -0.246 OA
ATOM      9  O   UNL     1       3.923   8.325   3.509  1.00  0.00    -0.423 OA
ATOM     10  C   UNL     1       6.865   9.255   1.557  1.00  0.00     0.058 A 
ATOM     11  C   UNL     1       6.984   8.130   0.731  1.00  0.00     0.116 A 
ENDROOT
BRANCH  11  12
ATOM     12  O   UNL     1       8.017   8.071  -0.202  1.00  0.00    -0.508 OA
ATOM     13  H   UNL     1       8.802   7.439  -0.083  1.00  0.00     0.293 HD
ENDBRANCH  11  12
TORSDOF 1
ENDMDL
MODEL 6
REMARK VINA RESULT:    -4.884      2.312      5.856
REMARK INTER + INTRA:          -5.027
REMARK INTER:                  -5.027
REMARK INTRA:                   0.000
REMARK UNBOUND:                 0.000
REMARK SMILES O=c1ccc2cc(O)ccc2o1
REMARK SMILES IDX 9 1 10 2 11 3 5 4 4 5 3 6 2 7 1 8 12 9 6 10 7 11 8 12
REMARK H PARENT 8 13
REMARK Flexibility Score: inf
ROOT
ATOM      1  C   UNL     1       4.159   9.985   4.234  1.00  0.00     0.050 A 
ATOM      2  C   UNL     1       5.209  10.075   3.315  1.00  0.00     0.052 A 
ATOM      3  C   UNL     1       5.510   8.990   2.485  1.00  0.00     0.138 A 
ATOM      4  C   UNL     1       4.749   7.804   2.579  1.00  0.00     0.021 A 
ATOM      5  C   UNL     1       5.073   6.736   1.737  1.00  0.00     0.019 A 
ATOM      6  C   UNL     1       6.129   6.872   0.835  1.00  0.00     0.094 A 
ATOM      7  C   UNL     1       6.839   8.076   0.798  1.00  0.00     0.336 A 
ATOM      8  O   UNL     1       7.794   8.218  -0.008  1.00  0.00    -0.246 OA
ATOM      9  O   UNL     1       6.510   9.078   1.610  1.00  0.00    -0.423 OA
ATOM     10  C   UNL     1       3.697   7.718   3.502  1.00  0.00     0.058 A 
ATOM     11  C   UNL     1       3.401   8.808   4.329  1.00  0.00     0.116 A 
ENDROOT
BRANCH  11  12
ATOM     12  O   UNL     1       2.354   8.711   5.243  1.00  0.00    -0.508 OA
ATOM     13  H   UNL     1       1.436   8.384   4.963  1.00  0.00     0.293 HD
ENDBRANCH  11  12
TORSDOF 1
ENDMDL
MODEL 7
REMARK VINA RESULT:    -4.828      1.230      4.811
REMARK INTER + INTRA:          -4.969
REMARK INTER:                  -4.969
REMARK INTRA:                   0.000
REMARK UNBOUND:                 0.000
REMARK SMILES O=c1ccc2cc(O)ccc2o1
REMARK SMILES IDX 9 1 10 2 11 3 5 4 4 5 3 6 2 7 1 8 12 9 6 10 7 11 8 12
REMARK H PARENT 8 13
REMARK Flexibility Score: inf
ROOT
ATOM      1  C   UNL     1       2.888  12.018   5.725  1.00  0.00     0.050 A 
ATOM      2  C   UNL     1       3.945  11.986   4.811  1.00  0.00     0.052 A 
ATOM      3  C   UNL     1       4.303  10.782   4.193  1.00  0.00     0.138 A 
ATOM      4  C   UNL     1       3.591   9.600   4.496  1.00  0.00     0.021 A 
ATOM      5  C   UNL     1       3.970   8.413   3.863  1.00  0.00     0.019 A 
ATOM      6  C   UNL     1       5.031   8.430   2.958  1.00  0.00     0.094 A 
ATOM      7  C   UNL     1       5.691   9.637   2.707  1.00  0.00     0.336 A 
ATOM      8  O   UNL     1       6.651   9.672   1.894  1.00  0.00    -0.246 OA
ATOM      9  O   UNL     1       5.310  10.754   3.322  1.00  0.00    -0.423 OA
ATOM     10  C   UNL     1       2.531   9.638   5.413  1.00  0.00     0.058 A 
ATOM     11  C   UNL     1       2.178  10.846   6.027  1.00  0.00     0.116 A 
ENDROOT
BRANCH  11  12
ATOM     12  O   UNL     1       1.124  10.870   6.938  1.00  0.00    -0.508 OA
ATOM     13  H   UNL     1       0.297  11.433   6.774  1.00  0.00     0.293 HD
ENDBRANCH  11  12
TORSDOF 1
ENDMDL
MODEL 8
REMARK VINA RESULT:    -4.825      2.158      4.039
REMARK INTER + INTRA:          -4.966
REMARK INTER:                  -4.966
REMARK INTRA:                   0.000
REMARK UNBOUND:                 0.000
REMARK SMILES O=c1ccc2cc(O)ccc2o1
REMARK SMILES IDX 9 1 10 2 11 3 5 4 4 5 3 6 2 7 1 8 12 9 6 10 7 11 8 12
REMARK H PARENT 8 13
REMARK Flexibility Score: inf
ROOT
ATOM      1  C   UNL     1       4.440  11.778   4.430  1.00  0.00     0.050 A 
ATOM      2  C   UNL     1       3.970  10.461   4.451  1.00  0.00     0.052 A 
ATOM      3  C   UNL     1       4.551   9.496   3.622  1.00  0.00     0.138 A 
ATOM      4  C   UNL     1       5.614   9.856   2.764  1.00  0.00     0.021 A 
ATOM      5  C   UNL     1       6.175   8.871   1.947  1.00  0.00     0.019 A 
ATOM      6  C   UNL     1       5.674   7.570   2.003  1.00  0.00     0.094 A 
ATOM      7  C   UNL     1       4.620   7.285   2.876  1.00  0.00     0.336 A 
ATOM      8  O   UNL     1       4.154   6.118   2.940  1.00  0.00    -0.246 OA
ATOM      9  O   UNL     1       4.103   8.242   3.644  1.00  0.00    -0.423 OA
ATOM     10  C   UNL     1       6.082  11.178   2.747  1.00  0.00     0.058 A 
ATOM     11  C   UNL     1       5.496  12.139   3.580  1.00  0.00     0.116 A 
ENDROOT
BRANCH  11  12
ATOM     12  O   UNL     1       5.968  13.450   3.553  1.00  0.00    -0.508 OA
ATOM     13  H   UNL     1       6.088  13.986   4.405  1.00  0.00     0.293 HD
ENDBRANCH  11  12
TORSDOF 1
ENDMDL
MODEL 9
REMARK VINA RESULT:    -4.759     10.954     11.410
REMARK INTER + INTRA:          -4.898
REMARK INTER:                  -4.898
REMARK INTRA:                   0.000
REMARK UNBOUND:                 0.000
REMARK SMILES O=c1ccc2cc(O)ccc2o1
REMARK SMILES IDX 9 1 10 2 11 3 5 4 4 5 3 6 2 7 1 8 12 9 6 10 7 11 8 12
REMARK H PARENT 8 13
REMARK Flexibility Score: inf
ROOT
ATOM      1  C   UNL     1      -4.512   5.781   9.084  1.00  0.00     0.050 A 
ATOM      2  C   UNL     1      -3.369   5.037   9.394  1.00  0.00     0.052 A 
ATOM      3  C   UNL     1      -2.649   5.310  10.562  1.00  0.00     0.138 A 
ATOM      4  C   UNL     1      -3.082   6.339  11.428  1.00  0.00     0.021 A 
ATOM      5  C   UNL     1      -2.343   6.590  12.588  1.00  0.00     0.019 A 
ATOM      6  C   UNL     1      -1.210   5.822  12.855  1.00  0.00     0.094 A 
ATOM      7  C   UNL     1      -0.841   4.819  11.954  1.00  0.00     0.336 A 
ATOM      8  O   UNL     1       0.178   4.116  12.178  1.00  0.00    -0.246 OA
ATOM      9  O   UNL     1      -1.562   4.601  10.856  1.00  0.00    -0.423 OA
ATOM     10  C   UNL     1      -4.229   7.082  11.112  1.00  0.00     0.058 A 
ATOM     11  C   UNL     1      -4.944   6.803   9.941  1.00  0.00     0.116 A 
ENDROOT
BRANCH  11  12
ATOM     12  O   UNL     1      -6.082   7.549   9.638  1.00  0.00    -0.508 OA
ATOM     13  H   UNL     1      -6.750   7.810  10.355  1.00  0.00     0.293 HD
ENDBRANCH  11  12
TORSDOF 1
ENDMDL
