MODEL 1
REMARK VINA RESULT:    -4.965      0.000      0.000
REMARK INTER + INTRA:          -9.847
REMARK INTER:                  -9.029
REMARK INTRA:                  -0.817
REMARK UNBOUND:                -0.817
REMARK SMILES CCCCCCCCCCCCCC[C@@H](C)C(=O)[O-]
REMARK SMILES IDX 9 1 10 2 11 3 12 4 13 5 14 6 15 7 16 8 17 9 18 10 19 11 8 12
REMARK SMILES IDX 7 13 6 14 5 15 4 16 3 17 2 18 1 19
REMARK H PARENT
REMARK Flexibility Score: inf
ROOT
ATOM      1  C   UNL     1       0.344  -2.154  -0.015  1.00  0.00     0.000 C 
ENDROOT
BRANCH   1   2
ATOM      2  C   UNL     1       1.056  -1.598   1.238  1.00  0.00     0.000 C 
BRANCH   2   3
ATOM      3  C   UNL     1       0.606  -0.176   1.626  1.00  0.00     0.000 C 
BRANCH   3   4
ATOM      4  C   UNL     1       0.524   0.818   0.456  1.00  0.00     0.000 C 
BRANCH   4   5
ATOM      5  C   UNL     1      -0.851   1.492   0.343  1.00  0.00     0.001 C 
BRANCH   5   6
ATOM      6  C   UNL     1      -1.398   1.385  -1.088  1.00  0.00     0.009 C 
BRANCH   6   7
ATOM      7  C   UNL     1      -1.538   2.765  -1.764  1.00  0.00     0.032 C 
ATOM      8  C   UNL     1      -1.885   3.841  -0.730  1.00  0.00     0.014 C 
BRANCH   7   9
ATOM      9  C   UNL     1      -0.283   3.148  -2.500  1.00  0.00     0.044 C 
ATOM     10  O   UNL     1      -0.168   2.921  -3.735  1.00  0.00    -0.550 OA
ATOM     11  O   UNL     1       0.763   3.755  -1.817  1.00  0.00    -0.550 OA
ENDBRANCH   7   9
ENDBRANCH   6   7
ENDBRANCH   5   6
ENDBRANCH   4   5
ENDBRANCH   3   4
ENDBRANCH   2   3
ENDBRANCH   1   2
BRANCH   1  12
ATOM     12  C   UNL     1       0.870  -3.543  -0.416  1.00  0.00     0.000 C 
BRANCH  12  13
ATOM     13  C   UNL     1       0.757  -3.804  -1.926  1.00  0.00    -0.000 C 
BRANCH  13  14
ATOM     14  C   UNL     1       0.191  -5.200  -2.243  1.00  0.00    -0.000 C 
BRANCH  14  15
ATOM     15  C   UNL     1       0.035  -6.073  -0.988  1.00  0.00    -0.000 C 
BRANCH  15  16
ATOM     16  C   UNL     1      -0.384  -7.513  -1.320  1.00  0.00    -0.000 C 
BRANCH  16  17
ATOM     17  C   UNL     1      -1.701  -7.876  -0.621  1.00  0.00    -0.000 C 
BRANCH  17  18
ATOM     18  C   UNL     1      -1.787  -9.383  -0.359  1.00  0.00    -0.003 C 
ATOM     19  C   UNL     1      -1.950  -9.674   1.130  1.00  0.00     0.004 C 
ENDBRANCH  17  18
ENDBRANCH  16  17
ENDBRANCH  15  16
ENDBRANCH  14  15
ENDBRANCH  13  14
ENDBRANCH  12  13
ENDBRANCH   1  12
TORSDOF 14
ENDMDL
MODEL 2
REMARK VINA RESULT:    -4.811      1.458      2.434
REMARK INTER + INTRA:          -9.565
REMARK INTER:                  -8.818
REMARK INTRA:                  -0.747
REMARK UNBOUND:                -0.817
REMARK SMILES CCCCCCCCCCCCCC[C@@H](C)C(=O)[O-]
REMARK SMILES IDX 9 1 10 2 11 3 12 4 13 5 14 6 15 7 16 8 17 9 18 10 19 11 8 12
REMARK SMILES IDX 7 13 6 14 5 15 4 16 3 17 2 18 1 19
REMARK H PARENT
REMARK Flexibility Score: inf
ROOT
ATOM      1  C   UNL     1       0.930  -3.510  -0.438  1.00  0.00     0.000 C 
ENDROOT
BRANCH   1   2
ATOM      2  C   UNL     1       0.219  -2.228   0.047  1.00  0.00     0.000 C 
BRANCH   2   3
ATOM      3  C   UNL     1       0.989  -1.472   1.148  1.00  0.00     0.000 C 
BRANCH   3   4
ATOM      4  C   UNL     1       0.702   0.037   1.218  1.00  0.00     0.000 C 
BRANCH   4   5
ATOM      5  C   UNL     1      -0.119   0.543   0.023  1.00  0.00     0.001 C 
BRANCH   5   6
ATOM      6  C   UNL     1      -0.783   1.889   0.345  1.00  0.00     0.009 C 
BRANCH   6   7
ATOM      7  C   UNL     1      -1.432   2.532  -0.899  1.00  0.00     0.032 C 
ATOM      8  C   UNL     1      -2.301   3.729  -0.499  1.00  0.00     0.014 C 
BRANCH   7   9
ATOM      9  C   UNL     1      -0.395   2.964  -1.901  1.00  0.00     0.044 C 
ATOM     10  O   UNL     1       0.731   3.380  -1.519  1.00  0.00    -0.550 OA
ATOM     11  O   UNL     1      -0.680   2.909  -3.259  1.00  0.00    -0.550 OA
ENDBRANCH   7   9
ENDBRANCH   6   7
ENDBRANCH   5   6
ENDBRANCH   4   5
ENDBRANCH   3   4
ENDBRANCH   2   3
ENDBRANCH   1   2
BRANCH   1  12
ATOM     12  C   UNL     1       0.755  -3.737  -1.950  1.00  0.00     0.000 C 
BRANCH  12  13
ATOM     13  C   UNL     1       0.306  -5.168  -2.284  1.00  0.00    -0.000 C 
BRANCH  13  14
ATOM     14  C   UNL     1       0.077  -6.025  -1.027  1.00  0.00    -0.000 C 
BRANCH  14  15
ATOM     15  C   UNL     1      -0.162  -7.507  -1.358  1.00  0.00    -0.000 C 
BRANCH  15  16
ATOM     16  C   UNL     1       0.653  -8.450  -0.461  1.00  0.00    -0.000 C 
BRANCH  16  17
ATOM     17  C   UNL     1       1.525  -9.390  -1.303  1.00  0.00    -0.000 C 
BRANCH  17  18
ATOM     18  C   UNL     1       1.730  -8.833  -2.716  1.00  0.00    -0.003 C 
ATOM     19  C   UNL     1       3.050  -9.314  -3.312  1.00  0.00     0.004 C 
ENDBRANCH  17  18
ENDBRANCH  16  17
ENDBRANCH  15  16
ENDBRANCH  14  15
ENDBRANCH  13  14
ENDBRANCH  12  13
ENDBRANCH   1  12
TORSDOF 14
ENDMDL
MODEL 3
REMARK VINA RESULT:    -4.699      4.596      9.927
REMARK INTER + INTRA:          -9.363
REMARK INTER:                  -8.732
REMARK INTRA:                  -0.631
REMARK UNBOUND:                -0.817
REMARK SMILES CCCCCCCCCCCCCC[C@@H](C)C(=O)[O-]
REMARK SMILES IDX 9 1 10 2 11 3 12 4 13 5 14 6 15 7 16 8 17 9 18 10 19 11 8 12
REMARK SMILES IDX 7 13 6 14 5 15 4 16 3 17 2 18 1 19
REMARK H PARENT
REMARK Flexibility Score: inf
ROOT
ATOM      1  C   UNL     1       1.167  -2.968   0.307  1.00  0.00     0.000 C 
ENDROOT
BRANCH   1   2
ATOM      2  C   UNL     1       0.840  -3.751  -0.984  1.00  0.00     0.000 C 
BRANCH   2   3
ATOM      3  C   UNL     1      -0.002  -5.019  -0.743  1.00  0.00     0.000 C 
BRANCH   3   4
ATOM      4  C   UNL     1       0.080  -6.072  -1.861  1.00  0.00     0.000 C 
BRANCH   4   5
ATOM      5  C   UNL     1       0.314  -7.492  -1.325  1.00  0.00     0.001 C 
BRANCH   5   6
ATOM      6  C   UNL     1      -1.008  -8.268  -1.233  1.00  0.00     0.009 C 
BRANCH   6   7
ATOM      7  C   UNL     1      -0.811  -9.688  -0.662  1.00  0.00     0.032 C 
ATOM      8  C   UNL     1       0.654 -10.120  -0.779  1.00  0.00     0.014 C 
BRANCH   7   9
ATOM      9  C   UNL     1      -1.257  -9.773   0.773  1.00  0.00     0.044 C 
ATOM     10  O   UNL     1      -2.453  -9.534   1.088  1.00  0.00    -0.550 OA
ATOM     11  O   UNL     1      -0.343 -10.113   1.763  1.00  0.00    -0.550 OA
ENDBRANCH   7   9
ENDBRANCH   6   7
ENDBRANCH   5   6
ENDBRANCH   4   5
ENDBRANCH   3   4
ENDBRANCH   2   3
ENDBRANCH   1   2
BRANCH   1  12
ATOM     12  C   UNL     1       0.356  -1.666   0.420  1.00  0.00     0.000 C 
BRANCH  12  13
ATOM     13  C   UNL     1       0.957  -0.681   1.434  1.00  0.00    -0.000 C 
BRANCH  13  14
ATOM     14  C   UNL     1       0.449   0.758   1.234  1.00  0.00    -0.000 C 
BRANCH  14  15
ATOM     15  C   UNL     1      -0.442   0.901  -0.011  1.00  0.00    -0.000 C 
BRANCH  15  16
ATOM     16  C   UNL     1      -1.074   2.296  -0.126  1.00  0.00    -0.000 C 
BRANCH  16  17
ATOM     17  C   UNL     1      -1.844   2.443  -1.444  1.00  0.00    -0.000 C 
BRANCH  17  18
ATOM     18  C   UNL     1      -0.884   2.540  -2.635  1.00  0.00    -0.003 C 
ATOM     19  C   UNL     1       0.044   3.743  -2.498  1.00  0.00     0.004 C 
ENDBRANCH  17  18
ENDBRANCH  16  17
ENDBRANCH  15  16
ENDBRANCH  14  15
ENDBRANCH  13  14
ENDBRANCH  12  13
ENDBRANCH   1  12
TORSDOF 14
ENDMDL
MODEL 4
REMARK VINA RESULT:    -4.623      4.453      9.596
REMARK INTER + INTRA:          -9.224
REMARK INTER:                  -8.475
REMARK INTRA:                  -0.749
REMARK UNBOUND:                -0.817
REMARK SMILES CCCCCCCCCCCCCC[C@@H](C)C(=O)[O-]
REMARK SMILES IDX 9 1 10 2 11 3 12 4 13 5 14 6 15 7 16 8 17 9 18 10 19 11 8 12
REMARK SMILES IDX 7 13 6 14 5 15 4 16 3 17 2 18 1 19
REMARK H PARENT
REMARK Flexibility Score: inf
ROOT
ATOM      1  C   UNL     1       0.075  -1.944   0.061  1.00  0.00     0.000 C 
ENDROOT
BRANCH   1   2
ATOM      2  C   UNL     1       0.760  -3.297  -0.230  1.00  0.00     0.000 C 
BRANCH   2   3
ATOM      3  C   UNL     1       0.848  -3.637  -1.731  1.00  0.00     0.000 C 
BRANCH   3   4
ATOM      4  C   UNL     1       0.223  -4.985  -2.126  1.00  0.00     0.000 C 
BRANCH   4   5
ATOM      5  C   UNL     1       0.126  -5.964  -0.947  1.00  0.00     0.001 C 
BRANCH   5   6
ATOM      6  C   UNL     1       0.261  -7.417  -1.429  1.00  0.00     0.009 C 
BRANCH   6   7
ATOM      7  C   UNL     1      -0.650  -8.380  -0.638  1.00  0.00     0.032 C 
ATOM      8  C   UNL     1      -1.522  -9.203  -1.592  1.00  0.00     0.014 C 
BRANCH   7   9
ATOM      9  C   UNL     1       0.151  -9.298   0.245  1.00  0.00     0.044 C 
ATOM     10  O   UNL     1      -0.408  -9.953   1.164  1.00  0.00    -0.550 OA
ATOM     11  O   UNL     1       1.521  -9.425   0.050  1.00  0.00    -0.550 OA
ENDBRANCH   7   9
ENDBRANCH   6   7
ENDBRANCH   5   6
ENDBRANCH   4   5
ENDBRANCH   3   4
ENDBRANCH   2   3
ENDBRANCH   1   2
BRANCH   1  12
ATOM     12  C   UNL     1       0.862  -1.099   1.078  1.00  0.00     0.000 C 
BRANCH  12  13
ATOM     13  C   UNL     1       0.450   0.381   1.061  1.00  0.00    -0.000 C 
BRANCH  13  14
ATOM     14  C   UNL     1      -0.322   0.765  -0.214  1.00  0.00    -0.000 C 
BRANCH  14  15
ATOM     15  C   UNL     1      -1.323   1.907   0.023  1.00  0.00    -0.000 C 
BRANCH  15  16
ATOM     16  C   UNL     1      -1.197   3.029  -1.019  1.00  0.00    -0.000 C 
BRANCH  16  17
ATOM     17  C   UNL     1      -0.925   2.453  -2.414  1.00  0.00    -0.000 C 
BRANCH  17  18
ATOM     18  C   UNL     1       0.203   3.219  -3.115  1.00  0.00    -0.003 C 
ATOM     19  C   UNL     1       0.903   2.342  -4.149  1.00  0.00     0.004 C 
ENDBRANCH  17  18
ENDBRANCH  16  17
ENDBRANCH  15  16
ENDBRANCH  14  15
ENDBRANCH  13  14
ENDBRANCH  12  13
ENDBRANCH   1  12
TORSDOF 14
ENDMDL
MODEL 5
REMARK VINA RESULT:    -4.601      6.036      7.904
REMARK INTER + INTRA:          -9.185
REMARK INTER:                  -7.851
REMARK INTRA:                  -1.334
REMARK UNBOUND:                -0.817
REMARK SMILES CCCCCCCCCCCCCC[C@@H](C)C(=O)[O-]
REMARK SMILES IDX 9 1 10 2 11 3 12 4 13 5 14 6 15 7 16 8 17 9 18 10 19 11 8 12
REMARK SMILES IDX 7 13 6 14 5 15 4 16 3 17 2 18 1 19
REMARK H PARENT
REMARK Flexibility Score: inf
ROOT
ATOM      1  C   UNL     1       4.469  -9.143  -3.688  1.00  0.00     0.000 C 
ENDROOT
BRANCH   1   2
ATOM      2  C   UNL     1       4.683  -8.160  -4.860  1.00  0.00     0.000 C 
BRANCH   2   3
ATOM      3  C   UNL     1       4.310  -8.747  -6.236  1.00  0.00     0.000 C 
BRANCH   3   4
ATOM      4  C   UNL     1       3.453  -7.827  -7.121  1.00  0.00     0.000 C 
BRANCH   4   5
ATOM      5  C   UNL     1       2.244  -7.242  -6.376  1.00  0.00     0.001 C 
BRANCH   5   6
ATOM      6  C   UNL     1       2.178  -5.718  -6.550  1.00  0.00     0.009 C 
BRANCH   6   7
ATOM      7  C   UNL     1       2.053  -4.982  -5.200  1.00  0.00     0.032 C 
ATOM      8  C   UNL     1       3.045  -3.816  -5.125  1.00  0.00     0.014 C 
BRANCH   7   9
ATOM      9  C   UNL     1       0.653  -4.477  -4.974  1.00  0.00     0.044 C 
ATOM     10  O   UNL     1      -0.138  -4.324  -5.943  1.00  0.00    -0.550 OA
ATOM     11  O   UNL     1       0.225  -4.173  -3.687  1.00  0.00    -0.550 OA
ENDBRANCH   7   9
ENDBRANCH   6   7
ENDBRANCH   5   6
ENDBRANCH   4   5
ENDBRANCH   3   4
ENDBRANCH   2   3
ENDBRANCH   1   2
BRANCH   1  12
ATOM     12  C   UNL     1       3.247 -10.051  -3.904  1.00  0.00     0.000 C 
BRANCH  12  13
ATOM     13  C   UNL     1       2.292 -10.053  -2.700  1.00  0.00    -0.000 C 
BRANCH  13  14
ATOM     14  C   UNL     1       1.456  -8.764  -2.607  1.00  0.00    -0.000 C 
BRANCH  14  15
ATOM     15  C   UNL     1       0.872  -8.540  -1.203  1.00  0.00    -0.000 C 
BRANCH  15  16
ATOM     16  C   UNL     1      -0.256  -7.498  -1.193  1.00  0.00    -0.000 C 
BRANCH  16  17
ATOM     17  C   UNL     1      -1.540  -8.084  -0.592  1.00  0.00    -0.000 C 
BRANCH  17  18
ATOM     18  C   UNL     1      -1.267  -9.437   0.076  1.00  0.00    -0.003 C 
ATOM     19  C   UNL     1      -2.306  -9.738   1.152  1.00  0.00     0.004 C 
ENDBRANCH  17  18
ENDBRANCH  16  17
ENDBRANCH  15  16
ENDBRANCH  14  15
ENDBRANCH  13  14
ENDBRANCH  12  13
ENDBRANCH   1  12
TORSDOF 14
ENDMDL
MODEL 6
REMARK VINA RESULT:    -4.592      6.471      8.813
REMARK INTER + INTRA:          -9.168
REMARK INTER:                  -8.068
REMARK INTRA:                  -1.100
REMARK UNBOUND:                -0.817
REMARK SMILES CCCCCCCCCCCCCC[C@@H](C)C(=O)[O-]
REMARK SMILES IDX 9 1 10 2 11 3 12 4 13 5 14 6 15 7 16 8 17 9 18 10 19 11 8 12
REMARK SMILES IDX 7 13 6 14 5 15 4 16 3 17 2 18 1 19
REMARK H PARENT
REMARK Flexibility Score: inf
ROOT
ATOM      1  C   UNL     1      -0.315  -5.325  -3.183  1.00  0.00     0.000 C 
ENDROOT
BRANCH   1   2
ATOM      2  C   UNL     1       0.513  -4.359  -4.058  1.00  0.00     0.000 C 
BRANCH   2   3
ATOM      3  C   UNL     1       0.616  -4.793  -5.533  1.00  0.00     0.000 C 
BRANCH   3   4
ATOM      4  C   UNL     1       2.036  -5.146  -6.006  1.00  0.00     0.000 C 
BRANCH   4   5
ATOM      5  C   UNL     1       2.188  -6.628  -6.379  1.00  0.00     0.001 C 
BRANCH   5   6
ATOM      6  C   UNL     1       2.975  -7.387  -5.300  1.00  0.00     0.009 C 
BRANCH   6   7
ATOM      7  C   UNL     1       3.454  -8.769  -5.792  1.00  0.00     0.032 C 
ATOM      8  C   UNL     1       3.989  -8.678  -7.225  1.00  0.00     0.014 C 
BRANCH   7   9
ATOM      9  C   UNL     1       4.512  -9.341  -4.886  1.00  0.00     0.044 C 
ATOM     10  O   UNL     1       5.552  -9.867  -5.367  1.00  0.00    -0.550 OA
ATOM     11  O   UNL     1       4.343  -9.294  -3.508  1.00  0.00    -0.550 OA
ENDBRANCH   7   9
ENDBRANCH   6   7
ENDBRANCH   5   6
ENDBRANCH   4   5
ENDBRANCH   3   4
ENDBRANCH   2   3
ENDBRANCH   1   2
BRANCH   1  12
ATOM     12  C   UNL     1       0.259  -5.464  -1.763  1.00  0.00     0.000 C 
BRANCH  12  13
ATOM     13  C   UNL     1       0.028  -6.860  -1.165  1.00  0.00    -0.000 C 
BRANCH  13  14
ATOM     14  C   UNL     1       0.792  -7.961  -1.922  1.00  0.00    -0.000 C 
BRANCH  14  15
ATOM     15  C   UNL     1       1.256  -9.100  -0.999  1.00  0.00    -0.000 C 
BRANCH  15  16
ATOM     16  C   UNL     1       0.131 -10.097  -0.682  1.00  0.00    -0.000 C 
BRANCH  16  17
ATOM     17  C   UNL     1      -0.170 -10.124   0.822  1.00  0.00    -0.000 C 
BRANCH  17  18
ATOM     18  C   UNL     1      -1.675  -9.999   1.084  1.00  0.00    -0.003 C 
ATOM     19  C   UNL     1      -2.242  -8.736   0.442  1.00  0.00     0.004 C 
ENDBRANCH  17  18
ENDBRANCH  16  17
ENDBRANCH  15  16
ENDBRANCH  14  15
ENDBRANCH  13  14
ENDBRANCH  12  13
ENDBRANCH   1  12
TORSDOF 14
ENDMDL
MODEL 7
REMARK VINA RESULT:    -4.270      5.826      9.531
REMARK INTER + INTRA:          -8.583
REMARK INTER:                  -7.166
REMARK INTRA:                  -1.417
REMARK UNBOUND:                -0.817
REMARK SMILES CCCCCCCCCCCCCC[C@@H](C)C(=O)[O-]
REMARK SMILES IDX 9 1 10 2 11 3 12 4 13 5 14 6 15 7 16 8 17 9 18 10 19 11 8 12
REMARK SMILES IDX 7 13 6 14 5 15 4 16 3 17 2 18 1 19
REMARK H PARENT
REMARK Flexibility Score: inf
ROOT
ATOM      1  C   UNL     1      -0.185 -10.124   0.979  1.00  0.00     0.000 C 
ENDROOT
BRANCH   1   2
ATOM      2  C   UNL     1       1.273  -9.909   0.518  1.00  0.00     0.000 C 
BRANCH   2   3
ATOM      3  C   UNL     1       1.474 -10.079  -1.002  1.00  0.00     0.000 C 
BRANCH   3   4
ATOM      4  C   UNL     1       2.357  -9.007  -1.661  1.00  0.00     0.000 C 
BRANCH   4   5
ATOM      5  C   UNL     1       2.064  -8.833  -3.158  1.00  0.00     0.001 C 
BRANCH   5   6
ATOM      6  C   UNL     1       3.330  -9.071  -3.995  1.00  0.00     0.009 C 
BRANCH   6   7
ATOM      7  C   UNL     1       3.132  -8.679  -5.475  1.00  0.00     0.032 C 
ATOM      8  C   UNL     1       2.752  -7.200  -5.597  1.00  0.00     0.014 C 
BRANCH   7   9
ATOM      9  C   UNL     1       4.367  -8.959  -6.289  1.00  0.00     0.044 C 
ATOM     10  O   UNL     1       5.495  -9.050  -5.734  1.00  0.00    -0.550 OA
ATOM     11  O   UNL     1       4.267  -9.117  -7.666  1.00  0.00    -0.550 OA
ENDBRANCH   7   9
ENDBRANCH   6   7
ENDBRANCH   5   6
ENDBRANCH   4   5
ENDBRANCH   3   4
ENDBRANCH   2   3
ENDBRANCH   1   2
BRANCH   1  12
ATOM     12  C   UNL     1      -1.199  -9.841  -0.143  1.00  0.00     0.000 C 
BRANCH  12  13
ATOM     13  C   UNL     1      -2.348  -8.930   0.315  1.00  0.00    -0.000 C 
BRANCH  13  14
ATOM     14  C   UNL     1      -2.240  -7.507  -0.261  1.00  0.00    -0.000 C 
BRANCH  14  15
ATOM     15  C   UNL     1      -0.943  -7.289  -1.057  1.00  0.00    -0.000 C 
BRANCH  15  16
ATOM     16  C   UNL     1      -0.485  -5.823  -1.049  1.00  0.00    -0.000 C 
BRANCH  16  17
ATOM     17  C   UNL     1       0.143  -5.437  -2.394  1.00  0.00    -0.000 C 
BRANCH  17  18
ATOM     18  C   UNL     1       0.862  -4.087  -2.298  1.00  0.00    -0.003 C 
ATOM     19  C   UNL     1       0.741  -3.497  -0.896  1.00  0.00     0.004 C 
ENDBRANCH  17  18
ENDBRANCH  16  17
ENDBRANCH  15  16
ENDBRANCH  14  15
ENDBRANCH  13  14
ENDBRANCH  12  13
ENDBRANCH   1  12
TORSDOF 14
ENDMDL
MODEL 8
REMARK VINA RESULT:    -4.238      6.026      8.674
REMARK INTER + INTRA:          -8.523
REMARK INTER:                  -7.210
REMARK INTRA:                  -1.314
REMARK UNBOUND:                -0.817
REMARK SMILES CCCCCCCCCCCCCC[C@@H](C)C(=O)[O-]
REMARK SMILES IDX 9 1 10 2 11 3 12 4 13 5 14 6 15 7 16 8 17 9 18 10 19 11 8 12
REMARK SMILES IDX 7 13 6 14 5 15 4 16 3 17 2 18 1 19
REMARK H PARENT
REMARK Flexibility Score: inf
ROOT
ATOM      1  C   UNL     1       0.389  -4.592  -2.445  1.00  0.00     0.000 C 
ENDROOT
BRANCH   1   2
ATOM      2  C   UNL     1       0.398  -3.931  -3.841  1.00  0.00     0.000 C 
BRANCH   2   3
ATOM      3  C   UNL     1       0.526  -4.938  -5.002  1.00  0.00     0.000 C 
BRANCH   3   4
ATOM      4  C   UNL     1       1.900  -4.958  -5.692  1.00  0.00     0.000 C 
BRANCH   4   5
ATOM      5  C   UNL     1       2.225  -6.316  -6.332  1.00  0.00     0.001 C 
BRANCH   5   6
ATOM      6  C   UNL     1       2.696  -7.322  -5.271  1.00  0.00     0.009 C 
BRANCH   6   7
ATOM      7  C   UNL     1       3.454  -8.513  -5.894  1.00  0.00     0.032 C 
ATOM      8  C   UNL     1       3.590  -8.334  -7.410  1.00  0.00     0.014 C 
BRANCH   7   9
ATOM      9  C   UNL     1       4.815  -8.686  -5.275  1.00  0.00     0.044 C 
ATOM     10  O   UNL     1       5.531  -9.680  -5.568  1.00  0.00    -0.550 OA
ATOM     11  O   UNL     1       5.289  -7.744  -4.370  1.00  0.00    -0.550 OA
ENDBRANCH   7   9
ENDBRANCH   6   7
ENDBRANCH   5   6
ENDBRANCH   4   5
ENDBRANCH   3   4
ENDBRANCH   2   3
ENDBRANCH   1   2
BRANCH   1  12
ATOM     12  C   UNL     1       0.185  -6.115  -2.522  1.00  0.00     0.000 C 
BRANCH  12  13
ATOM     13  C   UNL     1      -0.278  -6.718  -1.187  1.00  0.00    -0.000 C 
BRANCH  13  14
ATOM     14  C   UNL     1      -1.350  -7.807  -1.370  1.00  0.00    -0.000 C 
BRANCH  14  15
ATOM     15  C   UNL     1      -1.566  -8.642  -0.098  1.00  0.00    -0.000 C 
BRANCH  15  16
ATOM     16  C   UNL     1      -0.571  -9.807   0.019  1.00  0.00    -0.000 C 
BRANCH  16  17
ATOM     17  C   UNL     1       0.063 -10.125  -1.341  1.00  0.00    -0.000 C 
BRANCH  17  18
ATOM     18  C   UNL     1       1.562  -9.804  -1.337  1.00  0.00    -0.003 C 
ATOM     19  C   UNL     1       2.194 -10.110  -2.692  1.00  0.00     0.004 C 
ENDBRANCH  17  18
ENDBRANCH  16  17
ENDBRANCH  15  16
ENDBRANCH  14  15
ENDBRANCH  13  14
ENDBRANCH  12  13
ENDBRANCH   1  12
TORSDOF 14
ENDMDL
MODEL 9
REMARK VINA RESULT:    -2.903      5.568      9.690
REMARK INTER + INTRA:          -6.097
REMARK INTER:                  -4.848
REMARK INTRA:                  -1.250
REMARK UNBOUND:                -0.817
REMARK SMILES CCCCCCCCCCCCCC[C@@H](C)C(=O)[O-]
REMARK SMILES IDX 9 1 10 2 11 3 12 4 13 5 14 6 15 7 16 8 17 9 18 10 19 11 8 12
REMARK SMILES IDX 7 13 6 14 5 15 4 16 3 17 2 18 1 19
REMARK H PARENT
REMARK Flexibility Score: inf
ROOT
ATOM      1  C   UNL     1       3.171  -8.127  -6.044  1.00  0.00     0.000 C 
ENDROOT
BRANCH   1   2
ATOM      2  C   UNL     1       4.106  -7.958  -4.826  1.00  0.00     0.000 C 
BRANCH   2   3
ATOM      3  C   UNL     1       4.396  -9.276  -4.080  1.00  0.00     0.000 C 
BRANCH   3   4
ATOM      4  C   UNL     1       3.152 -10.002  -3.543  1.00  0.00     0.000 C 
BRANCH   4   5
ATOM      5  C   UNL     1       2.282  -9.109  -2.647  1.00  0.00     0.001 C 
BRANCH   5   6
ATOM      6  C   UNL     1       1.332  -9.956  -1.786  1.00  0.00     0.009 C 
BRANCH   6   7
ATOM      7  C   UNL     1       0.678  -9.132  -0.657  1.00  0.00     0.032 C 
ATOM      8  C   UNL     1       0.304  -7.732  -1.156  1.00  0.00     0.014 C 
BRANCH   7   9
ATOM      9  C   UNL     1      -0.541  -9.821  -0.106  1.00  0.00     0.044 C 
ATOM     10  O   UNL     1      -1.503 -10.125  -0.861  1.00  0.00    -0.550 OA
ATOM     11  O   UNL     1      -0.612 -10.125   1.248  1.00  0.00    -0.550 OA
ENDBRANCH   7   9
ENDBRANCH   6   7
ENDBRANCH   5   6
ENDBRANCH   4   5
ENDBRANCH   3   4
ENDBRANCH   2   3
ENDBRANCH   1   2
BRANCH   1  12
ATOM     12  C   UNL     1       2.397  -6.838  -6.368  1.00  0.00     0.000 C 
BRANCH  12  13
ATOM     13  C   UNL     1       2.257  -5.910  -5.152  1.00  0.00    -0.000 C 
BRANCH  13  14
ATOM     14  C   UNL     1       1.576  -4.575  -5.501  1.00  0.00    -0.000 C 
BRANCH  14  15
ATOM     15  C   UNL     1       0.166  -4.456  -4.899  1.00  0.00    -0.000 C 
BRANCH  15  16
ATOM     16  C   UNL     1       0.154  -4.675  -3.379  1.00  0.00    -0.000 C 
BRANCH  16  17
ATOM     17  C   UNL     1       0.622  -3.415  -2.640  1.00  0.00    -0.000 C 
BRANCH  17  18
ATOM     18  C   UNL     1       1.059  -3.747  -1.209  1.00  0.00    -0.003 C 
ATOM     19  C   UNL     1       0.524  -2.719  -0.217  1.00  0.00     0.004 C 
ENDBRANCH  17  18
ENDBRANCH  16  17
ENDBRANCH  15  16
ENDBRANCH  14  15
ENDBRANCH  13  14
ENDBRANCH  12  13
ENDBRANCH   1  12
TORSDOF 14
ENDMDL
