MODEL 1
REMARK VINA RESULT:    -6.894      0.000      0.000
REMARK INTER + INTRA:          -9.511
REMARK INTER:                  -8.708
REMARK INTRA:                  -0.804
REMARK UNBOUND:                -0.804
REMARK SMILES Oc1ccc(CCc2cc(O)cc(O)c2)cc1
REMARK SMILES IDX 6 1 5 2 4 3 3 4 2 5 16 6 17 7 1 8 7 10 8 11 15 12 9 13 13 14
REMARK SMILES IDX 10 15 12 16 14 17 11 19
REMARK H PARENT 1 9 14 18 11 20
REMARK Flexibility Score: inf
ROOT
ATOM      1  C   UNL     1      16.979  43.013   4.680  1.00  0.00     0.040 C 
ENDROOT
BRANCH   1   2
ATOM      2  C   UNL     1      16.758  43.216   6.156  1.00  0.00    -0.047 A 
ATOM      3  C   UNL     1      15.928  42.340   6.875  1.00  0.00     0.007 A 
ATOM      4  C   UNL     1      15.698  42.549   8.238  1.00  0.00     0.046 A 
ATOM      5  C   UNL     1      16.284  43.640   8.893  1.00  0.00     0.115 A 
ATOM      6  C   UNL     1      17.332  44.316   6.813  1.00  0.00     0.007 A 
ATOM      7  C   UNL     1      17.100  44.522   8.176  1.00  0.00     0.046 A 
BRANCH   5   8
ATOM      8  O   UNL     1      16.061  43.859  10.250  1.00  0.00    -0.508 OA
ATOM      9  H   UNL     1      16.828  44.026  10.892  1.00  0.00     0.293 HD
ENDBRANCH   5   8
ENDBRANCH   1   2
BRANCH   1  10
ATOM     10  C   UNL     1      16.523  44.244   3.893  1.00  0.00     0.040 C 
BRANCH  10  11
ATOM     11  C   UNL     1      15.037  44.440   4.033  1.00  0.00    -0.040 A 
ATOM     12  C   UNL     1      14.528  45.635   4.568  1.00  0.00     0.050 A 
ATOM     13  C   UNL     1      14.147  43.454   3.577  1.00  0.00     0.050 A 
ATOM     14  C   UNL     1      13.147  45.833   4.668  1.00  0.00     0.119 A 
ATOM     15  C   UNL     1      12.762  43.650   3.678  1.00  0.00     0.119 A 
ATOM     16  C   UNL     1      12.265  44.838   4.224  1.00  0.00     0.092 A 
BRANCH  14  17
ATOM     17  O   UNL     1      12.661  47.021   5.208  1.00  0.00    -0.508 OA
ATOM     18  H   UNL     1      13.205  47.876   5.182  1.00  0.00     0.293 HD
ENDBRANCH  14  17
BRANCH  15  19
ATOM     19  O   UNL     1      11.874  42.674   3.233  1.00  0.00    -0.508 OA
ATOM     20  H   UNL     1      11.108  42.899   2.609  1.00  0.00     0.293 HD
ENDBRANCH  15  19
ENDBRANCH  10  11
ENDBRANCH   1  10
TORSDOF 6
ENDMDL
MODEL 2
REMARK VINA RESULT:    -6.885      0.057      2.035
REMARK INTER + INTRA:          -9.500
REMARK INTER:                  -8.686
REMARK INTRA:                  -0.814
REMARK UNBOUND:                -0.804
REMARK SMILES Oc1ccc(CCc2cc(O)cc(O)c2)cc1
REMARK SMILES IDX 6 1 5 2 4 3 3 4 2 5 16 6 17 7 1 8 7 10 8 11 15 12 9 13 13 14
REMARK SMILES IDX 10 15 12 16 14 17 11 19
REMARK H PARENT 1 9 14 18 11 20
REMARK Flexibility Score: inf
ROOT
ATOM      1  C   UNL     1      16.954  43.017   4.673  1.00  0.00     0.040 C 
ENDROOT
BRANCH   1   2
ATOM      2  C   UNL     1      16.739  43.216   6.149  1.00  0.00    -0.047 A 
ATOM      3  C   UNL     1      15.908  42.341   6.869  1.00  0.00     0.007 A 
ATOM      4  C   UNL     1      15.684  42.546   8.233  1.00  0.00     0.046 A 
ATOM      5  C   UNL     1      16.278  43.632   8.890  1.00  0.00     0.115 A 
ATOM      6  C   UNL     1      17.321  44.310   6.808  1.00  0.00     0.007 A 
ATOM      7  C   UNL     1      17.095  44.513   8.173  1.00  0.00     0.046 A 
BRANCH   5   8
ATOM      8  O   UNL     1      16.062  43.847  10.249  1.00  0.00    -0.508 OA
ATOM      9  H   UNL     1      16.169  43.100  10.926  1.00  0.00     0.293 HD
ENDBRANCH   5   8
ENDBRANCH   1   2
BRANCH   1  10
ATOM     10  C   UNL     1      16.510  44.257   3.892  1.00  0.00     0.040 C 
BRANCH  10  11
ATOM     11  C   UNL     1      15.021  44.450   4.008  1.00  0.00    -0.040 A 
ATOM     12  C   UNL     1      14.143  43.436   3.595  1.00  0.00     0.050 A 
ATOM     13  C   UNL     1      14.502  45.621   4.582  1.00  0.00     0.050 A 
ATOM     14  C   UNL     1      12.760  43.599   3.732  1.00  0.00     0.119 A 
ATOM     15  C   UNL     1      13.117  45.787   4.720  1.00  0.00     0.119 A 
ATOM     16  C   UNL     1      12.249  44.777   4.293  1.00  0.00     0.092 A 
BRANCH  14  17
ATOM     17  O   UNL     1      11.904  42.584   3.310  1.00  0.00    -0.508 OA
ATOM     18  H   UNL     1      11.240  42.153   3.944  1.00  0.00     0.293 HD
ENDBRANCH  14  17
BRANCH  15  19
ATOM     19  O   UNL     1      12.594  46.949   5.283  1.00  0.00    -0.508 OA
ATOM     20  H   UNL     1      12.622  47.112   6.282  1.00  0.00     0.293 HD
ENDBRANCH  15  19
ENDBRANCH  10  11
ENDBRANCH   1  10
TORSDOF 6
ENDMDL
MODEL 3
REMARK VINA RESULT:    -6.855      1.885      2.418
REMARK INTER + INTRA:          -9.462
REMARK INTER:                  -8.971
REMARK INTRA:                  -0.491
REMARK UNBOUND:                -0.804
REMARK SMILES Oc1ccc(CCc2cc(O)cc(O)c2)cc1
REMARK SMILES IDX 6 1 5 2 4 3 3 4 2 5 16 6 17 7 1 8 7 10 8 11 15 12 9 13 13 14
REMARK SMILES IDX 10 15 12 16 14 17 11 19
REMARK H PARENT 1 9 14 18 11 20
REMARK Flexibility Score: inf
ROOT
ATOM      1  C   UNL     1      14.913  43.533   4.109  1.00  0.00     0.040 C 
ENDROOT
BRANCH   1   2
ATOM      2  C   UNL     1      15.808  43.365   5.307  1.00  0.00    -0.047 A 
ATOM      3  C   UNL     1      15.352  42.671   6.441  1.00  0.00     0.007 A 
ATOM      4  C   UNL     1      16.173  42.544   7.565  1.00  0.00     0.046 A 
ATOM      5  C   UNL     1      17.452  43.115   7.573  1.00  0.00     0.115 A 
ATOM      6  C   UNL     1      17.085  43.948   5.324  1.00  0.00     0.007 A 
ATOM      7  C   UNL     1      17.904  43.818   6.450  1.00  0.00     0.046 A 
BRANCH   5   8
ATOM      8  O   UNL     1      18.279  42.995   8.687  1.00  0.00    -0.508 OA
ATOM      9  H   UNL     1      18.147  43.574   9.509  1.00  0.00     0.293 HD
ENDBRANCH   5   8
ENDBRANCH   1   2
BRANCH   1  10
ATOM     10  C   UNL     1      14.835  45.007   3.698  1.00  0.00     0.040 C 
BRANCH  10  11
ATOM     11  C   UNL     1      13.731  45.706   4.446  1.00  0.00    -0.040 A 
ATOM     12  C   UNL     1      13.864  45.974   5.817  1.00  0.00     0.050 A 
ATOM     13  C   UNL     1      12.585  46.147   3.765  1.00  0.00     0.050 A 
ATOM     14  C   UNL     1      12.854  46.653   6.507  1.00  0.00     0.119 A 
ATOM     15  C   UNL     1      11.571  46.827   4.454  1.00  0.00     0.119 A 
ATOM     16  C   UNL     1      11.706  47.077   5.823  1.00  0.00     0.092 A 
BRANCH  14  17
ATOM     17  O   UNL     1      13.000  46.903   7.869  1.00  0.00    -0.508 OA
ATOM     18  H   UNL     1      13.899  46.816   8.330  1.00  0.00     0.293 HD
ENDBRANCH  14  17
BRANCH  15  19
ATOM     19  O   UNL     1      10.428  47.262   3.785  1.00  0.00    -0.508 OA
ATOM     20  H   UNL     1       9.878  48.040   4.129  1.00  0.00     0.293 HD
ENDBRANCH  15  19
ENDBRANCH  10  11
ENDBRANCH   1  10
TORSDOF 6
ENDMDL
MODEL 4
REMARK VINA RESULT:    -6.813      1.865      2.686
REMARK INTER + INTRA:          -9.409
REMARK INTER:                  -8.950
REMARK INTRA:                  -0.459
REMARK UNBOUND:                -0.804
REMARK SMILES Oc1ccc(CCc2cc(O)cc(O)c2)cc1
REMARK SMILES IDX 6 1 5 2 4 3 3 4 2 5 16 6 17 7 1 8 7 10 8 11 15 12 9 13 13 14
REMARK SMILES IDX 10 15 12 16 14 17 11 19
REMARK H PARENT 1 9 14 18 11 20
REMARK Flexibility Score: inf
ROOT
ATOM      1  C   UNL     1      14.894  43.459   4.145  1.00  0.00     0.040 C 
ENDROOT
BRANCH   1   2
ATOM      2  C   UNL     1      15.794  43.299   5.341  1.00  0.00    -0.047 A 
ATOM      3  C   UNL     1      15.334  42.633   6.490  1.00  0.00     0.007 A 
ATOM      4  C   UNL     1      16.160  42.513   7.611  1.00  0.00     0.046 A 
ATOM      5  C   UNL     1      17.447  43.066   7.601  1.00  0.00     0.115 A 
ATOM      6  C   UNL     1      17.079  43.863   5.340  1.00  0.00     0.007 A 
ATOM      7  C   UNL     1      17.902  43.742   6.464  1.00  0.00     0.046 A 
BRANCH   5   8
ATOM      8  O   UNL     1      18.278  42.954   8.713  1.00  0.00    -0.508 OA
ATOM      9  H   UNL     1      19.272  43.148   8.653  1.00  0.00     0.293 HD
ENDBRANCH   5   8
ENDBRANCH   1   2
BRANCH   1  10
ATOM     10  C   UNL     1      14.865  44.920   3.685  1.00  0.00     0.040 C 
BRANCH  10  11
ATOM     11  C   UNL     1      13.800  45.686   4.423  1.00  0.00    -0.040 A 
ATOM     12  C   UNL     1      12.640  46.107   3.754  1.00  0.00     0.050 A 
ATOM     13  C   UNL     1      13.931  45.934   5.798  1.00  0.00     0.050 A 
ATOM     14  C   UNL     1      11.633  46.790   4.445  1.00  0.00     0.119 A 
ATOM     15  C   UNL     1      12.924  46.619   6.493  1.00  0.00     0.119 A 
ATOM     16  C   UNL     1      11.778  47.047   5.815  1.00  0.00     0.092 A 
BRANCH  14  17
ATOM     17  O   UNL     1      10.492  47.206   3.762  1.00  0.00    -0.508 OA
ATOM     18  H   UNL     1       9.566  46.907   4.046  1.00  0.00     0.293 HD
ENDBRANCH  14  17
BRANCH  15  19
ATOM     19  O   UNL     1      13.051  46.875   7.856  1.00  0.00    -0.508 OA
ATOM     20  H   UNL     1      13.163  47.817   8.210  1.00  0.00     0.293 HD
ENDBRANCH  15  19
ENDBRANCH  10  11
ENDBRANCH   1  10
TORSDOF 6
ENDMDL
MODEL 5
REMARK VINA RESULT:    -6.699      2.316      6.220
REMARK INTER + INTRA:          -9.265
REMARK INTER:                  -8.531
REMARK INTRA:                  -0.734
REMARK UNBOUND:                -0.804
REMARK SMILES Oc1ccc(CCc2cc(O)cc(O)c2)cc1
REMARK SMILES IDX 6 1 5 2 4 3 3 4 2 5 16 6 17 7 1 8 7 10 8 11 15 12 9 13 13 14
REMARK SMILES IDX 10 15 12 16 14 17 11 19
REMARK H PARENT 1 9 14 18 11 20
REMARK Flexibility Score: inf
ROOT
ATOM      1  C   UNL     1      13.718  44.921   6.757  1.00  0.00     0.040 C 
ENDROOT
BRANCH   1   2
ATOM      2  C   UNL     1      13.360  44.125   5.530  1.00  0.00    -0.047 A 
ATOM      3  C   UNL     1      12.199  43.334   5.512  1.00  0.00     0.007 A 
ATOM      4  C   UNL     1      11.886  42.570   4.384  1.00  0.00     0.046 A 
ATOM      5  C   UNL     1      12.732  42.580   3.268  1.00  0.00     0.115 A 
ATOM      6  C   UNL     1      14.213  44.122   4.415  1.00  0.00     0.007 A 
ATOM      7  C   UNL     1      13.896  43.357   3.288  1.00  0.00     0.046 A 
BRANCH   5   8
ATOM      8  O   UNL     1      12.430  41.823   2.139  1.00  0.00    -0.508 OA
ATOM      9  H   UNL     1      12.289  40.821   2.196  1.00  0.00     0.293 HD
ENDBRANCH   5   8
ENDBRANCH   1   2
BRANCH   1  10
ATOM     10  C   UNL     1      13.513  44.081   8.021  1.00  0.00     0.040 C 
BRANCH  10  11
ATOM     11  C   UNL     1      14.759  43.299   8.344  1.00  0.00    -0.040 A 
ATOM     12  C   UNL     1      14.743  41.896   8.304  1.00  0.00     0.050 A 
ATOM     13  C   UNL     1      15.959  43.968   8.631  1.00  0.00     0.050 A 
ATOM     14  C   UNL     1      15.908  41.168   8.572  1.00  0.00     0.119 A 
ATOM     15  C   UNL     1      17.127  43.241   8.899  1.00  0.00     0.119 A 
ATOM     16  C   UNL     1      17.099  41.843   8.871  1.00  0.00     0.092 A 
BRANCH  14  17
ATOM     17  O   UNL     1      15.871  39.776   8.535  1.00  0.00    -0.508 OA
ATOM     18  H   UNL     1      16.270  39.256   7.761  1.00  0.00     0.293 HD
ENDBRANCH  14  17
BRANCH  15  19
ATOM     19  O   UNL     1      18.321  43.898   9.191  1.00  0.00    -0.508 OA
ATOM     20  H   UNL     1      18.475  44.343  10.087  1.00  0.00     0.293 HD
ENDBRANCH  15  19
ENDBRANCH  10  11
ENDBRANCH   1  10
TORSDOF 6
ENDMDL
MODEL 6
REMARK VINA RESULT:    -6.691      2.306      5.912
REMARK INTER + INTRA:          -9.255
REMARK INTER:                  -8.519
REMARK INTRA:                  -0.736
REMARK UNBOUND:                -0.804
REMARK SMILES Oc1ccc(CCc2cc(O)cc(O)c2)cc1
REMARK SMILES IDX 6 1 5 2 4 3 3 4 2 5 16 6 17 7 1 8 7 10 8 11 15 12 9 13 13 14
REMARK SMILES IDX 10 15 12 16 14 17 11 19
REMARK H PARENT 1 9 14 18 11 20
REMARK Flexibility Score: inf
ROOT
ATOM      1  C   UNL     1      13.718  44.941   6.743  1.00  0.00     0.040 C 
ENDROOT
BRANCH   1   2
ATOM      2  C   UNL     1      13.363  44.139   5.520  1.00  0.00    -0.047 A 
ATOM      3  C   UNL     1      12.203  43.345   5.506  1.00  0.00     0.007 A 
ATOM      4  C   UNL     1      11.892  42.574   4.382  1.00  0.00     0.046 A 
ATOM      5  C   UNL     1      12.739  42.581   3.266  1.00  0.00     0.115 A 
ATOM      6  C   UNL     1      14.216  44.131   4.406  1.00  0.00     0.007 A 
ATOM      7  C   UNL     1      13.901  43.360   3.283  1.00  0.00     0.046 A 
BRANCH   5   8
ATOM      8  O   UNL     1      12.439  41.817   2.141  1.00  0.00    -0.508 OA
ATOM      9  H   UNL     1      11.610  41.235   2.102  1.00  0.00     0.293 HD
ENDBRANCH   5   8
ENDBRANCH   1   2
BRANCH   1  10
ATOM     10  C   UNL     1      13.551  44.096   8.009  1.00  0.00     0.040 C 
BRANCH  10  11
ATOM     11  C   UNL     1      14.801  43.304   8.286  1.00  0.00    -0.040 A 
ATOM     12  C   UNL     1      15.997  43.963   8.613  1.00  0.00     0.050 A 
ATOM     13  C   UNL     1      14.767  41.901   8.275  1.00  0.00     0.050 A 
ATOM     14  C   UNL     1      17.152  43.229   8.903  1.00  0.00     0.119 A 
ATOM     15  C   UNL     1      15.924  41.163   8.565  1.00  0.00     0.119 A 
ATOM     16  C   UNL     1      17.114  41.828   8.876  1.00  0.00     0.092 A 
BRANCH  14  17
ATOM     17  O   UNL     1      18.332  43.900   9.218  1.00  0.00    -0.508 OA
ATOM     18  H   UNL     1      19.045  43.474   9.799  1.00  0.00     0.293 HD
ENDBRANCH  14  17
BRANCH  15  19
ATOM     19  O   UNL     1      15.898  39.770   8.550  1.00  0.00    -0.508 OA
ATOM     20  H   UNL     1      15.037  39.258   8.402  1.00  0.00     0.293 HD
ENDBRANCH  15  19
ENDBRANCH  10  11
ENDBRANCH   1  10
TORSDOF 6
ENDMDL
MODEL 7
REMARK VINA RESULT:    -6.630      1.357      4.945
REMARK INTER + INTRA:          -9.178
REMARK INTER:                  -8.539
REMARK INTRA:                  -0.639
REMARK UNBOUND:                -0.804
REMARK SMILES Oc1ccc(CCc2cc(O)cc(O)c2)cc1
REMARK SMILES IDX 6 1 5 2 4 3 3 4 2 5 16 6 17 7 1 8 7 10 8 11 15 12 9 13 13 14
REMARK SMILES IDX 10 15 12 16 14 17 11 19
REMARK H PARENT 1 9 14 18 11 20
REMARK Flexibility Score: inf
ROOT
ATOM      1  C   UNL     1      16.303  43.058   3.829  1.00  0.00     0.040 C 
ENDROOT
BRANCH   1   2
ATOM      2  C   UNL     1      15.072  43.923   3.806  1.00  0.00    -0.047 A 
ATOM      3  C   UNL     1      15.190  45.323   3.798  1.00  0.00     0.007 A 
ATOM      4  C   UNL     1      14.045  46.126   3.809  1.00  0.00     0.046 A 
ATOM      5  C   UNL     1      12.773  45.539   3.838  1.00  0.00     0.115 A 
ATOM      6  C   UNL     1      13.795  43.340   3.849  1.00  0.00     0.007 A 
ATOM      7  C   UNL     1      12.653  44.145   3.860  1.00  0.00     0.046 A 
BRANCH   5   8
ATOM      8  O   UNL     1      11.625  46.328   3.850  1.00  0.00    -0.508 OA
ATOM      9  H   UNL     1      10.948  46.266   4.601  1.00  0.00     0.293 HD
ENDBRANCH   5   8
ENDBRANCH   1   2
BRANCH   1  10
ATOM     10  C   UNL     1      17.268  43.525   4.923  1.00  0.00     0.040 C 
BRANCH  10  11
ATOM     11  C   UNL     1      16.605  43.467   6.273  1.00  0.00    -0.040 A 
ATOM     12  C   UNL     1      16.523  44.619   7.071  1.00  0.00     0.050 A 
ATOM     13  C   UNL     1      16.013  42.275   6.720  1.00  0.00     0.050 A 
ATOM     14  C   UNL     1      15.878  44.575   8.312  1.00  0.00     0.119 A 
ATOM     15  C   UNL     1      15.367  42.228   7.963  1.00  0.00     0.119 A 
ATOM     16  C   UNL     1      15.303  43.377   8.757  1.00  0.00     0.092 A 
BRANCH  14  17
ATOM     17  O   UNL     1      15.813  45.727   9.093  1.00  0.00    -0.508 OA
ATOM     18  H   UNL     1      16.598  46.366   9.162  1.00  0.00     0.293 HD
ENDBRANCH  14  17
BRANCH  15  19
ATOM     19  O   UNL     1      14.782  41.047   8.415  1.00  0.00    -0.508 OA
ATOM     20  H   UNL     1      15.251  40.154   8.320  1.00  0.00     0.293 HD
ENDBRANCH  15  19
ENDBRANCH  10  11
ENDBRANCH   1  10
TORSDOF 6
ENDMDL
MODEL 8
REMARK VINA RESULT:    -6.607      1.344      5.359
REMARK INTER + INTRA:          -9.149
REMARK INTER:                  -8.514
REMARK INTRA:                  -0.635
REMARK UNBOUND:                -0.804
REMARK SMILES Oc1ccc(CCc2cc(O)cc(O)c2)cc1
REMARK SMILES IDX 6 1 5 2 4 3 3 4 2 5 16 6 17 7 1 8 7 10 8 11 15 12 9 13 13 14
REMARK SMILES IDX 10 15 12 16 14 17 11 19
REMARK H PARENT 1 9 14 18 11 20
REMARK Flexibility Score: inf
ROOT
ATOM      1  C   UNL     1      16.302  43.012   3.846  1.00  0.00     0.040 C 
ENDROOT
BRANCH   1   2
ATOM      2  C   UNL     1      15.076  43.885   3.815  1.00  0.00    -0.047 A 
ATOM      3  C   UNL     1      15.202  45.284   3.805  1.00  0.00     0.007 A 
ATOM      4  C   UNL     1      14.061  46.093   3.810  1.00  0.00     0.046 A 
ATOM      5  C   UNL     1      12.786  45.514   3.835  1.00  0.00     0.115 A 
ATOM      6  C   UNL     1      13.796  43.309   3.854  1.00  0.00     0.007 A 
ATOM      7  C   UNL     1      12.658  44.121   3.859  1.00  0.00     0.046 A 
BRANCH   5   8
ATOM      8  O   UNL     1      11.643  46.309   3.840  1.00  0.00    -0.508 OA
ATOM      9  H   UNL     1      10.929  46.215   3.126  1.00  0.00     0.293 HD
ENDBRANCH   5   8
ENDBRANCH   1   2
BRANCH   1  10
ATOM     10  C   UNL     1      17.263  43.473   4.946  1.00  0.00     0.040 C 
BRANCH  10  11
ATOM     11  C   UNL     1      16.582  43.444   6.288  1.00  0.00    -0.040 A 
ATOM     12  C   UNL     1      16.041  42.247   6.781  1.00  0.00     0.050 A 
ATOM     13  C   UNL     1      16.534  44.602   7.082  1.00  0.00     0.050 A 
ATOM     14  C   UNL     1      15.437  42.210   8.043  1.00  0.00     0.119 A 
ATOM     15  C   UNL     1      15.928  44.567   8.346  1.00  0.00     0.119 A 
ATOM     16  C   UNL     1      15.380  43.372   8.823  1.00  0.00     0.092 A 
BRANCH  14  17
ATOM     17  O   UNL     1      14.900  41.013   8.512  1.00  0.00    -0.508 OA
ATOM     18  H   UNL     1      15.393  40.440   9.188  1.00  0.00     0.293 HD
ENDBRANCH  14  17
BRANCH  15  19
ATOM     19  O   UNL     1      15.871  45.713   9.136  1.00  0.00    -0.508 OA
ATOM     20  H   UNL     1      15.211  45.798   9.900  1.00  0.00     0.293 HD
ENDBRANCH  15  19
ENDBRANCH  10  11
ENDBRANCH   1  10
TORSDOF 6
ENDMDL
MODEL 9
REMARK VINA RESULT:    -6.511      3.198      5.298
REMARK INTER + INTRA:          -9.028
REMARK INTER:                  -8.349
REMARK INTRA:                  -0.679
REMARK UNBOUND:                -0.804
REMARK SMILES Oc1ccc(CCc2cc(O)cc(O)c2)cc1
REMARK SMILES IDX 6 1 5 2 4 3 3 4 2 5 16 6 17 7 1 8 7 10 8 11 15 12 9 13 13 14
REMARK SMILES IDX 10 15 12 16 14 17 11 19
REMARK H PARENT 1 9 14 18 11 20
REMARK Flexibility Score: inf
ROOT
ATOM      1  C   UNL     1      11.975  46.528   4.714  1.00  0.00     0.040 C 
ENDROOT
BRANCH   1   2
ATOM      2  C   UNL     1      13.075  45.548   4.403  1.00  0.00    -0.047 A 
ATOM      3  C   UNL     1      12.765  44.270   3.907  1.00  0.00     0.007 A 
ATOM      4  C   UNL     1      13.786  43.350   3.650  1.00  0.00     0.046 A 
ATOM      5  C   UNL     1      15.122  43.692   3.893  1.00  0.00     0.115 A 
ATOM      6  C   UNL     1      14.414  45.882   4.658  1.00  0.00     0.007 A 
ATOM      7  C   UNL     1      15.432  44.959   4.399  1.00  0.00     0.046 A 
BRANCH   5   8
ATOM      8  O   UNL     1      16.147  42.783   3.640  1.00  0.00    -0.508 OA
ATOM      9  H   UNL     1      17.095  43.092   3.458  1.00  0.00     0.293 HD
ENDBRANCH   5   8
ENDBRANCH   1   2
BRANCH   1  10
ATOM     10  C   UNL     1      12.227  47.209   6.063  1.00  0.00     0.040 C 
BRANCH  10  11
ATOM     11  C   UNL     1      11.739  46.342   7.192  1.00  0.00    -0.040 A 
ATOM     12  C   UNL     1      10.376  46.318   7.527  1.00  0.00     0.050 A 
ATOM     13  C   UNL     1      12.633  45.507   7.881  1.00  0.00     0.050 A 
ATOM     14  C   UNL     1       9.914  45.489   8.555  1.00  0.00     0.119 A 
ATOM     15  C   UNL     1      12.173  44.675   8.911  1.00  0.00     0.119 A 
ATOM     16  C   UNL     1      10.815  44.669   9.247  1.00  0.00     0.092 A 
BRANCH  14  17
ATOM     17  O   UNL     1       8.559  45.484   8.878  1.00  0.00    -0.508 OA
ATOM     18  H   UNL     1       8.121  44.681   9.314  1.00  0.00     0.293 HD
ENDBRANCH  14  17
BRANCH  15  19
ATOM     19  O   UNL     1      13.056  43.849   9.603  1.00  0.00    -0.508 OA
ATOM     20  H   UNL     1      13.338  42.949   9.234  1.00  0.00     0.293 HD
ENDBRANCH  15  19
ENDBRANCH  10  11
ENDBRANCH   1  10
TORSDOF 6
ENDMDL
