MODEL 1
REMARK VINA RESULT:    -4.460      0.000      0.000
REMARK INTER + INTRA:          -7.775
REMARK INTER:                  -6.807
REMARK INTRA:                  -0.968
REMARK UNBOUND:                -0.968
REMARK SMILES O=C([O-])CCCCCCCCC(=O)[O-]
REMARK SMILES IDX 7 1 6 2 5 3 4 4 2 5 1 6 3 7 8 8 9 9 10 10 11 11 12 12 13 13
REMARK SMILES IDX 14 14
REMARK H PARENT
REMARK Flexibility Score: inf
ROOT
ATOM      1  C   UNL     1     179.612 181.546 181.549  1.00  0.00     0.000 C 
ENDROOT
BRANCH   1   2
ATOM      2  C   UNL     1     179.765 183.070 181.426  1.00  0.00     0.000 C 
BRANCH   2   3
ATOM      3  C   UNL     1     180.982 183.607 182.200  1.00  0.00     0.006 C 
BRANCH   3   4
ATOM      4  C   UNL     1     181.863 184.518 181.334  1.00  0.00     0.053 C 
BRANCH   4   5
ATOM      5  C   UNL     1     183.061 183.793 180.804  1.00  0.00     0.041 C 
ATOM      6  O   UNL     1     183.013 183.226 179.681  1.00  0.00    -0.550 OA
ATOM      7  O   UNL     1     184.240 183.768 181.538  1.00  0.00    -0.550 OA
ENDBRANCH   4   5
ENDBRANCH   3   4
ENDBRANCH   2   3
ENDBRANCH   1   2
BRANCH   1   8
ATOM      8  C   UNL     1     180.528 180.778 180.583  1.00  0.00     0.000 C 
BRANCH   8   9
ATOM      9  C   UNL     1     180.662 179.308 181.008  1.00  0.00     0.000 C 
BRANCH   9  10
ATOM     10  C   UNL     1     182.103 178.932 181.391  1.00  0.00     0.006 C 
BRANCH  10  11
ATOM     11  C   UNL     1     183.074 180.113 181.272  1.00  0.00     0.053 C 
BRANCH  11  12
ATOM     12  C   UNL     1     183.638 180.462 182.613  1.00  0.00     0.041 C 
ATOM     13  O   UNL     1     184.883 180.448 182.800  1.00  0.00    -0.550 OA
ATOM     14  O   UNL     1     182.791 180.851 183.643  1.00  0.00    -0.550 OA
ENDBRANCH  11  12
ENDBRANCH  10  11
ENDBRANCH   9  10
ENDBRANCH   8   9
ENDBRANCH   1   8
TORSDOF 9
ENDMDL
MODEL 2
REMARK VINA RESULT:    -4.460      2.401      4.954
REMARK INTER + INTRA:          -7.774
REMARK INTER:                  -6.729
REMARK INTRA:                  -1.045
REMARK UNBOUND:                -0.968
REMARK SMILES O=C([O-])CCCCCCCCC(=O)[O-]
REMARK SMILES IDX 7 1 6 2 5 3 4 4 2 5 1 6 3 7 8 8 9 9 10 10 11 11 12 12 13 13
REMARK SMILES IDX 14 14
REMARK H PARENT
REMARK Flexibility Score: inf
ROOT
ATOM      1  C   UNL     1     184.259 181.980 180.818  1.00  0.00     0.000 C 
ENDROOT
BRANCH   1   2
ATOM      2  C   UNL     1     184.371 180.865 181.869  1.00  0.00     0.000 C 
BRANCH   2   3
ATOM      3  C   UNL     1     183.027 180.163 182.133  1.00  0.00     0.006 C 
BRANCH   3   4
ATOM      4  C   UNL     1     182.375 179.656 180.839  1.00  0.00     0.053 C 
BRANCH   4   5
ATOM      5  C   UNL     1     181.015 180.250 180.631  1.00  0.00     0.041 C 
ATOM      6  O   UNL     1     180.084 179.998 181.440  1.00  0.00    -0.550 OA
ATOM      7  O   UNL     1     180.785 181.104 179.560  1.00  0.00    -0.550 OA
ENDBRANCH   4   5
ENDBRANCH   3   4
ENDBRANCH   2   3
ENDBRANCH   1   2
BRANCH   1   8
ATOM      8  C   UNL     1     183.813 183.322 181.420  1.00  0.00     0.000 C 
BRANCH   8   9
ATOM      9  C   UNL     1     182.678 183.942 180.592  1.00  0.00     0.000 C 
BRANCH   9  10
ATOM     10  C   UNL     1     181.551 184.514 181.467  1.00  0.00     0.006 C 
BRANCH  10  11
ATOM     11  C   UNL     1     181.014 183.495 182.480  1.00  0.00     0.053 C 
BRANCH  11  12
ATOM     12  C   UNL     1     179.518 183.498 182.480  1.00  0.00     0.041 C 
ATOM     13  O   UNL     1     178.884 183.881 183.498  1.00  0.00    -0.550 OA
ATOM     14  O   UNL     1     178.822 183.124 181.337  1.00  0.00    -0.550 OA
ENDBRANCH  11  12
ENDBRANCH  10  11
ENDBRANCH   9  10
ENDBRANCH   8   9
ENDBRANCH   1   8
TORSDOF 9
ENDMDL
MODEL 3
REMARK VINA RESULT:    -4.444      2.392      3.729
REMARK INTER + INTRA:          -7.749
REMARK INTER:                  -6.628
REMARK INTRA:                  -1.121
REMARK UNBOUND:                -0.968
REMARK SMILES O=C([O-])CCCCCCCCC(=O)[O-]
REMARK SMILES IDX 7 1 6 2 5 3 4 4 2 5 1 6 3 7 8 8 9 9 10 10 11 11 12 12 13 13
REMARK SMILES IDX 14 14
REMARK H PARENT
REMARK Flexibility Score: inf
ROOT
ATOM      1  C   UNL     1     183.655 183.070 181.496  1.00  0.00     0.000 C 
ENDROOT
BRANCH   1   2
ATOM      2  C   UNL     1     182.870 183.625 180.297  1.00  0.00     0.000 C 
BRANCH   2   3
ATOM      3  C   UNL     1     181.507 184.212 180.703  1.00  0.00     0.006 C 
BRANCH   3   4
ATOM      4  C   UNL     1     181.044 183.707 182.076  1.00  0.00     0.053 C 
BRANCH   4   5
ATOM      5  C   UNL     1     179.563 183.490 182.120  1.00  0.00     0.041 C 
ATOM      6  O   UNL     1     178.922 183.709 183.181  1.00  0.00    -0.550 OA
ATOM      7  O   UNL     1     178.886 183.075 180.980  1.00  0.00    -0.550 OA
ENDBRANCH   4   5
ENDBRANCH   3   4
ENDBRANCH   2   3
ENDBRANCH   1   2
BRANCH   1   8
ATOM      8  C   UNL     1     184.518 181.852 181.129  1.00  0.00     0.000 C 
BRANCH   8   9
ATOM      9  C   UNL     1     184.383 180.746 182.186  1.00  0.00     0.000 C 
BRANCH   9  10
ATOM     10  C   UNL     1     182.918 180.395 182.492  1.00  0.00     0.006 C 
BRANCH  10  11
ATOM     11  C   UNL     1     182.280 179.520 181.405  1.00  0.00     0.053 C 
BRANCH  11  12
ATOM     12  C   UNL     1     180.995 180.124 180.937  1.00  0.00     0.041 C 
ATOM     13  O   UNL     1     180.950 180.755 179.848  1.00  0.00    -0.550 OA
ATOM     14  O   UNL     1     179.833 179.949 181.679  1.00  0.00    -0.550 OA
ENDBRANCH  11  12
ENDBRANCH  10  11
ENDBRANCH   9  10
ENDBRANCH   8   9
ENDBRANCH   1   8
TORSDOF 9
ENDMDL
MODEL 4
REMARK VINA RESULT:    -4.432      2.270      4.124
REMARK INTER + INTRA:          -7.732
REMARK INTER:                  -6.714
REMARK INTRA:                  -1.017
REMARK UNBOUND:                -0.968
REMARK SMILES O=C([O-])CCCCCCCCC(=O)[O-]
REMARK SMILES IDX 7 1 6 2 5 3 4 4 2 5 1 6 3 7 8 8 9 9 10 10 11 11 12 12 13 13
REMARK SMILES IDX 14 14
REMARK H PARENT
REMARK Flexibility Score: inf
ROOT
ATOM      1  C   UNL     1     182.447 179.614 181.057  1.00  0.00     0.000 C 
ENDROOT
BRANCH   1   2
ATOM      2  C   UNL     1     181.016 180.045 180.697  1.00  0.00     0.000 C 
BRANCH   2   3
ATOM      3  C   UNL     1     180.436 181.064 181.693  1.00  0.00     0.006 C 
BRANCH   3   4
ATOM      4  C   UNL     1     179.631 182.166 180.991  1.00  0.00     0.053 C 
BRANCH   4   5
ATOM      5  C   UNL     1     178.837 182.983 181.963  1.00  0.00     0.041 C 
ATOM      6  O   UNL     1     179.424 183.719 182.799  1.00  0.00    -0.550 OA
ATOM      7  O   UNL     1     177.449 182.952 181.928  1.00  0.00    -0.550 OA
ENDBRANCH   4   5
ENDBRANCH   3   4
ENDBRANCH   2   3
ENDBRANCH   1   2
BRANCH   1   8
ATOM      8  C   UNL     1     182.890 180.124 182.438  1.00  0.00     0.000 C 
BRANCH   8   9
ATOM      9  C   UNL     1     184.328 180.663 182.386  1.00  0.00     0.000 C 
BRANCH   9  10
ATOM     10  C   UNL     1     184.543 181.665 181.241  1.00  0.00     0.006 C 
BRANCH  10  11
ATOM     11  C   UNL     1     184.060 183.079 181.592  1.00  0.00     0.053 C 
BRANCH  11  12
ATOM     12  C   UNL     1     183.072 183.560 180.577  1.00  0.00     0.041 C 
ATOM     13  O   UNL     1     182.927 182.940 179.490  1.00  0.00    -0.550 OA
ATOM     14  O   UNL     1     182.276 184.665 180.851  1.00  0.00    -0.550 OA
ENDBRANCH  11  12
ENDBRANCH  10  11
ENDBRANCH   9  10
ENDBRANCH   8   9
ENDBRANCH   1   8
TORSDOF 9
ENDMDL
MODEL 5
REMARK VINA RESULT:    -4.430      2.290      4.127
REMARK INTER + INTRA:          -7.728
REMARK INTER:                  -6.687
REMARK INTRA:                  -1.041
REMARK UNBOUND:                -0.968
REMARK SMILES O=C([O-])CCCCCCCCC(=O)[O-]
REMARK SMILES IDX 7 1 6 2 5 3 4 4 2 5 1 6 3 7 8 8 9 9 10 10 11 11 12 12 13 13
REMARK SMILES IDX 14 14
REMARK H PARENT
REMARK Flexibility Score: inf
ROOT
ATOM      1  C   UNL     1     183.224 182.501 179.239  1.00  0.00     0.000 C 
ENDROOT
BRANCH   1   2
ATOM      2  C   UNL     1     183.084 183.443 180.445  1.00  0.00     0.000 C 
BRANCH   2   3
ATOM      3  C   UNL     1     183.477 182.769 181.772  1.00  0.00     0.006 C 
BRANCH   3   4
ATOM      4  C   UNL     1     183.940 181.320 181.571  1.00  0.00     0.053 C 
BRANCH   4   5
ATOM      5  C   UNL     1     183.185 180.367 182.445  1.00  0.00     0.041 C 
ATOM      6  O   UNL     1     182.564 179.397 181.937  1.00  0.00    -0.550 OA
ATOM      7  O   UNL     1     183.191 180.534 183.824  1.00  0.00    -0.550 OA
ENDBRANCH   4   5
ENDBRANCH   3   4
ENDBRANCH   2   3
ENDBRANCH   1   2
BRANCH   1   8
ATOM      8  C   UNL     1     181.888 182.253 178.521  1.00  0.00     0.000 C 
BRANCH   8   9
ATOM      9  C   UNL     1     181.035 181.233 179.289  1.00  0.00     0.000 C 
BRANCH   9  10
ATOM     10  C   UNL     1     179.797 181.869 179.942  1.00  0.00     0.006 C 
BRANCH  10  11
ATOM     11  C   UNL     1     179.776 181.694 181.466  1.00  0.00     0.053 C 
BRANCH  11  12
ATOM     12  C   UNL     1     179.311 182.952 182.129  1.00  0.00     0.041 C 
ATOM     13  O   UNL     1     180.129 183.875 182.383  1.00  0.00    -0.550 OA
ATOM     14  O   UNL     1     177.963 183.126 182.420  1.00  0.00    -0.550 OA
ENDBRANCH  11  12
ENDBRANCH  10  11
ENDBRANCH   9  10
ENDBRANCH   8   9
ENDBRANCH   1   8
TORSDOF 9
ENDMDL
MODEL 6
REMARK VINA RESULT:    -4.429      1.584      3.894
REMARK INTER + INTRA:          -7.727
REMARK INTER:                  -6.631
REMARK INTRA:                  -1.096
REMARK UNBOUND:                -0.968
REMARK SMILES O=C([O-])CCCCCCCCC(=O)[O-]
REMARK SMILES IDX 7 1 6 2 5 3 4 4 2 5 1 6 3 7 8 8 9 9 10 10 11 11 12 12 13 13
REMARK SMILES IDX 14 14
REMARK H PARENT
REMARK Flexibility Score: inf
ROOT
ATOM      1  C   UNL     1     181.593 184.333 181.031  1.00  0.00     0.000 C 
ENDROOT
BRANCH   1   2
ATOM      2  C   UNL     1     182.946 183.775 180.562  1.00  0.00     0.000 C 
BRANCH   2   3
ATOM      3  C   UNL     1     183.739 183.110 181.700  1.00  0.00     0.006 C 
BRANCH   3   4
ATOM      4  C   UNL     1     183.927 181.604 181.472  1.00  0.00     0.053 C 
BRANCH   4   5
ATOM      5  C   UNL     1     183.917 180.839 182.759  1.00  0.00     0.041 C 
ATOM      6  O   UNL     1     182.863 180.764 183.443  1.00  0.00    -0.550 OA
ATOM      7  O   UNL     1     185.064 180.185 183.189  1.00  0.00    -0.550 OA
ENDBRANCH   4   5
ENDBRANCH   3   4
ENDBRANCH   2   3
ENDBRANCH   1   2
BRANCH   1   8
ATOM      8  C   UNL     1     181.217 183.868 182.447  1.00  0.00     0.000 C 
BRANCH   8   9
ATOM      9  C   UNL     1     179.734 183.474 182.518  1.00  0.00     0.000 C 
BRANCH   9  10
ATOM     10  C   UNL     1     179.327 182.497 181.403  1.00  0.00     0.006 C 
BRANCH  10  11
ATOM     11  C   UNL     1     179.600 181.033 181.771  1.00  0.00     0.053 C 
BRANCH  11  12
ATOM     12  C   UNL     1     180.554 180.420 180.795  1.00  0.00     0.041 C 
ATOM     13  O   UNL     1     180.884 181.045 179.753  1.00  0.00    -0.550 OA
ATOM     14  O   UNL     1     181.118 179.178 181.061  1.00  0.00    -0.550 OA
ENDBRANCH  11  12
ENDBRANCH  10  11
ENDBRANCH   9  10
ENDBRANCH   8   9
ENDBRANCH   1   8
TORSDOF 9
ENDMDL
MODEL 7
REMARK VINA RESULT:    -4.427      2.212      3.783
REMARK INTER + INTRA:          -7.724
REMARK INTER:                  -6.690
REMARK INTRA:                  -1.034
REMARK UNBOUND:                -0.968
REMARK SMILES O=C([O-])CCCCCCCCC(=O)[O-]
REMARK SMILES IDX 7 1 6 2 5 3 4 4 2 5 1 6 3 7 8 8 9 9 10 10 11 11 12 12 13 13
REMARK SMILES IDX 14 14
REMARK H PARENT
REMARK Flexibility Score: inf
ROOT
ATOM      1  C   UNL     1     182.824 180.114 182.519  1.00  0.00     0.000 C 
ENDROOT
BRANCH   1   2
ATOM      2  C   UNL     1     184.263 180.652 182.480  1.00  0.00     0.000 C 
BRANCH   2   3
ATOM      3  C   UNL     1     184.500 181.627 181.314  1.00  0.00     0.006 C 
BRANCH   3   4
ATOM      4  C   UNL     1     184.065 183.058 181.659  1.00  0.00     0.053 C 
BRANCH   4   5
ATOM      5  C   UNL     1     183.064 183.588 180.679  1.00  0.00     0.041 C 
ATOM      6  O   UNL     1     182.866 182.990 179.589  1.00  0.00    -0.550 OA
ATOM      7  O   UNL     1     182.329 184.727 180.983  1.00  0.00    -0.550 OA
ENDBRANCH   4   5
ENDBRANCH   3   4
ENDBRANCH   2   3
ENDBRANCH   1   2
BRANCH   1   8
ATOM      8  C   UNL     1     182.386 179.492 181.183  1.00  0.00     0.000 C 
BRANCH   8   9
ATOM      9  C   UNL     1     181.070 180.116 180.694  1.00  0.00     0.000 C 
BRANCH   9  10
ATOM     10  C   UNL     1     180.446 181.068 181.727  1.00  0.00     0.006 C 
BRANCH  10  11
ATOM     11  C   UNL     1     179.671 182.220 181.077  1.00  0.00     0.053 C 
BRANCH  11  12
ATOM     12  C   UNL     1     178.984 183.042 182.121  1.00  0.00     0.041 C 
ATOM     13  O   UNL     1     179.652 183.795 182.876  1.00  0.00    -0.550 OA
ATOM     14  O   UNL     1     177.599 183.012 182.228  1.00  0.00    -0.550 OA
ENDBRANCH  11  12
ENDBRANCH  10  11
ENDBRANCH   9  10
ENDBRANCH   8   9
ENDBRANCH   1   8
TORSDOF 9
ENDMDL
MODEL 8
REMARK VINA RESULT:    -4.406      2.392      3.597
REMARK INTER + INTRA:          -7.691
REMARK INTER:                  -6.772
REMARK INTRA:                  -0.920
REMARK UNBOUND:                -0.968
REMARK SMILES O=C([O-])CCCCCCCCC(=O)[O-]
REMARK SMILES IDX 7 1 6 2 5 3 4 4 2 5 1 6 3 7 8 8 9 9 10 10 11 11 12 12 13 13
REMARK SMILES IDX 14 14
REMARK H PARENT
REMARK Flexibility Score: inf
ROOT
ATOM      1  C   UNL     1     180.670 181.484 179.196  1.00  0.00     0.000 C 
ENDROOT
BRANCH   1   2
ATOM      2  C   UNL     1     180.850 180.461 180.328  1.00  0.00     0.000 C 
BRANCH   2   3
ATOM      3  C   UNL     1     180.065 180.837 181.597  1.00  0.00     0.006 C 
BRANCH   3   4
ATOM      4  C   UNL     1     180.360 182.272 182.056  1.00  0.00     0.053 C 
BRANCH   4   5
ATOM      5  C   UNL     1     179.108 183.084 182.186  1.00  0.00     0.041 C 
ATOM      6  O   UNL     1     178.945 183.841 183.178  1.00  0.00    -0.550 OA
ATOM      7  O   UNL     1     178.135 183.026 181.197  1.00  0.00    -0.550 OA
ENDBRANCH   4   5
ENDBRANCH   3   4
ENDBRANCH   2   3
ENDBRANCH   1   2
BRANCH   1   8
ATOM      8  C   UNL     1     181.970 181.740 178.415  1.00  0.00     0.000 C 
BRANCH   8   9
ATOM      9  C   UNL     1     182.863 182.748 179.154  1.00  0.00     0.000 C 
BRANCH   9  10
ATOM     10  C   UNL     1     184.043 182.076 179.875  1.00  0.00     0.006 C 
BRANCH  10  11
ATOM     11  C   UNL     1     184.007 182.289 181.394  1.00  0.00     0.053 C 
BRANCH  11  12
ATOM     12  C   UNL     1     184.504 181.069 182.103  1.00  0.00     0.041 C 
ATOM     13  O   UNL     1     183.704 180.150 182.421  1.00  0.00    -0.550 OA
ATOM     14  O   UNL     1     185.860 180.924 182.368  1.00  0.00    -0.550 OA
ENDBRANCH  11  12
ENDBRANCH  10  11
ENDBRANCH   9  10
ENDBRANCH   8   9
ENDBRANCH   1   8
TORSDOF 9
ENDMDL
MODEL 9
REMARK VINA RESULT:    -4.384      1.700      3.352
REMARK INTER + INTRA:          -7.658
REMARK INTER:                  -6.714
REMARK INTRA:                  -0.944
REMARK UNBOUND:                -0.968
REMARK SMILES O=C([O-])CCCCCCCCC(=O)[O-]
REMARK SMILES IDX 7 1 6 2 5 3 4 4 2 5 1 6 3 7 8 8 9 9 10 10 11 11 12 12 13 13
REMARK SMILES IDX 14 14
REMARK H PARENT
REMARK Flexibility Score: inf
ROOT
ATOM      1  C   UNL     1     181.641 184.537 181.448  1.00  0.00     0.000 C 
ENDROOT
BRANCH   1   2
ATOM      2  C   UNL     1     181.145 183.588 182.551  1.00  0.00     0.000 C 
BRANCH   2   3
ATOM      3  C   UNL     1     179.623 183.363 182.498  1.00  0.00     0.006 C 
BRANCH   3   4
ATOM      4  C   UNL     1     179.175 182.748 181.165  1.00  0.00     0.053 C 
BRANCH   4   5
ATOM      5  C   UNL     1     179.835 181.428 180.911  1.00  0.00     0.041 C 
ATOM      6  O   UNL     1     179.756 180.506 181.765  1.00  0.00    -0.550 OA
ATOM      7  O   UNL     1     180.512 181.206 179.719  1.00  0.00    -0.550 OA
ENDBRANCH   4   5
ENDBRANCH   3   4
ENDBRANCH   2   3
ENDBRANCH   1   2
BRANCH   1   8
ATOM      8  C   UNL     1     182.732 183.905 180.568  1.00  0.00     0.000 C 
BRANCH   8   9
ATOM      9  C   UNL     1     183.826 183.259 181.431  1.00  0.00     0.000 C 
BRANCH   9  10
ATOM     10  C   UNL     1     184.365 181.954 180.825  1.00  0.00     0.006 C 
BRANCH  10  11
ATOM     11  C   UNL     1     183.580 180.719 181.285  1.00  0.00     0.053 C 
BRANCH  11  12
ATOM     12  C   UNL     1     183.765 180.500 182.753  1.00  0.00     0.041 C 
ATOM     13  O   UNL     1     182.787 180.610 183.538  1.00  0.00    -0.550 OA
ATOM     14  O   UNL     1     185.008 180.127 183.249  1.00  0.00    -0.550 OA
ENDBRANCH  11  12
ENDBRANCH  10  11
ENDBRANCH   9  10
ENDBRANCH   8   9
ENDBRANCH   1   8
TORSDOF 9
ENDMDL
