MODEL 1
REMARK VINA RESULT:     3.388      0.000      0.000
REMARK INTER + INTRA:           9.069
REMARK INTER:                   4.576
REMARK INTRA:                   4.493
REMARK UNBOUND:                 4.493
REMARK SMILES O=c1c(-c2ccc(O)cc2)coc2c([C@@H]3O[C@@H](CO)[C@@H](O)[C@H](O)[C@@H]3O)c(O)ccc12
REMARK SMILES IDX 3 1 11 2 12 3 13 4 30 5 2 6 1 7 29 8 28 9 26 10 14 11 4 12
REMARK SMILES IDX 5 13 6 14 7 15 10 16 9 17 8 18 15 20 24 21 16 22 22 23 17 24
REMARK SMILES IDX 20 25 25 26 23 28 18 30 19 31 21 33 27 35
REMARK H PARENT 8 19 25 27 23 29 19 32 21 34 27 36
REMARK Flexibility Score: inf
ROOT
ATOM      1  C   UNL     1      21.179 -20.654   0.503  1.00  0.00     0.065 A 
ATOM      2  C   UNL     1      21.028 -19.850   1.639  1.00  0.00     0.208 A 
ATOM      3  O   UNL     1      20.794 -18.548   1.526  1.00  0.00    -0.463 OA
ATOM      4  C   UNL     1      20.688 -17.922   0.356  1.00  0.00     0.147 A 
ATOM      5  C   UNL     1      20.822 -18.662  -0.842  1.00  0.00     0.066 A 
ATOM      6  C   UNL     1      21.081 -20.042  -0.760  1.00  0.00     0.200 A 
ATOM      7  O   UNL     1      21.243 -20.724  -1.809  1.00  0.00    -0.288 OA
ATOM      8  C   UNL     1      20.693 -18.011  -2.077  1.00  0.00     0.020 A 
ATOM      9  C   UNL     1      20.400 -16.651  -2.125  1.00  0.00     0.047 A 
ATOM     10  C   UNL     1      20.243 -15.908  -0.953  1.00  0.00     0.125 A 
ATOM     11  C   UNL     1      20.439 -16.524   0.314  1.00  0.00     0.069 A 
ENDROOT
BRANCH   1  12
ATOM     12  C   UNL     1      21.436 -22.109   0.654  1.00  0.00    -0.011 A 
ATOM     13  C   UNL     1      21.761 -22.892  -0.469  1.00  0.00     0.013 A 
ATOM     14  C   UNL     1      22.012 -24.261  -0.327  1.00  0.00     0.047 A 
ATOM     15  C   UNL     1      21.947 -24.862   0.932  1.00  0.00     0.115 A 
ATOM     16  C   UNL     1      21.380 -22.720   1.920  1.00  0.00     0.013 A 
ATOM     17  C   UNL     1      21.631 -24.088   2.057  1.00  0.00     0.047 A 
BRANCH  15  18
ATOM     18  O   UNL     1      22.200 -26.226   1.057  1.00  0.00    -0.508 OA
ATOM     19  H   UNL     1      21.753 -26.905   0.453  1.00  0.00     0.293 HD
ENDBRANCH  15  18
ENDBRANCH   1  12
BRANCH  11  20
ATOM     20  C   UNL     1      20.333 -15.713   1.604  1.00  0.00     0.188 C 
ATOM     21  C   UNL     1      20.115 -16.656   2.808  1.00  0.00     0.179 C 
ATOM     22  O   UNL     1      21.491 -14.905   1.779  1.00  0.00    -0.362 OA
ATOM     23  C   UNL     1      19.969 -15.817   4.089  1.00  0.00     0.177 C 
ATOM     24  C   UNL     1      21.410 -14.057   2.919  1.00  0.00     0.176 C 
ATOM     25  C   UNL     1      21.170 -14.864   4.223  1.00  0.00     0.177 C 
BRANCH  21  26
ATOM     26  O   UNL     1      21.202 -17.541   2.925  1.00  0.00    -0.387 OA
ATOM     27  H   UNL     1      21.121 -18.200   2.187  1.00  0.00     0.211 HD
ENDBRANCH  21  26
BRANCH  23  28
ATOM     28  O   UNL     1      19.904 -16.650   5.218  1.00  0.00    -0.387 OA
ATOM     29  H   UNL     1      19.351 -16.175   5.892  1.00  0.00     0.211 HD
ENDBRANCH  23  28
BRANCH  24  30
ATOM     30  C   UNL     1      20.432 -12.877   2.707  1.00  0.00     0.191 C 
BRANCH  30  31
ATOM     31  O   UNL     1      19.882 -12.919   1.418  1.00  0.00    -0.394 OA
ATOM     32  H   UNL     1      19.606 -11.991   1.197  1.00  0.00     0.210 HD
ENDBRANCH  30  31
ENDBRANCH  24  30
BRANCH  25  33
ATOM     33  O   UNL     1      21.046 -14.018   5.341  1.00  0.00    -0.388 OA
ATOM     34  H   UNL     1      21.313 -14.531   6.148  1.00  0.00     0.211 HD
ENDBRANCH  25  33
ENDBRANCH  11  20
BRANCH  10  35
ATOM     35  O   UNL     1      19.877 -14.566  -1.095  1.00  0.00    -0.507 OA
ATOM     36  H   UNL     1      20.445 -13.785  -0.800  1.00  0.00     0.293 HD
ENDBRANCH  10  35
TORSDOF 9
ENDMDL
MODEL 2
REMARK VINA RESULT:     3.723      3.126      7.735
REMARK INTER + INTRA:           9.521
REMARK INTER:                   7.764
REMARK INTRA:                   1.757
REMARK UNBOUND:                 4.493
REMARK SMILES O=c1c(-c2ccc(O)cc2)coc2c([C@@H]3O[C@@H](CO)[C@@H](O)[C@H](O)[C@@H]3O)c(O)ccc12
REMARK SMILES IDX 3 1 11 2 12 3 13 4 30 5 2 6 1 7 29 8 28 9 26 10 14 11 4 12
REMARK SMILES IDX 5 13 6 14 7 15 10 16 9 17 8 18 15 20 24 21 16 22 22 23 17 24
REMARK SMILES IDX 20 25 25 26 23 28 18 30 19 31 21 33 27 35
REMARK H PARENT 8 19 25 27 23 29 19 32 21 34 27 36
REMARK Flexibility Score: inf
ROOT
ATOM      1  C   UNL     1      22.393 -15.643   6.207  1.00  0.00     0.065 A 
ATOM      2  C   UNL     1      22.124 -16.745   5.386  1.00  0.00     0.208 A 
ATOM      3  O   UNL     1      21.563 -16.585   4.194  1.00  0.00    -0.463 OA
ATOM      4  C   UNL     1      21.221 -15.398   3.699  1.00  0.00     0.147 A 
ATOM      5  C   UNL     1      21.464 -14.231   4.462  1.00  0.00     0.066 A 
ATOM      6  C   UNL     1      22.047 -14.365   5.735  1.00  0.00     0.200 A 
ATOM      7  O   UNL     1      22.242 -13.347   6.456  1.00  0.00    -0.288 OA
ATOM      8  C   UNL     1      21.122 -12.977   3.937  1.00  0.00     0.020 A 
ATOM      9  C   UNL     1      20.581 -12.875   2.659  1.00  0.00     0.047 A 
ATOM     10  C   UNL     1      20.353 -14.013   1.882  1.00  0.00     0.125 A 
ATOM     11  C   UNL     1      20.622 -15.305   2.414  1.00  0.00     0.069 A 
ENDROOT
BRANCH   1  12
ATOM     12  C   UNL     1      23.025 -15.846   7.536  1.00  0.00    -0.011 A 
ATOM     13  C   UNL     1      23.687 -17.052   7.828  1.00  0.00     0.013 A 
ATOM     14  C   UNL     1      24.291 -17.243   9.075  1.00  0.00     0.047 A 
ATOM     15  C   UNL     1      24.247 -16.233  10.041  1.00  0.00     0.115 A 
ATOM     16  C   UNL     1      22.990 -14.832   8.509  1.00  0.00     0.013 A 
ATOM     17  C   UNL     1      23.595 -15.026   9.755  1.00  0.00     0.047 A 
BRANCH  15  18
ATOM     18  O   UNL     1      24.852 -16.438  11.278  1.00  0.00    -0.508 OA
ATOM     19  H   UNL     1      25.762 -16.048  11.493  1.00  0.00     0.293 HD
ENDBRANCH  15  18
ENDBRANCH   1  12
BRANCH  11  20
ATOM     20  C   UNL     1      20.322 -16.564   1.602  1.00  0.00     0.188 C 
ATOM     21  C   UNL     1      20.223 -16.216   0.100  1.00  0.00     0.179 C 
ATOM     22  O   UNL     1      21.312 -17.556   1.842  1.00  0.00    -0.362 OA
ATOM     23  C   UNL     1      19.878 -17.489  -0.693  1.00  0.00     0.177 C 
ATOM     24  C   UNL     1      21.037 -18.787   1.182  1.00  0.00     0.176 C 
ATOM     25  C   UNL     1      20.888 -18.599  -0.352  1.00  0.00     0.177 C 
BRANCH  21  26
ATOM     26  O   UNL     1      21.441 -15.676  -0.347  1.00  0.00    -0.387 OA
ATOM     27  H   UNL     1      22.163 -16.115   0.174  1.00  0.00     0.211 HD
ENDBRANCH  21  26
BRANCH  23  28
ATOM     28  O   UNL     1      19.913 -17.233  -2.073  1.00  0.00    -0.387 OA
ATOM     29  H   UNL     1      20.831 -16.916  -2.282  1.00  0.00     0.211 HD
ENDBRANCH  23  28
BRANCH  24  30
ATOM     30  C   UNL     1      19.878 -19.566   1.848  1.00  0.00     0.191 C 
BRANCH  30  31
ATOM     31  O   UNL     1      20.327 -20.805   2.326  1.00  0.00    -0.394 OA
ATOM     32  H   UNL     1      21.260 -20.913   2.003  1.00  0.00     0.210 HD
ENDBRANCH  30  31
ENDBRANCH  24  30
BRANCH  25  33
ATOM     33  O   UNL     1      20.571 -19.811  -0.995  1.00  0.00    -0.388 OA
ATOM     34  H   UNL     1      21.105 -19.868  -1.829  1.00  0.00     0.211 HD
ENDBRANCH  25  33
ENDBRANCH  11  20
BRANCH  10  35
ATOM     35  O   UNL     1      19.876 -13.812   0.584  1.00  0.00    -0.507 OA
ATOM     36  H   UNL     1      19.536 -12.928   0.232  1.00  0.00     0.293 HD
ENDBRANCH  10  35
TORSDOF 9
ENDMDL
MODEL 3
REMARK VINA RESULT:     5.635      2.374      7.719
REMARK INTER + INTRA:          12.104
REMARK INTER:                  10.333
REMARK INTRA:                   1.771
REMARK UNBOUND:                 4.493
REMARK SMILES O=c1c(-c2ccc(O)cc2)coc2c([C@@H]3O[C@@H](CO)[C@@H](O)[C@H](O)[C@@H]3O)c(O)ccc12
REMARK SMILES IDX 3 1 11 2 12 3 13 4 30 5 2 6 1 7 29 8 28 9 26 10 14 11 4 12
REMARK SMILES IDX 5 13 6 14 7 15 10 16 9 17 8 18 15 20 24 21 16 22 22 23 17 24
REMARK SMILES IDX 20 25 25 26 23 28 18 30 19 31 21 33 27 35
REMARK H PARENT 8 19 25 27 23 29 19 32 21 34 27 36
REMARK Flexibility Score: inf
ROOT
ATOM      1  C   UNL     1      21.963 -15.642   4.404  1.00  0.00     0.065 A 
ATOM      2  C   UNL     1      21.760 -17.019   4.250  1.00  0.00     0.208 A 
ATOM      3  O   UNL     1      21.290 -17.516   3.112  1.00  0.00    -0.463 OA
ATOM      4  C   UNL     1      20.985 -16.765   2.057  1.00  0.00     0.147 A 
ATOM      5  C   UNL     1      21.166 -15.364   2.126  1.00  0.00     0.066 A 
ATOM      6  C   UNL     1      21.651 -14.802   3.320  1.00  0.00     0.200 A 
ATOM      7  O   UNL     1      21.788 -13.552   3.427  1.00  0.00    -0.288 OA
ATOM      8  C   UNL     1      20.862 -14.570   1.011  1.00  0.00     0.020 A 
ATOM      9  C   UNL     1      20.419 -15.160  -0.170  1.00  0.00     0.047 A 
ATOM     10  C   UNL     1      20.254 -16.543  -0.264  1.00  0.00     0.125 A 
ATOM     11  C   UNL     1      20.484 -17.368   0.872  1.00  0.00     0.069 A 
ENDROOT
BRANCH   1  12
ATOM     12  C   UNL     1      22.493 -15.110   5.685  1.00  0.00    -0.011 A 
ATOM     13  C   UNL     1      22.395 -13.738   5.977  1.00  0.00     0.013 A 
ATOM     14  C   UNL     1      22.885 -13.236   7.187  1.00  0.00     0.047 A 
ATOM     15  C   UNL     1      23.472 -14.095   8.120  1.00  0.00     0.115 A 
ATOM     16  C   UNL     1      23.078 -15.970   6.632  1.00  0.00     0.013 A 
ATOM     17  C   UNL     1      23.567 -15.464   7.840  1.00  0.00     0.047 A 
BRANCH  15  18
ATOM     18  O   UNL     1      23.955 -13.580   9.320  1.00  0.00    -0.508 OA
ATOM     19  H   UNL     1      23.751 -12.631   9.610  1.00  0.00     0.293 HD
ENDBRANCH  15  18
ENDBRANCH   1  12
BRANCH  11  20
ATOM     20  C   UNL     1      20.249 -18.876   0.805  1.00  0.00     0.188 C 
ATOM     21  C   UNL     1      20.201 -19.341  -0.667  1.00  0.00     0.179 C 
ATOM     22  O   UNL     1      21.256 -19.567   1.536  1.00  0.00    -0.362 OA
ATOM     23  C   UNL     1      19.921 -20.854  -0.712  1.00  0.00     0.177 C 
ATOM     24  C   UNL     1      21.039 -20.974   1.586  1.00  0.00     0.176 C 
ATOM     25  C   UNL     1      20.946 -21.594   0.167  1.00  0.00     0.177 C 
BRANCH  21  26
ATOM     26  O   UNL     1      21.422 -19.051  -1.301  1.00  0.00    -0.387 OA
ATOM     27  H   UNL     1      21.235 -18.976  -2.273  1.00  0.00     0.211 HD
ENDBRANCH  21  26
BRANCH  23  28
ATOM     28  O   UNL     1      20.004 -21.330  -2.030  1.00  0.00    -0.387 OA
ATOM     29  H   UNL     1      19.380 -20.781  -2.573  1.00  0.00     0.211 HD
ENDBRANCH  23  28
BRANCH  24  30
ATOM     30  C   UNL     1      19.875 -21.356   2.531  1.00  0.00     0.191 C 
BRANCH  30  31
ATOM     31  O   UNL     1      20.210 -22.484   3.294  1.00  0.00    -0.394 OA
ATOM     32  H   UNL     1      19.376 -22.779   3.744  1.00  0.00     0.210 HD
ENDBRANCH  30  31
ENDBRANCH  24  30
BRANCH  25  33
ATOM     33  O   UNL     1      20.687 -22.977   0.221  1.00  0.00    -0.388 OA
ATOM     34  H   UNL     1      21.554 -23.456   0.175  1.00  0.00     0.211 HD
ENDBRANCH  25  33
ENDBRANCH  11  20
BRANCH  10  35
ATOM     35  O   UNL     1      19.876 -17.055  -1.509  1.00  0.00    -0.507 OA
ATOM     36  H   UNL     1      19.918 -16.536  -2.375  1.00  0.00     0.293 HD
ENDBRANCH  10  35
TORSDOF 9
ENDMDL
MODEL 4
REMARK VINA RESULT:     5.689     20.867     22.650
REMARK INTER + INTRA:          12.178
REMARK INTER:                  11.415
REMARK INTRA:                   0.763
REMARK UNBOUND:                 4.493
REMARK SMILES O=c1c(-c2ccc(O)cc2)coc2c([C@@H]3O[C@@H](CO)[C@@H](O)[C@H](O)[C@@H]3O)c(O)ccc12
REMARK SMILES IDX 3 1 11 2 12 3 13 4 30 5 2 6 1 7 29 8 28 9 26 10 14 11 4 12
REMARK SMILES IDX 5 13 6 14 7 15 10 16 9 17 8 18 15 20 24 21 16 22 22 23 17 24
REMARK SMILES IDX 20 25 25 26 23 28 18 30 19 31 21 33 27 35
REMARK H PARENT 8 19 25 27 23 29 19 32 21 34 27 36
REMARK Flexibility Score: inf
ROOT
ATOM      1  C   UNL     1      37.539 -32.092   4.743  1.00  0.00     0.065 A 
ATOM      2  C   UNL     1      38.253 -31.699   5.882  1.00  0.00     0.208 A 
ATOM      3  O   UNL     1      37.697 -31.752   7.086  1.00  0.00    -0.463 OA
ATOM      4  C   UNL     1      36.451 -32.170   7.300  1.00  0.00     0.147 A 
ATOM      5  C   UNL     1      35.662 -32.590   6.203  1.00  0.00     0.066 A 
ATOM      6  C   UNL     1      36.216 -32.538   4.911  1.00  0.00     0.200 A 
ATOM      7  O   UNL     1      35.526 -32.871   3.908  1.00  0.00    -0.288 OA
ATOM      8  C   UNL     1      34.356 -33.049   6.425  1.00  0.00     0.020 A 
ATOM      9  C   UNL     1      33.850 -33.124   7.719  1.00  0.00     0.047 A 
ATOM     10  C   UNL     1      34.621 -32.733   8.816  1.00  0.00     0.125 A 
ATOM     11  C   UNL     1      35.923 -32.196   8.618  1.00  0.00     0.069 A 
ENDROOT
BRANCH   1  12
ATOM     12  C   UNL     1      38.183 -32.029   3.406  1.00  0.00    -0.011 A 
ATOM     13  C   UNL     1      39.512 -31.586   3.281  1.00  0.00     0.013 A 
ATOM     14  C   UNL     1      40.125 -31.533   2.025  1.00  0.00     0.047 A 
ATOM     15  C   UNL     1      39.423 -31.927   0.882  1.00  0.00     0.115 A 
ATOM     16  C   UNL     1      37.485 -32.430   2.253  1.00  0.00     0.013 A 
ATOM     17  C   UNL     1      38.101 -32.376   0.999  1.00  0.00     0.047 A 
BRANCH  15  18
ATOM     18  O   UNL     1      40.046 -31.869  -0.362  1.00  0.00    -0.508 OA
ATOM     19  H   UNL     1      39.871 -32.567  -1.075  1.00  0.00     0.293 HD
ENDBRANCH  15  18
ENDBRANCH   1  12
BRANCH  11  20
ATOM     20  C   UNL     1      36.756 -31.706   9.801  1.00  0.00     0.188 C 
ATOM     21  C   UNL     1      37.834 -32.752  10.161  1.00  0.00     0.179 C 
ATOM     22  O   UNL     1      37.337 -30.441   9.508  1.00  0.00    -0.362 OA
ATOM     23  C   UNL     1      38.633 -32.259  11.379  1.00  0.00     0.177 C 
ATOM     24  C   UNL     1      38.053 -29.890  10.608  1.00  0.00     0.176 C 
ATOM     25  C   UNL     1      39.172 -30.844  11.104  1.00  0.00     0.177 C 
BRANCH  21  26
ATOM     26  O   UNL     1      38.690 -32.954   9.064  1.00  0.00    -0.387 OA
ATOM     27  H   UNL     1      38.320 -33.712   8.540  1.00  0.00     0.211 HD
ENDBRANCH  21  26
BRANCH  23  28
ATOM     28  O   UNL     1      39.706 -33.124  11.647  1.00  0.00    -0.387 OA
ATOM     29  H   UNL     1      40.365 -32.606  12.180  1.00  0.00     0.211 HD
ENDBRANCH  23  28
BRANCH  24  30
ATOM     30  C   UNL     1      37.112 -29.371  11.721  1.00  0.00     0.191 C 
BRANCH  30  31
ATOM     31  O   UNL     1      36.418 -28.232  11.288  1.00  0.00    -0.394 OA
ATOM     32  H   UNL     1      35.944 -28.488  10.454  1.00  0.00     0.210 HD
ENDBRANCH  30  31
ENDBRANCH  24  30
BRANCH  25  33
ATOM     33  O   UNL     1      39.848 -30.314  12.220  1.00  0.00    -0.388 OA
ATOM     34  H   UNL     1      40.336 -29.501  11.929  1.00  0.00     0.211 HD
ENDBRANCH  25  33
ENDBRANCH  11  20
BRANCH  10  35
ATOM     35  O   UNL     1      34.059 -32.912  10.084  1.00  0.00    -0.507 OA
ATOM     36  H   UNL     1      33.108 -32.672  10.325  1.00  0.00     0.293 HD
ENDBRANCH  10  35
TORSDOF 9
ENDMDL
