MODEL 1
REMARK VINA RESULT:    -2.279      0.000      0.000
REMARK INTER + INTRA:          -2.279
REMARK INTER:                  -2.279
REMARK INTRA:                   0.000
REMARK UNBOUND:                 0.000
REMARK SMILES CC(=O)[O-]
REMARK SMILES IDX 1 1 2 2 3 3 4 4
REMARK H PARENT
REMARK Flexibility Score: inf
ROOT
ATOM      1  C   UNL     1      17.734  39.476  38.844  1.00  0.00     0.063 C 
ATOM      2  C   UNL     1      17.143  40.843  38.902  1.00  0.00     0.038 C 
ATOM      3  O   UNL     1      17.889  41.856  38.865  1.00  0.00    -0.550 OA
ATOM      4  O   UNL     1      15.771  41.002  39.051  1.00  0.00    -0.550 OA
ENDROOT
TORSDOF 0
ENDMDL
MODEL 2
REMARK VINA RESULT:    -2.274     16.424     16.733
REMARK INTER + INTRA:          -2.274
REMARK INTER:                  -2.274
REMARK INTRA:                   0.000
REMARK UNBOUND:                 0.000
REMARK SMILES CC(=O)[O-]
REMARK SMILES IDX 1 1 2 2 3 3 4 4
REMARK H PARENT
REMARK Flexibility Score: inf
ROOT
ATOM      1  C   UNL     1       6.260  47.941  30.604  1.00  0.00     0.063 C 
ATOM      2  C   UNL     1       5.906  48.649  29.340  1.00  0.00     0.038 C 
ATOM      3  O   UNL     1       5.891  49.907  29.304  1.00  0.00    -0.550 OA
ATOM      4  O   UNL     1       5.540  47.922  28.215  1.00  0.00    -0.550 OA
ENDROOT
TORSDOF 0
ENDMDL
MODEL 3
REMARK VINA RESULT:    -2.184     16.186     16.653
REMARK INTER + INTRA:          -2.184
REMARK INTER:                  -2.184
REMARK INTRA:                   0.000
REMARK UNBOUND:                 0.000
REMARK SMILES CC(=O)[O-]
REMARK SMILES IDX 1 1 2 2 3 3 4 4
REMARK H PARENT
REMARK Flexibility Score: inf
ROOT
ATOM      1  C   UNL     1       5.438  47.696  28.135  1.00  0.00     0.063 C 
ATOM      2  C   UNL     1       5.953  48.441  29.319  1.00  0.00     0.038 C 
ATOM      3  O   UNL     1       6.074  49.694  29.274  1.00  0.00    -0.550 OA
ATOM      4  O   UNL     1       6.353  47.751  30.456  1.00  0.00    -0.550 OA
ENDROOT
TORSDOF 0
ENDMDL
MODEL 4
REMARK VINA RESULT:    -2.180      1.420      1.772
REMARK INTER + INTRA:          -2.180
REMARK INTER:                  -2.180
REMARK INTRA:                   0.000
REMARK UNBOUND:                 0.000
REMARK SMILES CC(=O)[O-]
REMARK SMILES IDX 1 1 2 2 3 3 4 4
REMARK H PARENT
REMARK Flexibility Score: inf
ROOT
ATOM      1  C   UNL     1      15.805  41.129  38.959  1.00  0.00     0.063 C 
ATOM      2  C   UNL     1      17.254  40.798  38.851  1.00  0.00     0.038 C 
ATOM      3  O   UNL     1      18.113  41.719  38.828  1.00  0.00    -0.550 OA
ATOM      4  O   UNL     1      17.658  39.476  38.719  1.00  0.00    -0.550 OA
ENDROOT
TORSDOF 0
ENDMDL
MODEL 5
REMARK VINA RESULT:    -2.175     15.157     15.528
REMARK INTER + INTRA:          -2.175
REMARK INTER:                  -2.175
REMARK INTRA:                   0.000
REMARK UNBOUND:                 0.000
REMARK SMILES CC(=O)[O-]
REMARK SMILES IDX 1 1 2 2 3 3 4 4
REMARK H PARENT
REMARK Flexibility Score: inf
ROOT
ATOM      1  C   UNL     1       5.811  48.590  29.279  1.00  0.00     0.063 C 
ATOM      2  C   UNL     1       6.575  48.267  30.518  1.00  0.00     0.038 C 
ATOM      3  O   UNL     1       7.749  48.697  30.667  1.00  0.00    -0.550 OA
ATOM      4  O   UNL     1       6.014  47.444  31.487  1.00  0.00    -0.550 OA
ENDROOT
TORSDOF 0
ENDMDL
MODEL 6
REMARK VINA RESULT:    -2.142     16.726     17.196
REMARK INTER + INTRA:          -2.142
REMARK INTER:                  -2.142
REMARK INTRA:                   0.000
REMARK UNBOUND:                 0.000
REMARK SMILES CC(=O)[O-]
REMARK SMILES IDX 1 1 2 2 3 3 4 4
REMARK H PARENT
REMARK Flexibility Score: inf
ROOT
ATOM      1  C   UNL     1       0.437  37.954  35.772  1.00  0.00     0.063 C 
ATOM      2  C   UNL     1       1.003  37.231  34.598  1.00  0.00     0.038 C 
ATOM      3  O   UNL     1       0.477  37.360  33.462  1.00  0.00    -0.550 OA
ATOM      4  O   UNL     1       2.081  36.370  34.765  1.00  0.00    -0.550 OA
ENDROOT
TORSDOF 0
ENDMDL
MODEL 7
REMARK VINA RESULT:    -2.063     17.934     18.173
REMARK INTER + INTRA:          -2.063
REMARK INTER:                  -2.063
REMARK INTRA:                   0.000
REMARK UNBOUND:                 0.000
REMARK SMILES CC(=O)[O-]
REMARK SMILES IDX 1 1 2 2 3 3 4 4
REMARK H PARENT
REMARK Flexibility Score: inf
ROOT
ATOM      1  C   UNL     1      10.041  36.331  21.803  1.00  0.00     0.063 C 
ATOM      2  C   UNL     1      11.241  35.945  22.600  1.00  0.00     0.038 C 
ATOM      3  O   UNL     1      11.118  35.620  23.809  1.00  0.00    -0.550 OA
ATOM      4  O   UNL     1      12.504  35.996  22.024  1.00  0.00    -0.550 OA
ENDROOT
TORSDOF 0
ENDMDL
MODEL 8
REMARK VINA RESULT:    -2.047     17.742     17.999
REMARK INTER + INTRA:          -2.047
REMARK INTER:                  -2.047
REMARK INTRA:                   0.000
REMARK UNBOUND:                 0.000
REMARK SMILES CC(=O)[O-]
REMARK SMILES IDX 1 1 2 2 3 3 4 4
REMARK H PARENT
REMARK Flexibility Score: inf
ROOT
ATOM      1  C   UNL     1      12.190  35.851  21.845  1.00  0.00     0.063 C 
ATOM      2  C   UNL     1      11.007  36.028  22.734  1.00  0.00     0.038 C 
ATOM      3  O   UNL     1       9.950  36.542  22.283  1.00  0.00    -0.550 OA
ATOM      4  O   UNL     1      11.085  35.675  24.075  1.00  0.00    -0.550 OA
ENDROOT
TORSDOF 0
ENDMDL
MODEL 9
REMARK VINA RESULT:    -2.000     18.147     18.394
REMARK INTER + INTRA:          -2.000
REMARK INTER:                  -2.000
REMARK INTRA:                   0.000
REMARK UNBOUND:                 0.000
REMARK SMILES CC(=O)[O-]
REMARK SMILES IDX 1 1 2 2 3 3 4 4
REMARK H PARENT
REMARK Flexibility Score: inf
ROOT
ATOM      1  C   UNL     1      11.090  35.860  23.697  1.00  0.00     0.063 C 
ATOM      2  C   UNL     1      11.096  36.178  22.241  1.00  0.00     0.038 C 
ATOM      3  O   UNL     1      10.025  36.493  21.659  1.00  0.00    -0.550 OA
ATOM      4  O   UNL     1      12.273  36.077  21.511  1.00  0.00    -0.550 OA
ENDROOT
TORSDOF 0
ENDMDL
