MODEL 1
REMARK VINA RESULT:    -3.037      0.000      0.000
REMARK INTER + INTRA:          -3.580
REMARK INTER:                  -3.481
REMARK INTRA:                  -0.099
REMARK UNBOUND:                -0.099
REMARK SMILES COc1cc(C(=O)[O-])ccc1O
REMARK SMILES IDX 5 1 9 2 4 3 10 4 3 5 11 6 6 7 7 8 8 9 2 10 1 11 12 12
REMARK H PARENT 12 13
REMARK Flexibility Score: inf
ROOT
ATOM      1  C   UNL     1     -23.319   8.152 -12.877  1.00  0.00     0.001 A 
ATOM      2  C   UNL     1     -22.879   8.016 -14.204  1.00  0.00     0.014 A 
ATOM      3  C   UNL     1     -23.234   9.410 -12.254  1.00  0.00     0.060 A 
ATOM      4  C   UNL     1     -22.364   9.115 -14.893  1.00  0.00     0.051 A 
ATOM      5  C   UNL     1     -22.713  10.523 -12.945  1.00  0.00     0.161 A 
ATOM      6  C   UNL     1     -22.278  10.364 -14.274  1.00  0.00     0.157 A 
ENDROOT
BRANCH   1   7
ATOM      7  C   UNL     1     -23.867   6.989 -12.143  1.00  0.00     0.072 C 
ATOM      8  O   UNL     1     -24.125   7.071 -10.913  1.00  0.00    -0.545 OA
ATOM      9  O   UNL     1     -24.107   5.789 -12.802  1.00  0.00    -0.545 OA
ENDBRANCH   1   7
BRANCH   5  10
ATOM     10  O   UNL     1     -22.616  11.791 -12.348  1.00  0.00    -0.493 OA
ATOM     11  C   UNL     1     -21.760  12.106 -11.256  1.00  0.00     0.278 C 
ENDBRANCH   5  10
BRANCH   6  12
ATOM     12  O   UNL     1     -21.757  11.439 -14.994  1.00  0.00    -0.504 OA
ATOM     13  H   UNL     1     -20.763  11.553 -15.151  1.00  0.00     0.293 HD
ENDBRANCH   6  12
TORSDOF 3
ENDMDL
MODEL 2
REMARK VINA RESULT:    -2.942      1.531      2.685
REMARK INTER + INTRA:          -3.471
REMARK INTER:                  -3.372
REMARK INTRA:                  -0.099
REMARK UNBOUND:                -0.099
REMARK SMILES COc1cc(C(=O)[O-])ccc1O
REMARK SMILES IDX 5 1 9 2 4 3 10 4 3 5 11 6 6 7 7 8 8 9 2 10 1 11 12 12
REMARK H PARENT 12 13
REMARK Flexibility Score: inf
ROOT
ATOM      1  C   UNL     1     -23.387   8.767 -13.526  1.00  0.00     0.001 A 
ATOM      2  C   UNL     1     -23.612   8.805 -12.140  1.00  0.00     0.014 A 
ATOM      3  C   UNL     1     -22.782   9.873 -14.151  1.00  0.00     0.060 A 
ATOM      4  C   UNL     1     -23.241   9.925 -11.395  1.00  0.00     0.051 A 
ATOM      5  C   UNL     1     -22.406  11.007 -13.403  1.00  0.00     0.161 A 
ATOM      6  C   UNL     1     -22.641  11.024 -12.016  1.00  0.00     0.157 A 
ENDROOT
BRANCH   1   7
ATOM      7  C   UNL     1     -23.778   7.581 -14.320  1.00  0.00     0.072 C 
ATOM      8  O   UNL     1     -24.117   6.510 -13.748  1.00  0.00    -0.545 OA
ATOM      9  O   UNL     1     -23.780   7.631 -15.709  1.00  0.00    -0.545 OA
ENDBRANCH   1   7
BRANCH   5  10
ATOM     10  O   UNL     1     -21.801  12.125 -14.000  1.00  0.00    -0.493 OA
ATOM     11  C   UNL     1     -20.504  12.125 -14.587  1.00  0.00     0.278 C 
ENDBRANCH   5  10
BRANCH   6  12
ATOM     12  O   UNL     1     -22.284  12.125 -11.238  1.00  0.00    -0.504 OA
ATOM     13  H   UNL     1     -22.004  13.008 -11.648  1.00  0.00     0.293 HD
ENDBRANCH   6  12
TORSDOF 3
ENDMDL
MODEL 3
REMARK VINA RESULT:    -2.592      1.409      2.598
REMARK INTER + INTRA:          -3.070
REMARK INTER:                  -2.970
REMARK INTRA:                  -0.100
REMARK UNBOUND:                -0.099
REMARK SMILES COc1cc(C(=O)[O-])ccc1O
REMARK SMILES IDX 5 1 9 2 4 3 10 4 3 5 11 6 6 7 7 8 8 9 2 10 1 11 12 12
REMARK H PARENT 12 13
REMARK Flexibility Score: inf
ROOT
ATOM      1  C   UNL     1     -23.700   7.916 -12.440  1.00  0.00     0.001 A 
ATOM      2  C   UNL     1     -24.125   8.388 -11.188  1.00  0.00     0.014 A 
ATOM      3  C   UNL     1     -23.229   8.836 -13.394  1.00  0.00     0.060 A 
ATOM      4  C   UNL     1     -24.079   9.752 -10.895  1.00  0.00     0.051 A 
ATOM      5  C   UNL     1     -23.183  10.215 -13.104  1.00  0.00     0.161 A 
ATOM      6  C   UNL     1     -23.613  10.666 -11.843  1.00  0.00     0.157 A 
ENDROOT
BRANCH   1   7
ATOM      7  C   UNL     1     -23.745   6.470 -12.754  1.00  0.00     0.072 C 
ATOM      8  O   UNL     1     -24.123   6.072 -13.888  1.00  0.00    -0.545 OA
ATOM      9  O   UNL     1     -23.371   5.530 -11.801  1.00  0.00    -0.545 OA
ENDBRANCH   1   7
BRANCH   5  10
ATOM     10  O   UNL     1     -22.717  11.156 -14.037  1.00  0.00    -0.493 OA
ATOM     11  C   UNL     1     -21.346  11.475 -14.249  1.00  0.00     0.278 C 
ENDBRANCH   5  10
BRANCH   6  12
ATOM     12  O   UNL     1     -23.583  12.021 -11.514  1.00  0.00    -0.504 OA
ATOM     13  H   UNL     1     -23.471  12.344 -10.561  1.00  0.00     0.293 HD
ENDBRANCH   6  12
TORSDOF 3
ENDMDL
MODEL 4
REMARK VINA RESULT:    -2.519      1.754      4.421
REMARK INTER + INTRA:          -2.985
REMARK INTER:                  -2.923
REMARK INTRA:                  -0.062
REMARK UNBOUND:                -0.099
REMARK SMILES COc1cc(C(=O)[O-])ccc1O
REMARK SMILES IDX 5 1 9 2 4 3 10 4 3 5 11 6 6 7 7 8 8 9 2 10 1 11 12 12
REMARK H PARENT 12 13
REMARK Flexibility Score: inf
ROOT
ATOM      1  C   UNL     1     -23.589   9.810 -11.533  1.00  0.00     0.001 A 
ATOM      2  C   UNL     1     -24.030   8.667 -10.846  1.00  0.00     0.014 A 
ATOM      3  C   UNL     1     -23.194   9.689 -12.877  1.00  0.00     0.060 A 
ATOM      4  C   UNL     1     -24.076   7.430 -11.490  1.00  0.00     0.051 A 
ATOM      5  C   UNL     1     -23.238   8.442 -13.532  1.00  0.00     0.161 A 
ATOM      6  C   UNL     1     -23.684   7.310 -12.825  1.00  0.00     0.157 A 
ENDROOT
BRANCH   1   7
ATOM      7  C   UNL     1     -23.540  11.124 -10.853  1.00  0.00     0.072 C 
ATOM      8  O   UNL     1     -24.123  12.125 -11.350  1.00  0.00    -0.545 OA
ATOM      9  O   UNL     1     -22.850  11.273  -9.656  1.00  0.00    -0.545 OA
ENDBRANCH   1   7
BRANCH   5  10
ATOM     10  O   UNL     1     -22.850   8.292 -14.874  1.00  0.00    -0.493 OA
ATOM     11  C   UNL     1     -23.744   8.322 -15.982  1.00  0.00     0.278 C 
ENDBRANCH   5  10
BRANCH   6  12
ATOM     12  O   UNL     1     -23.742   6.057 -13.435  1.00  0.00    -0.504 OA
ATOM     13  H   UNL     1     -24.356   5.865 -14.217  1.00  0.00     0.293 HD
ENDBRANCH   6  12
TORSDOF 3
ENDMDL
MODEL 5
REMARK VINA RESULT:    -2.281     15.487     17.321
REMARK INTER + INTRA:          -2.713
REMARK INTER:                  -2.613
REMARK INTRA:                  -0.100
REMARK UNBOUND:                -0.099
REMARK SMILES COc1cc(C(=O)[O-])ccc1O
REMARK SMILES IDX 5 1 9 2 4 3 10 4 3 5 11 6 6 7 7 8 8 9 2 10 1 11 12 12
REMARK H PARENT 12 13
REMARK Flexibility Score: inf
ROOT
ATOM      1  C   UNL     1      -6.146  12.032  -8.092  1.00  0.00     0.001 A 
ATOM      2  C   UNL     1      -5.808  12.122  -6.731  1.00  0.00     0.014 A 
ATOM      3  C   UNL     1      -7.501  11.944  -8.456  1.00  0.00     0.060 A 
ATOM      4  C   UNL     1      -6.806  12.124  -5.755  1.00  0.00     0.051 A 
ATOM      5  C   UNL     1      -8.512  11.944  -7.474  1.00  0.00     0.161 A 
ATOM      6  C   UNL     1      -8.153  12.036  -6.117  1.00  0.00     0.157 A 
ENDROOT
BRANCH   1   7
ATOM      7  C   UNL     1      -5.090  12.031  -9.130  1.00  0.00     0.072 C 
ATOM      8  O   UNL     1      -3.875  11.944  -8.809  1.00  0.00    -0.545 OA
ATOM      9  O   UNL     1      -5.425  12.125 -10.476  1.00  0.00    -0.545 OA
ENDBRANCH   1   7
BRANCH   5  10
ATOM     10  O   UNL     1      -9.874  11.857  -7.809  1.00  0.00    -0.493 OA
ATOM     11  C   UNL     1     -10.502  10.697  -8.345  1.00  0.00     0.278 C 
ENDBRANCH   5  10
BRANCH   6  12
ATOM     12  O   UNL     1      -9.121  12.040  -5.114  1.00  0.00    -0.504 OA
ATOM     13  H   UNL     1      -9.337  12.869  -4.574  1.00  0.00     0.293 HD
ENDBRANCH   6  12
TORSDOF 3
ENDMDL
MODEL 6
REMARK VINA RESULT:    -2.214      1.953      3.275
REMARK INTER + INTRA:          -2.636
REMARK INTER:                  -3.021
REMARK INTRA:                   0.385
REMARK UNBOUND:                -0.099
REMARK SMILES COc1cc(C(=O)[O-])ccc1O
REMARK SMILES IDX 5 1 9 2 4 3 10 4 3 5 11 6 6 7 7 8 8 9 2 10 1 11 12 12
REMARK H PARENT 12 13
REMARK Flexibility Score: inf
ROOT
ATOM      1  C   UNL     1     -23.265   8.921 -13.914  1.00  0.00     0.001 A 
ATOM      2  C   UNL     1     -23.742   7.983 -12.984  1.00  0.00     0.014 A 
ATOM      3  C   UNL     1     -22.932  10.214 -13.472  1.00  0.00     0.060 A 
ATOM      4  C   UNL     1     -23.882   8.330 -11.640  1.00  0.00     0.051 A 
ATOM      5  C   UNL     1     -23.073  10.570 -12.116  1.00  0.00     0.161 A 
ATOM      6  C   UNL     1     -23.551   9.615 -11.201  1.00  0.00     0.157 A 
ENDROOT
BRANCH   1   7
ATOM      7  C   UNL     1     -23.114   8.556 -15.341  1.00  0.00     0.072 C 
ATOM      8  O   UNL     1     -24.125   8.446 -16.085  1.00  0.00    -0.545 OA
ATOM      9  O   UNL     1     -21.853   8.328 -15.881  1.00  0.00    -0.545 OA
ENDBRANCH   1   7
BRANCH   5  10
ATOM     10  O   UNL     1     -22.747  11.854 -11.646  1.00  0.00    -0.493 OA
ATOM     11  C   UNL     1     -21.972  12.116 -10.482  1.00  0.00     0.278 C 
ENDBRANCH   5  10
BRANCH   6  12
ATOM     12  O   UNL     1     -23.706   9.926  -9.850  1.00  0.00    -0.504 OA
ATOM     13  H   UNL     1     -24.200  10.753  -9.539  1.00  0.00     0.293 HD
ENDBRANCH   6  12
TORSDOF 3
ENDMDL
MODEL 7
REMARK VINA RESULT:    -2.189     16.184     17.617
REMARK INTER + INTRA:          -2.607
REMARK INTER:                  -2.511
REMARK INTRA:                  -0.097
REMARK UNBOUND:                -0.099
REMARK SMILES COc1cc(C(=O)[O-])ccc1O
REMARK SMILES IDX 5 1 9 2 4 3 10 4 3 5 11 6 6 7 7 8 8 9 2 10 1 11 12 12
REMARK H PARENT 12 13
REMARK Flexibility Score: inf
ROOT
ATOM      1  C   UNL     1      -7.815  11.830  -7.244  1.00  0.00     0.001 A 
ATOM      2  C   UNL     1      -7.551  12.125  -8.591  1.00  0.00     0.014 A 
ATOM      3  C   UNL     1      -6.743  11.517  -6.389  1.00  0.00     0.060 A 
ATOM      4  C   UNL     1      -6.241  12.107  -9.074  1.00  0.00     0.051 A 
ATOM      5  C   UNL     1      -5.419  11.496  -6.872  1.00  0.00     0.161 A 
ATOM      6  C   UNL     1      -5.177  11.795  -8.225  1.00  0.00     0.157 A 
ENDROOT
BRANCH   1   7
ATOM      7  C   UNL     1      -9.203  11.849  -6.728  1.00  0.00     0.072 C 
ATOM      8  O   UNL     1      -9.434  12.117  -5.519  1.00  0.00    -0.545 OA
ATOM      9  O   UNL     1     -10.273  11.571  -7.572  1.00  0.00    -0.545 OA
ENDBRANCH   1   7
BRANCH   5  10
ATOM     10  O   UNL     1      -4.329  11.187  -6.041  1.00  0.00    -0.493 OA
ATOM     11  C   UNL     1      -4.111   9.918  -5.433  1.00  0.00     0.278 C 
ENDBRANCH   5  10
BRANCH   6  12
ATOM     12  O   UNL     1      -3.882  11.787  -8.744  1.00  0.00    -0.504 OA
ATOM     13  H   UNL     1      -3.075  12.042  -8.188  1.00  0.00     0.293 HD
ENDBRANCH   6  12
TORSDOF 3
ENDMDL
