MODEL 1
REMARK VINA RESULT:    -6.168      0.000      0.000
REMARK INTER + INTRA:          -9.388
REMARK INTER:                  -8.331
REMARK INTRA:                  -1.057
REMARK UNBOUND:                -1.057
REMARK SMILES CC(=O)CCC=C(C)CCC=C(C)C
REMARK SMILES IDX 7 1 6 2 8 3 9 4 10 5 11 6 13 7 12 8 14 9 5 10 4 11 2 12 3 13
REMARK SMILES IDX 1 14
REMARK H PARENT
REMARK Flexibility Score: inf
ROOT
ATOM      1  C   UNL     1      -8.366  33.154  21.131  1.00  0.00    -0.077 C 
ATOM      2  C   UNL     1      -8.678  34.045  22.100  1.00  0.00    -0.028 C 
ATOM      3  C   UNL     1      -7.144  33.317  20.258  1.00  0.00     0.039 C 
ENDROOT
BRANCH   1   4
ATOM      4  C   UNL     1      -9.259  31.945  20.928  1.00  0.00     0.034 C 
BRANCH   4   5
ATOM      5  C   UNL     1      -8.631  30.667  21.502  1.00  0.00     0.032 C 
BRANCH   5   6
ATOM      6  C   UNL     1      -8.717  30.629  23.010  1.00  0.00    -0.028 C 
ATOM      7  C   UNL     1      -6.235  30.715  23.328  1.00  0.00     0.039 C 
ATOM      8  C   UNL     1      -7.655  30.680  23.842  1.00  0.00    -0.080 C 
ATOM      9  C   UNL     1      -7.907  30.684  25.328  1.00  0.00     0.039 C 
ENDBRANCH   5   6
ENDBRANCH   4   5
ENDBRANCH   1   4
BRANCH   2  10
ATOM     10  C   UNL     1      -7.896  35.303  22.387  1.00  0.00     0.035 C 
BRANCH  10  11
ATOM     11  C   UNL     1      -7.144  35.185  23.716  1.00  0.00     0.079 C 
BRANCH  11  12
ATOM     12  C   UNL     1      -8.110  35.159  24.872  1.00  0.00     0.130 C 
ATOM     13  O   UNL     1      -8.180  34.161  25.574  1.00  0.00    -0.300 OA
ATOM     14  C   UNL     1      -8.979  36.339  25.190  1.00  0.00     0.087 C 
ENDBRANCH  11  12
ENDBRANCH  10  11
ENDBRANCH   2  10
TORSDOF 6
ENDMDL
MODEL 2
REMARK VINA RESULT:    -5.844      1.309      3.697
REMARK INTER + INTRA:          -8.952
REMARK INTER:                  -8.079
REMARK INTRA:                  -0.872
REMARK UNBOUND:                -1.057
REMARK SMILES CC(=O)CCC=C(C)CCC=C(C)C
REMARK SMILES IDX 7 1 6 2 8 3 9 4 10 5 11 6 13 7 12 8 14 9 5 10 4 11 2 12 3 13
REMARK SMILES IDX 1 14
REMARK H PARENT
REMARK Flexibility Score: inf
ROOT
ATOM      1  C   UNL     1      -8.016  31.095  23.128  1.00  0.00    -0.077 C 
ATOM      2  C   UNL     1      -8.939  31.109  24.117  1.00  0.00    -0.028 C 
ATOM      3  C   UNL     1      -6.535  31.053  23.418  1.00  0.00     0.039 C 
ENDROOT
BRANCH   1   4
ATOM      4  C   UNL     1      -8.484  31.100  21.685  1.00  0.00     0.034 C 
BRANCH   4   5
ATOM      5  C   UNL     1      -9.399  32.294  21.383  1.00  0.00     0.032 C 
BRANCH   5   6
ATOM      6  C   UNL     1      -8.846  33.582  21.948  1.00  0.00    -0.028 C 
ATOM      7  C   UNL     1      -7.142  33.848  20.132  1.00  0.00     0.039 C 
ATOM      8  C   UNL     1      -7.855  34.304  21.384  1.00  0.00    -0.080 C 
ATOM      9  C   UNL     1      -7.445  35.597  22.041  1.00  0.00     0.039 C 
ENDBRANCH   5   6
ENDBRANCH   4   5
ENDBRANCH   1   4
BRANCH   2  10
ATOM     10  C   UNL     1      -8.612  31.137  25.589  1.00  0.00     0.035 C 
BRANCH  10  11
ATOM     11  C   UNL     1      -9.444  32.201  26.311  1.00  0.00     0.079 C 
BRANCH  11  12
ATOM     12  C   UNL     1      -8.607  33.418  26.609  1.00  0.00     0.130 C 
ATOM     13  O   UNL     1      -8.161  33.580  27.735  1.00  0.00    -0.300 OA
ATOM     14  C   UNL     1      -8.295  34.431  25.547  1.00  0.00     0.087 C 
ENDBRANCH  11  12
ENDBRANCH  10  11
ENDBRANCH   2  10
TORSDOF 6
ENDMDL
MODEL 3
REMARK VINA RESULT:    -5.661      1.736      3.354
REMARK INTER + INTRA:          -8.704
REMARK INTER:                  -7.497
REMARK INTRA:                  -1.207
REMARK UNBOUND:                -1.057
REMARK SMILES CC(=O)CCC=C(C)CCC=C(C)C
REMARK SMILES IDX 7 1 6 2 8 3 9 4 10 5 11 6 13 7 12 8 14 9 5 10 4 11 2 12 3 13
REMARK SMILES IDX 1 14
REMARK H PARENT
REMARK Flexibility Score: inf
ROOT
ATOM      1  C   UNL     1      -8.540  33.894  23.398  1.00  0.00    -0.077 C 
ATOM      2  C   UNL     1      -9.054  33.276  24.486  1.00  0.00    -0.028 C 
ATOM      3  C   UNL     1      -7.435  34.919  23.509  1.00  0.00     0.039 C 
ENDROOT
BRANCH   1   4
ATOM      4  C   UNL     1      -9.072  33.532  22.025  1.00  0.00     0.034 C 
BRANCH   4   5
ATOM      5  C   UNL     1      -8.166  32.522  21.307  1.00  0.00     0.032 C 
BRANCH   5   6
ATOM      6  C   UNL     1      -8.579  31.097  21.594  1.00  0.00    -0.028 C 
ATOM      7  C   UNL     1      -6.705  30.696  23.206  1.00  0.00     0.039 C 
ATOM      8  C   UNL     1      -7.952  30.277  22.464  1.00  0.00    -0.080 C 
ATOM      9  C   UNL     1      -8.515  28.895  22.680  1.00  0.00     0.039 C 
ENDBRANCH   5   6
ENDBRANCH   4   5
ENDBRANCH   1   4
BRANCH   2  10
ATOM     10  C   UNL     1      -8.638  33.563  25.907  1.00  0.00     0.035 C 
BRANCH  10  11
ATOM     11  C   UNL     1      -9.247  32.538  26.870  1.00  0.00     0.079 C 
BRANCH  11  12
ATOM     12  C   UNL     1      -8.705  31.161  26.592  1.00  0.00     0.130 C 
ATOM     13  O   UNL     1      -7.532  30.917  26.832  1.00  0.00    -0.300 OA
ATOM     14  C   UNL     1      -9.579  30.074  26.039  1.00  0.00     0.087 C 
ENDBRANCH  11  12
ENDBRANCH  10  11
ENDBRANCH   2  10
TORSDOF 6
ENDMDL
MODEL 4
REMARK VINA RESULT:    -5.603      1.376      4.314
REMARK INTER + INTRA:          -8.626
REMARK INTER:                  -7.968
REMARK INTRA:                  -0.658
REMARK UNBOUND:                -1.057
REMARK SMILES CC(=O)CCC=C(C)CCC=C(C)C
REMARK SMILES IDX 7 1 6 2 8 3 9 4 10 5 11 6 13 7 12 8 14 9 5 10 4 11 2 12 3 13
REMARK SMILES IDX 1 14
REMARK H PARENT
REMARK Flexibility Score: inf
ROOT
ATOM      1  C   UNL     1      -8.360  33.185  21.783  1.00  0.00    -0.077 C 
ATOM      2  C   UNL     1      -7.485  32.169  21.960  1.00  0.00    -0.028 C 
ATOM      3  C   UNL     1      -9.842  33.013  22.021  1.00  0.00     0.039 C 
ENDROOT
BRANCH   1   4
ATOM      4  C   UNL     1      -7.836  34.542  21.355  1.00  0.00     0.034 C 
BRANCH   4   5
ATOM      5  C   UNL     1      -7.538  35.446  22.559  1.00  0.00     0.032 C 
BRANCH   5   6
ATOM      6  C   UNL     1      -7.608  34.685  23.862  1.00  0.00    -0.028 C 
ATOM      7  C   UNL     1      -9.052  36.396  24.984  1.00  0.00     0.039 C 
ATOM      8  C   UNL     1      -8.305  35.083  24.947  1.00  0.00    -0.080 C 
ATOM      9  C   UNL     1      -8.319  34.187  26.160  1.00  0.00     0.039 C 
ENDBRANCH   5   6
ENDBRANCH   4   5
ENDBRANCH   1   4
BRANCH   2  10
ATOM     10  C   UNL     1      -7.875  30.765  22.354  1.00  0.00     0.035 C 
BRANCH  10  11
ATOM     11  C   UNL     1      -7.177  30.352  23.654  1.00  0.00     0.079 C 
BRANCH  11  12
ATOM     12  C   UNL     1      -8.081  30.579  24.837  1.00  0.00     0.130 C 
ATOM     13  O   UNL     1      -9.273  30.774  24.653  1.00  0.00    -0.300 OA
ATOM     14  C   UNL     1      -7.552  30.557  26.240  1.00  0.00     0.087 C 
ENDBRANCH  11  12
ENDBRANCH  10  11
ENDBRANCH   2  10
TORSDOF 6
ENDMDL
MODEL 5
REMARK VINA RESULT:    -5.490      1.687      3.212
REMARK INTER + INTRA:          -8.474
REMARK INTER:                  -7.215
REMARK INTRA:                  -1.258
REMARK UNBOUND:                -1.057
REMARK SMILES CC(=O)CCC=C(C)CCC=C(C)C
REMARK SMILES IDX 7 1 6 2 8 3 9 4 10 5 11 6 13 7 12 8 14 9 5 10 4 11 2 12 3 13
REMARK SMILES IDX 1 14
REMARK H PARENT
REMARK Flexibility Score: inf
ROOT
ATOM      1  C   UNL     1      -7.770  30.381  22.732  1.00  0.00    -0.077 C 
ATOM      2  C   UNL     1      -8.512  31.183  21.934  1.00  0.00    -0.028 C 
ATOM      3  C   UNL     1      -6.368  30.752  23.154  1.00  0.00     0.039 C 
ENDROOT
BRANCH   1   4
ATOM      4  C   UNL     1      -8.371  29.083  23.235  1.00  0.00     0.034 C 
BRANCH   4   5
ATOM      5  C   UNL     1      -9.328  29.313  24.412  1.00  0.00     0.032 C 
BRANCH   5   6
ATOM      6  C   UNL     1      -8.654  30.052  25.545  1.00  0.00    -0.028 C 
ATOM      7  C   UNL     1     -10.042  32.117  25.254  1.00  0.00     0.039 C 
ATOM      8  C   UNL     1      -8.983  31.297  25.953  1.00  0.00    -0.080 C 
ATOM      9  C   UNL     1      -8.252  31.882  27.134  1.00  0.00     0.039 C 
ENDBRANCH   5   6
ENDBRANCH   4   5
ENDBRANCH   1   4
BRANCH   2  10
ATOM     10  C   UNL     1      -8.028  32.482  21.341  1.00  0.00     0.035 C 
BRANCH  10  11
ATOM     11  C   UNL     1      -8.896  33.653  21.813  1.00  0.00     0.079 C 
BRANCH  11  12
ATOM     12  C   UNL     1      -8.064  34.668  22.551  1.00  0.00     0.130 C 
ATOM     13  O   UNL     1      -7.865  35.763  22.046  1.00  0.00    -0.300 OA
ATOM     14  C   UNL     1      -7.484  34.371  23.902  1.00  0.00     0.087 C 
ENDBRANCH  11  12
ENDBRANCH  10  11
ENDBRANCH   2  10
TORSDOF 6
ENDMDL
MODEL 6
REMARK VINA RESULT:    -5.487      2.040      4.399
REMARK INTER + INTRA:          -8.469
REMARK INTER:                  -7.541
REMARK INTRA:                  -0.928
REMARK UNBOUND:                -1.057
REMARK SMILES CC(=O)CCC=C(C)CCC=C(C)C
REMARK SMILES IDX 7 1 6 2 8 3 9 4 10 5 11 6 13 7 12 8 14 9 5 10 4 11 2 12 3 13
REMARK SMILES IDX 1 14
REMARK H PARENT
REMARK Flexibility Score: inf
ROOT
ATOM      1  C   UNL     1      -7.701  30.851  23.893  1.00  0.00    -0.077 C 
ATOM      2  C   UNL     1      -8.733  30.977  23.029  1.00  0.00    -0.028 C 
ATOM      3  C   UNL     1      -6.268  30.777  23.420  1.00  0.00     0.039 C 
ENDROOT
BRANCH   1   4
ATOM      4  C   UNL     1      -7.988  30.805  25.381  1.00  0.00     0.034 C 
BRANCH   4   5
ATOM      5  C   UNL     1      -9.204  31.663  25.757  1.00  0.00     0.032 C 
BRANCH   5   6
ATOM      6  C   UNL     1      -8.921  33.138  25.592  1.00  0.00    -0.028 C 
ATOM      7  C   UNL     1      -8.205  33.444  27.972  1.00  0.00     0.039 C 
ATOM      8  C   UNL     1      -8.446  33.943  26.566  1.00  0.00    -0.080 C 
ATOM      9  C   UNL     1      -8.165  35.385  26.233  1.00  0.00     0.039 C 
ENDBRANCH   5   6
ENDBRANCH   4   5
ENDBRANCH   1   4
BRANCH   2  10
ATOM     10  C   UNL     1      -8.592  31.004  21.527  1.00  0.00     0.035 C 
BRANCH  10  11
ATOM     11  C   UNL     1      -9.063  32.348  20.961  1.00  0.00     0.079 C 
BRANCH  11  12
ATOM     12  C   UNL     1      -7.977  33.385  21.081  1.00  0.00     0.130 C 
ATOM     13  O   UNL     1      -7.056  33.385  20.278  1.00  0.00    -0.300 OA
ATOM     14  C   UNL     1      -8.008  34.429  22.157  1.00  0.00     0.087 C 
ENDBRANCH  11  12
ENDBRANCH  10  11
ENDBRANCH   2  10
TORSDOF 6
ENDMDL
MODEL 7
REMARK VINA RESULT:    -5.452      2.033      4.389
REMARK INTER + INTRA:          -8.422
REMARK INTER:                  -7.153
REMARK INTRA:                  -1.269
REMARK UNBOUND:                -1.057
REMARK SMILES CC(=O)CCC=C(C)CCC=C(C)C
REMARK SMILES IDX 7 1 6 2 8 3 9 4 10 5 11 6 13 7 12 8 14 9 5 10 4 11 2 12 3 13
REMARK SMILES IDX 1 14
REMARK H PARENT
REMARK Flexibility Score: inf
ROOT
ATOM      1  C   UNL     1      -8.107  35.411  25.110  1.00  0.00    -0.077 C 
ATOM      2  C   UNL     1      -7.398  34.911  24.072  1.00  0.00    -0.028 C 
ATOM      3  C   UNL     1      -9.172  36.464  24.916  1.00  0.00     0.039 C 
ENDROOT
BRANCH   1   4
ATOM      4  C   UNL     1      -7.840  34.882  26.506  1.00  0.00     0.034 C 
BRANCH   4   5
ATOM      5  C   UNL     1      -8.810  33.755  26.887  1.00  0.00     0.032 C 
BRANCH   5   6
ATOM      6  C   UNL     1      -8.312  32.407  26.421  1.00  0.00    -0.028 C 
ATOM      7  C   UNL     1      -9.944  32.266  24.527  1.00  0.00     0.039 C 
ATOM      8  C   UNL     1      -8.790  31.741  25.348  1.00  0.00    -0.080 C 
ATOM      9  C   UNL     1      -8.154  30.426  24.978  1.00  0.00     0.039 C 
ENDBRANCH   5   6
ENDBRANCH   4   5
ENDBRANCH   1   4
BRANCH   2  10
ATOM     10  C   UNL     1      -7.541  35.367  22.641  1.00  0.00     0.035 C 
BRANCH  10  11
ATOM     11  C   UNL     1      -8.422  34.398  21.847  1.00  0.00     0.079 C 
BRANCH  11  12
ATOM     12  C   UNL     1      -7.577  33.377  21.130  1.00  0.00     0.130 C 
ATOM     13  O   UNL     1      -6.976  33.700  20.117  1.00  0.00    -0.300 OA
ATOM     14  C   UNL     1      -7.444  31.974  21.643  1.00  0.00     0.087 C 
ENDBRANCH  11  12
ENDBRANCH  10  11
ENDBRANCH   2  10
TORSDOF 6
ENDMDL
MODEL 8
REMARK VINA RESULT:    -5.446      1.793      5.137
REMARK INTER + INTRA:          -8.414
REMARK INTER:                  -7.603
REMARK INTRA:                  -0.811
REMARK UNBOUND:                -1.057
REMARK SMILES CC(=O)CCC=C(C)CCC=C(C)C
REMARK SMILES IDX 7 1 6 2 8 3 9 4 10 5 11 6 13 7 12 8 14 9 5 10 4 11 2 12 3 13
REMARK SMILES IDX 1 14
REMARK H PARENT
REMARK Flexibility Score: inf
ROOT
ATOM      1  C   UNL     1      -8.243  34.025  25.496  1.00  0.00    -0.077 C 
ATOM      2  C   UNL     1      -8.598  32.898  24.838  1.00  0.00    -0.028 C 
ATOM      3  C   UNL     1      -8.325  34.132  27.000  1.00  0.00     0.039 C 
ENDROOT
BRANCH   1   4
ATOM      4  C   UNL     1      -7.726  35.209  24.701  1.00  0.00     0.034 C 
BRANCH   4   5
ATOM      5  C   UNL     1      -8.523  35.424  23.408  1.00  0.00     0.032 C 
BRANCH   5   6
ATOM      6  C   UNL     1      -7.682  35.155  22.181  1.00  0.00    -0.028 C 
ATOM      7  C   UNL     1      -9.031  33.165  21.480  1.00  0.00     0.039 C 
ATOM      8  C   UNL     1      -7.915  34.165  21.292  1.00  0.00    -0.080 C 
ATOM      9  C   UNL     1      -7.015  34.056  20.088  1.00  0.00     0.039 C 
ENDBRANCH   5   6
ENDBRANCH   4   5
ENDBRANCH   1   4
BRANCH   2  10
ATOM     10  C   UNL     1      -9.155  31.662  25.500  1.00  0.00     0.035 C 
BRANCH  10  11
ATOM     11  C   UNL     1      -8.184  30.485  25.358  1.00  0.00     0.079 C 
BRANCH  11  12
ATOM     12  C   UNL     1      -7.805  30.281  23.914  1.00  0.00     0.130 C 
ATOM     13  O   UNL     1      -8.611  29.779  23.146  1.00  0.00    -0.300 OA
ATOM     14  C   UNL     1      -6.460  30.695  23.394  1.00  0.00     0.087 C 
ENDBRANCH  11  12
ENDBRANCH  10  11
ENDBRANCH   2  10
TORSDOF 6
ENDMDL
MODEL 9
REMARK VINA RESULT:    -5.424      1.845      3.859
REMARK INTER + INTRA:          -8.384
REMARK INTER:                  -7.373
REMARK INTRA:                  -1.010
REMARK UNBOUND:                -1.057
REMARK SMILES CC(=O)CCC=C(C)CCC=C(C)C
REMARK SMILES IDX 7 1 6 2 8 3 9 4 10 5 11 6 13 7 12 8 14 9 5 10 4 11 2 12 3 13
REMARK SMILES IDX 1 14
REMARK H PARENT
REMARK Flexibility Score: inf
ROOT
ATOM      1  C   UNL     1      -8.850  32.776  26.262  1.00  0.00    -0.077 C 
ATOM      2  C   UNL     1      -9.037  33.303  25.031  1.00  0.00    -0.028 C 
ATOM      3  C   UNL     1      -8.206  33.564  27.379  1.00  0.00     0.039 C 
ENDROOT
BRANCH   1   4
ATOM      4  C   UNL     1      -9.320  31.361  26.537  1.00  0.00     0.034 C 
BRANCH   4   5
ATOM      5  C   UNL     1      -8.343  30.314  25.984  1.00  0.00     0.032 C 
BRANCH   5   6
ATOM      6  C   UNL     1      -8.741  29.853  24.601  1.00  0.00    -0.028 C 
ATOM      7  C   UNL     1      -6.639  30.691  23.528  1.00  0.00     0.039 C 
ATOM      8  C   UNL     1      -7.976  29.988  23.496  1.00  0.00    -0.080 C 
ATOM      9  C   UNL     1      -8.491  29.430  22.194  1.00  0.00     0.039 C 
ENDBRANCH   5   6
ENDBRANCH   4   5
ENDBRANCH   1   4
BRANCH   2  10
ATOM     10  C   UNL     1      -8.591  34.683  24.616  1.00  0.00     0.035 C 
BRANCH  10  11
ATOM     11  C   UNL     1      -7.339  34.609  23.736  1.00  0.00     0.079 C 
BRANCH  11  12
ATOM     12  C   UNL     1      -7.677  34.928  22.303  1.00  0.00     0.130 C 
ATOM     13  O   UNL     1      -7.771  36.096  21.955  1.00  0.00    -0.300 OA
ATOM     14  C   UNL     1      -7.886  33.844  21.289  1.00  0.00     0.087 C 
ENDBRANCH  11  12
ENDBRANCH  10  11
ENDBRANCH   2  10
TORSDOF 6
ENDMDL
