MODEL 1
REMARK VINA RESULT:    -3.918      0.000      0.000
REMARK INTER + INTRA:          -4.734
REMARK INTER:                  -4.719
REMARK INTRA:                  -0.014
REMARK UNBOUND:                -0.014
REMARK SMILES CCCCCO
REMARK SMILES IDX 4 1 3 2 2 3 1 4 5 5 6 6
REMARK H PARENT 6 7
REMARK Flexibility Score: inf
ROOT
ATOM      1  C   UNL     1     213.102 205.788 231.364  1.00  0.00     0.028 C 
ENDROOT
BRANCH   1   2
ATOM      2  C   UNL     1     214.095 206.940 231.569  1.00  0.00     0.002 C 
BRANCH   2   3
ATOM      3  C   UNL     1     213.435 208.109 232.309  1.00  0.00    -0.003 C 
ATOM      4  C   UNL     1     213.447 209.376 231.459  1.00  0.00     0.004 C 
ENDBRANCH   2   3
ENDBRANCH   1   2
BRANCH   1   5
ATOM      5  C   UNL     1     211.650 206.257 231.510  1.00  0.00     0.156 C 
BRANCH   5   6
ATOM      6  O   UNL     1     210.756 205.209 231.249  1.00  0.00    -0.396 OA
ATOM      7  H   UNL     1     209.998 205.319 231.881  1.00  0.00     0.210 HD
ENDBRANCH   5   6
ENDBRANCH   1   5
TORSDOF 4
ENDMDL
MODEL 2
REMARK VINA RESULT:    -3.686      1.840      3.157
REMARK INTER + INTRA:          -4.454
REMARK INTER:                  -4.383
REMARK INTRA:                  -0.071
REMARK UNBOUND:                -0.014
REMARK SMILES CCCCCO
REMARK SMILES IDX 4 1 3 2 2 3 1 4 5 5 6 6
REMARK H PARENT 6 7
REMARK Flexibility Score: inf
ROOT
ATOM      1  C   UNL     1     213.548 207.845 232.382  1.00  0.00     0.028 C 
ENDROOT
BRANCH   1   2
ATOM      2  C   UNL     1     213.950 206.769 231.364  1.00  0.00     0.002 C 
BRANCH   2   3
ATOM      3  C   UNL     1     212.975 205.586 231.402  1.00  0.00    -0.003 C 
ATOM      4  C   UNL     1     211.529 206.065 231.463  1.00  0.00     0.004 C 
ENDBRANCH   2   3
ENDBRANCH   1   2
BRANCH   1   5
ATOM      5  C   UNL     1     213.482 209.236 231.742  1.00  0.00     0.156 C 
BRANCH   5   6
ATOM      6  O   UNL     1     212.308 209.387 230.992  1.00  0.00    -0.396 OA
ATOM      7  H   UNL     1     211.639 209.809 231.593  1.00  0.00     0.210 HD
ENDBRANCH   5   6
ENDBRANCH   1   5
TORSDOF 4
ENDMDL
MODEL 3
REMARK VINA RESULT:    -3.274     13.548     14.580
REMARK INTER + INTRA:          -3.958
REMARK INTER:                  -3.923
REMARK INTRA:                  -0.035
REMARK UNBOUND:                -0.014
REMARK SMILES CCCCCO
REMARK SMILES IDX 4 1 3 2 2 3 1 4 5 5 6 6
REMARK H PARENT 6 7
REMARK Flexibility Score: inf
ROOT
ATOM      1  C   UNL     1     203.895 201.908 242.152  1.00  0.00     0.028 C 
ENDROOT
BRANCH   1   2
ATOM      2  C   UNL     1     203.259 202.871 241.139  1.00  0.00     0.002 C 
BRANCH   2   3
ATOM      3  C   UNL     1     203.777 202.598 239.722  1.00  0.00    -0.003 C 
ATOM      4  C   UNL     1     202.912 203.293 238.676  1.00  0.00     0.004 C 
ENDBRANCH   2   3
ENDBRANCH   1   2
BRANCH   1   5
ATOM      5  C   UNL     1     202.836 201.198 243.002  1.00  0.00     0.156 C 
BRANCH   5   6
ATOM      6  O   UNL     1     202.132 200.255 242.240  1.00  0.00    -0.396 OA
ATOM      7  H   UNL     1     202.739 199.479 242.116  1.00  0.00     0.210 HD
ENDBRANCH   5   6
ENDBRANCH   1   5
TORSDOF 4
ENDMDL
MODEL 4
REMARK VINA RESULT:    -3.206      8.710     10.371
REMARK INTER + INTRA:          -3.876
REMARK INTER:                  -3.782
REMARK INTRA:                  -0.093
REMARK UNBOUND:                -0.014
REMARK SMILES CCCCCO
REMARK SMILES IDX 4 1 3 2 2 3 1 4 5 5 6 6
REMARK H PARENT 6 7
REMARK Flexibility Score: inf
ROOT
ATOM      1  C   UNL     1     204.540 203.999 230.371  1.00  0.00     0.028 C 
ENDROOT
BRANCH   1   2
ATOM      2  C   UNL     1     203.416 203.544 229.431  1.00  0.00     0.002 C 
BRANCH   2   3
ATOM      3  C   UNL     1     202.175 203.120 230.224  1.00  0.00    -0.003 C 
ATOM      4  C   UNL     1     201.048 204.135 230.068  1.00  0.00     0.004 C 
ENDBRANCH   2   3
ENDBRANCH   1   2
BRANCH   1   5
ATOM      5  C   UNL     1     204.873 205.483 230.182  1.00  0.00     0.156 C 
BRANCH   5   6
ATOM      6  O   UNL     1     203.787 206.291 230.548  1.00  0.00    -0.396 OA
ATOM      7  H   UNL     1     204.086 206.836 231.322  1.00  0.00     0.210 HD
ENDBRANCH   5   6
ENDBRANCH   1   5
TORSDOF 4
ENDMDL
MODEL 5
REMARK VINA RESULT:    -3.199     13.536     14.585
REMARK INTER + INTRA:          -3.867
REMARK INTER:                  -3.819
REMARK INTRA:                  -0.049
REMARK UNBOUND:                -0.014
REMARK SMILES CCCCCO
REMARK SMILES IDX 4 1 3 2 2 3 1 4 5 5 6 6
REMARK H PARENT 6 7
REMARK Flexibility Score: inf
ROOT
ATOM      1  C   UNL     1     202.943 202.263 242.140  1.00  0.00     0.028 C 
ENDROOT
BRANCH   1   2
ATOM      2  C   UNL     1     203.632 203.014 240.992  1.00  0.00     0.002 C 
BRANCH   2   3
ATOM      3  C   UNL     1     203.321 202.359 239.642  1.00  0.00    -0.003 C 
ATOM      4  C   UNL     1     202.983 203.406 238.586  1.00  0.00     0.004 C 
ENDBRANCH   2   3
ENDBRANCH   1   2
BRANCH   1   5
ATOM      5  C   UNL     1     202.193 203.219 243.074  1.00  0.00     0.156 C 
BRANCH   5   6
ATOM      6  O   UNL     1     201.332 204.055 242.349  1.00  0.00    -0.396 OA
ATOM      7  H   UNL     1     201.600 204.989 242.558  1.00  0.00     0.210 HD
ENDBRANCH   5   6
ENDBRANCH   1   5
TORSDOF 4
ENDMDL
MODEL 6
REMARK VINA RESULT:    -3.194      8.244      8.958
REMARK INTER + INTRA:          -3.861
REMARK INTER:                  -3.774
REMARK INTRA:                  -0.088
REMARK UNBOUND:                -0.014
REMARK SMILES CCCCCO
REMARK SMILES IDX 4 1 3 2 2 3 1 4 5 5 6 6
REMARK H PARENT 6 7
REMARK Flexibility Score: inf
ROOT
ATOM      1  C   UNL     1     204.646 202.126 230.383  1.00  0.00     0.028 C 
ENDROOT
BRANCH   1   2
ATOM      2  C   UNL     1     204.148 203.211 229.418  1.00  0.00     0.002 C 
BRANCH   2   3
ATOM      3  C   UNL     1     203.658 204.444 230.185  1.00  0.00    -0.003 C 
ATOM      4  C   UNL     1     204.690 205.566 230.144  1.00  0.00     0.004 C 
ENDBRANCH   2   3
ENDBRANCH   1   2
BRANCH   1   5
ATOM      5  C   UNL     1     206.144 201.854 230.207  1.00  0.00     0.156 C 
BRANCH   5   6
ATOM      6  O   UNL     1     206.907 202.944 230.651  1.00  0.00    -0.396 OA
ATOM      7  H   UNL     1     207.512 203.190 229.903  1.00  0.00     0.210 HD
ENDBRANCH   5   6
ENDBRANCH   1   5
TORSDOF 4
ENDMDL
MODEL 7
REMARK VINA RESULT:    -3.181     11.183     11.860
REMARK INTER + INTRA:          -3.846
REMARK INTER:                  -3.754
REMARK INTRA:                  -0.091
REMARK UNBOUND:                -0.014
REMARK SMILES CCCCCO
REMARK SMILES IDX 4 1 3 2 2 3 1 4 5 5 6 6
REMARK H PARENT 6 7
REMARK Flexibility Score: inf
ROOT
ATOM      1  C   UNL     1     202.520 203.954 230.375  1.00  0.00     0.028 C 
ENDROOT
BRANCH   1   2
ATOM      2  C   UNL     1     202.925 202.770 229.485  1.00  0.00     0.002 C 
BRANCH   2   3
ATOM      3  C   UNL     1     203.448 201.603 230.330  1.00  0.00    -0.003 C 
ATOM      4  C   UNL     1     202.500 200.409 230.267  1.00  0.00     0.004 C 
ENDBRANCH   2   3
ENDBRANCH   1   2
BRANCH   1   5
ATOM      5  C   UNL     1     201.023 204.262 230.264  1.00  0.00     0.156 C 
BRANCH   5   6
ATOM      6  O   UNL     1     200.254 203.136 230.588  1.00  0.00    -0.396 OA
ATOM      7  H   UNL     1     200.301 202.525 229.806  1.00  0.00     0.210 HD
ENDBRANCH   5   6
ENDBRANCH   1   5
TORSDOF 4
ENDMDL
MODEL 8
REMARK VINA RESULT:    -3.177     13.030     13.893
REMARK INTER + INTRA:          -3.841
REMARK INTER:                  -3.802
REMARK INTRA:                  -0.039
REMARK UNBOUND:                -0.014
REMARK SMILES CCCCCO
REMARK SMILES IDX 4 1 3 2 2 3 1 4 5 5 6 6
REMARK H PARENT 6 7
REMARK Flexibility Score: inf
ROOT
ATOM      1  C   UNL     1     204.014 203.389 241.967  1.00  0.00     0.028 C 
ENDROOT
BRANCH   1   2
ATOM      2  C   UNL     1     203.324 202.564 240.871  1.00  0.00     0.002 C 
BRANCH   2   3
ATOM      3  C   UNL     1     203.676 203.097 239.478  1.00  0.00    -0.003 C 
ATOM      4  C   UNL     1     202.958 202.309 238.388  1.00  0.00     0.004 C 
ENDBRANCH   2   3
ENDBRANCH   1   2
BRANCH   1   5
ATOM      5  C   UNL     1     204.753 202.497 242.970  1.00  0.00     0.156 C 
BRANCH   5   6
ATOM      6  O   UNL     1     205.544 201.548 242.307  1.00  0.00    -0.396 OA
ATOM      7  H   UNL     1     206.490 201.804 242.471  1.00  0.00     0.210 HD
ENDBRANCH   5   6
ENDBRANCH   1   5
TORSDOF 4
ENDMDL
MODEL 9
REMARK VINA RESULT:    -3.163     15.077     15.916
REMARK INTER + INTRA:          -3.825
REMARK INTER:                  -3.757
REMARK INTRA:                  -0.068
REMARK UNBOUND:                -0.014
REMARK SMILES CCCCCO
REMARK SMILES IDX 4 1 3 2 2 3 1 4 5 5 6 6
REMARK H PARENT 6 7
REMARK Flexibility Score: inf
ROOT
ATOM      1  C   UNL     1     204.002 201.817 242.256  1.00  0.00     0.028 C 
ENDROOT
BRANCH   1   2
ATOM      2  C   UNL     1     204.751 202.611 243.336  1.00  0.00     0.002 C 
BRANCH   2   3
ATOM      3  C   UNL     1     203.889 202.775 244.593  1.00  0.00    -0.003 C 
ATOM      4  C   UNL     1     204.563 202.146 245.808  1.00  0.00     0.004 C 
ENDBRANCH   2   3
ENDBRANCH   1   2
BRANCH   1   5
ATOM      5  C   UNL     1     202.554 201.527 242.666  1.00  0.00     0.156 C 
BRANCH   5   6
ATOM      6  O   UNL     1     202.190 200.216 242.327  1.00  0.00    -0.396 OA
ATOM      7  H   UNL     1     201.271 200.077 242.677  1.00  0.00     0.210 HD
ENDBRANCH   5   6
ENDBRANCH   1   5
TORSDOF 4
ENDMDL
