MODEL 1
REMARK VINA RESULT:    -3.642      0.000      0.000
REMARK INTER + INTRA:          -5.998
REMARK INTER:                  -5.558
REMARK INTRA:                  -0.440
REMARK UNBOUND:                -0.440
REMARK SMILES O=C([O-])CCCCCCCCC(=O)[O-]
REMARK SMILES IDX 7 1 6 2 5 3 4 4 2 5 1 6 3 7 8 8 9 9 10 10 11 11 12 12 13 13
REMARK SMILES IDX 14 14
REMARK H PARENT
REMARK Flexibility Score: inf
ROOT
ATOM      1  C   UNL     1      -2.353 -50.653   1.830  1.00  0.00     0.000 C 
ENDROOT
BRANCH   1   2
ATOM      2  C   UNL     1      -2.719 -50.787   0.344  1.00  0.00     0.000 C 
BRANCH   2   3
ATOM      3  C   UNL     1      -3.824 -51.830   0.098  1.00  0.00     0.006 C 
BRANCH   3   4
ATOM      4  C   UNL     1      -5.210 -51.184  -0.031  1.00  0.00     0.053 C 
BRANCH   4   5
ATOM      5  C   UNL     1      -6.159 -51.680   1.018  1.00  0.00     0.041 C 
ATOM      6  O   UNL     1      -7.359 -51.921   0.722  1.00  0.00    -0.550 OA
ATOM      7  O   UNL     1      -5.710 -51.906   2.313  1.00  0.00    -0.550 OA
ENDBRANCH   4   5
ENDBRANCH   3   4
ENDBRANCH   2   3
ENDBRANCH   1   2
BRANCH   1   8
ATOM      8  C   UNL     1      -2.078 -52.008   2.499  1.00  0.00     0.000 C 
BRANCH   8   9
ATOM      9  C   UNL     1      -1.265 -51.826   3.790  1.00  0.00     0.000 C 
BRANCH   9  10
ATOM     10  C   UNL     1      -2.153 -51.762   5.044  1.00  0.00     0.006 C 
BRANCH  10  11
ATOM     11  C   UNL     1      -1.368 -51.372   6.303  1.00  0.00     0.053 C 
BRANCH  11  12
ATOM     12  C   UNL     1      -2.304 -51.110   7.441  1.00  0.00     0.041 C 
ATOM     13  O   UNL     1      -3.357 -50.446   7.254  1.00  0.00    -0.550 OA
ATOM     14  O   UNL     1      -2.039 -51.641   8.696  1.00  0.00    -0.550 OA
ENDBRANCH  11  12
ENDBRANCH  10  11
ENDBRANCH   9  10
ENDBRANCH   8   9
ENDBRANCH   1   8
TORSDOF 9
ENDMDL
MODEL 2
REMARK VINA RESULT:    -3.571      0.575      6.162
REMARK INTER + INTRA:          -5.891
REMARK INTER:                  -5.535
REMARK INTRA:                  -0.356
REMARK UNBOUND:                -0.440
REMARK SMILES O=C([O-])CCCCCCCCC(=O)[O-]
REMARK SMILES IDX 7 1 6 2 5 3 4 4 2 5 1 6 3 7 8 8 9 9 10 10 11 11 12 12 13 13
REMARK SMILES IDX 14 14
REMARK H PARENT
REMARK Flexibility Score: inf
ROOT
ATOM      1  C   UNL     1      -1.556 -50.849   2.367  1.00  0.00     0.000 C 
ENDROOT
BRANCH   1   2
ATOM      2  C   UNL     1      -1.412 -52.028   3.342  1.00  0.00     0.000 C 
BRANCH   2   3
ATOM      3  C   UNL     1      -2.269 -51.857   4.609  1.00  0.00     0.006 C 
BRANCH   3   4
ATOM      4  C   UNL     1      -1.415 -51.551   5.846  1.00  0.00     0.053 C 
BRANCH   4   5
ATOM      5  C   UNL     1      -2.256 -51.149   7.020  1.00  0.00     0.041 C 
ATOM      6  O   UNL     1      -3.269 -50.421   6.853  1.00  0.00    -0.550 OA
ATOM      7  O   UNL     1      -1.938 -51.605   8.293  1.00  0.00    -0.550 OA
ENDBRANCH   4   5
ENDBRANCH   3   4
ENDBRANCH   2   3
ENDBRANCH   1   2
BRANCH   1   8
ATOM      8  C   UNL     1      -1.785 -51.301   0.917  1.00  0.00     0.000 C 
BRANCH   8   9
ATOM      9  C   UNL     1      -3.099 -50.729   0.366  1.00  0.00     0.000 C 
BRANCH   9  10
ATOM     10  C   UNL     1      -4.158 -51.815   0.112  1.00  0.00     0.006 C 
BRANCH  10  11
ATOM     11  C   UNL     1      -5.575 -51.240  -0.015  1.00  0.00     0.053 C 
BRANCH  11  12
ATOM     12  C   UNL     1      -6.420 -51.674   1.141  1.00  0.00     0.041 C 
ATOM     13  O   UNL     1      -5.879 -52.061   2.210  1.00  0.00    -0.550 OA
ATOM     14  O   UNL     1      -7.804 -51.606   1.056  1.00  0.00    -0.550 OA
ENDBRANCH  11  12
ENDBRANCH  10  11
ENDBRANCH   9  10
ENDBRANCH   8   9
ENDBRANCH   1   8
TORSDOF 9
ENDMDL
MODEL 3
REMARK VINA RESULT:    -3.532      1.128      1.597
REMARK INTER + INTRA:          -5.831
REMARK INTER:                  -5.350
REMARK INTRA:                  -0.481
REMARK UNBOUND:                -0.440
REMARK SMILES O=C([O-])CCCCCCCCC(=O)[O-]
REMARK SMILES IDX 7 1 6 2 5 3 4 4 2 5 1 6 3 7 8 8 9 9 10 10 11 11 12 12 13 13
REMARK SMILES IDX 14 14
REMARK H PARENT
REMARK Flexibility Score: inf
ROOT
ATOM      1  C   UNL     1      -1.779 -51.005   2.465  1.00  0.00     0.000 C 
ENDROOT
BRANCH   1   2
ATOM      2  C   UNL     1      -1.489 -51.883   1.239  1.00  0.00     0.000 C 
BRANCH   2   3
ATOM      3  C   UNL     1      -2.341 -51.495   0.017  1.00  0.00     0.006 C 
BRANCH   3   4
ATOM      4  C   UNL     1      -3.497 -50.559   0.393  1.00  0.00     0.053 C 
BRANCH   4   5
ATOM      5  C   UNL     1      -4.811 -51.278   0.428  1.00  0.00     0.041 C 
ATOM      6  O   UNL     1      -5.484 -51.416  -0.628  1.00  0.00    -0.550 OA
ATOM      7  O   UNL     1      -5.277 -51.822   1.618  1.00  0.00    -0.550 OA
ENDBRANCH   4   5
ENDBRANCH   3   4
ENDBRANCH   2   3
ENDBRANCH   1   2
BRANCH   1   8
ATOM      8  C   UNL     1      -2.244 -51.819   3.683  1.00  0.00     0.000 C 
BRANCH   8   9
ATOM      9  C   UNL     1      -1.067 -52.125   4.619  1.00  0.00     0.000 C 
BRANCH   9  10
ATOM     10  C   UNL     1      -1.467 -52.095   6.104  1.00  0.00     0.006 C 
BRANCH  10  11
ATOM     11  C   UNL     1      -2.704 -51.226   6.365  1.00  0.00     0.053 C 
BRANCH  11  12
ATOM     12  C   UNL     1      -2.980 -51.140   7.833  1.00  0.00     0.041 C 
ATOM     13  O   UNL     1      -2.109 -51.508   8.664  1.00  0.00    -0.550 OA
ATOM     14  O   UNL     1      -4.181 -50.609   8.285  1.00  0.00    -0.550 OA
ENDBRANCH  11  12
ENDBRANCH  10  11
ENDBRANCH   9  10
ENDBRANCH   8   9
ENDBRANCH   1   8
TORSDOF 9
ENDMDL
MODEL 4
REMARK VINA RESULT:    -3.411      3.079      6.589
REMARK INTER + INTRA:          -5.646
REMARK INTER:                  -5.300
REMARK INTRA:                  -0.346
REMARK UNBOUND:                -0.440
REMARK SMILES O=C([O-])CCCCCCCCC(=O)[O-]
REMARK SMILES IDX 7 1 6 2 5 3 4 4 2 5 1 6 3 7 8 8 9 9 10 10 11 11 12 12 13 13
REMARK SMILES IDX 14 14
REMARK H PARENT
REMARK Flexibility Score: inf
ROOT
ATOM      1  C   UNL     1      -2.221 -51.387   8.127  1.00  0.00     0.000 C 
ENDROOT
BRANCH   1   2
ATOM      2  C   UNL     1      -3.720 -51.726   8.125  1.00  0.00     0.000 C 
BRANCH   2   3
ATOM      3  C   UNL     1      -4.544 -50.772   9.009  1.00  0.00     0.006 C 
BRANCH   3   4
ATOM      4  C   UNL     1      -5.787 -51.455   9.594  1.00  0.00     0.053 C 
BRANCH   4   5
ATOM      5  C   UNL     1      -7.048 -50.975   8.943  1.00  0.00     0.041 C 
ATOM      6  O   UNL     1      -7.940 -50.413   9.632  1.00  0.00    -0.550 OA
ATOM      7  O   UNL     1      -7.224 -51.119   7.573  1.00  0.00    -0.550 OA
ENDBRANCH   4   5
ENDBRANCH   3   4
ENDBRANCH   2   3
ENDBRANCH   1   2
BRANCH   1   8
ATOM      8  C   UNL     1      -1.633 -51.284   6.711  1.00  0.00     0.000 C 
BRANCH   8   9
ATOM      9  C   UNL     1      -2.668 -51.706   5.657  1.00  0.00     0.000 C 
BRANCH   9  10
ATOM     10  C   UNL     1      -2.061 -51.834   4.250  1.00  0.00     0.006 C 
BRANCH  10  11
ATOM     11  C   UNL     1      -3.069 -51.507   3.141  1.00  0.00     0.053 C 
BRANCH  11  12
ATOM     12  C   UNL     1      -2.369 -50.918   1.957  1.00  0.00     0.041 C 
ATOM     13  O   UNL     1      -3.035 -50.449   0.997  1.00  0.00    -0.550 OA
ATOM     14  O   UNL     1      -0.983 -50.842   1.935  1.00  0.00    -0.550 OA
ENDBRANCH  11  12
ENDBRANCH  10  11
ENDBRANCH   9  10
ENDBRANCH   8   9
ENDBRANCH   1   8
TORSDOF 9
ENDMDL
MODEL 5
REMARK VINA RESULT:    -3.409      3.146      3.835
REMARK INTER + INTRA:          -5.642
REMARK INTER:                  -5.301
REMARK INTRA:                  -0.342
REMARK UNBOUND:                -0.440
REMARK SMILES O=C([O-])CCCCCCCCC(=O)[O-]
REMARK SMILES IDX 7 1 6 2 5 3 4 4 2 5 1 6 3 7 8 8 9 9 10 10 11 11 12 12 13 13
REMARK SMILES IDX 14 14
REMARK H PARENT
REMARK Flexibility Score: inf
ROOT
ATOM      1  C   UNL     1      -2.578 -50.588   1.850  1.00  0.00     0.000 C 
ENDROOT
BRANCH   1   2
ATOM      2  C   UNL     1      -3.317 -51.169   0.634  1.00  0.00     0.000 C 
BRANCH   2   3
ATOM      3  C   UNL     1      -2.384 -51.405  -0.567  1.00  0.00     0.006 C 
BRANCH   3   4
ATOM      4  C   UNL     1      -1.070 -52.080  -0.155  1.00  0.00     0.053 C 
BRANCH   4   5
ATOM      5  C   UNL     1      -0.037 -52.000  -1.238  1.00  0.00     0.041 C 
ATOM      6  O   UNL     1      -0.374 -52.125  -2.445  1.00  0.00    -0.550 OA
ATOM      7  O   UNL     1       1.293 -51.757  -0.916  1.00  0.00    -0.550 OA
ENDBRANCH   4   5
ENDBRANCH   3   4
ENDBRANCH   2   3
ENDBRANCH   1   2
BRANCH   1   8
ATOM      8  C   UNL     1      -2.530 -51.562   3.038  1.00  0.00     0.000 C 
BRANCH   8   9
ATOM      9  C   UNL     1      -3.936 -51.803   3.605  1.00  0.00     0.000 C 
BRANCH   9  10
ATOM     10  C   UNL     1      -3.929 -52.049   5.123  1.00  0.00     0.006 C 
BRANCH  10  11
ATOM     11  C   UNL     1      -2.524 -51.952   5.730  1.00  0.00     0.053 C 
BRANCH  11  12
ATOM     12  C   UNL     1      -2.584 -51.325   7.087  1.00  0.00     0.041 C 
ATOM     13  O   UNL     1      -1.787 -51.692   7.990  1.00  0.00    -0.550 OA
ATOM     14  O   UNL     1      -3.486 -50.300   7.341  1.00  0.00    -0.550 OA
ENDBRANCH  11  12
ENDBRANCH  10  11
ENDBRANCH   9  10
ENDBRANCH   8   9
ENDBRANCH   1   8
TORSDOF 9
ENDMDL
MODEL 6
REMARK VINA RESULT:    -3.313      2.725      4.142
REMARK INTER + INTRA:          -5.497
REMARK INTER:                  -5.157
REMARK INTRA:                  -0.340
REMARK UNBOUND:                -0.440
REMARK SMILES O=C([O-])CCCCCCCCC(=O)[O-]
REMARK SMILES IDX 7 1 6 2 5 3 4 4 2 5 1 6 3 7 8 8 9 9 10 10 11 11 12 12 13 13
REMARK SMILES IDX 14 14
REMARK H PARENT
REMARK Flexibility Score: inf
ROOT
ATOM      1  C   UNL     1      -1.418 -51.839   5.150  1.00  0.00     0.000 C 
ENDROOT
BRANCH   1   2
ATOM      2  C   UNL     1      -2.777 -51.748   4.439  1.00  0.00     0.000 C 
BRANCH   2   3
ATOM      3  C   UNL     1      -2.674 -52.021   2.928  1.00  0.00     0.006 C 
BRANCH   3   4
ATOM      4  C   UNL     1      -1.713 -51.050   2.230  1.00  0.00     0.053 C 
BRANCH   4   5
ATOM      5  C   UNL     1      -1.704 -51.243   0.744  1.00  0.00     0.041 C 
ATOM      6  O   UNL     1      -2.757 -51.061   0.077  1.00  0.00    -0.550 OA
ATOM      7  O   UNL     1      -0.528 -51.592   0.093  1.00  0.00    -0.550 OA
ENDBRANCH   4   5
ENDBRANCH   3   4
ENDBRANCH   2   3
ENDBRANCH   1   2
BRANCH   1   8
ATOM      8  C   UNL     1      -1.470 -51.331   6.600  1.00  0.00     0.000 C 
BRANCH   8   9
ATOM      9  C   UNL     1      -2.674 -51.926   7.345  1.00  0.00     0.000 C 
BRANCH   9  10
ATOM     10  C   UNL     1      -3.492 -50.861   8.095  1.00  0.00     0.006 C 
BRANCH  10  11
ATOM     11  C   UNL     1      -4.265 -51.441   9.286  1.00  0.00     0.053 C 
BRANCH  11  12
ATOM     12  C   UNL     1      -5.739 -51.344   9.048  1.00  0.00     0.041 C 
ATOM     13  O   UNL     1      -6.187 -51.267   7.874  1.00  0.00    -0.550 OA
ATOM     14  O   UNL     1      -6.621 -51.387  10.120  1.00  0.00    -0.550 OA
ENDBRANCH  11  12
ENDBRANCH  10  11
ENDBRANCH   9  10
ENDBRANCH   8   9
ENDBRANCH   1   8
TORSDOF 9
ENDMDL
MODEL 7
REMARK VINA RESULT:    -3.313      2.710      6.808
REMARK INTER + INTRA:          -5.496
REMARK INTER:                  -5.172
REMARK INTRA:                  -0.324
REMARK UNBOUND:                -0.440
REMARK SMILES O=C([O-])CCCCCCCCC(=O)[O-]
REMARK SMILES IDX 7 1 6 2 5 3 4 4 2 5 1 6 3 7 8 8 9 9 10 10 11 11 12 12 13 13
REMARK SMILES IDX 14 14
REMARK H PARENT
REMARK Flexibility Score: inf
ROOT
ATOM      1  C   UNL     1      -2.438 -51.167   6.671  1.00  0.00     0.000 C 
ENDROOT
BRANCH   1   2
ATOM      2  C   UNL     1      -1.987 -51.617   8.070  1.00  0.00     0.000 C 
BRANCH   2   3
ATOM      3  C   UNL     1      -3.171 -51.956   8.993  1.00  0.00     0.006 C 
BRANCH   3   4
ATOM      4  C   UNL     1      -4.518 -51.855   8.266  1.00  0.00     0.053 C 
BRANCH   4   5
ATOM      5  C   UNL     1      -5.476 -50.955   8.986  1.00  0.00     0.041 C 
ATOM      6  O   UNL     1      -6.662 -50.839   8.579  1.00  0.00    -0.550 OA
ATOM      7  O   UNL     1      -5.069 -50.270  10.123  1.00  0.00    -0.550 OA
ENDBRANCH   4   5
ENDBRANCH   3   4
ENDBRANCH   2   3
ENDBRANCH   1   2
BRANCH   1   8
ATOM      8  C   UNL     1      -1.673 -51.877   5.543  1.00  0.00     0.000 C 
BRANCH   8   9
ATOM      9  C   UNL     1      -2.479 -51.852   4.236  1.00  0.00     0.000 C 
BRANCH   9  10
ATOM     10  C   UNL     1      -1.582 -51.816   2.988  1.00  0.00     0.006 C 
BRANCH  10  11
ATOM     11  C   UNL     1      -2.038 -50.771   1.962  1.00  0.00     0.053 C 
BRANCH  11  12
ATOM     12  C   UNL     1      -1.737 -51.238   0.573  1.00  0.00     0.041 C 
ATOM     13  O   UNL     1      -0.545 -51.407   0.206  1.00  0.00    -0.550 OA
ATOM     14  O   UNL     1      -2.775 -51.533  -0.302  1.00  0.00    -0.550 OA
ENDBRANCH  11  12
ENDBRANCH  10  11
ENDBRANCH   9  10
ENDBRANCH   8   9
ENDBRANCH   1   8
TORSDOF 9
ENDMDL
MODEL 8
REMARK VINA RESULT:    -3.211      2.684      3.274
REMARK INTER + INTRA:          -5.341
REMARK INTER:                  -5.167
REMARK INTRA:                  -0.175
REMARK UNBOUND:                -0.440
REMARK SMILES O=C([O-])CCCCCCCCC(=O)[O-]
REMARK SMILES IDX 7 1 6 2 5 3 4 4 2 5 1 6 3 7 8 8 9 9 10 10 11 11 12 12 13 13
REMARK SMILES IDX 14 14
REMARK H PARENT
REMARK Flexibility Score: inf
ROOT
ATOM      1  C   UNL     1      -2.903 -51.170   3.400  1.00  0.00     0.000 C 
ENDROOT
BRANCH   1   2
ATOM      2  C   UNL     1      -3.555 -51.767   2.143  1.00  0.00     0.000 C 
BRANCH   2   3
ATOM      3  C   UNL     1      -3.326 -50.903   0.890  1.00  0.00     0.006 C 
BRANCH   3   4
ATOM      4  C   UNL     1      -2.727 -51.713  -0.268  1.00  0.00     0.053 C 
BRANCH   4   5
ATOM      5  C   UNL     1      -1.229 -51.738  -0.217  1.00  0.00     0.041 C 
ATOM      6  O   UNL     1      -0.636 -51.891   0.883  1.00  0.00    -0.550 OA
ATOM      7  O   UNL     1      -0.490 -51.625  -1.388  1.00  0.00    -0.550 OA
ENDBRANCH   4   5
ENDBRANCH   3   4
ENDBRANCH   2   3
ENDBRANCH   1   2
BRANCH   1   8
ATOM      8  C   UNL     1      -2.948 -52.124   4.603  1.00  0.00     0.000 C 
BRANCH   8   9
ATOM      9  C   UNL     1      -1.626 -52.083   5.384  1.00  0.00     0.000 C 
BRANCH   9  10
ATOM     10  C   UNL     1      -1.727 -51.254   6.676  1.00  0.00     0.006 C 
BRANCH  10  11
ATOM     11  C   UNL     1      -2.173 -52.091   7.881  1.00  0.00     0.053 C 
BRANCH  11  12
ATOM     12  C   UNL     1      -3.265 -51.390   8.627  1.00  0.00     0.041 C 
ATOM     13  O   UNL     1      -4.030 -50.592   8.026  1.00  0.00    -0.550 OA
ATOM     14  O   UNL     1      -3.469 -51.656   9.974  1.00  0.00    -0.550 OA
ENDBRANCH  11  12
ENDBRANCH  10  11
ENDBRANCH   9  10
ENDBRANCH   8   9
ENDBRANCH   1   8
TORSDOF 9
ENDMDL
