MODEL 1
REMARK VINA RESULT:    -3.387      0.000      0.000
REMARK INTER + INTRA:          -5.233
REMARK INTER:                  -5.170
REMARK INTRA:                  -0.063
REMARK UNBOUND:                -0.063
REMARK SMILES CC1=CCC[C@H](C)C(=O)C[C@@H](C(C)C)C(=O)C1
REMARK SMILES IDX 8 1 9 2 6 3 7 4 5 5 4 6 3 7 2 8 1 9 10 11 11 12 15 13 16 14
REMARK SMILES IDX 17 15 12 17 13 18 14 19
REMARK H PARENT
REMARK Flexibility Score: 70.00
ROOT
ATOM      1  C   UNL     1       3.868  20.859   4.979  1.00  0.00     0.136 C 
ATOM      2  O   UNL     1       5.015  20.453   4.860  1.00  0.00    -0.299 OA
ENDROOT
BRANCH   1   3
ATOM      3  C   UNL     1       3.369  21.300   6.343  1.00  0.00     0.053 C 
ATOM      4  C   UNL     1       3.590  20.189   7.378  1.00  0.00     0.016 C 
BRANCH   3   5
ATOM      5  C   UNL     1       4.069  22.608   6.778  1.00  0.00     0.015 C 
BRANCH   5   6
ATOM      6  C   UNL     1       3.128  23.823   6.660  1.00  0.00     0.028 C 
BRANCH   6   7
ATOM      7  C   UNL     1       3.502  24.759   5.538  1.00  0.00    -0.028 C 
ATOM      8  C   UNL     1       2.878  24.835   4.336  1.00  0.00    -0.070 CG0
ATOM      9  C   UNL     1       3.336  25.905   3.378  1.00  0.00     0.039 C 
ATOM     10  G   UNL     1       1.782  23.875   3.893  1.00  0.00     0.000 G0
ENDBRANCH   6   7
ENDBRANCH   5   6
ENDBRANCH   3   5
ENDBRANCH   1   3
BRANCH   1  11
ATOM     11  C   UNL     1       2.973  20.896   3.760  1.00  0.00     0.087 C 
BRANCH  11  12
ATOM     12  C   UNL     1       3.330  22.065   2.803  1.00  0.00     0.066 C 
BRANCH  12  13
ATOM     13  C   UNL     1       2.177  23.051   2.683  1.00  0.00     0.140 C 
ATOM     14  O   UNL     1       1.600  23.205   1.616  1.00  0.00    -0.299 OA
BRANCH  13  15
ATOM     15  C   UNL     1       1.776  23.891   3.872  1.00  0.00     0.106 CG0
ATOM     16  G   UNL     1       2.865  24.839   4.357  1.00  0.00     0.000 G0
ENDBRANCH  13  15
ENDBRANCH  12  13
BRANCH  12  17
ATOM     17  C   UNL     1       3.838  21.590   1.401  1.00  0.00    -0.006 C 
ATOM     18  C   UNL     1       4.669  22.679   0.704  1.00  0.00     0.008 C 
ATOM     19  C   UNL     1       4.636  20.274   1.443  1.00  0.00     0.008 C 
ENDBRANCH  12  17
ENDBRANCH  11  12
ENDBRANCH   1  11
TORSDOF 1
ENDMDL
MODEL 2
REMARK VINA RESULT:    -3.351      1.733      4.082
REMARK INTER + INTRA:          -5.177
REMARK INTER:                  -5.132
REMARK INTRA:                  -0.045
REMARK UNBOUND:                -0.063
REMARK SMILES CC1=CCC[C@H](C)C(=O)C[C@@H](C(C)C)C(=O)C1
REMARK SMILES IDX 8 1 9 2 6 3 7 4 5 5 4 6 3 7 2 8 1 9 10 11 11 12 15 13 16 14
REMARK SMILES IDX 17 15 12 17 13 18 14 19
REMARK H PARENT
REMARK Flexibility Score: 70.00
ROOT
ATOM      1  C   UNL     1       5.268  20.601   3.372  1.00  0.00     0.136 C 
ATOM      2  O   UNL     1       5.849  19.649   2.870  1.00  0.00    -0.299 OA
ENDROOT
BRANCH   1   3
ATOM      3  C   UNL     1       4.352  21.453   2.513  1.00  0.00     0.053 C 
ATOM      4  C   UNL     1       4.890  21.542   1.079  1.00  0.00     0.016 C 
BRANCH   3   5
ATOM      5  C   UNL     1       2.914  20.886   2.529  1.00  0.00     0.015 C 
BRANCH   5   6
ATOM      6  C   UNL     1       1.907  21.903   3.100  1.00  0.00     0.028 C 
BRANCH   6   7
ATOM      7  C   UNL     1       2.471  23.297   3.218  1.00  0.00    -0.028 C 
ATOM      8  C   UNL     1       2.908  23.873   4.365  1.00  0.00    -0.070 CG0
ATOM      9  C   UNL     1       3.531  25.243   4.266  1.00  0.00     0.039 C 
ATOM     10  G   UNL     1       2.759  23.234   5.740  1.00  0.00     0.000 G0
ENDBRANCH   6   7
ENDBRANCH   5   6
ENDBRANCH   3   5
ENDBRANCH   1   3
BRANCH   1  11
ATOM     11  C   UNL     1       5.495  20.911   4.835  1.00  0.00     0.087 C 
BRANCH  11  12
ATOM     12  C   UNL     1       4.164  21.018   5.626  1.00  0.00     0.066 C 
BRANCH  12  13
ATOM     13  C   UNL     1       3.964  22.422   6.181  1.00  0.00     0.140 C 
ATOM     14  O   UNL     1       4.739  22.877   7.010  1.00  0.00    -0.299 OA
BRANCH  13  15
ATOM     15  C   UNL     1       2.770  23.240   5.752  1.00  0.00     0.106 CG0
ATOM     16  G   UNL     1       2.910  23.862   4.369  1.00  0.00     0.000 G0
ENDBRANCH  13  15
ENDBRANCH  12  13
BRANCH  12  17
ATOM     17  C   UNL     1       4.010  19.926   6.736  1.00  0.00    -0.006 C 
ATOM     18  C   UNL     1       2.650  20.031   7.445  1.00  0.00     0.008 C 
ATOM     19  C   UNL     1       4.222  18.488   6.228  1.00  0.00     0.008 C 
ENDBRANCH  12  17
ENDBRANCH  11  12
ENDBRANCH   1  11
TORSDOF 1
ENDMDL
MODEL 3
REMARK VINA RESULT:    -3.255      1.667      2.630
REMARK INTER + INTRA:          -5.031
REMARK INTER:                  -4.762
REMARK INTRA:                  -0.268
REMARK UNBOUND:                -0.063
REMARK SMILES CC1=CCC[C@H](C)C(=O)C[C@@H](C(C)C)C(=O)C1
REMARK SMILES IDX 8 1 9 2 6 3 7 4 5 5 4 6 3 7 2 8 1 9 10 11 11 12 15 13 16 14
REMARK SMILES IDX 17 15 12 17 13 18 14 19
REMARK H PARENT
REMARK Flexibility Score: 70.00
ROOT
ATOM      1  C   UNL     1       4.625  21.051   2.702  1.00  0.00     0.136 C 
ATOM      2  O   UNL     1       5.342  21.056   1.712  1.00  0.00    -0.299 OA
ENDROOT
BRANCH   1   3
ATOM      3  C   UNL     1       5.066  20.293   3.940  1.00  0.00     0.053 C 
ATOM      4  C   UNL     1       6.535  20.599   4.261  1.00  0.00     0.016 C 
BRANCH   3   5
ATOM      5  C   UNL     1       4.155  20.639   5.141  1.00  0.00     0.015 C 
BRANCH   5   6
ATOM      6  C   UNL     1       4.694  21.845   5.934  1.00  0.00     0.028 C 
BRANCH   6   7
ATOM      7  C   UNL     1       3.611  22.634   6.627  1.00  0.00    -0.028 C 
ATOM      8  C   UNL     1       3.028  23.760   6.146  1.00  0.00    -0.070 CG0
ATOM      9  C   UNL     1       1.891  24.352   6.940  1.00  0.00     0.039 C 
ATOM     10  G   UNL     1       3.489  24.474   4.883  1.00  0.00     0.000 G0
ENDBRANCH   6   7
ENDBRANCH   5   6
ENDBRANCH   3   5
ENDBRANCH   1   3
BRANCH   1  11
ATOM     11  C   UNL     1       3.306  21.790   2.657  1.00  0.00     0.087 C 
BRANCH  11  12
ATOM     12  C   UNL     1       3.497  23.325   2.518  1.00  0.00     0.066 C 
BRANCH  12  13
ATOM     13  C   UNL     1       2.756  24.073   3.617  1.00  0.00     0.140 C 
ATOM     14  O   UNL     1       1.585  24.393   3.469  1.00  0.00    -0.299 OA
BRANCH  13  15
ATOM     15  C   UNL     1       3.483  24.478   4.877  1.00  0.00     0.106 CG0
ATOM     16  G   UNL     1       2.998  23.761   6.130  1.00  0.00     0.000 G0
ENDBRANCH  13  15
ENDBRANCH  12  13
BRANCH  12  17
ATOM     17  C   UNL     1       3.137  23.871   1.097  1.00  0.00    -0.006 C 
ATOM     18  C   UNL     1       4.398  24.255   0.305  1.00  0.00     0.008 C 
ATOM     19  C   UNL     1       2.272  22.909   0.261  1.00  0.00     0.008 C 
ENDBRANCH  12  17
ENDBRANCH  11  12
ENDBRANCH   1  11
TORSDOF 1
ENDMDL
MODEL 4
REMARK VINA RESULT:    -3.171      1.581      2.216
REMARK INTER + INTRA:          -4.902
REMARK INTER:                  -4.833
REMARK INTRA:                  -0.069
REMARK UNBOUND:                -0.063
REMARK SMILES CC1=CCC[C@H](C)C(=O)C[C@@H](C(C)C)C(=O)C1
REMARK SMILES IDX 8 1 9 2 6 3 7 4 5 5 4 6 3 7 2 8 1 9 10 11 11 12 15 13 16 14
REMARK SMILES IDX 17 15 12 17 13 18 14 19
REMARK H PARENT
REMARK Flexibility Score: 70.00
ROOT
ATOM      1  C   UNL     1       3.748  20.191   5.161  1.00  0.00     0.136 C 
ATOM      2  O   UNL     1       4.960  20.305   5.048  1.00  0.00    -0.299 OA
ENDROOT
BRANCH   1   3
ATOM      3  C   UNL     1       3.179  19.350   6.289  1.00  0.00     0.053 C 
ATOM      4  C   UNL     1       4.120  18.182   6.613  1.00  0.00     0.016 C 
BRANCH   3   5
ATOM      5  C   UNL     1       2.929  20.222   7.541  1.00  0.00     0.015 C 
BRANCH   5   6
ATOM      6  C   UNL     1       1.696  21.130   7.365  1.00  0.00     0.028 C 
BRANCH   6   7
ATOM      7  C   UNL     1       2.011  22.597   7.517  1.00  0.00    -0.028 C 
ATOM      8  C   UNL     1       1.875  23.535   6.546  1.00  0.00    -0.070 CG0
ATOM      9  C   UNL     1       2.147  24.970   6.919  1.00  0.00     0.039 C 
ATOM     10  G   UNL     1       1.512  23.208   5.104  1.00  0.00     0.000 G0
ENDBRANCH   6   7
ENDBRANCH   5   6
ENDBRANCH   3   5
ENDBRANCH   1   3
BRANCH   1  11
ATOM     11  C   UNL     1       2.849  20.882   4.160  1.00  0.00     0.087 C 
BRANCH  11  12
ATOM     12  C   UNL     1       3.456  22.216   3.647  1.00  0.00     0.066 C 
BRANCH  12  13
ATOM     13  C   UNL     1       2.627  23.409   4.102  1.00  0.00     0.140 C 
ATOM     14  O   UNL     1       2.893  24.535   3.707  1.00  0.00    -0.299 OA
BRANCH  13  15
ATOM     15  C   UNL     1       1.506  23.215   5.094  1.00  0.00     0.106 CG0
ATOM     16  G   UNL     1       1.887  23.539   6.532  1.00  0.00     0.000 G0
ENDBRANCH  13  15
ENDBRANCH  12  13
BRANCH  12  17
ATOM     17  C   UNL     1       3.704  22.234   2.102  1.00  0.00    -0.006 C 
ATOM     18  C   UNL     1       4.898  21.347   1.713  1.00  0.00     0.008 C 
ATOM     19  C   UNL     1       2.469  21.839   1.270  1.00  0.00     0.008 C 
ENDBRANCH  12  17
ENDBRANCH  11  12
ENDBRANCH   1  11
TORSDOF 1
ENDMDL
MODEL 5
REMARK VINA RESULT:    -3.156      1.868      4.015
REMARK INTER + INTRA:          -4.880
REMARK INTER:                  -4.569
REMARK INTRA:                  -0.310
REMARK UNBOUND:                -0.063
REMARK SMILES CC1=CCC[C@H](C)C(=O)C[C@@H](C(C)C)C(=O)C1
REMARK SMILES IDX 8 1 9 2 6 3 7 4 5 5 4 6 3 7 2 8 1 9 10 11 11 12 15 13 16 14
REMARK SMILES IDX 17 15 12 17 13 18 14 19
REMARK H PARENT
REMARK Flexibility Score: 70.00
ROOT
ATOM      1  C   UNL     1       4.554  20.852   4.692  1.00  0.00     0.136 C 
ATOM      2  O   UNL     1       4.227  19.879   5.358  1.00  0.00    -0.299 OA
ENDROOT
BRANCH   1   3
ATOM      3  C   UNL     1       5.569  20.685   3.577  1.00  0.00     0.053 C 
ATOM      4  C   UNL     1       6.504  19.505   3.875  1.00  0.00     0.016 C 
BRANCH   3   5
ATOM      5  C   UNL     1       4.855  20.494   2.219  1.00  0.00     0.015 C 
BRANCH   5   6
ATOM      6  C   UNL     1       5.007  21.735   1.317  1.00  0.00     0.028 C 
BRANCH   6   7
ATOM      7  C   UNL     1       3.698  22.222   0.749  1.00  0.00    -0.028 C 
ATOM      8  C   UNL     1       2.930  23.208   1.276  1.00  0.00    -0.070 CG0
ATOM      9  C   UNL     1       1.701  23.623   0.508  1.00  0.00     0.039 C 
ATOM     10  G   UNL     1       3.219  23.878   2.613  1.00  0.00     0.000 G0
ENDBRANCH   6   7
ENDBRANCH   5   6
ENDBRANCH   3   5
ENDBRANCH   1   3
BRANCH   1  11
ATOM     11  C   UNL     1       3.946  22.199   5.013  1.00  0.00     0.087 C 
BRANCH  11  12
ATOM     12  C   UNL     1       2.457  22.289   4.584  1.00  0.00     0.066 C 
BRANCH  12  13
ATOM     13  C   UNL     1       2.209  23.509   3.707  1.00  0.00     0.140 C 
ATOM     14  O   UNL     1       1.188  24.169   3.836  1.00  0.00    -0.299 OA
BRANCH  13  15
ATOM     15  C   UNL     1       3.200  23.876   2.629  1.00  0.00     0.106 CG0
ATOM     16  G   UNL     1       2.917  23.228   1.280  1.00  0.00     0.000 G0
ENDBRANCH  13  15
ENDBRANCH  12  13
BRANCH  12  17
ATOM     17  C   UNL     1       1.458  22.224   5.786  1.00  0.00    -0.006 C 
ATOM     18  C   UNL     1       0.906  20.802   5.983  1.00  0.00     0.008 C 
ATOM     19  C   UNL     1       2.045  22.742   7.112  1.00  0.00     0.008 C 
ENDBRANCH  12  17
ENDBRANCH  11  12
ENDBRANCH   1  11
TORSDOF 1
ENDMDL
MODEL 6
REMARK VINA RESULT:    -3.115      1.931      2.958
REMARK INTER + INTRA:          -4.816
REMARK INTER:                  -4.789
REMARK INTRA:                  -0.028
REMARK UNBOUND:                -0.063
REMARK SMILES CC1=CCC[C@H](C)C(=O)C[C@@H](C(C)C)C(=O)C1
REMARK SMILES IDX 8 1 9 2 6 3 7 4 5 5 4 6 3 7 2 8 1 9 10 11 11 12 15 13 16 14
REMARK SMILES IDX 17 15 12 17 13 18 14 19
REMARK H PARENT
REMARK Flexibility Score: 70.00
ROOT
ATOM      1  C   UNL     1       3.345  20.487   6.570  1.00  0.00     0.136 C 
ATOM      2  O   UNL     1       3.689  19.665   7.408  1.00  0.00    -0.299 OA
ENDROOT
BRANCH   1   3
ATOM      3  C   UNL     1       2.921  21.875   7.015  1.00  0.00     0.053 C 
ATOM      4  C   UNL     1       4.013  22.901   6.684  1.00  0.00     0.016 C 
BRANCH   3   5
ATOM      5  C   UNL     1       1.577  22.266   6.358  1.00  0.00     0.015 C 
BRANCH   5   6
ATOM      6  C   UNL     1       1.746  23.441   5.375  1.00  0.00     0.028 C 
BRANCH   6   7
ATOM      7  C   UNL     1       1.157  23.166   4.013  1.00  0.00    -0.028 C 
ATOM      8  C   UNL     1       1.855  22.772   2.919  1.00  0.00    -0.070 CG0
ATOM      9  C   UNL     1       1.074  22.450   1.670  1.00  0.00     0.039 C 
ATOM     10  G   UNL     1       3.375  22.684   2.876  1.00  0.00     0.000 G0
ENDBRANCH   6   7
ENDBRANCH   5   6
ENDBRANCH   3   5
ENDBRANCH   1   3
BRANCH   1  11
ATOM     11  C   UNL     1       3.338  20.088   5.111  1.00  0.00     0.087 C 
BRANCH  11  12
ATOM     12  C   UNL     1       4.470  20.780   4.306  1.00  0.00     0.066 C 
BRANCH  12  13
ATOM     13  C   UNL     1       3.956  21.308   2.974  1.00  0.00     0.140 C 
ATOM     14  O   UNL     1       4.045  20.628   1.961  1.00  0.00    -0.299 OA
BRANCH  13  15
ATOM     15  C   UNL     1       3.385  22.703   2.885  1.00  0.00     0.106 CG0
ATOM     16  G   UNL     1       1.863  22.751   2.892  1.00  0.00     0.000 G0
ENDBRANCH  13  15
ENDBRANCH  12  13
BRANCH  12  17
ATOM     17  C   UNL     1       5.742  19.886   4.126  1.00  0.00    -0.006 C 
ATOM     18  C   UNL     1       7.033  20.707   4.277  1.00  0.00     0.008 C 
ATOM     19  C   UNL     1       5.786  18.670   5.071  1.00  0.00     0.008 C 
ENDBRANCH  12  17
ENDBRANCH  11  12
ENDBRANCH   1  11
TORSDOF 1
ENDMDL
MODEL 7
REMARK VINA RESULT:    -3.091      1.603      4.149
REMARK INTER + INTRA:          -4.780
REMARK INTER:                  -4.741
REMARK INTRA:                  -0.039
REMARK UNBOUND:                -0.063
REMARK SMILES CC1=CCC[C@H](C)C(=O)C[C@@H](C(C)C)C(=O)C1
REMARK SMILES IDX 8 1 9 2 6 3 7 4 5 5 4 6 3 7 2 8 1 9 10 11 11 12 15 13 16 14
REMARK SMILES IDX 17 15 12 17 13 18 14 19
REMARK H PARENT
REMARK Flexibility Score: 70.00
ROOT
ATOM      1  C   UNL     1       4.291  22.003   6.363  1.00  0.00     0.136 C 
ATOM      2  O   UNL     1       5.176  21.761   5.554  1.00  0.00    -0.299 OA
ENDROOT
BRANCH   1   3
ATOM      3  C   UNL     1       3.547  20.857   7.023  1.00  0.00     0.053 C 
ATOM      4  C   UNL     1       2.286  21.372   7.727  1.00  0.00     0.016 C 
BRANCH   3   5
ATOM      5  C   UNL     1       3.194  19.771   5.981  1.00  0.00     0.015 C 
BRANCH   5   6
ATOM      6  C   UNL     1       2.023  20.206   5.079  1.00  0.00     0.028 C 
BRANCH   6   7
ATOM      7  C   UNL     1       2.448  20.539   3.671  1.00  0.00    -0.028 C 
ATOM      8  C   UNL     1       2.370  21.764   3.094  1.00  0.00    -0.070 CG0
ATOM      9  C   UNL     1       2.938  21.920   1.706  1.00  0.00     0.039 C 
ATOM     10  G   UNL     1       1.704  22.965   3.752  1.00  0.00     0.000 G0
ENDBRANCH   6   7
ENDBRANCH   5   6
ENDBRANCH   3   5
ENDBRANCH   1   3
BRANCH   1  11
ATOM     11  C   UNL     1       3.953  23.446   6.669  1.00  0.00     0.087 C 
BRANCH  11  12
ATOM     12  C   UNL     1       2.593  23.875   6.055  1.00  0.00     0.066 C 
BRANCH  12  13
ATOM     13  C   UNL     1       2.649  23.868   4.534  1.00  0.00     0.140 C 
ATOM     14  O   UNL     1       3.415  24.611   3.938  1.00  0.00    -0.299 OA
BRANCH  13  15
ATOM     15  C   UNL     1       1.712  22.982   3.749  1.00  0.00     0.106 CG0
ATOM     16  G   UNL     1       2.387  21.768   3.122  1.00  0.00     0.000 G0
ENDBRANCH  13  15
ENDBRANCH  12  13
BRANCH  12  17
ATOM     17  C   UNL     1       2.061  25.236   6.612  1.00  0.00    -0.006 C 
ATOM     18  C   UNL     1       1.146  25.027   7.831  1.00  0.00     0.008 C 
ATOM     19  C   UNL     1       3.172  26.242   6.964  1.00  0.00     0.008 C 
ENDBRANCH  12  17
ENDBRANCH  11  12
ENDBRANCH   1  11
TORSDOF 1
ENDMDL
MODEL 8
REMARK VINA RESULT:    -2.912      1.939      4.743
REMARK INTER + INTRA:          -4.508
REMARK INTER:                  -4.766
REMARK INTRA:                   0.259
REMARK UNBOUND:                -0.063
REMARK SMILES CC1=CCC[C@H](C)C(=O)C[C@@H](C(C)C)C(=O)C1
REMARK SMILES IDX 8 1 9 2 6 3 7 4 5 5 4 6 3 7 2 8 1 9 10 11 11 12 15 13 16 14
REMARK SMILES IDX 17 15 12 17 13 18 14 19
REMARK H PARENT
REMARK Flexibility Score: 70.00
ROOT
ATOM      1  C   UNL     1       3.035  24.110   5.763  1.00  0.00     0.136 C 
ATOM      2  O   UNL     1       3.726  24.569   6.661  1.00  0.00    -0.299 OA
ENDROOT
BRANCH   1   3
ATOM      3  C   UNL     1       2.607  25.007   4.616  1.00  0.00     0.053 C 
ATOM      4  C   UNL     1       2.680  26.482   5.034  1.00  0.00     0.016 C 
BRANCH   3   5
ATOM      5  C   UNL     1       3.480  24.743   3.368  1.00  0.00     0.015 C 
BRANCH   5   6
ATOM      6  C   UNL     1       2.811  23.741   2.408  1.00  0.00     0.028 C 
BRANCH   6   7
ATOM      7  C   UNL     1       3.780  22.755   1.805  1.00  0.00    -0.028 C 
ATOM      8  C   UNL     1       4.028  21.507   2.276  1.00  0.00    -0.070 CG0
ATOM      9  C   UNL     1       4.960  20.631   1.478  1.00  0.00     0.039 C 
ATOM     10  G   UNL     1       3.455  20.970   3.581  1.00  0.00     0.000 G0
ENDBRANCH   6   7
ENDBRANCH   5   6
ENDBRANCH   3   5
ENDBRANCH   1   3
BRANCH   1  11
ATOM     11  C   UNL     1       2.613  22.659   5.832  1.00  0.00     0.087 C 
BRANCH  11  12
ATOM     12  C   UNL     1       3.812  21.708   6.089  1.00  0.00     0.066 C 
BRANCH  12  13
ATOM     13  C   UNL     1       4.366  21.154   4.784  1.00  0.00     0.140 C 
ATOM     14  O   UNL     1       5.556  20.897   4.675  1.00  0.00    -0.299 OA
BRANCH  13  15
ATOM     15  C   UNL     1       3.454  20.974   3.594  1.00  0.00     0.106 CG0
ATOM     16  G   UNL     1       4.027  21.509   2.288  1.00  0.00     0.000 G0
ENDBRANCH  13  15
ENDBRANCH  12  13
BRANCH  12  17
ATOM     17  C   UNL     1       3.497  20.572   7.117  1.00  0.00    -0.006 C 
ATOM     18  C   UNL     1       2.440  21.016   8.142  1.00  0.00     0.008 C 
ATOM     19  C   UNL     1       3.063  19.246   6.465  1.00  0.00     0.008 C 
ENDBRANCH  12  17
ENDBRANCH  11  12
ENDBRANCH   1  11
TORSDOF 1
ENDMDL
MODEL 9
REMARK VINA RESULT:    -2.851      2.555      4.204
REMARK INTER + INTRA:          -4.415
REMARK INTER:                  -4.659
REMARK INTRA:                   0.245
REMARK UNBOUND:                -0.063
REMARK SMILES CC1=CCC[C@H](C)C(=O)C[C@@H](C(C)C)C(=O)C1
REMARK SMILES IDX 8 1 9 2 6 3 7 4 5 5 4 6 3 7 2 8 1 9 10 11 11 12 15 13 16 14
REMARK SMILES IDX 17 15 12 17 13 18 14 19
REMARK H PARENT
REMARK Flexibility Score: 70.00
ROOT
ATOM      1  C   UNL     1       4.750  20.914   2.975  1.00  0.00     0.136 C 
ATOM      2  O   UNL     1       5.674  21.219   2.234  1.00  0.00    -0.299 OA
ENDROOT
BRANCH   1   3
ATOM      3  C   UNL     1       5.044  20.498   4.404  1.00  0.00     0.053 C 
ATOM      4  C   UNL     1       6.409  19.802   4.489  1.00  0.00     0.016 C 
BRANCH   3   5
ATOM      5  C   UNL     1       4.987  21.722   5.347  1.00  0.00     0.015 C 
BRANCH   5   6
ATOM      6  C   UNL     1       4.049  21.474   6.544  1.00  0.00     0.028 C 
BRANCH   6   7
ATOM      7  C   UNL     1       3.761  20.013   6.783  1.00  0.00    -0.028 C 
ATOM      8  C   UNL     1       2.674  19.341   6.329  1.00  0.00    -0.070 CG0
ATOM      9  C   UNL     1       2.612  17.857   6.588  1.00  0.00     0.039 C 
ATOM     10  G   UNL     1       1.505  20.010   5.620  1.00  0.00     0.000 G0
ENDBRANCH   6   7
ENDBRANCH   5   6
ENDBRANCH   3   5
ENDBRANCH   1   3
BRANCH   1  11
ATOM     11  C   UNL     1       3.337  20.946   2.435  1.00  0.00     0.087 C 
BRANCH  11  12
ATOM     12  C   UNL     1       2.302  21.351   3.519  1.00  0.00     0.066 C 
BRANCH  12  13
ATOM     13  C   UNL     1       1.630  20.127   4.124  1.00  0.00     0.140 C 
ATOM     14  O   UNL     1       1.163  19.256   3.404  1.00  0.00    -0.299 OA
BRANCH  13  15
ATOM     15  C   UNL     1       1.484  20.009   5.622  1.00  0.00     0.106 CG0
ATOM     16  G   UNL     1       2.668  19.343   6.309  1.00  0.00     0.000 G0
ENDBRANCH  13  15
ENDBRANCH  12  13
BRANCH  12  17
ATOM     17  C   UNL     1       1.257  22.403   3.019  1.00  0.00    -0.006 C 
ATOM     18  C   UNL     1       1.088  23.552   4.027  1.00  0.00     0.008 C 
ATOM     19  C   UNL     1       1.569  22.976   1.624  1.00  0.00     0.008 C 
ENDBRANCH  12  17
ENDBRANCH  11  12
ENDBRANCH   1  11
TORSDOF 1
ENDMDL
