MODEL 1
REMARK VINA RESULT:    -7.195      0.000      0.000
REMARK INTER + INTRA:          -8.999
REMARK INTER:                  -8.667
REMARK INTRA:                  -0.331
REMARK UNBOUND:                -0.331
REMARK SMILES O=c1c(O)c(-c2ccc(O)c(O)c2)oc2cc(O)cc(O)c12
REMARK SMILES IDX 5 1 3 2 2 3 1 4 22 5 20 6 19 7 17 8 16 9 15 10 14 11 6 12
REMARK SMILES IDX 7 13 8 14 9 15 13 16 11 17 10 18 12 20 4 22 21 24 18 26
REMARK H PARENT 10 19 12 21 4 23 21 25 18 27
REMARK Flexibility Score: inf
ROOT
ATOM      1  C   UNL     1       3.717 -19.009   7.630  1.00  0.00     0.180 A 
ATOM      2  C   UNL     1       2.646 -18.246   7.133  1.00  0.00     0.208 A 
ATOM      3  C   UNL     1       2.769 -16.849   7.085  1.00  0.00     0.238 A 
ATOM      4  O   UNL     1       1.836 -16.178   6.570  1.00  0.00    -0.285 OA
ATOM      5  C   UNL     1       3.937 -16.226   7.586  1.00  0.00     0.111 A 
ATOM      6  C   UNL     1       4.151 -14.814   7.628  1.00  0.00     0.134 A 
ATOM      7  C   UNL     1       5.392 -14.316   8.048  1.00  0.00     0.093 A 
ATOM      8  C   UNL     1       6.400 -15.172   8.486  1.00  0.00     0.123 A 
ATOM      9  C   UNL     1       6.183 -16.550   8.501  1.00  0.00     0.094 A 
ATOM     10  C   UNL     1       4.971 -17.080   8.052  1.00  0.00     0.146 A 
ATOM     11  O   UNL     1       4.813 -18.398   8.063  1.00  0.00    -0.452 OA
ENDROOT
BRANCH   1  12
ATOM     12  C   UNL     1       3.668 -20.486   7.699  1.00  0.00     0.025 A 
ATOM     13  C   UNL     1       4.112 -21.284   6.631  1.00  0.00     0.016 A 
ATOM     14  C   UNL     1       4.080 -22.678   6.728  1.00  0.00     0.051 A 
ATOM     15  C   UNL     1       3.615 -23.295   7.898  1.00  0.00     0.157 A 
ATOM     16  C   UNL     1       3.224 -21.109   8.878  1.00  0.00     0.062 A 
ATOM     17  C   UNL     1       3.188 -22.504   8.979  1.00  0.00     0.158 A 
BRANCH  15  18
ATOM     18  O   UNL     1       3.582 -24.685   7.992  1.00  0.00    -0.504 OA
ATOM     19  H   UNL     1       4.380 -25.253   7.733  1.00  0.00     0.293 HD
ENDBRANCH  15  18
BRANCH  17  20
ATOM     20  O   UNL     1       2.728 -23.086  10.159  1.00  0.00    -0.504 OA
ATOM     21  H   UNL     1       1.842 -23.576  10.208  1.00  0.00     0.293 HD
ENDBRANCH  17  20
ENDBRANCH   1  12
BRANCH   2  22
ATOM     22  O   UNL     1       1.469 -18.875   6.714  1.00  0.00    -0.502 OA
ATOM     23  H   UNL     1       0.554 -18.586   7.036  1.00  0.00     0.293 HD
ENDBRANCH   2  22
BRANCH   6  24
ATOM     24  O   UNL     1       3.180 -13.865   7.297  1.00  0.00    -0.507 OA
ATOM     25  H   UNL     1       3.355 -13.011   6.790  1.00  0.00     0.293 HD
ENDBRANCH   6  24
BRANCH   8  26
ATOM     26  O   UNL     1       7.616 -14.640   8.913  1.00  0.00    -0.508 OA
ATOM     27  H   UNL     1       8.056 -14.947   9.772  1.00  0.00     0.293 HD
ENDBRANCH   8  26
TORSDOF 6
ENDMDL
MODEL 2
REMARK VINA RESULT:    -7.043      1.785      6.986
REMARK INTER + INTRA:          -8.816
REMARK INTER:                  -8.494
REMARK INTRA:                  -0.321
REMARK UNBOUND:                -0.331
REMARK SMILES O=c1c(O)c(-c2ccc(O)c(O)c2)oc2cc(O)cc(O)c12
REMARK SMILES IDX 5 1 3 2 2 3 1 4 22 5 20 6 19 7 17 8 16 9 15 10 14 11 6 12
REMARK SMILES IDX 7 13 8 14 9 15 13 16 11 17 10 18 12 20 4 22 21 24 18 26
REMARK H PARENT 10 19 12 21 4 23 21 25 18 27
REMARK Flexibility Score: inf
ROOT
ATOM      1  C   UNL     1       4.809 -18.294   6.903  1.00  0.00     0.180 A 
ATOM      2  C   UNL     1       5.047 -18.752   5.596  1.00  0.00     0.208 A 
ATOM      3  C   UNL     1       4.874 -20.115   5.310  1.00  0.00     0.238 A 
ATOM      4  O   UNL     1       5.017 -20.505   4.122  1.00  0.00    -0.285 OA
ATOM      5  C   UNL     1       4.520 -21.014   6.346  1.00  0.00     0.111 A 
ATOM      6  C   UNL     1       4.361 -22.424   6.179  1.00  0.00     0.134 A 
ATOM      7  C   UNL     1       3.903 -23.198   7.253  1.00  0.00     0.093 A 
ATOM      8  C   UNL     1       3.661 -22.628   8.501  1.00  0.00     0.123 A 
ATOM      9  C   UNL     1       3.865 -21.261   8.690  1.00  0.00     0.094 A 
ATOM     10  C   UNL     1       4.284 -20.454   7.629  1.00  0.00     0.146 A 
ATOM     11  O   UNL     1       4.445 -19.155   7.846  1.00  0.00    -0.452 OA
ENDROOT
BRANCH   1  12
ATOM     12  C   UNL     1       4.956 -16.869   7.279  1.00  0.00     0.025 A 
ATOM     13  C   UNL     1       3.924 -15.942   7.053  1.00  0.00     0.016 A 
ATOM     14  C   UNL     1       4.076 -14.607   7.438  1.00  0.00     0.051 A 
ATOM     15  C   UNL     1       5.254 -14.182   8.066  1.00  0.00     0.157 A 
ATOM     16  C   UNL     1       6.126 -16.443   7.929  1.00  0.00     0.062 A 
ATOM     17  C   UNL     1       6.282 -15.108   8.315  1.00  0.00     0.158 A 
BRANCH  15  18
ATOM     18  O   UNL     1       5.404 -12.850   8.448  1.00  0.00    -0.504 OA
ATOM     19  H   UNL     1       5.793 -12.159   7.818  1.00  0.00     0.293 HD
ENDBRANCH  15  18
BRANCH  17  20
ATOM     20  O   UNL     1       7.464 -14.719   8.945  1.00  0.00    -0.504 OA
ATOM     21  H   UNL     1       8.352 -14.695   8.457  1.00  0.00     0.293 HD
ENDBRANCH  17  20
ENDBRANCH   1  12
BRANCH   2  22
ATOM     22  O   UNL     1       5.471 -17.862   4.605  1.00  0.00    -0.502 OA
ATOM     23  H   UNL     1       5.685 -16.892   4.801  1.00  0.00     0.293 HD
ENDBRANCH   2  22
BRANCH   6  24
ATOM     24  O   UNL     1       4.660 -23.111   5.000  1.00  0.00    -0.507 OA
ATOM     25  H   UNL     1       4.087 -23.115   4.170  1.00  0.00     0.293 HD
ENDBRANCH   6  24
BRANCH   8  26
ATOM     26  O   UNL     1       3.223 -23.432   9.552  1.00  0.00    -0.508 OA
ATOM     27  H   UNL     1       2.828 -24.351   9.388  1.00  0.00     0.293 HD
ENDBRANCH   8  26
TORSDOF 6
ENDMDL
MODEL 3
REMARK VINA RESULT:    -6.832      2.439      3.172
REMARK INTER + INTRA:          -8.561
REMARK INTER:                  -8.405
REMARK INTRA:                  -0.156
REMARK UNBOUND:                -0.331
REMARK SMILES O=c1c(O)c(-c2ccc(O)c(O)c2)oc2cc(O)cc(O)c12
REMARK SMILES IDX 5 1 3 2 2 3 1 4 22 5 20 6 19 7 17 8 16 9 15 10 14 11 6 12
REMARK SMILES IDX 7 13 8 14 9 15 13 16 11 17 10 18 12 20 4 22 21 24 18 26
REMARK H PARENT 10 19 12 21 4 23 21 25 18 27
REMARK Flexibility Score: inf
ROOT
ATOM      1  C   UNL     1       4.765 -17.255   6.609  1.00  0.00     0.180 A 
ATOM      2  C   UNL     1       4.939 -16.889   5.263  1.00  0.00     0.208 A 
ATOM      3  C   UNL     1       5.048 -15.529   4.935  1.00  0.00     0.238 A 
ATOM      4  O   UNL     1       5.277 -15.213   3.738  1.00  0.00    -0.285 OA
ATOM      5  C   UNL     1       4.926 -14.547   5.948  1.00  0.00     0.111 A 
ATOM      6  C   UNL     1       4.976 -13.137   5.723  1.00  0.00     0.134 A 
ATOM      7  C   UNL     1       4.950 -12.263   6.818  1.00  0.00     0.093 A 
ATOM      8  C   UNL     1       4.813 -12.741   8.119  1.00  0.00     0.123 A 
ATOM      9  C   UNL     1       4.708 -14.113   8.346  1.00  0.00     0.094 A 
ATOM     10  C   UNL     1       4.769 -15.014   7.279  1.00  0.00     0.146 A 
ATOM     11  O   UNL     1       4.687 -16.313   7.541  1.00  0.00    -0.452 OA
ENDROOT
BRANCH   1  12
ATOM     12  C   UNL     1       4.657 -18.668   7.035  1.00  0.00     0.025 A 
ATOM     13  C   UNL     1       3.463 -19.183   7.569  1.00  0.00     0.016 A 
ATOM     14  C   UNL     1       3.376 -20.527   7.942  1.00  0.00     0.051 A 
ATOM     15  C   UNL     1       4.476 -21.379   7.775  1.00  0.00     0.157 A 
ATOM     16  C   UNL     1       5.749 -19.532   6.849  1.00  0.00     0.062 A 
ATOM     17  C   UNL     1       5.667 -20.877   7.222  1.00  0.00     0.158 A 
BRANCH  15  18
ATOM     18  O   UNL     1       4.388 -22.719   8.149  1.00  0.00    -0.504 OA
ATOM     19  H   UNL     1       4.049 -23.427   7.508  1.00  0.00     0.293 HD
ENDBRANCH  15  18
BRANCH  17  20
ATOM     20  O   UNL     1       6.777 -21.700   7.035  1.00  0.00    -0.504 OA
ATOM     21  H   UNL     1       6.836 -22.358   6.266  1.00  0.00     0.293 HD
ENDBRANCH  17  20
ENDBRANCH   1  12
BRANCH   2  22
ATOM     22  O   UNL     1       4.979 -17.870   4.268  1.00  0.00    -0.502 OA
ATOM     23  H   UNL     1       5.554 -18.700   4.345  1.00  0.00     0.293 HD
ENDBRANCH   2  22
BRANCH   6  24
ATOM     24  O   UNL     1       5.023 -12.547   4.457  1.00  0.00    -0.507 OA
ATOM     25  H   UNL     1       5.867 -12.345   3.944  1.00  0.00     0.293 HD
ENDBRANCH   6  24
BRANCH   8  26
ATOM     26  O   UNL     1       4.774 -11.841   9.182  1.00  0.00    -0.508 OA
ATOM     27  H   UNL     1       4.910 -12.144  10.139  1.00  0.00     0.293 HD
ENDBRANCH   8  26
TORSDOF 6
ENDMDL
MODEL 4
REMARK VINA RESULT:    -6.677      2.400      2.679
REMARK INTER + INTRA:          -8.374
REMARK INTER:                  -8.257
REMARK INTRA:                  -0.117
REMARK UNBOUND:                -0.331
REMARK SMILES O=c1c(O)c(-c2ccc(O)c(O)c2)oc2cc(O)cc(O)c12
REMARK SMILES IDX 5 1 3 2 2 3 1 4 22 5 20 6 19 7 17 8 16 9 15 10 14 11 6 12
REMARK SMILES IDX 7 13 8 14 9 15 13 16 11 17 10 18 12 20 4 22 21 24 18 26
REMARK H PARENT 10 19 12 21 4 23 21 25 18 27
REMARK Flexibility Score: inf
ROOT
ATOM      1  C   UNL     1       5.013 -17.917   6.322  1.00  0.00     0.180 A 
ATOM      2  C   UNL     1       5.031 -17.554   4.965  1.00  0.00     0.208 A 
ATOM      3  C   UNL     1       5.060 -16.193   4.623  1.00  0.00     0.238 A 
ATOM      4  O   UNL     1       5.151 -15.878   3.408  1.00  0.00    -0.285 OA
ATOM      5  C   UNL     1       5.015 -15.209   5.641  1.00  0.00     0.111 A 
ATOM      6  C   UNL     1       4.995 -13.800   5.408  1.00  0.00     0.134 A 
ATOM      7  C   UNL     1       5.058 -12.920   6.497  1.00  0.00     0.093 A 
ATOM      8  C   UNL     1       5.074 -13.395   7.806  1.00  0.00     0.123 A 
ATOM      9  C   UNL     1       5.039 -14.769   8.048  1.00  0.00     0.094 A 
ATOM     10  C   UNL     1       5.015 -15.673   6.982  1.00  0.00     0.146 A 
ATOM     11  O   UNL     1       5.004 -16.972   7.255  1.00  0.00    -0.452 OA
ENDROOT
BRANCH   1  12
ATOM     12  C   UNL     1       4.996 -19.330   6.761  1.00  0.00     0.025 A 
ATOM     13  C   UNL     1       6.012 -20.226   6.387  1.00  0.00     0.016 A 
ATOM     14  C   UNL     1       5.988 -21.550   6.834  1.00  0.00     0.051 A 
ATOM     15  C   UNL     1       4.956 -21.995   7.671  1.00  0.00     0.157 A 
ATOM     16  C   UNL     1       3.976 -19.776   7.618  1.00  0.00     0.062 A 
ATOM     17  C   UNL     1       3.947 -21.100   8.066  1.00  0.00     0.158 A 
BRANCH  15  18
ATOM     18  O   UNL     1       4.933 -23.316   8.113  1.00  0.00    -0.504 OA
ATOM     19  H   UNL     1       4.425 -24.035   7.611  1.00  0.00     0.293 HD
ENDBRANCH  15  18
BRANCH  17  20
ATOM     20  O   UNL     1       2.910 -21.509   8.905  1.00  0.00    -0.504 OA
ATOM     21  H   UNL     1       2.148 -20.892   9.159  1.00  0.00     0.293 HD
ENDBRANCH  17  20
ENDBRANCH   1  12
BRANCH   2  22
ATOM     22  O   UNL     1       4.997 -18.539   3.973  1.00  0.00    -0.502 OA
ATOM     23  H   UNL     1       4.578 -19.449   4.124  1.00  0.00     0.293 HD
ENDBRANCH   2  22
BRANCH   6  24
ATOM     24  O   UNL     1       4.889 -13.217   4.143  1.00  0.00    -0.507 OA
ATOM     25  H   UNL     1       4.023 -12.984   3.684  1.00  0.00     0.293 HD
ENDBRANCH   6  24
BRANCH   8  26
ATOM     26  O   UNL     1       5.119 -12.490   8.866  1.00  0.00    -0.508 OA
ATOM     27  H   UNL     1       5.993 -12.242   9.315  1.00  0.00     0.293 HD
ENDBRANCH   8  26
TORSDOF 6
ENDMDL
MODEL 5
REMARK VINA RESULT:    -6.663      1.633      2.188
REMARK INTER + INTRA:          -8.358
REMARK INTER:                  -8.427
REMARK INTRA:                   0.069
REMARK UNBOUND:                -0.331
REMARK SMILES O=c1c(O)c(-c2ccc(O)c(O)c2)oc2cc(O)cc(O)c12
REMARK SMILES IDX 5 1 3 2 2 3 1 4 22 5 20 6 19 7 17 8 16 9 15 10 14 11 6 12
REMARK SMILES IDX 7 13 8 14 9 15 13 16 11 17 10 18 12 20 4 22 21 24 18 26
REMARK H PARENT 10 19 12 21 4 23 21 25 18 27
REMARK Flexibility Score: inf
ROOT
ATOM      1  C   UNL     1       3.422 -18.267   7.596  1.00  0.00     0.180 A 
ATOM      2  C   UNL     1       2.144 -17.966   7.095  1.00  0.00     0.208 A 
ATOM      3  C   UNL     1       1.756 -16.623   6.981  1.00  0.00     0.238 A 
ATOM      4  O   UNL     1       0.639 -16.359   6.463  1.00  0.00    -0.285 OA
ATOM      5  C   UNL     1       2.627 -15.597   7.420  1.00  0.00     0.111 A 
ATOM      6  C   UNL     1       2.320 -14.202   7.392  1.00  0.00     0.134 A 
ATOM      7  C   UNL     1       3.303 -13.271   7.754  1.00  0.00     0.093 A 
ATOM      8  C   UNL     1       4.556 -13.684   8.202  1.00  0.00     0.123 A 
ATOM      9  C   UNL     1       4.849 -15.046   8.285  1.00  0.00     0.094 A 
ATOM     10  C   UNL     1       3.903 -15.998   7.895  1.00  0.00     0.146 A 
ATOM     11  O   UNL     1       4.230 -17.283   7.969  1.00  0.00    -0.452 OA
ENDROOT
BRANCH   1  12
ATOM     12  C   UNL     1       3.908 -19.658   7.732  1.00  0.00     0.025 A 
ATOM     13  C   UNL     1       3.102 -20.665   8.290  1.00  0.00     0.016 A 
ATOM     14  C   UNL     1       3.573 -21.977   8.386  1.00  0.00     0.051 A 
ATOM     15  C   UNL     1       4.852 -22.305   7.915  1.00  0.00     0.157 A 
ATOM     16  C   UNL     1       5.180 -19.997   7.242  1.00  0.00     0.062 A 
ATOM     17  C   UNL     1       5.657 -21.309   7.338  1.00  0.00     0.158 A 
BRANCH  15  18
ATOM     18  O   UNL     1       5.321 -23.614   8.014  1.00  0.00    -0.504 OA
ATOM     19  H   UNL     1       4.805 -24.325   8.521  1.00  0.00     0.293 HD
ENDBRANCH  15  18
BRANCH  17  20
ATOM     20  O   UNL     1       6.931 -21.604   6.853  1.00  0.00    -0.504 OA
ATOM     21  H   UNL     1       7.754 -21.099   7.161  1.00  0.00     0.293 HD
ENDBRANCH  17  20
ENDBRANCH   1  12
BRANCH   2  22
ATOM     22  O   UNL     1       1.268 -18.996   6.739  1.00  0.00    -0.502 OA
ATOM     23  H   UNL     1       0.264 -18.867   6.698  1.00  0.00     0.293 HD
ENDBRANCH   2  22
BRANCH   6  24
ATOM     24  O   UNL     1       1.069 -13.682   7.047  1.00  0.00    -0.507 OA
ATOM     25  H   UNL     1       0.880 -12.712   6.852  1.00  0.00     0.293 HD
ENDBRANCH   6  24
BRANCH   8  26
ATOM     26  O   UNL     1       5.503 -12.731   8.570  1.00  0.00    -0.508 OA
ATOM     27  H   UNL     1       5.233 -11.846   8.983  1.00  0.00     0.293 HD
ENDBRANCH   8  26
TORSDOF 6
ENDMDL
MODEL 6
REMARK VINA RESULT:    -6.626      2.306      3.370
REMARK INTER + INTRA:          -8.313
REMARK INTER:                  -8.055
REMARK INTRA:                  -0.258
REMARK UNBOUND:                -0.331
REMARK SMILES O=c1c(O)c(-c2ccc(O)c(O)c2)oc2cc(O)cc(O)c12
REMARK SMILES IDX 5 1 3 2 2 3 1 4 22 5 20 6 19 7 17 8 16 9 15 10 14 11 6 12
REMARK SMILES IDX 7 13 8 14 9 15 13 16 11 17 10 18 12 20 4 22 21 24 18 26
REMARK H PARENT 10 19 12 21 4 23 21 25 18 27
REMARK Flexibility Score: inf
ROOT
ATOM      1  C   UNL     1       4.944 -17.914   6.880  1.00  0.00     0.180 A 
ATOM      2  C   UNL     1       5.376 -17.003   7.859  1.00  0.00     0.208 A 
ATOM      3  C   UNL     1       5.357 -15.631   7.570  1.00  0.00     0.238 A 
ATOM      4  O   UNL     1       5.676 -14.818   8.477  1.00  0.00    -0.285 OA
ATOM      5  C   UNL     1       4.960 -15.186   6.285  1.00  0.00     0.111 A 
ATOM      6  C   UNL     1       4.945 -13.820   5.866  1.00  0.00     0.134 A 
ATOM      7  C   UNL     1       4.430 -13.491   4.605  1.00  0.00     0.093 A 
ATOM      8  C   UNL     1       3.992 -14.478   3.726  1.00  0.00     0.123 A 
ATOM      9  C   UNL     1       4.053 -15.820   4.103  1.00  0.00     0.094 A 
ATOM     10  C   UNL     1       4.525 -16.179   5.369  1.00  0.00     0.146 A 
ATOM     11  O   UNL     1       4.546 -17.465   5.696  1.00  0.00    -0.452 OA
ENDROOT
BRANCH   1  12
ATOM     12  C   UNL     1       4.921 -19.375   7.116  1.00  0.00     0.025 A 
ATOM     13  C   UNL     1       5.902 -20.220   6.570  1.00  0.00     0.016 A 
ATOM     14  C   UNL     1       5.874 -21.594   6.826  1.00  0.00     0.051 A 
ATOM     15  C   UNL     1       4.874 -22.141   7.642  1.00  0.00     0.157 A 
ATOM     16  C   UNL     1       3.935 -19.924   7.951  1.00  0.00     0.062 A 
ATOM     17  C   UNL     1       3.902 -21.299   8.210  1.00  0.00     0.158 A 
BRANCH  15  18
ATOM     18  O   UNL     1       4.847 -23.511   7.895  1.00  0.00    -0.504 OA
ATOM     19  H   UNL     1       5.296 -23.908   8.712  1.00  0.00     0.293 HD
ENDBRANCH  15  18
BRANCH  17  20
ATOM     20  O   UNL     1       2.899 -21.810   9.032  1.00  0.00    -0.504 OA
ATOM     21  H   UNL     1       3.084 -22.116   9.981  1.00  0.00     0.293 HD
ENDBRANCH  17  20
ENDBRANCH   1  12
BRANCH   2  22
ATOM     22  O   UNL     1       5.838 -17.467   9.095  1.00  0.00    -0.502 OA
ATOM     23  H   UNL     1       6.474 -16.932   9.674  1.00  0.00     0.293 HD
ENDBRANCH   2  22
BRANCH   6  24
ATOM     24  O   UNL     1       5.442 -12.761   6.631  1.00  0.00    -0.507 OA
ATOM     25  H   UNL     1       5.363 -11.786   6.389  1.00  0.00     0.293 HD
ENDBRANCH   6  24
BRANCH   8  26
ATOM     26  O   UNL     1       3.502 -14.115   2.473  1.00  0.00    -0.508 OA
ATOM     27  H   UNL     1       3.317 -14.806   1.755  1.00  0.00     0.293 HD
ENDBRANCH   8  26
TORSDOF 6
ENDMDL
MODEL 7
REMARK VINA RESULT:    -6.438      1.480      2.835
REMARK INTER + INTRA:          -8.086
REMARK INTER:                  -7.770
REMARK INTRA:                  -0.316
REMARK UNBOUND:                -0.331
REMARK SMILES O=c1c(O)c(-c2ccc(O)c(O)c2)oc2cc(O)cc(O)c12
REMARK SMILES IDX 5 1 3 2 2 3 1 4 22 5 20 6 19 7 17 8 16 9 15 10 14 11 6 12
REMARK SMILES IDX 7 13 8 14 9 15 13 16 11 17 10 18 12 20 4 22 21 24 18 26
REMARK H PARENT 10 19 12 21 4 23 21 25 18 27
REMARK Flexibility Score: inf
ROOT
ATOM      1  C   UNL     1       3.626 -19.045   7.617  1.00  0.00     0.180 A 
ATOM      2  C   UNL     1       4.866 -18.429   7.375  1.00  0.00     0.208 A 
ATOM      3  C   UNL     1       4.965 -17.033   7.479  1.00  0.00     0.238 A 
ATOM      4  O   UNL     1       6.094 -16.496   7.334  1.00  0.00    -0.285 OA
ATOM      5  C   UNL     1       3.812 -16.263   7.767  1.00  0.00     0.111 A 
ATOM      6  C   UNL     1       3.787 -14.838   7.852  1.00  0.00     0.134 A 
ATOM      7  C   UNL     1       2.609 -14.191   8.249  1.00  0.00     0.093 A 
ATOM      8  C   UNL     1       1.443 -14.909   8.502  1.00  0.00     0.123 A 
ATOM      9  C   UNL     1       1.440 -16.298   8.369  1.00  0.00     0.094 A 
ATOM     10  C   UNL     1       2.609 -16.977   8.012  1.00  0.00     0.146 A 
ATOM     11  O   UNL     1       2.569 -18.300   7.918  1.00  0.00    -0.452 OA
ENDROOT
BRANCH   1  12
ATOM     12  C   UNL     1       3.445 -20.512   7.541  1.00  0.00     0.025 A 
ATOM     13  C   UNL     1       3.193 -21.157   6.318  1.00  0.00     0.016 A 
ATOM     14  C   UNL     1       3.051 -22.547   6.268  1.00  0.00     0.051 A 
ATOM     15  C   UNL     1       3.171 -23.313   7.435  1.00  0.00     0.157 A 
ATOM     16  C   UNL     1       3.587 -21.287   8.704  1.00  0.00     0.062 A 
ATOM     17  C   UNL     1       3.444 -22.677   8.659  1.00  0.00     0.158 A 
BRANCH  15  18
ATOM     18  O   UNL     1       3.027 -24.698   7.382  1.00  0.00    -0.504 OA
ATOM     19  H   UNL     1       3.091 -25.205   6.507  1.00  0.00     0.293 HD
ENDBRANCH  15  18
BRANCH  17  20
ATOM     20  O   UNL     1       3.577 -23.411   9.837  1.00  0.00    -0.504 OA
ATOM     21  H   UNL     1       3.351 -23.019  10.744  1.00  0.00     0.293 HD
ENDBRANCH  17  20
ENDBRANCH   1  12
BRANCH   2  22
ATOM     22  O   UNL     1       5.975 -19.200   7.016  1.00  0.00    -0.502 OA
ATOM     23  H   UNL     1       6.872 -18.789   6.788  1.00  0.00     0.293 HD
ENDBRANCH   2  22
BRANCH   6  24
ATOM     24  O   UNL     1       4.872 -14.015   7.535  1.00  0.00    -0.507 OA
ATOM     25  H   UNL     1       4.802 -13.053   7.242  1.00  0.00     0.293 HD
ENDBRANCH   6  24
BRANCH   8  26
ATOM     26  O   UNL     1       0.285 -14.231   8.878  1.00  0.00    -0.508 OA
ATOM     27  H   UNL     1       0.317 -13.280   9.228  1.00  0.00     0.293 HD
ENDBRANCH   8  26
TORSDOF 6
ENDMDL
MODEL 8
REMARK VINA RESULT:    -6.274      2.562      2.917
REMARK INTER + INTRA:          -7.889
REMARK INTER:                  -7.590
REMARK INTRA:                  -0.299
REMARK UNBOUND:                -0.331
REMARK SMILES O=c1c(O)c(-c2ccc(O)c(O)c2)oc2cc(O)cc(O)c12
REMARK SMILES IDX 5 1 3 2 2 3 1 4 22 5 20 6 19 7 17 8 16 9 15 10 14 11 6 12
REMARK SMILES IDX 7 13 8 14 9 15 13 16 11 17 10 18 12 20 4 22 21 24 18 26
REMARK H PARENT 10 19 12 21 4 23 21 25 18 27
REMARK Flexibility Score: inf
ROOT
ATOM      1  C   UNL     1       3.869 -18.036   6.815  1.00  0.00     0.180 A 
ATOM      2  C   UNL     1       2.529 -18.101   7.232  1.00  0.00     0.208 A 
ATOM      3  C   UNL     1       1.947 -16.976   7.836  1.00  0.00     0.238 A 
ATOM      4  O   UNL     1       0.726 -17.017   8.139  1.00  0.00    -0.285 OA
ATOM      5  C   UNL     1       2.727 -15.817   8.067  1.00  0.00     0.111 A 
ATOM      6  C   UNL     1       2.253 -14.633   8.711  1.00  0.00     0.134 A 
ATOM      7  C   UNL     1       3.086 -13.509   8.789  1.00  0.00     0.093 A 
ATOM      8  C   UNL     1       4.392 -13.546   8.305  1.00  0.00     0.123 A 
ATOM      9  C   UNL     1       4.884 -14.714   7.722  1.00  0.00     0.094 A 
ATOM     10  C   UNL     1       4.066 -15.840   7.595  1.00  0.00     0.146 A 
ATOM     11  O   UNL     1       4.566 -16.924   7.015  1.00  0.00    -0.452 OA
ENDROOT
BRANCH   1  12
ATOM     12  C   UNL     1       4.548 -19.175   6.158  1.00  0.00     0.025 A 
ATOM     13  C   UNL     1       4.333 -19.472   4.801  1.00  0.00     0.016 A 
ATOM     14  C   UNL     1       5.004 -20.539   4.195  1.00  0.00     0.051 A 
ATOM     15  C   UNL     1       5.908 -21.315   4.932  1.00  0.00     0.157 A 
ATOM     16  C   UNL     1       5.472 -19.943   6.886  1.00  0.00     0.062 A 
ATOM     17  C   UNL     1       6.144 -21.012   6.285  1.00  0.00     0.158 A 
BRANCH  15  18
ATOM     18  O   UNL     1       6.574 -22.379   4.327  1.00  0.00    -0.504 OA
ATOM     19  H   UNL     1       6.720 -22.412   3.325  1.00  0.00     0.293 HD
ENDBRANCH  15  18
BRANCH  17  20
ATOM     20  O   UNL     1       7.043 -21.759   7.044  1.00  0.00    -0.504 OA
ATOM     21  H   UNL     1       7.187 -21.587   8.032  1.00  0.00     0.293 HD
ENDBRANCH  17  20
ENDBRANCH   1  12
BRANCH   2  22
ATOM     22  O   UNL     1       1.797 -19.281   7.065  1.00  0.00    -0.502 OA
ATOM     23  H   UNL     1       2.218 -20.199   7.152  1.00  0.00     0.293 HD
ENDBRANCH   2  22
BRANCH   6  24
ATOM     24  O   UNL     1       0.995 -14.518   9.310  1.00  0.00    -0.507 OA
ATOM     25  H   UNL     1       0.439 -15.291   9.640  1.00  0.00     0.293 HD
ENDBRANCH   6  24
BRANCH   8  26
ATOM     26  O   UNL     1       5.198 -12.414   8.415  1.00  0.00    -0.508 OA
ATOM     27  H   UNL     1       4.800 -11.489   8.534  1.00  0.00     0.293 HD
ENDBRANCH   8  26
TORSDOF 6
ENDMDL
MODEL 9
REMARK VINA RESULT:    -6.116      2.357      7.338
REMARK INTER + INTRA:          -7.699
REMARK INTER:                  -7.528
REMARK INTRA:                  -0.171
REMARK UNBOUND:                -0.331
REMARK SMILES O=c1c(O)c(-c2ccc(O)c(O)c2)oc2cc(O)cc(O)c12
REMARK SMILES IDX 5 1 3 2 2 3 1 4 22 5 20 6 19 7 17 8 16 9 15 10 14 11 6 12
REMARK SMILES IDX 7 13 8 14 9 15 13 16 11 17 10 18 12 20 4 22 21 24 18 26
REMARK H PARENT 10 19 12 21 4 23 21 25 18 27
REMARK Flexibility Score: inf
ROOT
ATOM      1  C   UNL     1       3.748 -15.109   7.557  1.00  0.00     0.180 A 
ATOM      2  C   UNL     1       2.403 -15.433   7.802  1.00  0.00     0.208 A 
ATOM      3  C   UNL     1       2.037 -16.783   7.915  1.00  0.00     0.238 A 
ATOM      4  O   UNL     1       0.845 -17.063   8.208  1.00  0.00    -0.285 OA
ATOM      5  C   UNL     1       3.009 -17.796   7.727  1.00  0.00     0.111 A 
ATOM      6  C   UNL     1       2.741 -19.198   7.776  1.00  0.00     0.134 A 
ATOM      7  C   UNL     1       3.803 -20.107   7.681  1.00  0.00     0.093 A 
ATOM      8  C   UNL     1       5.110 -19.669   7.476  1.00  0.00     0.123 A 
ATOM      9  C   UNL     1       5.376 -18.304   7.372  1.00  0.00     0.094 A 
ATOM     10  C   UNL     1       4.344 -17.370   7.501  1.00  0.00     0.146 A 
ATOM     11  O   UNL     1       4.643 -16.080   7.418  1.00  0.00    -0.452 OA
ENDROOT
BRANCH   1  12
ATOM     12  C   UNL     1       4.214 -13.709   7.439  1.00  0.00     0.025 A 
ATOM     13  C   UNL     1       4.673 -13.190   6.217  1.00  0.00     0.016 A 
ATOM     14  C   UNL     1       5.084 -11.858   6.124  1.00  0.00     0.051 A 
ATOM     15  C   UNL     1       5.031 -11.021   7.247  1.00  0.00     0.157 A 
ATOM     16  C   UNL     1       4.142 -12.860   8.557  1.00  0.00     0.062 A 
ATOM     17  C   UNL     1       4.554 -11.527   8.468  1.00  0.00     0.158 A 
BRANCH  15  18
ATOM     18  O   UNL     1       5.444  -9.693   7.152  1.00  0.00    -0.504 OA
ATOM     19  H   UNL     1       6.189  -9.413   6.525  1.00  0.00     0.293 HD
ENDBRANCH  15  18
BRANCH  17  20
ATOM     20  O   UNL     1       4.481 -10.719   9.603  1.00  0.00    -0.504 OA
ATOM     21  H   UNL     1       4.047 -11.036  10.462  1.00  0.00     0.293 HD
ENDBRANCH  17  20
ENDBRANCH   1  12
BRANCH   2  22
ATOM     22  O   UNL     1       1.444 -14.421   7.908  1.00  0.00    -0.502 OA
ATOM     23  H   UNL     1       0.452 -14.599   7.806  1.00  0.00     0.293 HD
ENDBRANCH   2  22
BRANCH   6  24
ATOM     24  O   UNL     1       1.461 -19.748   7.888  1.00  0.00    -0.507 OA
ATOM     25  H   UNL     1       0.621 -19.340   7.506  1.00  0.00     0.293 HD
ENDBRANCH   6  24
BRANCH   8  26
ATOM     26  O   UNL     1       6.139 -20.603   7.369  1.00  0.00    -0.508 OA
ATOM     27  H   UNL     1       5.949 -21.588   7.227  1.00  0.00     0.293 HD
ENDBRANCH   8  26
TORSDOF 6
ENDMDL
