MODEL 1
REMARK VINA RESULT:    -4.874      0.000      0.000
REMARK INTER + INTRA:          -9.834
REMARK INTER:                  -8.293
REMARK INTRA:                  -1.542
REMARK UNBOUND:                -1.542
REMARK SMILES CCCCCCCCCCCCCC(=O)[O-]
REMARK SMILES IDX 8 1 9 2 10 3 11 4 12 5 13 6 14 7 15 8 16 9 7 10 6 11 5 12
REMARK SMILES IDX 4 13 3 14 2 15 1 16
REMARK H PARENT
REMARK Flexibility Score: inf
ROOT
ATOM      1  C   UNL     1      43.373 -12.439 -43.253  1.00  0.00     0.000 C 
ENDROOT
BRANCH   1   2
ATOM      2  C   UNL     1      43.748 -11.299 -42.288  1.00  0.00     0.000 C 
BRANCH   2   3
ATOM      3  C   UNL     1      43.745 -11.744 -40.817  1.00  0.00     0.000 C 
BRANCH   3   4
ATOM      4  C   UNL     1      44.224 -10.634 -39.865  1.00  0.00     0.000 C 
BRANCH   4   5
ATOM      5  C   UNL     1      43.066  -9.975 -39.098  1.00  0.00     0.006 C 
BRANCH   5   6
ATOM      6  C   UNL     1      41.972 -10.975 -38.701  1.00  0.00     0.053 C 
BRANCH   6   7
ATOM      7  C   UNL     1      42.089 -11.328 -37.252  1.00  0.00     0.041 C 
ATOM      8  O   UNL     1      41.171 -11.974 -36.681  1.00  0.00    -0.550 OA
ATOM      9  O   UNL     1      43.188 -10.901 -36.519  1.00  0.00    -0.550 OA
ENDBRANCH   6   7
ENDBRANCH   5   6
ENDBRANCH   4   5
ENDBRANCH   3   4
ENDBRANCH   2   3
ENDBRANCH   1   2
BRANCH   1  10
ATOM     10  C   UNL     1      43.560 -12.053 -44.729  1.00  0.00     0.000 C 
BRANCH  10  11
ATOM     11  C   UNL     1      42.239 -11.647 -45.404  1.00  0.00    -0.000 C 
BRANCH  11  12
ATOM     12  C   UNL     1      41.006 -12.063 -44.585  1.00  0.00    -0.000 C 
BRANCH  12  13
ATOM     13  C   UNL     1      40.108 -10.872 -44.216  1.00  0.00    -0.000 C 
BRANCH  13  14
ATOM     14  C   UNL     1      40.869  -9.547 -44.369  1.00  0.00    -0.000 C 
BRANCH  14  15
ATOM     15  C   UNL     1      41.260  -8.930 -43.016  1.00  0.00    -0.003 C 
ATOM     16  C   UNL     1      40.495  -9.546 -41.844  1.00  0.00     0.004 C 
ENDBRANCH  14  15
ENDBRANCH  13  14
ENDBRANCH  12  13
ENDBRANCH  11  12
ENDBRANCH  10  11
ENDBRANCH   1  10
TORSDOF 12
ENDMDL
MODEL 2
REMARK VINA RESULT:    -4.785      4.813      8.894
REMARK INTER + INTRA:          -9.683
REMARK INTER:                  -7.940
REMARK INTRA:                  -1.743
REMARK UNBOUND:                -1.542
REMARK SMILES CCCCCCCCCCCCCC(=O)[O-]
REMARK SMILES IDX 8 1 9 2 10 3 11 4 12 5 13 6 14 7 15 8 16 9 7 10 6 11 5 12
REMARK SMILES IDX 4 13 3 14 2 15 1 16
REMARK H PARENT
REMARK Flexibility Score: inf
ROOT
ATOM      1  C   UNL     1      43.891 -13.302 -32.767  1.00  0.00     0.000 C 
ENDROOT
BRANCH   1   2
ATOM      2  C   UNL     1      43.456 -12.343 -33.891  1.00  0.00     0.000 C 
BRANCH   2   3
ATOM      3  C   UNL     1      42.360 -12.939 -34.788  1.00  0.00     0.000 C 
BRANCH   3   4
ATOM      4  C   UNL     1      42.357 -12.329 -36.200  1.00  0.00     0.000 C 
BRANCH   4   5
ATOM      5  C   UNL     1      43.409 -11.221 -36.366  1.00  0.00     0.006 C 
BRANCH   5   6
ATOM      6  C   UNL     1      43.503 -10.703 -37.807  1.00  0.00     0.053 C 
BRANCH   6   7
ATOM      7  C   UNL     1      42.331  -9.830 -38.125  1.00  0.00     0.041 C 
ATOM      8  O   UNL     1      42.245  -8.677 -37.623  1.00  0.00    -0.550 OA
ATOM      9  O   UNL     1      41.309 -10.305 -38.935  1.00  0.00    -0.550 OA
ENDBRANCH   6   7
ENDBRANCH   5   6
ENDBRANCH   4   5
ENDBRANCH   3   4
ENDBRANCH   2   3
ENDBRANCH   1   2
BRANCH   1  10
ATOM     10  C   UNL     1      44.215 -14.713 -33.285  1.00  0.00     0.000 C 
BRANCH  10  11
ATOM     11  C   UNL     1      45.612 -15.192 -32.855  1.00  0.00    -0.000 C 
BRANCH  11  12
ATOM     12  C   UNL     1      46.598 -14.029 -32.654  1.00  0.00    -0.000 C 
BRANCH  12  13
ATOM     13  C   UNL     1      47.601 -13.893 -33.810  1.00  0.00    -0.000 C 
BRANCH  13  14
ATOM     14  C   UNL     1      46.999 -13.074 -34.961  1.00  0.00    -0.000 C 
BRANCH  14  15
ATOM     15  C   UNL     1      46.952 -13.857 -36.283  1.00  0.00    -0.003 C 
ATOM     16  C   UNL     1      45.531 -14.248 -36.688  1.00  0.00     0.004 C 
ENDBRANCH  14  15
ENDBRANCH  13  14
ENDBRANCH  12  13
ENDBRANCH  11  12
ENDBRANCH  10  11
ENDBRANCH   1  10
TORSDOF 12
ENDMDL
MODEL 3
REMARK VINA RESULT:    -4.740      4.284      6.519
REMARK INTER + INTRA:          -9.607
REMARK INTER:                  -7.846
REMARK INTRA:                  -1.761
REMARK UNBOUND:                -1.542
REMARK SMILES CCCCCCCCCCCCCC(=O)[O-]
REMARK SMILES IDX 8 1 9 2 10 3 11 4 12 5 13 6 14 7 15 8 16 9 7 10 6 11 5 12
REMARK SMILES IDX 4 13 3 14 2 15 1 16
REMARK H PARENT
REMARK Flexibility Score: inf
ROOT
ATOM      1  C   UNL     1      45.030 -12.336 -39.998  1.00  0.00     0.000 C 
ENDROOT
BRANCH   1   2
ATOM      2  C   UNL     1      46.507 -12.167 -39.599  1.00  0.00     0.000 C 
BRANCH   2   3
ATOM      3  C   UNL     1      46.912 -13.076 -38.427  1.00  0.00     0.000 C 
BRANCH   3   4
ATOM      4  C   UNL     1      45.864 -14.164 -38.136  1.00  0.00     0.000 C 
BRANCH   4   5
ATOM      5  C   UNL     1      45.734 -14.471 -36.635  1.00  0.00     0.006 C 
BRANCH   5   6
ATOM      6  C   UNL     1      46.716 -13.661 -35.778  1.00  0.00     0.053 C 
BRANCH   6   7
ATOM      7  C   UNL     1      46.525 -13.976 -34.328  1.00  0.00     0.041 C 
ATOM      8  O   UNL     1      45.794 -14.942 -33.980  1.00  0.00    -0.550 OA
ATOM      9  O   UNL     1      47.113 -13.175 -33.358  1.00  0.00    -0.550 OA
ENDBRANCH   6   7
ENDBRANCH   5   6
ENDBRANCH   4   5
ENDBRANCH   3   4
ENDBRANCH   2   3
ENDBRANCH   1   2
BRANCH   1  10
ATOM     10  C   UNL     1      44.237 -11.022 -39.903  1.00  0.00     0.000 C 
BRANCH  10  11
ATOM     11  C   UNL     1      42.979 -11.155 -39.027  1.00  0.00    -0.000 C 
BRANCH  11  12
ATOM     12  C   UNL     1      43.156 -10.514 -37.641  1.00  0.00    -0.000 C 
BRANCH  12  13
ATOM     13  C   UNL     1      43.661 -11.510 -36.585  1.00  0.00    -0.000 C 
BRANCH  13  14
ATOM     14  C   UNL     1      42.526 -12.433 -36.118  1.00  0.00    -0.000 C 
BRANCH  14  15
ATOM     15  C   UNL     1      42.817 -13.085 -34.757  1.00  0.00    -0.003 C 
ATOM     16  C   UNL     1      43.340 -12.087 -33.723  1.00  0.00     0.004 C 
ENDBRANCH  14  15
ENDBRANCH  13  14
ENDBRANCH  12  13
ENDBRANCH  11  12
ENDBRANCH  10  11
ENDBRANCH   1  10
TORSDOF 12
ENDMDL
MODEL 4
REMARK VINA RESULT:    -4.649      5.557      9.391
REMARK INTER + INTRA:          -9.452
REMARK INTER:                  -7.507
REMARK INTRA:                  -1.945
REMARK UNBOUND:                -1.542
REMARK SMILES CCCCCCCCCCCCCC(=O)[O-]
REMARK SMILES IDX 8 1 9 2 10 3 11 4 12 5 13 6 14 7 15 8 16 9 7 10 6 11 5 12
REMARK SMILES IDX 4 13 3 14 2 15 1 16
REMARK H PARENT
REMARK Flexibility Score: inf
ROOT
ATOM      1  C   UNL     1      46.135 -15.359 -32.632  1.00  0.00     0.000 C 
ENDROOT
BRANCH   1   2
ATOM      2  C   UNL     1      44.877 -14.995 -33.444  1.00  0.00     0.000 C 
BRANCH   2   3
ATOM      3  C   UNL     1      44.761 -13.486 -33.712  1.00  0.00     0.000 C 
BRANCH   3   4
ATOM      4  C   UNL     1      44.146 -13.177 -35.088  1.00  0.00     0.000 C 
BRANCH   4   5
ATOM      5  C   UNL     1      44.447 -11.745 -35.560  1.00  0.00     0.006 C 
BRANCH   5   6
ATOM      6  C   UNL     1      44.157 -11.540 -37.052  1.00  0.00     0.053 C 
BRANCH   6   7
ATOM      7  C   UNL     1      42.825 -10.886 -37.239  1.00  0.00     0.041 C 
ATOM      8  O   UNL     1      42.755  -9.660 -37.523  1.00  0.00    -0.550 OA
ATOM      9  O   UNL     1      41.659 -11.615 -37.053  1.00  0.00    -0.550 OA
ENDBRANCH   6   7
ENDBRANCH   5   6
ENDBRANCH   4   5
ENDBRANCH   3   4
ENDBRANCH   2   3
ENDBRANCH   1   2
BRANCH   1  10
ATOM     10  C   UNL     1      47.013 -14.136 -32.321  1.00  0.00     0.000 C 
BRANCH  10  11
ATOM     11  C   UNL     1      48.513 -14.429 -32.493  1.00  0.00    -0.000 C 
BRANCH  11  12
ATOM     12  C   UNL     1      48.976 -14.300 -33.954  1.00  0.00    -0.000 C 
BRANCH  12  13
ATOM     13  C   UNL     1      48.647 -12.928 -34.562  1.00  0.00    -0.000 C 
BRANCH  13  14
ATOM     14  C   UNL     1      48.062 -13.083 -35.974  1.00  0.00    -0.000 C 
BRANCH  14  15
ATOM     15  C   UNL     1      47.430 -14.465 -36.204  1.00  0.00    -0.003 C 
ATOM     16  C   UNL     1      46.645 -14.546 -37.513  1.00  0.00     0.004 C 
ENDBRANCH  14  15
ENDBRANCH  13  14
ENDBRANCH  12  13
ENDBRANCH  11  12
ENDBRANCH  10  11
ENDBRANCH   1  10
TORSDOF 12
ENDMDL
MODEL 5
REMARK VINA RESULT:    -4.648      3.592      5.918
REMARK INTER + INTRA:          -9.450
REMARK INTER:                  -7.793
REMARK INTRA:                  -1.657
REMARK UNBOUND:                -1.542
REMARK SMILES CCCCCCCCCCCCCC(=O)[O-]
REMARK SMILES IDX 8 1 9 2 10 3 11 4 12 5 13 6 14 7 15 8 16 9 7 10 6 11 5 12
REMARK SMILES IDX 4 13 3 14 2 15 1 16
REMARK H PARENT
REMARK Flexibility Score: inf
ROOT
ATOM      1  C   UNL     1      41.665 -11.241 -37.657  1.00  0.00     0.000 C 
ENDROOT
BRANCH   1   2
ATOM      2  C   UNL     1      42.560 -12.129 -36.773  1.00  0.00     0.000 C 
BRANCH   2   3
ATOM      3  C   UNL     1      43.761 -11.365 -36.192  1.00  0.00     0.000 C 
BRANCH   3   4
ATOM      4  C   UNL     1      44.386 -12.081 -34.982  1.00  0.00     0.000 C 
BRANCH   4   5
ATOM      5  C   UNL     1      43.981 -13.562 -34.900  1.00  0.00     0.006 C 
BRANCH   5   6
ATOM      6  C   UNL     1      45.144 -14.512 -35.216  1.00  0.00     0.053 C 
BRANCH   6   7
ATOM      7  C   UNL     1      46.068 -14.613 -34.044  1.00  0.00     0.041 C 
ATOM      8  O   UNL     1      45.641 -15.033 -32.936  1.00  0.00    -0.550 OA
ATOM      9  O   UNL     1      47.388 -14.199 -34.161  1.00  0.00    -0.550 OA
ENDBRANCH   6   7
ENDBRANCH   5   6
ENDBRANCH   4   5
ENDBRANCH   3   4
ENDBRANCH   2   3
ENDBRANCH   1   2
BRANCH   1  10
ATOM     10  C   UNL     1      42.272  -9.852 -37.911  1.00  0.00     0.000 C 
BRANCH  10  11
ATOM     11  C   UNL     1      42.446  -9.551 -39.410  1.00  0.00    -0.000 C 
BRANCH  11  12
ATOM     12  C   UNL     1      42.346 -10.814 -40.281  1.00  0.00    -0.000 C 
BRANCH  12  13
ATOM     13  C   UNL     1      43.631 -11.090 -41.077  1.00  0.00    -0.000 C 
BRANCH  13  14
ATOM     14  C   UNL     1      44.393 -12.286 -40.485  1.00  0.00    -0.000 C 
BRANCH  14  15
ATOM     15  C   UNL     1      45.449 -11.860 -39.452  1.00  0.00    -0.003 C 
ATOM     16  C   UNL     1      46.027 -13.044 -38.676  1.00  0.00     0.004 C 
ENDBRANCH  14  15
ENDBRANCH  13  14
ENDBRANCH  12  13
ENDBRANCH  11  12
ENDBRANCH  10  11
ENDBRANCH   1  10
TORSDOF 12
ENDMDL
MODEL 6
REMARK VINA RESULT:    -4.604      3.423      5.510
REMARK INTER + INTRA:          -9.375
REMARK INTER:                  -7.752
REMARK INTRA:                  -1.622
REMARK UNBOUND:                -1.542
REMARK SMILES CCCCCCCCCCCCCC(=O)[O-]
REMARK SMILES IDX 8 1 9 2 10 3 11 4 12 5 13 6 14 7 15 8 16 9 7 10 6 11 5 12
REMARK SMILES IDX 4 13 3 14 2 15 1 16
REMARK H PARENT
REMARK Flexibility Score: inf
ROOT
ATOM      1  C   UNL     1      45.813 -13.542 -38.783  1.00  0.00     0.000 C 
ENDROOT
BRANCH   1   2
ATOM      2  C   UNL     1      46.642 -13.265 -37.516  1.00  0.00     0.000 C 
BRANCH   2   3
ATOM      3  C   UNL     1      45.803 -13.344 -36.230  1.00  0.00     0.000 C 
BRANCH   3   4
ATOM      4  C   UNL     1      44.629 -14.332 -36.352  1.00  0.00     0.000 C 
BRANCH   4   5
ATOM      5  C   UNL     1      43.749 -14.360 -35.092  1.00  0.00     0.006 C 
BRANCH   5   6
ATOM      6  C   UNL     1      44.537 -14.052 -33.812  1.00  0.00     0.053 C 
BRANCH   6   7
ATOM      7  C   UNL     1      43.888 -12.937 -33.056  1.00  0.00     0.041 C 
ATOM      8  O   UNL     1      43.315 -12.001 -33.675  1.00  0.00    -0.550 OA
ATOM      9  O   UNL     1      43.957 -12.904 -31.669  1.00  0.00    -0.550 OA
ENDBRANCH   6   7
ENDBRANCH   5   6
ENDBRANCH   4   5
ENDBRANCH   3   4
ENDBRANCH   2   3
ENDBRANCH   1   2
BRANCH   1  10
ATOM     10  C   UNL     1      45.766 -12.336 -39.736  1.00  0.00     0.000 C 
BRANCH  10  11
ATOM     11  C   UNL     1      44.474 -12.294 -40.570  1.00  0.00    -0.000 C 
BRANCH  11  12
ATOM     12  C   UNL     1      43.846 -10.890 -40.615  1.00  0.00    -0.000 C 
BRANCH  12  13
ATOM     13  C   UNL     1      42.756 -10.692 -39.551  1.00  0.00    -0.000 C 
BRANCH  13  14
ATOM     14  C   UNL     1      43.339 -10.042 -38.287  1.00  0.00    -0.000 C 
BRANCH  14  15
ATOM     15  C   UNL     1      43.149 -10.913 -37.034  1.00  0.00    -0.003 C 
ATOM     16  C   UNL     1      41.891 -11.779 -37.102  1.00  0.00     0.004 C 
ENDBRANCH  14  15
ENDBRANCH  13  14
ENDBRANCH  12  13
ENDBRANCH  11  12
ENDBRANCH  10  11
ENDBRANCH   1  10
TORSDOF 12
ENDMDL
MODEL 7
REMARK VINA RESULT:    -4.601      5.139      8.761
REMARK INTER + INTRA:          -9.371
REMARK INTER:                  -7.612
REMARK INTRA:                  -1.759
REMARK UNBOUND:                -1.542
REMARK SMILES CCCCCCCCCCCCCC(=O)[O-]
REMARK SMILES IDX 8 1 9 2 10 3 11 4 12 5 13 6 14 7 15 8 16 9 7 10 6 11 5 12
REMARK SMILES IDX 4 13 3 14 2 15 1 16
REMARK H PARENT
REMARK Flexibility Score: inf
ROOT
ATOM      1  C   UNL     1      48.450 -14.179 -33.695  1.00  0.00     0.000 C 
ENDROOT
BRANCH   1   2
ATOM      2  C   UNL     1      48.701 -13.798 -35.165  1.00  0.00     0.000 C 
BRANCH   2   3
ATOM      3  C   UNL     1      47.410 -13.410 -35.905  1.00  0.00     0.000 C 
BRANCH   3   4
ATOM      4  C   UNL     1      47.028 -14.427 -36.995  1.00  0.00     0.000 C 
BRANCH   4   5
ATOM      5  C   UNL     1      45.974 -13.877 -37.970  1.00  0.00     0.006 C 
BRANCH   5   6
ATOM      6  C   UNL     1      46.520 -12.752 -38.860  1.00  0.00     0.053 C 
BRANCH   6   7
ATOM      7  C   UNL     1      45.397 -12.013 -39.514  1.00  0.00     0.041 C 
ATOM      8  O   UNL     1      44.853 -12.476 -40.553  1.00  0.00    -0.550 OA
ATOM      9  O   UNL     1      44.980 -10.789 -39.008  1.00  0.00    -0.550 OA
ENDBRANCH   6   7
ENDBRANCH   5   6
ENDBRANCH   4   5
ENDBRANCH   3   4
ENDBRANCH   2   3
ENDBRANCH   1   2
BRANCH   1  10
ATOM     10  C   UNL     1      47.032 -13.819 -33.222  1.00  0.00     0.000 C 
BRANCH  10  11
ATOM     11  C   UNL     1      46.245 -15.047 -32.734  1.00  0.00    -0.000 C 
BRANCH  11  12
ATOM     12  C   UNL     1      44.840 -15.132 -33.355  1.00  0.00    -0.000 C 
BRANCH  12  13
ATOM     13  C   UNL     1      44.384 -13.804 -33.978  1.00  0.00    -0.000 C 
BRANCH  13  14
ATOM     14  C   UNL     1      43.537 -14.054 -35.235  1.00  0.00    -0.000 C 
BRANCH  14  15
ATOM     15  C   UNL     1      43.132 -12.751 -35.943  1.00  0.00    -0.003 C 
ATOM     16  C   UNL     1      44.107 -11.604 -35.673  1.00  0.00     0.004 C 
ENDBRANCH  14  15
ENDBRANCH  13  14
ENDBRANCH  12  13
ENDBRANCH  11  12
ENDBRANCH  10  11
ENDBRANCH   1  10
TORSDOF 12
ENDMDL
MODEL 8
REMARK VINA RESULT:    -4.584      3.850      8.026
REMARK INTER + INTRA:          -9.341
REMARK INTER:                  -7.761
REMARK INTRA:                  -1.580
REMARK UNBOUND:                -1.542
REMARK SMILES CCCCCCCCCCCCCC(=O)[O-]
REMARK SMILES IDX 8 1 9 2 10 3 11 4 12 5 13 6 14 7 15 8 16 9 7 10 6 11 5 12
REMARK SMILES IDX 4 13 3 14 2 15 1 16
REMARK H PARENT
REMARK Flexibility Score: inf
ROOT
ATOM      1  C   UNL     1      42.451 -12.399 -36.124  1.00  0.00     0.000 C 
ENDROOT
BRANCH   1   2
ATOM      2  C   UNL     1      43.553 -11.323 -36.100  1.00  0.00     0.000 C 
BRANCH   2   3
ATOM      3  C   UNL     1      43.863 -10.761 -37.496  1.00  0.00     0.000 C 
BRANCH   3   4
ATOM      4  C   UNL     1      42.656 -10.040 -38.123  1.00  0.00     0.000 C 
BRANCH   4   5
ATOM      5  C   UNL     1      42.138 -10.747 -39.386  1.00  0.00     0.006 C 
BRANCH   5   6
ATOM      6  C   UNL     1      43.225 -11.566 -40.095  1.00  0.00     0.053 C 
BRANCH   6   7
ATOM      7  C   UNL     1      43.504 -10.999 -41.451  1.00  0.00     0.041 C 
ATOM      8  O   UNL     1      43.501  -9.751 -41.628  1.00  0.00    -0.550 OA
ATOM      9  O   UNL     1      43.720 -11.846 -42.529  1.00  0.00    -0.550 OA
ENDBRANCH   6   7
ENDBRANCH   5   6
ENDBRANCH   4   5
ENDBRANCH   3   4
ENDBRANCH   2   3
ENDBRANCH   1   2
BRANCH   1  10
ATOM     10  C   UNL     1      42.421 -13.246 -34.842  1.00  0.00     0.000 C 
BRANCH  10  11
ATOM     11  C   UNL     1      43.444 -12.769 -33.796  1.00  0.00    -0.000 C 
BRANCH  11  12
ATOM     12  C   UNL     1      44.282 -13.923 -33.222  1.00  0.00    -0.000 C 
BRANCH  12  13
ATOM     13  C   UNL     1      45.156 -14.609 -34.283  1.00  0.00    -0.000 C 
BRANCH  13  14
ATOM     14  C   UNL     1      46.228 -13.646 -34.813  1.00  0.00    -0.000 C 
BRANCH  14  15
ATOM     15  C   UNL     1      46.630 -13.951 -36.265  1.00  0.00    -0.003 C 
ATOM     16  C   UNL     1      45.438 -14.344 -37.138  1.00  0.00     0.004 C 
ENDBRANCH  14  15
ENDBRANCH  13  14
ENDBRANCH  12  13
ENDBRANCH  11  12
ENDBRANCH  10  11
ENDBRANCH   1  10
TORSDOF 12
ENDMDL
MODEL 9
REMARK VINA RESULT:    -4.560      4.942      7.180
REMARK INTER + INTRA:          -9.301
REMARK INTER:                  -7.807
REMARK INTRA:                  -1.494
REMARK UNBOUND:                -1.542
REMARK SMILES CCCCCCCCCCCCCC(=O)[O-]
REMARK SMILES IDX 8 1 9 2 10 3 11 4 12 5 13 6 14 7 15 8 16 9 7 10 6 11 5 12
REMARK SMILES IDX 4 13 3 14 2 15 1 16
REMARK H PARENT
REMARK Flexibility Score: inf
ROOT
ATOM      1  C   UNL     1      45.821 -13.498 -38.896  1.00  0.00     0.000 C 
ENDROOT
BRANCH   1   2
ATOM      2  C   UNL     1      46.642 -13.329 -37.604  1.00  0.00     0.000 C 
BRANCH   2   3
ATOM      3  C   UNL     1      46.214 -14.307 -36.498  1.00  0.00     0.000 C 
BRANCH   3   4
ATOM      4  C   UNL     1      46.999 -14.100 -35.191  1.00  0.00     0.000 C 
BRANCH   4   5
ATOM      5  C   UNL     1      46.227 -14.591 -33.956  1.00  0.00     0.006 C 
BRANCH   5   6
ATOM      6  C   UNL     1      46.220 -13.566 -32.814  1.00  0.00     0.053 C 
BRANCH   6   7
ATOM      7  C   UNL     1      47.525 -13.589 -32.085  1.00  0.00     0.041 C 
ATOM      8  O   UNL     1      48.158 -14.671 -31.953  1.00  0.00    -0.550 OA
ATOM      9  O   UNL     1      48.021 -12.428 -31.507  1.00  0.00    -0.550 OA
ENDBRANCH   6   7
ENDBRANCH   5   6
ENDBRANCH   4   5
ENDBRANCH   3   4
ENDBRANCH   2   3
ENDBRANCH   1   2
BRANCH   1  10
ATOM     10  C   UNL     1      45.677 -12.185 -39.683  1.00  0.00     0.000 C 
BRANCH  10  11
ATOM     11  C   UNL     1      44.275 -11.568 -39.547  1.00  0.00    -0.000 C 
BRANCH  11  12
ATOM     12  C   UNL     1      44.259 -10.335 -38.628  1.00  0.00    -0.000 C 
BRANCH  12  13
ATOM     13  C   UNL     1      43.245 -10.461 -37.481  1.00  0.00    -0.000 C 
BRANCH  13  14
ATOM     14  C   UNL     1      43.815 -11.317 -36.340  1.00  0.00    -0.000 C 
BRANCH  14  15
ATOM     15  C   UNL     1      42.975 -12.576 -36.070  1.00  0.00    -0.003 C 
ATOM     16  C   UNL     1      42.904 -12.931 -34.585  1.00  0.00     0.004 C 
ENDBRANCH  14  15
ENDBRANCH  13  14
ENDBRANCH  12  13
ENDBRANCH  11  12
ENDBRANCH  10  11
ENDBRANCH   1  10
TORSDOF 12
ENDMDL
