MODEL 1
REMARK VINA RESULT:    -4.066      0.000      0.000
REMARK INTER + INTRA:          -5.288
REMARK INTER:                  -5.730
REMARK INTRA:                   0.442
REMARK UNBOUND:                 0.442
REMARK SMILES CC1=CCC(=C(C)C)C(=O)CC(C)=CCC1
REMARK SMILES IDX 12 1 14 2 13 3 15 4 16 5 2 6 1 7 3 8 11 10 9 11 10 12 5 13
REMARK SMILES IDX 6 14 7 15 8 16 4 17
REMARK H PARENT
REMARK Flexibility Score: 60.00
ROOT
ATOM      1  C   UNL     1      -1.737  -0.170  27.611  1.00  0.00    -0.070 C 
ATOM      2  C   UNL     1      -0.598   0.544  27.742  1.00  0.00    -0.027 C 
ATOM      3  C   UNL     1      -2.127  -0.631  26.229  1.00  0.00     0.039 C 
ENDROOT
BRANCH   2   4
ATOM      4  C   UNL     1       0.007   1.010  29.049  1.00  0.00     0.032 C 
BRANCH   4   5
ATOM      5  C   UNL     1       0.125   2.541  29.199  1.00  0.00     0.034 C 
BRANCH   5   6
ATOM      6  C   UNL     1      -1.169   3.273  28.889  1.00  0.00    -0.077 C 
ATOM      7  C   UNL     1      -1.171   4.230  27.723  1.00  0.00     0.039 C 
ATOM      8  C   UNL     1      -2.337   3.071  29.546  1.00  0.00    -0.023 CG0
ATOM      9  G   UNL     1      -2.568   2.178  30.749  1.00  0.00     0.000 G0
ENDBRANCH   5   6
ENDBRANCH   4   5
ENDBRANCH   2   4
BRANCH   1  10
ATOM     10  C   UNL     1      -2.586  -0.606  28.788  1.00  0.00     0.111 C 
BRANCH  10  11
ATOM     11  C   UNL     1      -3.587   0.451  29.175  1.00  0.00     0.163 C 
ATOM     12  O   UNL     1      -4.483   0.754  28.342  1.00  0.00    -0.294 OA
BRANCH  11  13
ATOM     13  C   UNL     1      -3.587   1.099  30.520  1.00  0.00    -0.002 C 
ATOM     14  C   UNL     1      -4.426   0.661  31.507  1.00  0.00    -0.069 C 
ATOM     15  C   UNL     1      -5.486  -0.381  31.229  1.00  0.00     0.039 C 
ATOM     16  C   UNL     1      -4.341   1.189  32.922  1.00  0.00     0.039 C 
BRANCH  13  17
ATOM     17  C   UNL     1      -2.557   2.191  30.766  1.00  0.00     0.066 CG0
ATOM     18  G   UNL     1      -2.356   3.078  29.554  1.00  0.00     0.000 G0
ENDBRANCH  13  17
ENDBRANCH  11  13
ENDBRANCH  10  11
ENDBRANCH   1  10
TORSDOF 0
ENDMDL
MODEL 2
REMARK VINA RESULT:    -4.059      1.558      3.122
REMARK INTER + INTRA:          -5.277
REMARK INTER:                  -5.690
REMARK INTRA:                   0.412
REMARK UNBOUND:                 0.442
REMARK SMILES CC1=CCC(=C(C)C)C(=O)CC(C)=CCC1
REMARK SMILES IDX 12 1 14 2 13 3 15 4 16 5 2 6 1 7 3 8 11 10 9 11 10 12 5 13
REMARK SMILES IDX 6 14 7 15 8 16 4 17
REMARK H PARENT
REMARK Flexibility Score: 60.00
ROOT
ATOM      1  C   UNL     1      -0.886   2.544  29.219  1.00  0.00    -0.070 C 
ATOM      2  C   UNL     1      -0.447   1.705  28.255  1.00  0.00    -0.027 C 
ATOM      3  C   UNL     1      -0.860   4.024  28.934  1.00  0.00     0.039 C 
ENDROOT
BRANCH   2   4
ATOM      4  C   UNL     1      -0.484   0.194  28.315  1.00  0.00     0.032 C 
BRANCH   4   5
ATOM      5  C   UNL     1      -1.367  -0.477  27.242  1.00  0.00     0.034 C 
BRANCH   5   6
ATOM      6  C   UNL     1      -2.754   0.134  27.145  1.00  0.00    -0.077 C 
ATOM      7  C   UNL     1      -3.163   0.738  25.825  1.00  0.00     0.039 C 
ATOM      8  C   UNL     1      -3.671   0.109  28.143  1.00  0.00    -0.023 CG0
ATOM      9  G   UNL     1      -3.479  -0.424  29.549  1.00  0.00     0.000 G0
ENDBRANCH   5   6
ENDBRANCH   4   5
ENDBRANCH   2   4
BRANCH   1  10
ATOM     10  C   UNL     1      -1.485   2.067  30.527  1.00  0.00     0.111 C 
BRANCH  10  11
ATOM     11  C   UNL     1      -2.985   1.960  30.445  1.00  0.00     0.163 C 
ATOM     12  O   UNL     1      -3.640   3.001  30.168  1.00  0.00    -0.294 OA
BRANCH  11  13
ATOM     13  C   UNL     1      -3.707   0.665  30.619  1.00  0.00    -0.002 C 
ATOM     14  C   UNL     1      -4.585   0.487  31.651  1.00  0.00    -0.069 C 
ATOM     15  C   UNL     1      -4.740   1.528  32.737  1.00  0.00     0.039 C 
ATOM     16  C   UNL     1      -5.448  -0.751  31.764  1.00  0.00     0.039 C 
BRANCH  13  17
ATOM     17  C   UNL     1      -3.494  -0.398  29.553  1.00  0.00     0.066 CG0
ATOM     18  G   UNL     1      -3.681   0.147  28.150  1.00  0.00     0.000 G0
ENDBRANCH  13  17
ENDBRANCH  11  13
ENDBRANCH  10  11
ENDBRANCH   1  10
TORSDOF 0
ENDMDL
MODEL 3
REMARK VINA RESULT:    -3.942     11.733     13.254
REMARK INTER + INTRA:          -5.113
REMARK INTER:                  -5.260
REMARK INTRA:                   0.147
REMARK UNBOUND:                 0.442
REMARK SMILES CC1=CCC(=C(C)C)C(=O)CC(C)=CCC1
REMARK SMILES IDX 12 1 14 2 13 3 15 4 16 5 2 6 1 7 3 8 11 10 9 11 10 12 5 13
REMARK SMILES IDX 6 14 7 15 8 16 4 17
REMARK H PARENT
REMARK Flexibility Score: 60.00
ROOT
ATOM      1  C   UNL     1     -10.359  10.479  30.433  1.00  0.00    -0.070 C 
ATOM      2  C   UNL     1      -9.649   9.812  31.369  1.00  0.00    -0.027 C 
ATOM      3  C   UNL     1      -9.634  10.942  29.194  1.00  0.00     0.039 C 
ENDROOT
BRANCH   2   4
ATOM      4  C   UNL     1     -10.214   9.188  32.627  1.00  0.00     0.032 C 
BRANCH   4   5
ATOM      5  C   UNL     1     -10.825   7.785  32.437  1.00  0.00     0.034 C 
BRANCH   5   6
ATOM      6  C   UNL     1     -12.136   7.600  33.179  1.00  0.00    -0.077 C 
ATOM      7  C   UNL     1     -12.090   7.558  34.686  1.00  0.00     0.039 C 
ATOM      8  C   UNL     1     -13.351   7.539  32.580  1.00  0.00    -0.023 CG0
ATOM      9  G   UNL     1     -13.639   7.543  31.092  1.00  0.00     0.000 G0
ENDBRANCH   5   6
ENDBRANCH   4   5
ENDBRANCH   2   4
BRANCH   1  10
ATOM     10  C   UNL     1     -11.855  10.702  30.525  1.00  0.00     0.111 C 
BRANCH  10  11
ATOM     11  C   UNL     1     -12.625   9.577  29.886  1.00  0.00     0.163 C 
ATOM     12  O   UNL     1     -12.200   9.111  28.794  1.00  0.00    -0.294 OA
BRANCH  11  13
ATOM     13  C   UNL     1     -13.825   8.962  30.527  1.00  0.00    -0.002 C 
ATOM     14  C   UNL     1     -15.028   9.612  30.528  1.00  0.00    -0.069 C 
ATOM     15  C   UNL     1     -15.151  11.033  30.025  1.00  0.00     0.039 C 
ATOM     16  C   UNL     1     -16.294   8.952  31.026  1.00  0.00     0.039 C 
BRANCH  13  17
ATOM     17  C   UNL     1     -13.672   7.555  31.084  1.00  0.00     0.066 CG0
ATOM     18  G   UNL     1     -13.353   7.555  32.566  1.00  0.00     0.000 G0
ENDBRANCH  13  17
ENDBRANCH  11  13
ENDBRANCH  10  11
ENDBRANCH   1  10
TORSDOF 0
ENDMDL
MODEL 4
REMARK VINA RESULT:    -3.795     12.060     13.616
REMARK INTER + INTRA:          -4.906
REMARK INTER:                  -5.122
REMARK INTRA:                   0.217
REMARK UNBOUND:                 0.442
REMARK SMILES CC1=CCC(=C(C)C)C(=O)CC(C)=CCC1
REMARK SMILES IDX 12 1 14 2 13 3 15 4 16 5 2 6 1 7 3 8 11 10 9 11 10 12 5 13
REMARK SMILES IDX 6 14 7 15 8 16 4 17
REMARK H PARENT
REMARK Flexibility Score: 60.00
ROOT
ATOM      1  C   UNL     1     -15.606   7.966  31.495  1.00  0.00    -0.070 C 
ATOM      2  C   UNL     1     -16.007   8.925  30.631  1.00  0.00    -0.027 C 
ATOM      3  C   UNL     1     -16.333   6.645  31.471  1.00  0.00     0.039 C 
ENDROOT
BRANCH   2   4
ATOM      4  C   UNL     1     -15.346  10.272  30.438  1.00  0.00     0.032 C 
BRANCH   4   5
ATOM      5  C   UNL     1     -14.032  10.241  29.629  1.00  0.00     0.034 C 
BRANCH   5   6
ATOM      6  C   UNL     1     -12.931  11.083  30.247  1.00  0.00    -0.077 C 
ATOM      7  C   UNL     1     -13.164  12.569  30.359  1.00  0.00     0.039 C 
ATOM      8  C   UNL     1     -11.784  10.581  30.766  1.00  0.00    -0.023 CG0
ATOM      9  G   UNL     1     -11.330   9.134  30.751  1.00  0.00     0.000 G0
ENDBRANCH   5   6
ENDBRANCH   4   5
ENDBRANCH   2   4
BRANCH   1  10
ATOM     10  C   UNL     1     -14.412   8.121  32.415  1.00  0.00     0.111 C 
BRANCH  10  11
ATOM     11  C   UNL     1     -13.144   7.631  31.768  1.00  0.00     0.163 C 
ATOM     12  O   UNL     1     -13.213   6.625  31.012  1.00  0.00    -0.294 OA
BRANCH  11  13
ATOM     13  C   UNL     1     -11.835   8.328  31.941  1.00  0.00    -0.002 C 
ATOM     14  C   UNL     1     -11.110   8.179  33.091  1.00  0.00    -0.069 C 
ATOM     15  C   UNL     1     -11.675   7.439  34.283  1.00  0.00     0.039 C 
ATOM     16  C   UNL     1      -9.713   8.741  33.235  1.00  0.00     0.039 C 
BRANCH  13  17
ATOM     17  C   UNL     1     -11.307   9.122  30.756  1.00  0.00     0.066 CG0
ATOM     18  G   UNL     1     -11.791  10.559  30.763  1.00  0.00     0.000 G0
ENDBRANCH  13  17
ENDBRANCH  11  13
ENDBRANCH  10  11
ENDBRANCH   1  10
TORSDOF 0
ENDMDL
MODEL 5
REMARK VINA RESULT:    -3.690     11.594     13.298
REMARK INTER + INTRA:          -4.758
REMARK INTER:                  -5.010
REMARK INTRA:                   0.252
REMARK UNBOUND:                 0.442
REMARK SMILES CC1=CCC(=C(C)C)C(=O)CC(C)=CCC1
REMARK SMILES IDX 12 1 14 2 13 3 15 4 16 5 2 6 1 7 3 8 11 10 9 11 10 12 5 13
REMARK SMILES IDX 6 14 7 15 8 16 4 17
REMARK H PARENT
REMARK Flexibility Score: 60.00
ROOT
ATOM      1  C   UNL     1     -13.267  11.222  30.123  1.00  0.00    -0.070 C 
ATOM      2  C   UNL     1     -14.389  10.551  29.779  1.00  0.00    -0.027 C 
ATOM      3  C   UNL     1     -13.423  12.592  30.734  1.00  0.00     0.039 C 
ENDROOT
BRANCH   2   4
ATOM      4  C   UNL     1     -14.442   9.137  29.246  1.00  0.00     0.032 C 
BRANCH   4   5
ATOM      5  C   UNL     1     -14.830   8.065  30.286  1.00  0.00     0.034 C 
BRANCH   5   6
ATOM      6  C   UNL     1     -13.821   6.935  30.383  1.00  0.00    -0.077 C 
ATOM      7  C   UNL     1     -14.003   5.752  29.465  1.00  0.00     0.039 C 
ATOM      8  C   UNL     1     -12.732   6.950  31.189  1.00  0.00    -0.023 CG0
ATOM      9  G   UNL     1     -12.356   8.016  32.200  1.00  0.00     0.000 G0
ENDBRANCH   5   6
ENDBRANCH   4   5
ENDBRANCH   2   4
BRANCH   1  10
ATOM     10  C   UNL     1     -11.877  10.632  30.011  1.00  0.00     0.111 C 
BRANCH  10  11
ATOM     11  C   UNL     1     -11.329  10.239  31.358  1.00  0.00     0.163 C 
ATOM     12  O   UNL     1     -11.103  11.152  32.197  1.00  0.00    -0.294 OA
BRANCH  11  13
ATOM     13  C   UNL     1     -11.106   8.815  31.748  1.00  0.00    -0.002 C 
ATOM     14  C   UNL     1      -9.845   8.287  31.779  1.00  0.00    -0.069 C 
ATOM     15  C   UNL     1      -8.655   9.070  31.271  1.00  0.00     0.039 C 
ATOM     16  C   UNL     1      -9.570   6.901  32.319  1.00  0.00     0.039 C 
BRANCH  13  17
ATOM     17  C   UNL     1     -12.321   8.018  32.198  1.00  0.00     0.066 CG0
ATOM     18  G   UNL     1     -12.727   6.966  31.185  1.00  0.00     0.000 G0
ENDBRANCH  13  17
ENDBRANCH  11  13
ENDBRANCH  10  11
ENDBRANCH   1  10
TORSDOF 0
ENDMDL
MODEL 6
REMARK VINA RESULT:    -3.610      2.244      3.831
REMARK INTER + INTRA:          -4.646
REMARK INTER:                  -5.084
REMARK INTRA:                   0.438
REMARK UNBOUND:                 0.442
REMARK SMILES CC1=CCC(=C(C)C)C(=O)CC(C)=CCC1
REMARK SMILES IDX 12 1 14 2 13 3 15 4 16 5 2 6 1 7 3 8 11 10 9 11 10 12 5 13
REMARK SMILES IDX 6 14 7 15 8 16 4 17
REMARK H PARENT
REMARK Flexibility Score: 60.00
ROOT
ATOM      1  C   UNL     1      -1.265   0.253  27.183  1.00  0.00    -0.070 C 
ATOM      2  C   UNL     1      -0.925   0.148  28.486  1.00  0.00    -0.027 C 
ATOM      3  C   UNL     1      -1.301  -1.010  26.358  1.00  0.00     0.039 C 
ENDROOT
BRANCH   2   4
ATOM      4  C   UNL     1      -0.925   1.278  29.492  1.00  0.00     0.032 C 
BRANCH   4   5
ATOM      5  C   UNL     1      -1.964   1.137  30.625  1.00  0.00     0.034 C 
BRANCH   5   6
ATOM      6  C   UNL     1      -3.337   0.723  30.128  1.00  0.00    -0.077 C 
ATOM      7  C   UNL     1      -3.864  -0.621  30.563  1.00  0.00     0.039 C 
ATOM      8  C   UNL     1      -4.147   1.510  29.378  1.00  0.00    -0.023 CG0
ATOM      9  G   UNL     1      -3.825   2.880  28.813  1.00  0.00     0.000 G0
ENDBRANCH   5   6
ENDBRANCH   4   5
ENDBRANCH   2   4
BRANCH   1  10
ATOM     10  C   UNL     1      -1.699   1.553  26.538  1.00  0.00     0.111 C 
BRANCH  10  11
ATOM     11  C   UNL     1      -3.193   1.733  26.599  1.00  0.00     0.163 C 
ATOM     12  O   UNL     1      -3.920   0.836  26.094  1.00  0.00    -0.294 OA
BRANCH  11  13
ATOM     13  C   UNL     1      -3.833   2.895  27.284  1.00  0.00    -0.002 C 
ATOM     14  C   UNL     1      -4.469   3.868  26.564  1.00  0.00    -0.069 C 
ATOM     15  C   UNL     1      -4.414   3.888  25.053  1.00  0.00     0.039 C 
ATOM     16  C   UNL     1      -5.261   4.970  27.233  1.00  0.00     0.039 C 
BRANCH  13  17
ATOM     17  C   UNL     1      -3.827   2.895  28.805  1.00  0.00     0.066 CG0
ATOM     18  G   UNL     1      -4.129   1.526  29.382  1.00  0.00     0.000 G0
ENDBRANCH  13  17
ENDBRANCH  11  13
ENDBRANCH  10  11
ENDBRANCH   1  10
TORSDOF 0
ENDMDL
MODEL 7
REMARK VINA RESULT:    -3.581     10.231     12.100
REMARK INTER + INTRA:          -4.604
REMARK INTER:                  -5.017
REMARK INTRA:                   0.413
REMARK UNBOUND:                 0.442
REMARK SMILES CC1=CCC(=C(C)C)C(=O)CC(C)=CCC1
REMARK SMILES IDX 12 1 14 2 13 3 15 4 16 5 2 6 1 7 3 8 11 10 9 11 10 12 5 13
REMARK SMILES IDX 6 14 7 15 8 16 4 17
REMARK H PARENT
REMARK Flexibility Score: 60.00
ROOT
ATOM      1  C   UNL     1      -9.070   8.728  33.411  1.00  0.00    -0.070 C 
ATOM      2  C   UNL     1      -9.444   7.588  34.031  1.00  0.00    -0.027 C 
ATOM      3  C   UNL     1      -7.606   8.916  33.100  1.00  0.00     0.039 C 
ENDROOT
BRANCH   2   4
ATOM      4  C   UNL     1     -10.867   7.176  34.339  1.00  0.00     0.032 C 
BRANCH   4   5
ATOM      5  C   UNL     1     -11.308   5.841  33.703  1.00  0.00     0.034 C 
BRANCH   5   6
ATOM      6  C   UNL     1     -11.172   5.827  32.192  1.00  0.00    -0.077 C 
ATOM      7  C   UNL     1     -10.368   4.713  31.570  1.00  0.00     0.039 C 
ATOM      8  C   UNL     1     -11.783   6.707  31.361  1.00  0.00    -0.023 CG0
ATOM      9  G   UNL     1     -12.619   7.909  31.756  1.00  0.00     0.000 G0
ENDBRANCH   5   6
ENDBRANCH   4   5
ENDBRANCH   2   4
BRANCH   1  10
ATOM     10  C   UNL     1     -10.053   9.777  32.932  1.00  0.00     0.111 C 
BRANCH  10  11
ATOM     11  C   UNL     1     -10.581   9.459  31.558  1.00  0.00     0.163 C 
ATOM     12  O   UNL     1      -9.750   9.326  30.619  1.00  0.00    -0.294 OA
BRANCH  11  13
ATOM     13  C   UNL     1     -12.033   9.238  31.289  1.00  0.00    -0.002 C 
ATOM     14  C   UNL     1     -12.760  10.155  30.581  1.00  0.00    -0.069 C 
ATOM     15  C   UNL     1     -12.168  11.489  30.186  1.00  0.00     0.039 C 
ATOM     16  C   UNL     1     -14.187   9.888  30.156  1.00  0.00     0.039 C 
BRANCH  13  17
ATOM     17  C   UNL     1     -12.632   7.918  31.747  1.00  0.00     0.066 CG0
ATOM     18  G   UNL     1     -11.776   6.729  31.357  1.00  0.00     0.000 G0
ENDBRANCH  13  17
ENDBRANCH  11  13
ENDBRANCH  10  11
ENDBRANCH   1  10
TORSDOF 0
ENDMDL
MODEL 8
REMARK VINA RESULT:    -3.538     10.526     12.011
REMARK INTER + INTRA:          -4.544
REMARK INTER:                  -4.974
REMARK INTRA:                   0.430
REMARK UNBOUND:                 0.442
REMARK SMILES CC1=CCC(=C(C)C)C(=O)CC(C)=CCC1
REMARK SMILES IDX 12 1 14 2 13 3 15 4 16 5 2 6 1 7 3 8 11 10 9 11 10 12 5 13
REMARK SMILES IDX 6 14 7 15 8 16 4 17
REMARK H PARENT
REMARK Flexibility Score: 60.00
ROOT
ATOM      1  C   UNL     1     -11.420   6.516  32.558  1.00  0.00    -0.070 C 
ATOM      2  C   UNL     1     -10.528   6.805  33.532  1.00  0.00    -0.027 C 
ATOM      3  C   UNL     1     -11.386   5.134  31.957  1.00  0.00     0.039 C 
ENDROOT
BRANCH   2   4
ATOM      4  C   UNL     1     -10.468   8.095  34.320  1.00  0.00     0.032 C 
BRANCH   4   5
ATOM      5  C   UNL     1      -9.189   8.930  34.100  1.00  0.00     0.034 C 
BRANCH   5   6
ATOM      6  C   UNL     1      -8.777   9.018  32.642  1.00  0.00    -0.077 C 
ATOM      7  C   UNL     1      -7.511   8.311  32.227  1.00  0.00     0.039 C 
ATOM      8  C   UNL     1      -9.507   9.630  31.678  1.00  0.00    -0.023 CG0
ATOM      9  G   UNL     1     -10.792  10.413  31.861  1.00  0.00     0.000 G0
ENDBRANCH   5   6
ENDBRANCH   4   5
ENDBRANCH   2   4
BRANCH   1  10
ATOM     10  C   UNL     1     -12.503   7.477  32.111  1.00  0.00     0.111 C 
BRANCH  10  11
ATOM     11  C   UNL     1     -12.043   8.340  30.966  1.00  0.00     0.163 C 
ATOM     12  O   UNL     1     -11.770   7.778  29.871  1.00  0.00    -0.294 OA
BRANCH  11  13
ATOM     13  C   UNL     1     -11.960   9.827  31.066  1.00  0.00    -0.002 C 
ATOM     14  C   UNL     1     -12.937  10.620  30.531  1.00  0.00    -0.069 C 
ATOM     15  C   UNL     1     -14.047  10.034  29.688  1.00  0.00     0.039 C 
ATOM     16  C   UNL     1     -12.964  12.116  30.753  1.00  0.00     0.039 C 
BRANCH  13  17
ATOM     17  C   UNL     1     -10.803  10.407  31.865  1.00  0.00     0.066 CG0
ATOM     18  G   UNL     1      -9.520   9.622  31.674  1.00  0.00     0.000 G0
ENDBRANCH  13  17
ENDBRANCH  11  13
ENDBRANCH  10  11
ENDBRANCH   1  10
TORSDOF 0
ENDMDL
MODEL 9
REMARK VINA RESULT:    -3.494     10.357     12.097
REMARK INTER + INTRA:          -4.481
REMARK INTER:                  -4.636
REMARK INTRA:                   0.155
REMARK UNBOUND:                 0.442
REMARK SMILES CC1=CCC(=C(C)C)C(=O)CC(C)=CCC1
REMARK SMILES IDX 12 1 14 2 13 3 15 4 16 5 2 6 1 7 3 8 11 10 9 11 10 12 5 13
REMARK SMILES IDX 6 14 7 15 8 16 4 17
REMARK H PARENT
REMARK Flexibility Score: 60.00
ROOT
ATOM      1  C   UNL     1     -16.131   3.370  27.190  1.00  0.00    -0.070 C 
ATOM      2  C   UNL     1     -16.424   3.439  25.873  1.00  0.00    -0.027 C 
ATOM      3  C   UNL     1     -17.156   2.756  28.111  1.00  0.00     0.039 C 
ENDROOT
BRANCH   2   4
ATOM      4  C   UNL     1     -15.493   3.929  24.786  1.00  0.00     0.032 C 
BRANCH   4   5
ATOM      5  C   UNL     1     -14.394   2.928  24.373  1.00  0.00     0.034 C 
BRANCH   5   6
ATOM      6  C   UNL     1     -13.009   3.549  24.324  1.00  0.00    -0.077 C 
ATOM      7  C   UNL     1     -12.769   4.649  23.320  1.00  0.00     0.039 C 
ATOM      8  C   UNL     1     -11.998   3.229  25.168  1.00  0.00    -0.023 CG0
ATOM      9  G   UNL     1     -12.004   2.152  26.236  1.00  0.00     0.000 G0
ENDBRANCH   5   6
ENDBRANCH   4   5
ENDBRANCH   2   4
BRANCH   1  10
ATOM     10  C   UNL     1     -14.796   3.791  27.769  1.00  0.00     0.111 C 
BRANCH  10  11
ATOM     11  C   UNL     1     -13.871   2.616  27.947  1.00  0.00     0.163 C 
ATOM     12  O   UNL     1     -14.365   1.527  28.346  1.00  0.00    -0.294 OA
BRANCH  11  13
ATOM     13  C   UNL     1     -12.418   2.681  27.611  1.00  0.00    -0.002 C 
ATOM     14  C   UNL     1     -11.507   3.123  28.530  1.00  0.00    -0.069 C 
ATOM     15  C   UNL     1     -11.949   3.707  29.853  1.00  0.00     0.039 C 
ATOM     16  C   UNL     1     -10.017   3.053  28.278  1.00  0.00     0.039 C 
BRANCH  13  17
ATOM     17  C   UNL     1     -11.993   2.149  26.252  1.00  0.00     0.066 CG0
ATOM     18  G   UNL     1     -12.000   3.225  25.183  1.00  0.00     0.000 G0
ENDBRANCH  13  17
ENDBRANCH  11  13
ENDBRANCH  10  11
ENDBRANCH   1  10
TORSDOF 0
ENDMDL
