MODEL 1
REMARK VINA RESULT:    -3.895      0.000      0.000
REMARK INTER + INTRA:          -5.071
REMARK INTER:                  -5.488
REMARK INTRA:                   0.418
REMARK UNBOUND:                 0.418
REMARK SMILES CC1=CCC(=C(C)C)C(=O)CC(C)=CCC1
REMARK SMILES IDX 12 1 14 2 13 3 15 4 16 5 2 6 1 7 3 8 11 10 9 11 10 12 5 13
REMARK SMILES IDX 6 14 7 15 8 16 4 17
REMARK H PARENT
REMARK Flexibility Score: 60.00
ROOT
ATOM      1  C   UNL     1      17.956  26.387  27.871  1.00  0.00    -0.070 C 
ATOM      2  C   UNL     1      18.969  25.484  27.936  1.00  0.00    -0.027 C 
ATOM      3  C   UNL     1      16.557  25.873  28.111  1.00  0.00     0.039 C 
ENDROOT
BRANCH   2   4
ATOM      4  C   UNL     1      20.423  25.754  27.632  1.00  0.00     0.032 C 
BRANCH   4   5
ATOM      5  C   UNL     1      21.262  26.036  28.885  1.00  0.00     0.034 C 
BRANCH   5   6
ATOM      6  C   UNL     1      21.935  27.391  28.773  1.00  0.00    -0.077 C 
ATOM      7  C   UNL     1      23.187  27.501  27.942  1.00  0.00     0.039 C 
ATOM      8  C   UNL     1      21.427  28.523  29.316  1.00  0.00    -0.023 CG0
ATOM      9  G   UNL     1      20.196  28.607  30.188  1.00  0.00     0.000 G0
ENDBRANCH   5   6
ENDBRANCH   4   5
ENDBRANCH   2   4
BRANCH   1  10
ATOM     10  C   UNL     1      18.148  27.885  27.655  1.00  0.00     0.111 C 
BRANCH  10  11
ATOM     11  C   UNL     1      17.952  28.713  28.899  1.00  0.00     0.163 C 
ATOM     12  O   UNL     1      16.796  28.745  29.404  1.00  0.00    -0.294 OA
BRANCH  11  13
ATOM     13  C   UNL     1      19.078  29.438  29.578  1.00  0.00    -0.002 C 
ATOM     14  C   UNL     1      19.121  30.807  29.594  1.00  0.00    -0.069 C 
ATOM     15  C   UNL     1      20.293  31.559  30.186  1.00  0.00     0.039 C 
ATOM     16  C   UNL     1      17.976  31.645  29.067  1.00  0.00     0.039 C 
BRANCH  13  17
ATOM     17  C   UNL     1      20.206  28.619  30.202  1.00  0.00     0.066 CG0
ATOM     18  G   UNL     1      21.416  28.535  29.301  1.00  0.00     0.000 G0
ENDBRANCH  13  17
ENDBRANCH  11  13
ENDBRANCH  10  11
ENDBRANCH   1  10
TORSDOF 0
ENDMDL
MODEL 2
REMARK VINA RESULT:    -3.662      2.906      5.860
REMARK INTER + INTRA:          -4.742
REMARK INTER:                  -4.874
REMARK INTRA:                   0.132
REMARK UNBOUND:                 0.418
REMARK SMILES CC1=CCC(=C(C)C)C(=O)CC(C)=CCC1
REMARK SMILES IDX 12 1 14 2 13 3 15 4 16 5 2 6 1 7 3 8 11 10 9 11 10 12 5 13
REMARK SMILES IDX 6 14 7 15 8 16 4 17
REMARK H PARENT
REMARK Flexibility Score: 60.00
ROOT
ATOM      1  C   UNL     1      25.508  29.098  29.115  1.00  0.00    -0.070 C 
ATOM      2  C   UNL     1      25.625  30.071  30.056  1.00  0.00    -0.027 C 
ATOM      3  C   UNL     1      26.516  29.099  27.991  1.00  0.00     0.039 C 
ENDROOT
BRANCH   2   4
ATOM      4  C   UNL     1      24.675  30.320  31.203  1.00  0.00     0.032 C 
BRANCH   4   5
ATOM      5  C   UNL     1      23.364  30.989  30.771  1.00  0.00     0.034 C 
BRANCH   5   6
ATOM      6  C   UNL     1      22.181  30.288  31.412  1.00  0.00    -0.077 C 
ATOM      7  C   UNL     1      22.016  30.386  32.907  1.00  0.00     0.039 C 
ATOM      8  C   UNL     1      21.221  29.646  30.704  1.00  0.00    -0.023 CG0
ATOM      9  G   UNL     1      21.223  29.434  29.209  1.00  0.00     0.000 G0
ENDBRANCH   5   6
ENDBRANCH   4   5
ENDBRANCH   2   4
BRANCH   1  10
ATOM     10  C   UNL     1      24.485  27.967  29.167  1.00  0.00     0.111 C 
BRANCH  10  11
ATOM     11  C   UNL     1      23.287  28.184  28.279  1.00  0.00     0.163 C 
ATOM     12  O   UNL     1      23.497  28.368  27.049  1.00  0.00    -0.294 OA
BRANCH  11  13
ATOM     13  C   UNL     1      21.877  28.128  28.791  1.00  0.00    -0.002 C 
ATOM     14  C   UNL     1      21.194  26.941  28.836  1.00  0.00    -0.069 C 
ATOM     15  C   UNL     1      19.742  26.875  29.254  1.00  0.00     0.039 C 
ATOM     16  C   UNL     1      21.867  25.624  28.517  1.00  0.00     0.039 C 
BRANCH  13  17
ATOM     17  C   UNL     1      21.196  29.431  29.209  1.00  0.00     0.066 CG0
ATOM     18  G   UNL     1      21.229  29.637  30.705  1.00  0.00     0.000 G0
ENDBRANCH  13  17
ENDBRANCH  11  13
ENDBRANCH  10  11
ENDBRANCH   1  10
TORSDOF 0
ENDMDL
MODEL 3
REMARK VINA RESULT:    -3.656      2.063      3.237
REMARK INTER + INTRA:          -4.734
REMARK INTER:                  -4.896
REMARK INTRA:                   0.162
REMARK UNBOUND:                 0.418
REMARK SMILES CC1=CCC(=C(C)C)C(=O)CC(C)=CCC1
REMARK SMILES IDX 12 1 14 2 13 3 15 4 16 5 2 6 1 7 3 8 11 10 9 11 10 12 5 13
REMARK SMILES IDX 6 14 7 15 8 16 4 17
REMARK H PARENT
REMARK Flexibility Score: 60.00
ROOT
ATOM      1  C   UNL     1      19.158  28.673  28.487  1.00  0.00    -0.070 C 
ATOM      2  C   UNL     1      20.224  28.050  29.055  1.00  0.00    -0.027 C 
ATOM      3  C   UNL     1      18.130  27.801  27.808  1.00  0.00     0.039 C 
ENDROOT
BRANCH   2   4
ATOM      4  C   UNL     1      21.414  28.725  29.693  1.00  0.00     0.032 C 
BRANCH   4   5
ATOM      5  C   UNL     1      21.119  29.281  31.091  1.00  0.00     0.034 C 
BRANCH   5   6
ATOM      6  C   UNL     1      21.611  30.712  31.202  1.00  0.00    -0.077 C 
ATOM      7  C   UNL     1      23.060  30.995  30.900  1.00  0.00     0.039 C 
ATOM      8  C   UNL     1      20.801  31.760  31.481  1.00  0.00    -0.023 CG0
ATOM      9  G   UNL     1      19.332  31.672  31.823  1.00  0.00     0.000 G0
ENDBRANCH   5   6
ENDBRANCH   4   5
ENDBRANCH   2   4
BRANCH   1  10
ATOM     10  C   UNL     1      18.897  30.174  28.561  1.00  0.00     0.111 C 
BRANCH  10  11
ATOM     11  C   UNL     1      18.113  30.600  29.776  1.00  0.00     0.163 C 
ATOM     12  O   UNL     1      17.174  29.849  30.158  1.00  0.00    -0.294 OA
BRANCH  11  13
ATOM     13  C   UNL     1      18.444  31.833  30.565  1.00  0.00    -0.002 C 
ATOM     14  C   UNL     1      18.017  33.067  30.150  1.00  0.00    -0.069 C 
ATOM     15  C   UNL     1      18.420  34.333  30.874  1.00  0.00     0.039 C 
ATOM     16  C   UNL     1      17.079  33.229  28.974  1.00  0.00     0.039 C 
BRANCH  13  17
ATOM     17  C   UNL     1      19.316  31.693  31.812  1.00  0.00     0.066 CG0
ATOM     18  G   UNL     1      20.790  31.748  31.487  1.00  0.00     0.000 G0
ENDBRANCH  13  17
ENDBRANCH  11  13
ENDBRANCH  10  11
ENDBRANCH   1  10
TORSDOF 0
ENDMDL
MODEL 4
REMARK VINA RESULT:    -3.609      3.001      6.269
REMARK INTER + INTRA:          -4.668
REMARK INTER:                  -5.009
REMARK INTRA:                   0.341
REMARK UNBOUND:                 0.418
REMARK SMILES CC1=CCC(=C(C)C)C(=O)CC(C)=CCC1
REMARK SMILES IDX 12 1 14 2 13 3 15 4 16 5 2 6 1 7 3 8 11 10 9 11 10 12 5 13
REMARK SMILES IDX 6 14 7 15 8 16 4 17
REMARK H PARENT
REMARK Flexibility Score: 60.00
ROOT
ATOM      1  C   UNL     1      20.155  33.752  30.332  1.00  0.00    -0.070 C 
ATOM      2  C   UNL     1      19.078  34.283  29.698  1.00  0.00    -0.027 C 
ATOM      3  C   UNL     1      21.516  34.055  29.754  1.00  0.00     0.039 C 
ENDROOT
BRANCH   2   4
ATOM      4  C   UNL     1      17.629  34.030  30.039  1.00  0.00     0.032 C 
BRANCH   4   5
ATOM      5  C   UNL     1      16.899  33.178  28.993  1.00  0.00     0.034 C 
BRANCH   5   6
ATOM      6  C   UNL     1      16.507  31.838  29.587  1.00  0.00    -0.077 C 
ATOM      7  C   UNL     1      15.110  31.677  30.126  1.00  0.00     0.039 C 
ATOM      8  C   UNL     1      17.321  30.756  29.586  1.00  0.00    -0.023 CG0
ATOM      9  G   UNL     1      18.752  30.729  29.103  1.00  0.00     0.000 G0
ENDBRANCH   5   6
ENDBRANCH   4   5
ENDBRANCH   2   4
BRANCH   1  10
ATOM     10  C   UNL     1      20.083  32.944  31.625  1.00  0.00     0.111 C 
BRANCH  10  11
ATOM     11  C   UNL     1      19.493  31.568  31.456  1.00  0.00     0.163 C 
ATOM     12  O   UNL     1      18.698  31.160  32.346  1.00  0.00    -0.294 OA
BRANCH  11  13
ATOM     13  C   UNL     1      19.767  30.709  30.256  1.00  0.00    -0.002 C 
ATOM     14  C   UNL     1      20.916  29.967  30.173  1.00  0.00    -0.069 C 
ATOM     15  C   UNL     1      21.261  29.171  28.933  1.00  0.00     0.039 C 
ATOM     16  C   UNL     1      21.881  29.864  31.333  1.00  0.00     0.039 C 
BRANCH  13  17
ATOM     17  C   UNL     1      18.766  30.719  29.102  1.00  0.00     0.066 CG0
ATOM     18  G   UNL     1      17.336  30.764  29.587  1.00  0.00     0.000 G0
ENDBRANCH  13  17
ENDBRANCH  11  13
ENDBRANCH  10  11
ENDBRANCH   1  10
TORSDOF 0
ENDMDL
MODEL 5
REMARK VINA RESULT:    -3.584      2.008      3.954
REMARK INTER + INTRA:          -4.632
REMARK INTER:                  -4.826
REMARK INTRA:                   0.193
REMARK UNBOUND:                 0.418
REMARK SMILES CC1=CCC(=C(C)C)C(=O)CC(C)=CCC1
REMARK SMILES IDX 12 1 14 2 13 3 15 4 16 5 2 6 1 7 3 8 11 10 9 11 10 12 5 13
REMARK SMILES IDX 6 14 7 15 8 16 4 17
REMARK H PARENT
REMARK Flexibility Score: 60.00
ROOT
ATOM      1  C   UNL     1      21.697  29.692  29.786  1.00  0.00    -0.070 C 
ATOM      2  C   UNL     1      21.881  28.377  29.497  1.00  0.00    -0.027 C 
ATOM      3  C   UNL     1      22.741  30.363  30.645  1.00  0.00     0.039 C 
ENDROOT
BRANCH   2   4
ATOM      4  C   UNL     1      20.920  27.488  28.747  1.00  0.00     0.032 C 
BRANCH   4   5
ATOM      5  C   UNL     1      19.718  27.045  29.591  1.00  0.00     0.034 C 
BRANCH   5   6
ATOM      6  C   UNL     1      18.423  27.341  28.857  1.00  0.00    -0.077 C 
ATOM      7  C   UNL     1      18.105  26.545  27.618  1.00  0.00     0.039 C 
ATOM      8  C   UNL     1      17.501  28.228  29.301  1.00  0.00    -0.023 CG0
ATOM      9  G   UNL     1      17.648  29.123  30.509  1.00  0.00     0.000 G0
ENDBRANCH   5   6
ENDBRANCH   4   5
ENDBRANCH   2   4
BRANCH   1  10
ATOM     10  C   UNL     1      20.557  30.545  29.236  1.00  0.00     0.111 C 
BRANCH  10  11
ATOM     11  C   UNL     1      19.524  30.924  30.266  1.00  0.00     0.163 C 
ATOM     12  O   UNL     1      19.905  31.625  31.244  1.00  0.00    -0.294 OA
BRANCH  11  13
ATOM     13  C   UNL     1      18.075  30.555  30.138  1.00  0.00    -0.002 C 
ATOM     14  C   UNL     1      17.148  31.483  29.742  1.00  0.00    -0.069 C 
ATOM     15  C   UNL     1      15.670  31.162  29.699  1.00  0.00     0.039 C 
ATOM     16  C   UNL     1      17.554  32.865  29.279  1.00  0.00     0.039 C 
BRANCH  13  17
ATOM     17  C   UNL     1      17.643  29.138  30.511  1.00  0.00     0.066 CG0
ATOM     18  G   UNL     1      17.506  28.246  29.300  1.00  0.00     0.000 G0
ENDBRANCH  13  17
ENDBRANCH  11  13
ENDBRANCH  10  11
ENDBRANCH   1  10
TORSDOF 0
ENDMDL
MODEL 6
REMARK VINA RESULT:    -3.527      1.976      2.833
REMARK INTER + INTRA:          -4.553
REMARK INTER:                  -4.749
REMARK INTRA:                   0.197
REMARK UNBOUND:                 0.418
REMARK SMILES CC1=CCC(=C(C)C)C(=O)CC(C)=CCC1
REMARK SMILES IDX 12 1 14 2 13 3 15 4 16 5 2 6 1 7 3 8 11 10 9 11 10 12 5 13
REMARK SMILES IDX 6 14 7 15 8 16 4 17
REMARK H PARENT
REMARK Flexibility Score: 60.00
ROOT
ATOM      1  C   UNL     1      16.305  28.219  29.948  1.00  0.00    -0.070 C 
ATOM      2  C   UNL     1      16.697  27.415  28.925  1.00  0.00    -0.027 C 
ATOM      3  C   UNL     1      14.953  28.879  29.827  1.00  0.00     0.039 C 
ENDROOT
BRANCH   2   4
ATOM      4  C   UNL     1      18.040  26.739  28.789  1.00  0.00     0.032 C 
BRANCH   4   5
ATOM      5  C   UNL     1      19.011  27.498  27.875  1.00  0.00     0.034 C 
BRANCH   5   6
ATOM      6  C   UNL     1      20.055  28.222  28.704  1.00  0.00    -0.077 C 
ATOM      7  C   UNL     1      21.330  27.494  29.043  1.00  0.00     0.039 C 
ATOM      8  C   UNL     1      19.937  29.516  29.088  1.00  0.00    -0.023 CG0
ATOM      9  G   UNL     1      18.734  30.398  28.853  1.00  0.00     0.000 G0
ENDBRANCH   5   6
ENDBRANCH   4   5
ENDBRANCH   2   4
BRANCH   1  10
ATOM     10  C   UNL     1      17.100  28.431  31.232  1.00  0.00     0.111 C 
BRANCH  10  11
ATOM     11  C   UNL     1      17.967  29.664  31.220  1.00  0.00     0.163 C 
ATOM     12  O   UNL     1      18.791  29.808  32.164  1.00  0.00    -0.294 OA
BRANCH  11  13
ATOM     13  C   UNL     1      17.926  30.675  30.111  1.00  0.00    -0.002 C 
ATOM     14  C   UNL     1      17.137  31.791  30.209  1.00  0.00    -0.069 C 
ATOM     15  C   UNL     1      17.004  32.773  29.066  1.00  0.00     0.039 C 
ATOM     16  C   UNL     1      16.395  32.130  31.482  1.00  0.00     0.039 C 
BRANCH  13  17
ATOM     17  C   UNL     1      18.738  30.408  28.845  1.00  0.00     0.066 CG0
ATOM     18  G   UNL     1      19.930  29.518  29.108  1.00  0.00     0.000 G0
ENDBRANCH  13  17
ENDBRANCH  11  13
ENDBRANCH  10  11
ENDBRANCH   1  10
TORSDOF 0
ENDMDL
MODEL 7
REMARK VINA RESULT:    -3.502      2.205      5.368
REMARK INTER + INTRA:          -4.517
REMARK INTER:                  -5.085
REMARK INTRA:                   0.568
REMARK UNBOUND:                 0.418
REMARK SMILES CC1=CCC(=C(C)C)C(=O)CC(C)=CCC1
REMARK SMILES IDX 12 1 14 2 13 3 15 4 16 5 2 6 1 7 3 8 11 10 9 11 10 12 5 13
REMARK SMILES IDX 6 14 7 15 8 16 4 17
REMARK H PARENT
REMARK Flexibility Score: 60.00
ROOT
ATOM      1  C   UNL     1      18.118  29.464  29.670  1.00  0.00    -0.070 C 
ATOM      2  C   UNL     1      16.775  29.405  29.869  1.00  0.00    -0.027 C 
ATOM      3  C   UNL     1      18.673  30.734  29.071  1.00  0.00     0.039 C 
ENDROOT
BRANCH   2   4
ATOM      4  C   UNL     1      15.999  28.206  30.356  1.00  0.00     0.032 C 
BRANCH   4   5
ATOM      5  C   UNL     1      15.434  27.345  29.220  1.00  0.00     0.034 C 
BRANCH   5   6
ATOM      6  C   UNL     1      16.022  25.948  29.277  1.00  0.00    -0.077 C 
ATOM      7  C   UNL     1      15.307  24.904  30.095  1.00  0.00     0.039 C 
ATOM      8  C   UNL     1      17.112  25.568  28.568  1.00  0.00    -0.023 CG0
ATOM      9  G   UNL     1      17.963  26.472  27.708  1.00  0.00     0.000 G0
ENDBRANCH   5   6
ENDBRANCH   4   5
ENDBRANCH   2   4
BRANCH   1  10
ATOM     10  C   UNL     1      19.100  28.372  30.085  1.00  0.00     0.111 C 
BRANCH  10  11
ATOM     11  C   UNL     1      19.869  27.771  28.936  1.00  0.00     0.163 C 
ATOM     12  O   UNL     1      20.959  28.317  28.613  1.00  0.00    -0.294 OA
BRANCH  11  13
ATOM     13  C   UNL     1      19.419  26.531  28.219  1.00  0.00    -0.002 C 
ATOM     14  C   UNL     1      20.293  25.503  27.981  1.00  0.00    -0.069 C 
ATOM     15  C   UNL     1      19.891  24.288  27.176  1.00  0.00     0.039 C 
ATOM     16  C   UNL     1      21.694  25.503  28.552  1.00  0.00     0.039 C 
BRANCH  13  17
ATOM     17  C   UNL     1      17.981  26.460  27.708  1.00  0.00     0.066 CG0
ATOM     18  G   UNL     1      17.115  25.567  28.564  1.00  0.00     0.000 G0
ENDBRANCH  13  17
ENDBRANCH  11  13
ENDBRANCH  10  11
ENDBRANCH   1  10
TORSDOF 0
ENDMDL
MODEL 8
REMARK VINA RESULT:    -3.494      2.097      4.496
REMARK INTER + INTRA:          -4.506
REMARK INTER:                  -4.694
REMARK INTRA:                   0.188
REMARK UNBOUND:                 0.418
REMARK SMILES CC1=CCC(=C(C)C)C(=O)CC(C)=CCC1
REMARK SMILES IDX 12 1 14 2 13 3 15 4 16 5 2 6 1 7 3 8 11 10 9 11 10 12 5 13
REMARK SMILES IDX 6 14 7 15 8 16 4 17
REMARK H PARENT
REMARK Flexibility Score: 60.00
ROOT
ATOM      1  C   UNL     1      18.482  28.873  29.120  1.00  0.00    -0.070 C 
ATOM      2  C   UNL     1      17.740  29.981  29.383  1.00  0.00    -0.027 C 
ATOM      3  C   UNL     1      17.811  27.534  29.300  1.00  0.00     0.039 C 
ENDROOT
BRANCH   2   4
ATOM      4  C   UNL     1      18.234  31.407  29.368  1.00  0.00     0.032 C 
BRANCH   4   5
ATOM      5  C   UNL     1      19.027  31.789  30.625  1.00  0.00     0.034 C 
BRANCH   5   6
ATOM      6  C   UNL     1      20.344  32.435  30.239  1.00  0.00    -0.077 C 
ATOM      7  C   UNL     1      20.313  33.813  29.630  1.00  0.00     0.039 C 
ATOM      8  C   UNL     1      21.551  31.872  30.485  1.00  0.00    -0.023 CG0
ATOM      9  G   UNL     1      21.780  30.499  31.071  1.00  0.00     0.000 G0
ENDBRANCH   5   6
ENDBRANCH   4   5
ENDBRANCH   2   4
BRANCH   1  10
ATOM     10  C   UNL     1      19.910  28.900  28.581  1.00  0.00     0.111 C 
BRANCH  10  11
ATOM     11  C   UNL     1      20.955  28.512  29.596  1.00  0.00     0.163 C 
ATOM     12  O   UNL     1      20.907  27.343  30.067  1.00  0.00    -0.294 OA
BRANCH  11  13
ATOM     13  C   UNL     1      22.065  29.433  30.011  1.00  0.00    -0.002 C 
ATOM     14  C   UNL     1      23.320  29.304  29.478  1.00  0.00    -0.069 C 
ATOM     15  C   UNL     1      24.477  30.155  29.951  1.00  0.00     0.039 C 
ATOM     16  C   UNL     1      23.608  28.336  28.351  1.00  0.00     0.039 C 
BRANCH  13  17
ATOM     17  C   UNL     1      21.783  30.485  31.083  1.00  0.00     0.066 CG0
ATOM     18  G   UNL     1      21.559  31.857  30.492  1.00  0.00     0.000 G0
ENDBRANCH  13  17
ENDBRANCH  11  13
ENDBRANCH  10  11
ENDBRANCH   1  10
TORSDOF 0
ENDMDL
MODEL 9
REMARK VINA RESULT:    -3.486     10.008     12.294
REMARK INTER + INTRA:          -4.494
REMARK INTER:                  -4.758
REMARK INTRA:                   0.264
REMARK UNBOUND:                 0.418
REMARK SMILES CC1=CCC(=C(C)C)C(=O)CC(C)=CCC1
REMARK SMILES IDX 12 1 14 2 13 3 15 4 16 5 2 6 1 7 3 8 11 10 9 11 10 12 5 13
REMARK SMILES IDX 6 14 7 15 8 16 4 17
REMARK H PARENT
REMARK Flexibility Score: 60.00
ROOT
ATOM      1  C   UNL     1      28.191  31.550  30.180  1.00  0.00    -0.070 C 
ATOM      2  C   UNL     1      28.296  31.048  28.922  1.00  0.00    -0.027 C 
ATOM      3  C   UNL     1      26.831  32.038  30.618  1.00  0.00     0.039 C 
ENDROOT
BRANCH   2   4
ATOM      4  C   UNL     1      29.569  30.600  28.245  1.00  0.00     0.032 C 
BRANCH   4   5
ATOM      5  C   UNL     1      30.299  31.735  27.515  1.00  0.00     0.034 C 
BRANCH   5   6
ATOM      6  C   UNL     1      31.794  31.637  27.755  1.00  0.00    -0.077 C 
ATOM      7  C   UNL     1      32.581  30.625  26.963  1.00  0.00     0.039 C 
ATOM      8  C   UNL     1      32.471  32.465  28.586  1.00  0.00    -0.023 CG0
ATOM      9  G   UNL     1      31.856  33.525  29.469  1.00  0.00     0.000 G0
ENDBRANCH   5   6
ENDBRANCH   4   5
ENDBRANCH   2   4
BRANCH   1  10
ATOM     10  C   UNL     1      29.329  31.577  31.196  1.00  0.00     0.111 C 
BRANCH  10  11
ATOM     11  C   UNL     1      30.069  32.889  31.253  1.00  0.00     0.163 C 
ATOM     12  O   UNL     1      29.445  33.892  31.696  1.00  0.00    -0.294 OA
BRANCH  11  13
ATOM     13  C   UNL     1      31.512  33.025  30.866  1.00  0.00    -0.002 C 
ATOM     14  C   UNL     1      32.508  32.741  31.763  1.00  0.00    -0.069 C 
ATOM     15  C   UNL     1      33.967  32.963  31.429  1.00  0.00     0.039 C 
ATOM     16  C   UNL     1      32.209  32.142  33.120  1.00  0.00     0.039 C 
BRANCH  13  17
ATOM     17  C   UNL     1      31.852  33.541  29.469  1.00  0.00     0.066 CG0
ATOM     18  G   UNL     1      32.464  32.470  28.598  1.00  0.00     0.000 G0
ENDBRANCH  13  17
ENDBRANCH  11  13
ENDBRANCH  10  11
ENDBRANCH   1  10
TORSDOF 0
ENDMDL
