MODEL 1
REMARK VINA RESULT:    -7.009      0.000      0.000
REMARK INTER + INTRA:          -8.377
REMARK INTER:                  -8.034
REMARK INTRA:                  -0.343
REMARK UNBOUND:                -0.343
REMARK SMILES C=C(C)[C@@H]1CC[C@]2(C(=O)[O-])CC[C@@]3(C)[C@@H](CC[C@H]4[C@]5(C)CC[C@H](O)C(C)(C)[C@H]5CC[C@]43C)[C@@H]12
REMARK SMILES IDX 7 1 6 2 33 3 11 4 5 5 15 6 4 7 12 8 16 9 13 10 17 11 31 12
REMARK SMILES IDX 14 13 18 14 30 15 32 16 19 17 29 18 21 19 20 20 28 21 22 22
REMARK SMILES IDX 25 23 23 24 26 25 27 26 8 27 9 28 10 29 2 30 3 31 1 32 24 33
REMARK H PARENT 24 34
REMARK Flexibility Score: inf
ROOT
ATOM      1  C   UNL     1     130.420  -3.046  81.127  1.00  0.00     0.014 C 
ATOM      2  C   UNL     1     129.002  -3.620  80.938  1.00  0.00     0.014 C 
ATOM      3  C   UNL     1     130.607  -2.351  79.774  1.00  0.00     0.012 C 
ATOM      4  C   UNL     1     130.554  -1.981  82.276  1.00  0.00     0.014 C 
ATOM      5  C   UNL     1     128.944  -4.078  79.464  1.00  0.00     0.009 C 
ATOM      6  C   UNL     1     131.936  -1.568  79.562  1.00  0.00     0.000 C 
ATOM      7  C   UNL     1     130.053  -3.302  78.709  1.00  0.00     0.018 C 
ATOM      8  C   UNL     1     131.288  -0.665  81.858  1.00  0.00     0.008 C 
ATOM      9  C   UNL     1     133.046  -2.221  78.750  1.00  0.00     0.005 C 
ATOM     10  C   UNL     1     132.494  -0.880  80.864  1.00  0.00    -0.024 C 
ATOM     11  C   UNL     1     134.263  -1.277  78.585  1.00  0.00     0.005 C 
ATOM     12  C   UNL     1     133.215   0.482  80.393  1.00  0.00    -0.024 C 
ATOM     13  C   UNL     1     133.534  -1.777  81.625  1.00  0.00     0.012 C 
ATOM     14  C   UNL     1     134.132   0.227  79.083  1.00  0.00     0.002 C 
ATOM     15  C   UNL     1     132.144   1.593  80.120  1.00  0.00     0.008 C 
ATOM     16  C   UNL     1     134.101   1.045  81.558  1.00  0.00     0.012 C 
ATOM     17  C   UNL     1     133.980   1.285  77.890  1.00  0.00    -0.026 C 
ATOM     18  C   UNL     1     132.662   2.887  79.472  1.00  0.00     0.005 C 
ATOM     19  C   UNL     1     135.268   1.217  76.990  1.00  0.00     0.010 C 
ATOM     20  C   UNL     1     132.743   0.951  76.999  1.00  0.00     0.012 C 
ATOM     21  C   UNL     1     133.890   2.717  78.539  1.00  0.00     0.003 C 
ATOM     22  C   UNL     1     135.457   2.401  76.032  1.00  0.00     0.033 C 
ATOM     23  C   UNL     1     134.137   3.967  77.593  1.00  0.00    -0.006 C 
ATOM     24  C   UNL     1     135.434   3.758  76.745  1.00  0.00     0.120 C 
ATOM     25  C   UNL     1     132.952   4.265  76.629  1.00  0.00     0.014 C 
ATOM     26  C   UNL     1     134.326   5.243  78.456  1.00  0.00     0.014 C 
ENDROOT
BRANCH   1  27
ATOM     27  C   UNL     1     131.327  -4.250  81.382  1.00  0.00     0.048 C 
ATOM     28  O   UNL     1     131.229  -4.891  82.463  1.00  0.00    -0.550 OA
ATOM     29  O   UNL     1     132.194  -4.733  80.411  1.00  0.00    -0.550 OA
ENDBRANCH   1  27
BRANCH   7  30
ATOM     30  C   UNL     1     129.538  -2.576  77.468  1.00  0.00    -0.077 C 
ATOM     31  C   UNL     1     128.881  -1.219  77.560  1.00  0.00     0.039 C 
ATOM     32  C   UNL     1     129.686  -3.131  76.254  1.00  0.00     0.008 C 
ENDBRANCH   7  30
BRANCH  24  33
ATOM     33  O   UNL     1     136.615   3.955  77.489  1.00  0.00    -0.393 OA
ATOM     34  H   UNL     1     136.835   3.117  77.967  1.00  0.00     0.210 HD
ENDBRANCH  24  33
TORSDOF 3
ENDMDL
MODEL 2
REMARK VINA RESULT:    -6.304      1.840      3.678
REMARK INTER + INTRA:          -7.568
REMARK INTER:                  -7.218
REMARK INTRA:                  -0.350
REMARK UNBOUND:                -0.343
REMARK SMILES C=C(C)[C@@H]1CC[C@]2(C(=O)[O-])CC[C@@]3(C)[C@@H](CC[C@H]4[C@]5(C)CC[C@H](O)C(C)(C)[C@H]5CC[C@]43C)[C@@H]12
REMARK SMILES IDX 7 1 6 2 33 3 11 4 5 5 15 6 4 7 12 8 16 9 13 10 17 11 31 12
REMARK SMILES IDX 14 13 18 14 30 15 32 16 19 17 29 18 21 19 20 20 28 21 22 22
REMARK SMILES IDX 25 23 23 24 26 25 27 26 8 27 9 28 10 29 2 30 3 31 1 32 24 33
REMARK H PARENT 24 34
REMARK Flexibility Score: inf
ROOT
ATOM      1  C   UNL     1     131.153  -3.508  80.661  1.00  0.00     0.014 C 
ATOM      2  C   UNL     1     130.826  -4.265  81.963  1.00  0.00     0.014 C 
ATOM      3  C   UNL     1     131.207  -2.072  81.196  1.00  0.00     0.012 C 
ATOM      4  C   UNL     1     132.542  -3.869  80.017  1.00  0.00     0.014 C 
ATOM      5  C   UNL     1     129.839  -3.352  82.725  1.00  0.00     0.009 C 
ATOM      6  C   UNL     1     131.580  -0.954  80.178  1.00  0.00     0.000 C 
ATOM      7  C   UNL     1     130.032  -1.919  82.167  1.00  0.00     0.018 C 
ATOM      8  C   UNL     1     133.423  -2.634  79.640  1.00  0.00     0.008 C 
ATOM      9  C   UNL     1     130.465  -0.100  79.591  1.00  0.00     0.005 C 
ATOM     10  C   UNL     1     132.612  -1.404  79.077  1.00  0.00    -0.024 C 
ATOM     11  C   UNL     1     131.023   1.000  78.655  1.00  0.00     0.005 C 
ATOM     12  C   UNL     1     133.515  -0.114  78.738  1.00  0.00    -0.024 C 
ATOM     13  C   UNL     1     131.915  -1.903  77.761  1.00  0.00     0.012 C 
ATOM     14  C   UNL     1     132.596   1.210  78.581  1.00  0.00     0.002 C 
ATOM     15  C   UNL     1     134.604   0.089  79.847  1.00  0.00     0.008 C 
ATOM     16  C   UNL     1     134.320  -0.360  77.414  1.00  0.00     0.012 C 
ATOM     17  C   UNL     1     133.103   2.524  79.345  1.00  0.00    -0.026 C 
ATOM     18  C   UNL     1     135.415   1.392  79.769  1.00  0.00     0.005 C 
ATOM     19  C   UNL     1     132.446   3.784  78.670  1.00  0.00     0.010 C 
ATOM     20  C   UNL     1     132.678   2.497  80.847  1.00  0.00     0.012 C 
ATOM     21  C   UNL     1     134.665   2.605  79.158  1.00  0.00     0.003 C 
ATOM     22  C   UNL     1     133.095   5.128  79.027  1.00  0.00     0.033 C 
ATOM     23  C   UNL     1     135.367   3.996  79.462  1.00  0.00    -0.006 C 
ATOM     24  C   UNL     1     134.603   5.158  78.748  1.00  0.00     0.120 C 
ATOM     25  C   UNL     1     135.472   4.324  80.979  1.00  0.00     0.014 C 
ATOM     26  C   UNL     1     136.822   3.972  78.921  1.00  0.00     0.014 C 
ENDROOT
BRANCH   1  27
ATOM     27  C   UNL     1     130.004  -3.811  79.699  1.00  0.00     0.048 C 
ATOM     28  O   UNL     1     129.900  -4.960  79.191  1.00  0.00    -0.550 OA
ATOM     29  O   UNL     1     128.999  -2.888  79.444  1.00  0.00    -0.550 OA
ENDBRANCH   1  27
BRANCH   7  30
ATOM     30  C   UNL     1     130.288  -0.880  83.257  1.00  0.00    -0.077 C 
ATOM     31  C   UNL     1     131.676  -0.622  83.794  1.00  0.00     0.039 C 
ATOM     32  C   UNL     1     129.271  -0.153  83.744  1.00  0.00     0.008 C 
ENDBRANCH   7  30
BRANCH  24  33
ATOM     33  O   UNL     1     134.855   5.213  77.362  1.00  0.00    -0.393 OA
ATOM     34  H   UNL     1     134.301   5.929  76.964  1.00  0.00     0.210 HD
ENDBRANCH  24  33
TORSDOF 3
ENDMDL
MODEL 3
REMARK VINA RESULT:    -6.190      1.334      7.543
REMARK INTER + INTRA:          -7.437
REMARK INTER:                  -7.079
REMARK INTRA:                  -0.358
REMARK UNBOUND:                -0.343
REMARK SMILES C=C(C)[C@@H]1CC[C@]2(C(=O)[O-])CC[C@@]3(C)[C@@H](CC[C@H]4[C@]5(C)CC[C@H](O)C(C)(C)[C@H]5CC[C@]43C)[C@@H]12
REMARK SMILES IDX 7 1 6 2 33 3 11 4 5 5 15 6 4 7 12 8 16 9 13 10 17 11 31 12
REMARK SMILES IDX 14 13 18 14 30 15 32 16 19 17 29 18 21 19 20 20 28 21 22 22
REMARK SMILES IDX 25 23 23 24 26 25 27 26 8 27 9 28 10 29 2 30 3 31 1 32 24 33
REMARK H PARENT 24 34
REMARK Flexibility Score: inf
ROOT
ATOM      1  C   UNL     1     133.949   3.428  77.149  1.00  0.00     0.014 C 
ATOM      2  C   UNL     1     133.367   4.849  77.015  1.00  0.00     0.014 C 
ATOM      3  C   UNL     1     133.081   2.893  78.294  1.00  0.00     0.012 C 
ATOM      4  C   UNL     1     133.756   2.512  75.887  1.00  0.00     0.014 C 
ATOM      5  C   UNL     1     133.075   5.305  78.462  1.00  0.00     0.009 C 
ATOM      6  C   UNL     1     133.312   1.414  78.723  1.00  0.00     0.000 C 
ATOM      7  C   UNL     1     132.964   4.022  79.323  1.00  0.00     0.018 C 
ATOM      8  C   UNL     1     133.172   1.095  76.195  1.00  0.00     0.008 C 
ATOM      9  C   UNL     1     134.143   1.137  79.968  1.00  0.00     0.005 C 
ATOM     10  C   UNL     1     133.699   0.453  77.537  1.00  0.00    -0.024 C 
ATOM     11  C   UNL     1     134.212  -0.378  80.281  1.00  0.00     0.005 C 
ATOM     12  C   UNL     1     133.057  -0.984  77.881  1.00  0.00    -0.024 C 
ATOM     13  C   UNL     1     135.252   0.295  77.368  1.00  0.00     0.012 C 
ATOM     14  C   UNL     1     133.307  -1.372  79.433  1.00  0.00     0.002 C 
ATOM     15  C   UNL     1     131.527  -0.986  77.543  1.00  0.00     0.008 C 
ATOM     16  C   UNL     1     133.683  -2.083  76.953  1.00  0.00     0.012 C 
ATOM     17  C   UNL     1     132.041  -1.931  80.241  1.00  0.00    -0.026 C 
ATOM     18  C   UNL     1     130.734  -2.220  78.002  1.00  0.00     0.005 C 
ATOM     19  C   UNL     1     132.556  -2.740  81.488  1.00  0.00     0.010 C 
ATOM     20  C   UNL     1     131.143  -0.761  80.754  1.00  0.00     0.012 C 
ATOM     21  C   UNL     1     131.268  -2.913  79.283  1.00  0.00     0.003 C 
ATOM     22  C   UNL     1     131.511  -3.643  82.156  1.00  0.00     0.033 C 
ATOM     23  C   UNL     1     130.219  -3.905  79.943  1.00  0.00    -0.006 C 
ATOM     24  C   UNL     1     130.854  -4.625  81.178  1.00  0.00     0.120 C 
ATOM     25  C   UNL     1     128.901  -3.212  80.394  1.00  0.00     0.014 C 
ATOM     26  C   UNL     1     129.808  -4.990  78.912  1.00  0.00     0.014 C 
ENDROOT
BRANCH   1  27
ATOM     27  C   UNL     1     135.431   3.612  77.475  1.00  0.00     0.048 C 
ATOM     28  O   UNL     1     136.259   3.799  76.543  1.00  0.00    -0.550 OA
ATOM     29  O   UNL     1     135.890   3.687  78.784  1.00  0.00    -0.550 OA
ENDBRANCH   1  27
BRANCH   7  30
ATOM     30  C   UNL     1     131.674   3.958  80.139  1.00  0.00    -0.077 C 
ATOM     31  C   UNL     1     130.392   3.418  79.550  1.00  0.00     0.039 C 
ATOM     32  C   UNL     1     131.667   4.363  81.418  1.00  0.00     0.008 C 
ENDBRANCH   7  30
BRANCH  24  33
ATOM     33  O   UNL     1     131.753  -5.649  80.815  1.00  0.00    -0.393 OA
ATOM     34  H   UNL     1     132.250  -5.366  80.007  1.00  0.00     0.210 HD
ENDBRANCH  24  33
TORSDOF 3
ENDMDL
MODEL 4
REMARK VINA RESULT:    -5.811      1.516      7.363
REMARK INTER + INTRA:          -7.004
REMARK INTER:                  -6.620
REMARK INTRA:                  -0.383
REMARK UNBOUND:                -0.343
REMARK SMILES C=C(C)[C@@H]1CC[C@]2(C(=O)[O-])CC[C@@]3(C)[C@@H](CC[C@H]4[C@]5(C)CC[C@H](O)C(C)(C)[C@H]5CC[C@]43C)[C@@H]12
REMARK SMILES IDX 7 1 6 2 33 3 11 4 5 5 15 6 4 7 12 8 16 9 13 10 17 11 31 12
REMARK SMILES IDX 14 13 18 14 30 15 32 16 19 17 29 18 21 19 20 20 28 21 22 22
REMARK SMILES IDX 25 23 23 24 26 25 27 26 8 27 9 28 10 29 2 30 3 31 1 32 24 33
REMARK H PARENT 24 34
REMARK Flexibility Score: inf
ROOT
ATOM      1  C   UNL     1     134.617   2.916  77.549  1.00  0.00     0.014 C 
ATOM      2  C   UNL     1     134.423   3.660  76.213  1.00  0.00     0.014 C 
ATOM      3  C   UNL     1     133.200   2.366  77.753  1.00  0.00     0.012 C 
ATOM      4  C   UNL     1     135.631   1.716  77.497  1.00  0.00     0.014 C 
ATOM      5  C   UNL     1     133.015   4.290  76.301  1.00  0.00     0.009 C 
ATOM      6  C   UNL     1     132.966   1.471  79.006  1.00  0.00     0.000 C 
ATOM      7  C   UNL     1     132.231   3.490  77.371  1.00  0.00     0.018 C 
ATOM      8  C   UNL     1     135.096   0.385  78.116  1.00  0.00     0.008 C 
ATOM      9  C   UNL     1     132.300   2.088  80.228  1.00  0.00     0.005 C 
ATOM     10  C   UNL     1     134.202   0.580  79.401  1.00  0.00    -0.024 C 
ATOM     11  C   UNL     1     132.086   1.041  81.349  1.00  0.00     0.005 C 
ATOM     12  C   UNL     1     133.607  -0.789  80.008  1.00  0.00    -0.024 C 
ATOM     13  C   UNL     1     135.121   1.262  80.476  1.00  0.00     0.012 C 
ATOM     14  C   UNL     1     132.389  -0.486  81.032  1.00  0.00     0.002 C 
ATOM     15  C   UNL     1     133.143  -1.736  78.849  1.00  0.00     0.008 C 
ATOM     16  C   UNL     1     134.740  -1.578  80.753  1.00  0.00     0.012 C 
ATOM     17  C   UNL     1     131.069  -1.376  80.852  1.00  0.00    -0.026 C 
ATOM     18  C   UNL     1     132.370  -2.995  79.273  1.00  0.00     0.005 C 
ATOM     19  C   UNL     1     130.254  -1.346  82.196  1.00  0.00     0.010 C 
ATOM     20  C   UNL     1     130.161  -0.807  79.717  1.00  0.00     0.012 C 
ATOM     21  C   UNL     1     131.532  -2.855  80.572  1.00  0.00     0.003 C 
ATOM     22  C   UNL     1     129.170  -2.425  82.326  1.00  0.00     0.033 C 
ATOM     23  C   UNL     1     130.455  -4.006  80.751  1.00  0.00    -0.006 C 
ATOM     24  C   UNL     1     129.709  -3.845  82.115  1.00  0.00     0.120 C 
ATOM     25  C   UNL     1     129.400  -4.058  79.608  1.00  0.00     0.014 C 
ATOM     26  C   UNL     1     131.164  -5.387  80.750  1.00  0.00     0.014 C 
ENDROOT
BRANCH   1  27
ATOM     27  C   UNL     1     135.065   3.975  78.557  1.00  0.00     0.048 C 
ATOM     28  O   UNL     1     136.272   4.338  78.588  1.00  0.00    -0.550 OA
ATOM     29  O   UNL     1     134.160   4.635  79.377  1.00  0.00    -0.550 OA
ENDBRANCH   1  27
BRANCH   7  30
ATOM     30  C   UNL     1     130.885   2.973  76.868  1.00  0.00    -0.077 C 
ATOM     31  C   UNL     1     130.791   1.806  75.913  1.00  0.00     0.039 C 
ATOM     32  C   UNL     1     129.746   3.542  77.293  1.00  0.00     0.008 C 
ENDBRANCH   7  30
BRANCH  24  33
ATOM     33  O   UNL     1     130.486  -4.255  83.219  1.00  0.00    -0.393 OA
ATOM     34  H   UNL     1     129.921  -4.242  84.030  1.00  0.00     0.210 HD
ENDBRANCH  24  33
TORSDOF 3
ENDMDL
MODEL 5
REMARK VINA RESULT:    -5.686      1.593      7.725
REMARK INTER + INTRA:          -6.860
REMARK INTER:                  -7.061
REMARK INTRA:                   0.201
REMARK UNBOUND:                -0.343
REMARK SMILES C=C(C)[C@@H]1CC[C@]2(C(=O)[O-])CC[C@@]3(C)[C@@H](CC[C@H]4[C@]5(C)CC[C@H](O)C(C)(C)[C@H]5CC[C@]43C)[C@@H]12
REMARK SMILES IDX 7 1 6 2 33 3 11 4 5 5 15 6 4 7 12 8 16 9 13 10 17 11 31 12
REMARK SMILES IDX 14 13 18 14 30 15 32 16 19 17 29 18 21 19 20 20 28 21 22 22
REMARK SMILES IDX 25 23 23 24 26 25 27 26 8 27 9 28 10 29 2 30 3 31 1 32 24 33
REMARK H PARENT 24 34
REMARK Flexibility Score: inf
ROOT
ATOM      1  C   UNL     1     134.859   3.818  77.770  1.00  0.00     0.014 C 
ATOM      2  C   UNL     1     135.553   4.977  78.511  1.00  0.00     0.014 C 
ATOM      3  C   UNL     1     134.951   2.726  78.843  1.00  0.00     0.012 C 
ATOM      4  C   UNL     1     133.347   4.067  77.420  1.00  0.00     0.014 C 
ATOM      5  C   UNL     1     136.710   4.321  79.297  1.00  0.00     0.009 C 
ATOM      6  C   UNL     1     134.293   1.354  78.511  1.00  0.00     0.000 C 
ATOM      7  C   UNL     1     136.355   2.821  79.450  1.00  0.00     0.018 C 
ATOM      8  C   UNL     1     132.385   2.904  77.826  1.00  0.00     0.008 C 
ATOM      9  C   UNL     1     135.185   0.207  78.061  1.00  0.00     0.005 C 
ATOM     10  C   UNL     1     132.991   1.461  77.631  1.00  0.00    -0.024 C 
ATOM     11  C   UNL     1     134.374  -1.094  77.840  1.00  0.00     0.005 C 
ATOM     12  C   UNL     1     132.019   0.265  78.100  1.00  0.00    -0.024 C 
ATOM     13  C   UNL     1     133.284   1.313  76.095  1.00  0.00     0.012 C 
ATOM     14  C   UNL     1     132.844  -1.118  78.270  1.00  0.00     0.002 C 
ATOM     15  C   UNL     1     131.294   0.652  79.434  1.00  0.00     0.008 C 
ATOM     16  C   UNL     1     130.869   0.070  77.051  1.00  0.00     0.012 C 
ATOM     17  C   UNL     1     132.570  -1.952  79.609  1.00  0.00    -0.026 C 
ATOM     18  C   UNL     1     130.485  -0.466  80.113  1.00  0.00     0.005 C 
ATOM     19  C   UNL     1     132.996  -3.447  79.369  1.00  0.00     0.010 C 
ATOM     20  C   UNL     1     133.408  -1.391  80.801  1.00  0.00     0.012 C 
ATOM     21  C   UNL     1     131.019  -1.905  79.885  1.00  0.00     0.003 C 
ATOM     22  C   UNL     1     132.467  -4.451  80.402  1.00  0.00     0.033 C 
ATOM     23  C   UNL     1     130.424  -2.965  80.905  1.00  0.00    -0.006 C 
ATOM     24  C   UNL     1     130.942  -4.399  80.562  1.00  0.00     0.120 C 
ATOM     25  C   UNL     1     130.757  -2.656  82.393  1.00  0.00     0.014 C 
ATOM     26  C   UNL     1     128.875  -2.974  80.799  1.00  0.00     0.014 C 
ENDROOT
BRANCH   1  27
ATOM     27  C   UNL     1     135.685   3.573  76.507  1.00  0.00     0.048 C 
ATOM     28  O   UNL     1     136.168   4.552  75.876  1.00  0.00    -0.550 OA
ATOM     29  O   UNL     1     136.016   2.293  76.085  1.00  0.00    -0.550 OA
ENDBRANCH   1  27
BRANCH   7  30
ATOM     30  C   UNL     1     136.415   2.334  80.896  1.00  0.00    -0.077 C 
ATOM     31  C   UNL     1     135.161   2.076  81.698  1.00  0.00     0.039 C 
ATOM     32  C   UNL     1     137.603   2.102  81.478  1.00  0.00     0.008 C 
ENDBRANCH   7  30
BRANCH  24  33
ATOM     33  O   UNL     1     130.301  -4.962  79.439  1.00  0.00    -0.393 OA
ATOM     34  H   UNL     1     130.772  -5.794  79.186  1.00  0.00     0.210 HD
ENDBRANCH  24  33
TORSDOF 3
ENDMDL
MODEL 6
REMARK VINA RESULT:    -5.547     15.815     19.027
REMARK INTER + INTRA:          -6.701
REMARK INTER:                  -6.442
REMARK INTRA:                  -0.259
REMARK UNBOUND:                -0.343
REMARK SMILES C=C(C)[C@@H]1CC[C@]2(C(=O)[O-])CC[C@@]3(C)[C@@H](CC[C@H]4[C@]5(C)CC[C@H](O)C(C)(C)[C@H]5CC[C@]43C)[C@@H]12
REMARK SMILES IDX 7 1 6 2 33 3 11 4 5 5 15 6 4 7 12 8 16 9 13 10 17 11 31 12
REMARK SMILES IDX 14 13 18 14 30 15 32 16 19 17 29 18 21 19 20 20 28 21 22 22
REMARK SMILES IDX 25 23 23 24 26 25 27 26 8 27 9 28 10 29 2 30 3 31 1 32 24 33
REMARK H PARENT 24 34
REMARK Flexibility Score: inf
ROOT
ATOM      1  C   UNL     1     145.361   7.930  94.129  1.00  0.00     0.014 C 
ATOM      2  C   UNL     1     144.990   9.179  94.952  1.00  0.00     0.014 C 
ATOM      3  C   UNL     1     144.553   8.204  92.854  1.00  0.00     0.012 C 
ATOM      4  C   UNL     1     146.884   7.812  93.756  1.00  0.00     0.014 C 
ATOM      5  C   UNL     1     143.498   9.437  94.646  1.00  0.00     0.009 C 
ATOM      6  C   UNL     1     144.695   7.174  91.695  1.00  0.00     0.000 C 
ATOM      7  C   UNL     1     143.186   8.730  93.304  1.00  0.00     0.018 C 
ATOM      8  C   UNL     1     147.163   7.517  92.247  1.00  0.00     0.008 C 
ATOM      9  C   UNL     1     143.596   6.139  91.501  1.00  0.00     0.005 C 
ATOM     10  C   UNL     1     146.128   6.533  91.575  1.00  0.00    -0.024 C 
ATOM     11  C   UNL     1     143.868   5.245  90.266  1.00  0.00     0.005 C 
ATOM     12  C   UNL     1     146.385   6.272  90.006  1.00  0.00    -0.024 C 
ATOM     13  C   UNL     1     146.250   5.173  92.350  1.00  0.00     0.012 C 
ATOM     14  C   UNL     1     145.078   5.619  89.307  1.00  0.00     0.002 C 
ATOM     15  C   UNL     1     146.792   7.608  89.296  1.00  0.00     0.008 C 
ATOM     16  C   UNL     1     147.617   5.318  89.820  1.00  0.00     0.012 C 
ATOM     17  C   UNL     1     144.616   6.266  87.917  1.00  0.00    -0.026 C 
ATOM     18  C   UNL     1     146.876   7.561  87.762  1.00  0.00     0.005 C 
ATOM     19  C   UNL     1     143.733   5.220  87.143  1.00  0.00     0.010 C 
ATOM     20  C   UNL     1     143.759   7.550  88.154  1.00  0.00     0.012 C 
ATOM     21  C   UNL     1     145.916   6.554  87.075  1.00  0.00     0.003 C 
ATOM     22  C   UNL     1     143.515   5.524  85.654  1.00  0.00     0.033 C 
ATOM     23  C   UNL     1     145.739   6.816  85.520  1.00  0.00    -0.006 C 
ATOM     24  C   UNL     1     144.827   5.717  84.884  1.00  0.00     0.120 C 
ATOM     25  C   UNL     1     145.143   8.214  85.186  1.00  0.00     0.014 C 
ATOM     26  C   UNL     1     147.124   6.757  84.821  1.00  0.00     0.014 C 
ENDROOT
BRANCH   1  27
ATOM     27  C   UNL     1     144.901   6.731  94.957  1.00  0.00     0.048 C 
ATOM     28  O   UNL     1     145.393   6.533  96.101  1.00  0.00    -0.550 OA
ATOM     29  O   UNL     1     143.872   5.900  94.534  1.00  0.00    -0.550 OA
ENDBRANCH   1  27
BRANCH   7  30
ATOM     30  C   UNL     1     142.534   9.654  92.277  1.00  0.00    -0.077 C 
ATOM     31  C   UNL     1     141.502   9.146  91.298  1.00  0.00     0.039 C 
ATOM     32  C   UNL     1     142.855  10.957  92.246  1.00  0.00     0.008 C 
ENDBRANCH   7  30
BRANCH  24  33
ATOM     33  O   UNL     1     145.491   4.486  84.708  1.00  0.00    -0.393 OA
ATOM     34  H   UNL     1     146.313   4.484  85.258  1.00  0.00     0.210 HD
ENDBRANCH  24  33
TORSDOF 3
ENDMDL
MODEL 7
REMARK VINA RESULT:    -5.461     15.558     19.128
REMARK INTER + INTRA:          -6.602
REMARK INTER:                  -6.277
REMARK INTRA:                  -0.325
REMARK UNBOUND:                -0.343
REMARK SMILES C=C(C)[C@@H]1CC[C@]2(C(=O)[O-])CC[C@@]3(C)[C@@H](CC[C@H]4[C@]5(C)CC[C@H](O)C(C)(C)[C@H]5CC[C@]43C)[C@@H]12
REMARK SMILES IDX 7 1 6 2 33 3 11 4 5 5 15 6 4 7 12 8 16 9 13 10 17 11 31 12
REMARK SMILES IDX 14 13 18 14 30 15 32 16 19 17 29 18 21 19 20 20 28 21 22 22
REMARK SMILES IDX 25 23 23 24 26 25 27 26 8 27 9 28 10 29 2 30 3 31 1 32 24 33
REMARK H PARENT 24 34
REMARK Flexibility Score: inf
ROOT
ATOM      1  C   UNL     1     144.135   6.028  86.191  1.00  0.00     0.014 C 
ATOM      2  C   UNL     1     143.140   6.680  85.211  1.00  0.00     0.014 C 
ATOM      3  C   UNL     1     144.347   7.191  87.167  1.00  0.00     0.012 C 
ATOM      4  C   UNL     1     143.570   4.791  86.981  1.00  0.00     0.014 C 
ATOM      5  C   UNL     1     143.613   8.144  85.070  1.00  0.00     0.009 C 
ATOM      6  C   UNL     1     145.275   6.925  88.389  1.00  0.00     0.000 C 
ATOM      7  C   UNL     1     144.474   8.460  86.318  1.00  0.00     0.018 C 
ATOM      8  C   UNL     1     143.808   4.843  88.525  1.00  0.00     0.008 C 
ATOM      9  C   UNL     1     146.708   7.436  88.341  1.00  0.00     0.005 C 
ATOM     10  C   UNL     1     145.198   5.455  88.948  1.00  0.00    -0.024 C 
ATOM     11  C   UNL     1     147.462   7.144  89.662  1.00  0.00     0.005 C 
ATOM     12  C   UNL     1     145.420   5.557  90.541  1.00  0.00    -0.024 C 
ATOM     13  C   UNL     1     146.297   4.515  88.336  1.00  0.00     0.012 C 
ATOM     14  C   UNL     1     146.643   6.559  90.892  1.00  0.00     0.002 C 
ATOM     15  C   UNL     1     144.097   6.022  91.241  1.00  0.00     0.008 C 
ATOM     16  C   UNL     1     145.716   4.134  91.129  1.00  0.00     0.012 C 
ATOM     17  C   UNL     1     146.374   7.633  92.049  1.00  0.00    -0.026 C 
ATOM     18  C   UNL     1     144.205   6.358  92.737  1.00  0.00     0.005 C 
ATOM     19  C   UNL     1     147.758   8.119  92.617  1.00  0.00     0.010 C 
ATOM     20  C   UNL     1     145.611   8.877  91.493  1.00  0.00     0.012 C 
ATOM     21  C   UNL     1     145.583   6.901  93.198  1.00  0.00     0.003 C 
ATOM     22  C   UNL     1     147.689   8.857  93.961  1.00  0.00     0.033 C 
ATOM     23  C   UNL     1     145.537   7.605  94.619  1.00  0.00    -0.006 C 
ATOM     24  C   UNL     1     146.972   8.052  95.051  1.00  0.00     0.120 C 
ATOM     25  C   UNL     1     144.591   8.839  94.675  1.00  0.00     0.014 C 
ATOM     26  C   UNL     1     145.005   6.603  95.679  1.00  0.00     0.014 C 
ENDROOT
BRANCH   1  27
ATOM     27  C   UNL     1     145.353   5.638  85.353  1.00  0.00     0.048 C 
ATOM     28  O   UNL     1     145.251   4.730  84.485  1.00  0.00    -0.550 OA
ATOM     29  O   UNL     1     146.554   6.328  85.442  1.00  0.00    -0.550 OA
ENDBRANCH   1  27
BRANCH   7  30
ATOM     30  C   UNL     1     144.022   9.720  87.056  1.00  0.00    -0.077 C 
ATOM     31  C   UNL     1     145.007  10.618  87.765  1.00  0.00     0.039 C 
ATOM     32  C   UNL     1     142.725  10.065  87.062  1.00  0.00     0.008 C 
ENDBRANCH   7  30
BRANCH  24  33
ATOM     33  O   UNL     1     147.773   6.979  95.491  1.00  0.00    -0.393 OA
ATOM     34  H   UNL     1     148.445   6.775  94.795  1.00  0.00     0.210 HD
ENDBRANCH  24  33
TORSDOF 3
ENDMDL
MODEL 8
REMARK VINA RESULT:    -5.454     15.405     18.604
REMARK INTER + INTRA:          -6.595
REMARK INTER:                  -6.300
REMARK INTRA:                  -0.294
REMARK UNBOUND:                -0.343
REMARK SMILES C=C(C)[C@@H]1CC[C@]2(C(=O)[O-])CC[C@@]3(C)[C@@H](CC[C@H]4[C@]5(C)CC[C@H](O)C(C)(C)[C@H]5CC[C@]43C)[C@@H]12
REMARK SMILES IDX 7 1 6 2 33 3 11 4 5 5 15 6 4 7 12 8 16 9 13 10 17 11 31 12
REMARK SMILES IDX 14 13 18 14 30 15 32 16 19 17 29 18 21 19 20 20 28 21 22 22
REMARK SMILES IDX 25 23 23 24 26 25 27 26 8 27 9 28 10 29 2 30 3 31 1 32 24 33
REMARK H PARENT 24 34
REMARK Flexibility Score: inf
ROOT
ATOM      1  C   UNL     1     147.320   5.770  92.401  1.00  0.00     0.014 C 
ATOM      2  C   UNL     1     147.123   6.270  93.845  1.00  0.00     0.014 C 
ATOM      3  C   UNL     1     146.100   6.413  91.730  1.00  0.00     0.012 C 
ATOM      4  C   UNL     1     148.626   6.287  91.694  1.00  0.00     0.014 C 
ATOM      5  C   UNL     1     145.598   6.220  94.087  1.00  0.00     0.009 C 
ATOM      6  C   UNL     1     145.945   6.197  90.195  1.00  0.00     0.000 C 
ATOM      7  C   UNL     1     144.921   6.233  92.693  1.00  0.00     0.018 C 
ATOM      8  C   UNL     1     148.400   6.886  90.269  1.00  0.00     0.008 C 
ATOM      9  C   UNL     1     144.963   5.143  89.703  1.00  0.00     0.005 C 
ATOM     10  C   UNL     1     147.310   6.134  89.413  1.00  0.00    -0.024 C 
ATOM     11  C   UNL     1     144.888   5.112  88.156  1.00  0.00     0.005 C 
ATOM     12  C   UNL     1     147.039   6.785  87.964  1.00  0.00    -0.024 C 
ATOM     13  C   UNL     1     147.834   4.665  89.227  1.00  0.00     0.012 C 
ATOM     14  C   UNL     1     145.649   6.241  87.335  1.00  0.00     0.002 C 
ATOM     15  C   UNL     1     147.033   8.349  88.068  1.00  0.00     0.008 C 
ATOM     16  C   UNL     1     148.227   6.444  86.997  1.00  0.00     0.012 C 
ATOM     17  C   UNL     1     144.672   7.342  86.706  1.00  0.00    -0.026 C 
ATOM     18  C   UNL     1     146.590   9.108  86.807  1.00  0.00     0.005 C 
ATOM     19  C   UNL     1     143.694   6.633  85.699  1.00  0.00     0.010 C 
ATOM     20  C   UNL     1     143.816   8.031  87.815  1.00  0.00     0.012 C 
ATOM     21  C   UNL     1     145.566   8.365  85.908  1.00  0.00     0.003 C 
ATOM     22  C   UNL     1     142.948   7.572  84.742  1.00  0.00     0.033 C 
ATOM     23  C   UNL     1     144.840   9.316  84.866  1.00  0.00    -0.006 C 
ATOM     24  C   UNL     1     143.888   8.485  83.945  1.00  0.00     0.120 C 
ATOM     25  C   UNL     1     144.020  10.460  85.529  1.00  0.00     0.014 C 
ATOM     26  C   UNL     1     145.899  10.007  83.966  1.00  0.00     0.014 C 
ENDROOT
BRANCH   1  27
ATOM     27  C   UNL     1     147.302   4.244  92.480  1.00  0.00     0.048 C 
ATOM     28  O   UNL     1     148.220   3.638  93.097  1.00  0.00    -0.550 OA
ATOM     29  O   UNL     1     146.243   3.497  91.982  1.00  0.00    -0.550 OA
ENDBRANCH   1  27
BRANCH   7  30
ATOM     30  C   UNL     1     143.862   7.325  92.551  1.00  0.00    -0.077 C 
ATOM     31  C   UNL     1     142.660   7.149  91.653  1.00  0.00     0.039 C 
ATOM     32  C   UNL     1     143.972   8.463  93.253  1.00  0.00     0.008 C 
ENDBRANCH   7  30
BRANCH  24  33
ATOM     33  O   UNL     1     144.579   7.754  82.957  1.00  0.00    -0.393 OA
ATOM     34  H   UNL     1     144.101   6.903  82.797  1.00  0.00     0.210 HD
ENDBRANCH  24  33
TORSDOF 3
ENDMDL
