MODEL 1
REMARK VINA RESULT:    -3.030      0.000      0.000
REMARK INTER + INTRA:          -4.878
REMARK INTER:                  -4.181
REMARK INTRA:                  -0.697
REMARK UNBOUND:                -0.697
REMARK SMILES OC[C@@H](O)[C@@H](O)[C@@H](O)CO
REMARK SMILES IDX 5 1 7 2 9 3 10 4 8 6 3 8 2 9 1 10 4 12 6 14
REMARK H PARENT 10 5 8 7 1 11 4 13 6 15
REMARK Flexibility Score: inf
ROOT
ATOM      1  C   UNL     1      -2.690  -4.663   5.209  1.00  0.00     0.176 C 
ENDROOT
BRANCH   1   2
ATOM      2  C   UNL     1      -1.749  -5.622   5.990  1.00  0.00     0.171 C 
BRANCH   2   3
ATOM      3  C   UNL     1      -0.554  -4.890   6.621  1.00  0.00     0.190 C 
BRANCH   3   4
ATOM      4  O   UNL     1      -0.980  -4.170   7.745  1.00  0.00    -0.394 OA
ATOM      5  H   UNL     1      -0.388  -3.377   7.805  1.00  0.00     0.210 HD
ENDBRANCH   3   4
ENDBRANCH   2   3
BRANCH   2   6
ATOM      6  O   UNL     1      -1.302  -6.666   5.163  1.00  0.00    -0.388 OA
ATOM      7  H   UNL     1      -0.375  -6.884   5.442  1.00  0.00     0.211 HD
ENDBRANCH   2   6
ENDBRANCH   1   2
BRANCH   1   8
ATOM      8  C   UNL     1      -3.792  -5.321   4.327  1.00  0.00     0.171 C 
BRANCH   8   9
ATOM      9  C   UNL     1      -5.034  -4.441   4.075  1.00  0.00     0.190 C 
BRANCH   9  10
ATOM     10  O   UNL     1      -4.654  -3.184   3.588  1.00  0.00    -0.394 OA
ATOM     11  H   UNL     1      -4.546  -3.288   2.606  1.00  0.00     0.210 HD
ENDBRANCH   9  10
ENDBRANCH   8   9
BRANCH   8  12
ATOM     12  O   UNL     1      -3.213  -5.659   3.091  1.00  0.00    -0.388 OA
ATOM     13  H   UNL     1      -3.589  -5.038   2.412  1.00  0.00     0.211 HD
ENDBRANCH   8  12
ENDBRANCH   1   8
BRANCH   1  14
ATOM     14  O   UNL     1      -3.237  -3.683   6.058  1.00  0.00    -0.388 OA
ATOM     15  H   UNL     1      -2.514  -3.335   6.640  1.00  0.00     0.211 HD
ENDBRANCH   1  14
TORSDOF 9
ENDMDL
MODEL 2
REMARK VINA RESULT:    -3.026      2.344      3.162
REMARK INTER + INTRA:          -4.872
REMARK INTER:                  -4.223
REMARK INTRA:                  -0.649
REMARK UNBOUND:                -0.697
REMARK SMILES OC[C@@H](O)[C@@H](O)[C@@H](O)CO
REMARK SMILES IDX 5 1 7 2 9 3 10 4 8 6 3 8 2 9 1 10 4 12 6 14
REMARK H PARENT 10 5 8 7 1 11 4 13 6 15
REMARK Flexibility Score: inf
ROOT
ATOM      1  C   UNL     1      -3.695  -3.317   5.543  1.00  0.00     0.176 C 
ENDROOT
BRANCH   1   2
ATOM      2  C   UNL     1      -3.880  -3.838   6.996  1.00  0.00     0.171 C 
BRANCH   2   3
ATOM      3  C   UNL     1      -4.780  -2.922   7.841  1.00  0.00     0.190 C 
BRANCH   3   4
ATOM      4  O   UNL     1      -6.078  -2.918   7.314  1.00  0.00    -0.394 OA
ATOM      5  H   UNL     1      -6.299  -1.968   7.134  1.00  0.00     0.210 HD
ENDBRANCH   3   4
ENDBRANCH   2   3
BRANCH   2   6
ATOM      6  O   UNL     1      -2.636  -4.017   7.623  1.00  0.00    -0.388 OA
ATOM      7  H   UNL     1      -2.801  -4.532   8.456  1.00  0.00     0.211 HD
ENDBRANCH   2   6
ENDBRANCH   1   2
BRANCH   1   8
ATOM      8  C   UNL     1      -4.275  -4.198   4.398  1.00  0.00     0.171 C 
BRANCH   8   9
ATOM      9  C   UNL     1      -5.346  -5.216   4.840  1.00  0.00     0.190 C 
BRANCH   9  10
ATOM     10  O   UNL     1      -6.606  -4.606   4.905  1.00  0.00    -0.394 OA
ATOM     11  H   UNL     1      -6.709  -4.092   4.061  1.00  0.00     0.210 HD
ENDBRANCH   9  10
ENDBRANCH   8   9
BRANCH   8  12
ATOM     12  O   UNL     1      -4.829  -3.341   3.431  1.00  0.00    -0.388 OA
ATOM     13  H   UNL     1      -4.486  -3.637   2.546  1.00  0.00     0.211 HD
ENDBRANCH   8  12
ENDBRANCH   1   8
BRANCH   1  14
ATOM     14  O   UNL     1      -4.125  -1.982   5.423  1.00  0.00    -0.388 OA
ATOM     15  H   UNL     1      -3.866  -1.650   4.526  1.00  0.00     0.211 HD
ENDBRANCH   1  14
TORSDOF 9
ENDMDL
MODEL 3
REMARK VINA RESULT:    -3.018      1.997      3.593
REMARK INTER + INTRA:          -4.862
REMARK INTER:                  -4.331
REMARK INTRA:                  -0.531
REMARK UNBOUND:                -0.697
REMARK SMILES OC[C@@H](O)[C@@H](O)[C@@H](O)CO
REMARK SMILES IDX 5 1 7 2 9 3 10 4 8 6 3 8 2 9 1 10 4 12 6 14
REMARK H PARENT 10 5 8 7 1 11 4 13 6 15
REMARK Flexibility Score: inf
ROOT
ATOM      1  C   UNL     1      -3.721  -3.748   5.014  1.00  0.00     0.176 C 
ENDROOT
BRANCH   1   2
ATOM      2  C   UNL     1      -4.218  -3.222   6.390  1.00  0.00     0.171 C 
BRANCH   2   3
ATOM      3  C   UNL     1      -5.361  -4.072   6.967  1.00  0.00     0.190 C 
BRANCH   3   4
ATOM      4  O   UNL     1      -6.460  -4.040   6.099  1.00  0.00    -0.394 OA
ATOM      5  H   UNL     1      -7.086  -3.366   6.471  1.00  0.00     0.210 HD
ENDBRANCH   3   4
ENDBRANCH   2   3
BRANCH   2   6
ATOM      6  O   UNL     1      -4.608  -1.876   6.297  1.00  0.00    -0.388 OA
ATOM      7  H   UNL     1      -3.804  -1.325   6.487  1.00  0.00     0.211 HD
ENDBRANCH   2   6
ENDBRANCH   1   2
BRANCH   1   8
ATOM      8  C   UNL     1      -3.518  -5.286   4.878  1.00  0.00     0.171 C 
BRANCH   8   9
ATOM      9  C   UNL     1      -4.075  -5.903   3.579  1.00  0.00     0.190 C 
BRANCH   9  10
ATOM     10  O   UNL     1      -3.267  -5.560   2.487  1.00  0.00    -0.394 OA
ATOM     11  H   UNL     1      -3.873  -5.165   1.807  1.00  0.00     0.210 HD
ENDBRANCH   9  10
ENDBRANCH   8   9
BRANCH   8  12
ATOM     12  O   UNL     1      -2.139  -5.549   4.955  1.00  0.00    -0.388 OA
ATOM     13  H   UNL     1      -1.884  -5.495   5.914  1.00  0.00     0.211 HD
ENDBRANCH   8  12
ENDBRANCH   1   8
BRANCH   1  14
ATOM     14  O   UNL     1      -4.508  -3.245   3.962  1.00  0.00    -0.388 OA
ATOM     15  H   UNL     1      -5.386  -2.970   4.332  1.00  0.00     0.211 HD
ENDBRANCH   1  14
TORSDOF 9
ENDMDL
MODEL 4
REMARK VINA RESULT:    -2.959      2.062      3.347
REMARK INTER + INTRA:          -4.780
REMARK INTER:                  -4.357
REMARK INTRA:                  -0.423
REMARK UNBOUND:                -0.697
REMARK SMILES OC[C@@H](O)[C@@H](O)[C@@H](O)CO
REMARK SMILES IDX 5 1 7 2 9 3 10 4 8 6 3 8 2 9 1 10 4 12 6 14
REMARK H PARENT 10 5 8 7 1 11 4 13 6 15
REMARK Flexibility Score: inf
ROOT
ATOM      1  C   UNL     1      -3.463  -5.338   4.681  1.00  0.00     0.176 C 
ENDROOT
BRANCH   1   2
ATOM      2  C   UNL     1      -3.768  -6.200   3.424  1.00  0.00     0.171 C 
BRANCH   2   3
ATOM      3  C   UNL     1      -3.275  -7.649   3.568  1.00  0.00     0.190 C 
BRANCH   3   4
ATOM      4  O   UNL     1      -1.885  -7.693   3.402  1.00  0.00    -0.394 OA
ATOM      5  H   UNL     1      -1.724  -7.720   2.424  1.00  0.00     0.210 HD
ENDBRANCH   3   4
ENDBRANCH   2   3
BRANCH   2   6
ATOM      6  O   UNL     1      -3.223  -5.610   2.271  1.00  0.00    -0.388 OA
ATOM      7  H   UNL     1      -2.400  -6.116   2.045  1.00  0.00     0.211 HD
ENDBRANCH   2   6
ENDBRANCH   1   2
BRANCH   1   8
ATOM      8  C   UNL     1      -4.441  -4.166   4.987  1.00  0.00     0.171 C 
BRANCH   8   9
ATOM      9  C   UNL     1      -4.067  -3.310   6.214  1.00  0.00     0.190 C 
BRANCH   9  10
ATOM     10  O   UNL     1      -4.451  -1.977   6.018  1.00  0.00    -0.394 OA
ATOM     11  H   UNL     1      -5.341  -1.879   6.448  1.00  0.00     0.210 HD
ENDBRANCH   9  10
ENDBRANCH   8   9
BRANCH   8  12
ATOM     12  O   UNL     1      -4.494  -3.339   3.851  1.00  0.00    -0.388 OA
ATOM     13  H   UNL     1      -4.143  -2.449   4.120  1.00  0.00     0.211 HD
ENDBRANCH   8  12
ENDBRANCH   1   8
BRANCH   1  14
ATOM     14  O   UNL     1      -3.267  -6.146   5.816  1.00  0.00    -0.388 OA
ATOM     15  H   UNL     1      -3.753  -5.738   6.578  1.00  0.00     0.211 HD
ENDBRANCH   1  14
TORSDOF 9
ENDMDL
MODEL 5
REMARK VINA RESULT:    -2.951      1.384      4.478
REMARK INTER + INTRA:          -4.769
REMARK INTER:                  -4.229
REMARK INTRA:                  -0.540
REMARK UNBOUND:                -0.697
REMARK SMILES OC[C@@H](O)[C@@H](O)[C@@H](O)CO
REMARK SMILES IDX 5 1 7 2 9 3 10 4 8 6 3 8 2 9 1 10 4 12 6 14
REMARK H PARENT 10 5 8 7 1 11 4 13 6 15
REMARK Flexibility Score: inf
ROOT
ATOM      1  C   UNL     1      -2.699  -4.229   5.846  1.00  0.00     0.176 C 
ENDROOT
BRANCH   1   2
ATOM      2  C   UNL     1      -4.177  -3.756   5.755  1.00  0.00     0.171 C 
BRANCH   2   3
ATOM      3  C   UNL     1      -4.863  -4.213   4.458  1.00  0.00     0.190 C 
BRANCH   3   4
ATOM      4  O   UNL     1      -4.658  -3.260   3.452  1.00  0.00    -0.394 OA
ATOM      5  H   UNL     1      -3.947  -3.626   2.866  1.00  0.00     0.210 HD
ENDBRANCH   3   4
ENDBRANCH   2   3
BRANCH   2   6
ATOM      6  O   UNL     1      -4.262  -2.360   5.887  1.00  0.00    -0.388 OA
ATOM      7  H   UNL     1      -3.568  -2.086   6.542  1.00  0.00     0.211 HD
ENDBRANCH   2   6
ENDBRANCH   1   2
BRANCH   1   8
ATOM      8  C   UNL     1      -2.219  -4.781   7.220  1.00  0.00     0.171 C 
BRANCH   8   9
ATOM      9  C   UNL     1      -0.703  -5.046   7.320  1.00  0.00     0.190 C 
BRANCH   9  10
ATOM     10  O   UNL     1       0.006  -4.161   6.498  1.00  0.00    -0.394 OA
ATOM     11  H   UNL     1       0.163  -3.344   7.041  1.00  0.00     0.210 HD
ENDBRANCH   9  10
ENDBRANCH   8   9
BRANCH   8  12
ATOM     12  O   UNL     1      -2.587  -3.854   8.211  1.00  0.00    -0.388 OA
ATOM     13  H   UNL     1      -2.647  -2.964   7.773  1.00  0.00     0.211 HD
ENDBRANCH   8  12
ENDBRANCH   1   8
BRANCH   1  14
ATOM     14  O   UNL     1      -2.384  -5.119   4.802  1.00  0.00    -0.388 OA
ATOM     15  H   UNL     1      -3.144  -5.745   4.686  1.00  0.00     0.211 HD
ENDBRANCH   1  14
TORSDOF 9
ENDMDL
MODEL 6
REMARK VINA RESULT:    -2.949      2.107      3.284
REMARK INTER + INTRA:          -4.767
REMARK INTER:                  -4.422
REMARK INTRA:                  -0.345
REMARK UNBOUND:                -0.697
REMARK SMILES OC[C@@H](O)[C@@H](O)[C@@H](O)CO
REMARK SMILES IDX 5 1 7 2 9 3 10 4 8 6 3 8 2 9 1 10 4 12 6 14
REMARK H PARENT 10 5 8 7 1 11 4 13 6 15
REMARK Flexibility Score: inf
ROOT
ATOM      1  C   UNL     1      -4.964  -4.549   4.245  1.00  0.00     0.176 C 
ENDROOT
BRANCH   1   2
ATOM      2  C   UNL     1      -4.206  -5.768   3.649  1.00  0.00     0.171 C 
BRANCH   2   3
ATOM      3  C   UNL     1      -3.428  -6.556   4.714  1.00  0.00     0.190 C 
BRANCH   3   4
ATOM      4  O   UNL     1      -2.112  -6.081   4.786  1.00  0.00    -0.394 OA
ATOM      5  H   UNL     1      -2.145  -5.133   4.498  1.00  0.00     0.210 HD
ENDBRANCH   3   4
ENDBRANCH   2   3
BRANCH   2   6
ATOM      6  O   UNL     1      -3.347  -5.363   2.614  1.00  0.00    -0.388 OA
ATOM      7  H   UNL     1      -3.915  -4.972   1.899  1.00  0.00     0.211 HD
ENDBRANCH   2   6
ENDBRANCH   1   2
BRANCH   1   8
ATOM      8  C   UNL     1      -4.961  -4.406   5.796  1.00  0.00     0.171 C 
BRANCH   8   9
ATOM      9  C   UNL     1      -3.989  -3.344   6.349  1.00  0.00     0.190 C 
BRANCH   9  10
ATOM     10  O   UNL     1      -4.546  -2.064   6.240  1.00  0.00    -0.394 OA
ATOM     11  H   UNL     1      -3.793  -1.424   6.335  1.00  0.00     0.210 HD
ENDBRANCH   9  10
ENDBRANCH   8   9
BRANCH   8  12
ATOM     12  O   UNL     1      -6.268  -4.086   6.203  1.00  0.00    -0.388 OA
ATOM     13  H   UNL     1      -6.231  -3.188   6.627  1.00  0.00     0.211 HD
ENDBRANCH   8  12
ENDBRANCH   1   8
BRANCH   1  14
ATOM     14  O   UNL     1      -4.568  -3.349   3.625  1.00  0.00    -0.388 OA
ATOM     15  H   UNL     1      -4.226  -2.734   4.323  1.00  0.00     0.211 HD
ENDBRANCH   1  14
TORSDOF 9
ENDMDL
MODEL 7
REMARK VINA RESULT:    -2.914     11.306     12.551
REMARK INTER + INTRA:          -4.718
REMARK INTER:                  -4.043
REMARK INTRA:                  -0.675
REMARK UNBOUND:                -0.697
REMARK SMILES OC[C@@H](O)[C@@H](O)[C@@H](O)CO
REMARK SMILES IDX 5 1 7 2 9 3 10 4 8 6 3 8 2 9 1 10 4 12 6 14
REMARK H PARENT 10 5 8 7 1 11 4 13 6 15
REMARK Flexibility Score: inf
ROOT
ATOM      1  C   UNL     1      -1.609   4.510  -3.632  1.00  0.00     0.176 C 
ENDROOT
BRANCH   1   2
ATOM      2  C   UNL     1      -2.617   3.377  -3.972  1.00  0.00     0.171 C 
BRANCH   2   3
ATOM      3  C   UNL     1      -4.073   3.776  -3.682  1.00  0.00     0.190 C 
BRANCH   3   4
ATOM      4  O   UNL     1      -4.522   3.122  -2.528  1.00  0.00    -0.394 OA
ATOM      5  H   UNL     1      -5.260   3.677  -2.165  1.00  0.00     0.210 HD
ENDBRANCH   3   4
ENDBRANCH   2   3
BRANCH   2   6
ATOM      6  O   UNL     1      -2.288   2.195  -3.287  1.00  0.00    -0.388 OA
ATOM      7  H   UNL     1      -3.048   1.568  -3.404  1.00  0.00     0.211 HD
ENDBRANCH   2   6
ENDBRANCH   1   2
BRANCH   1   8
ATOM      8  C   UNL     1      -1.981   5.452  -2.449  1.00  0.00     0.171 C 
BRANCH   8   9
ATOM      9  C   UNL     1      -1.514   4.969  -1.061  1.00  0.00     0.190 C 
BRANCH   9  10
ATOM     10  O   UNL     1      -1.940   3.654  -0.830  1.00  0.00    -0.394 OA
ATOM     11  H   UNL     1      -1.716   3.452   0.116  1.00  0.00     0.210 HD
ENDBRANCH   9  10
ENDBRANCH   8   9
BRANCH   8  12
ATOM     12  O   UNL     1      -1.416   6.714  -2.707  1.00  0.00    -0.388 OA
ATOM     13  H   UNL     1      -0.598   6.563  -3.251  1.00  0.00     0.211 HD
ENDBRANCH   8  12
ENDBRANCH   1   8
BRANCH   1  14
ATOM     14  O   UNL     1      -0.304   4.005  -3.487  1.00  0.00    -0.388 OA
ATOM     15  H   UNL     1       0.282   4.738  -3.167  1.00  0.00     0.211 HD
ENDBRANCH   1  14
TORSDOF 9
ENDMDL
MODEL 8
REMARK VINA RESULT:    -2.906     13.163     13.898
REMARK INTER + INTRA:          -4.708
REMARK INTER:                  -3.901
REMARK INTRA:                  -0.807
REMARK UNBOUND:                -0.697
REMARK SMILES OC[C@@H](O)[C@@H](O)[C@@H](O)CO
REMARK SMILES IDX 5 1 7 2 9 3 10 4 8 6 3 8 2 9 1 10 4 12 6 14
REMARK H PARENT 10 5 8 7 1 11 4 13 6 15
REMARK Flexibility Score: inf
ROOT
ATOM      1  C   UNL     1       5.749   2.975  -0.472  1.00  0.00     0.176 C 
ENDROOT
BRANCH   1   2
ATOM      2  C   UNL     1       5.991   3.464  -1.928  1.00  0.00     0.171 C 
BRANCH   2   3
ATOM      3  C   UNL     1       7.446   3.266  -2.382  1.00  0.00     0.190 C 
BRANCH   3   4
ATOM      4  O   UNL     1       8.295   4.072  -1.613  1.00  0.00    -0.394 OA
ATOM      5  H   UNL     1       9.149   3.574  -1.532  1.00  0.00     0.210 HD
ENDBRANCH   3   4
ENDBRANCH   2   3
BRANCH   2   6
ATOM      6  O   UNL     1       5.612   4.809  -2.071  1.00  0.00    -0.388 OA
ATOM      7  H   UNL     1       6.350   5.361  -1.701  1.00  0.00     0.211 HD
ENDBRANCH   2   6
ENDBRANCH   1   2
BRANCH   1   8
ATOM      8  C   UNL     1       6.359   1.597  -0.082  1.00  0.00     0.171 C 
BRANCH   8   9
ATOM      9  C   UNL     1       7.344   1.634   1.105  1.00  0.00     0.190 C 
BRANCH   9  10
ATOM     10  O   UNL     1       8.564   2.200   0.712  1.00  0.00    -0.394 OA
ATOM     11  H   UNL     1       8.461   2.445  -0.245  1.00  0.00     0.210 HD
ENDBRANCH   9  10
ENDBRANCH   8   9
BRANCH   8  12
ATOM     12  O   UNL     1       5.299   0.728   0.232  1.00  0.00    -0.388 OA
ATOM     13  H   UNL     1       5.663  -0.197   0.212  1.00  0.00     0.211 HD
ENDBRANCH   8  12
ENDBRANCH   1   8
BRANCH   1  14
ATOM     14  O   UNL     1       6.097   3.967   0.463  1.00  0.00    -0.388 OA
ATOM     15  H   UNL     1       6.409   3.521   1.291  1.00  0.00     0.211 HD
ENDBRANCH   1  14
TORSDOF 9
ENDMDL
MODEL 9
REMARK VINA RESULT:    -2.847      1.190      2.303
REMARK INTER + INTRA:          -4.626
REMARK INTER:                  -4.080
REMARK INTRA:                  -0.546
REMARK UNBOUND:                -0.697
REMARK SMILES OC[C@@H](O)[C@@H](O)[C@@H](O)CO
REMARK SMILES IDX 5 1 7 2 9 3 10 4 8 6 3 8 2 9 1 10 4 12 6 14
REMARK H PARENT 10 5 8 7 1 11 4 13 6 15
REMARK Flexibility Score: inf
ROOT
ATOM      1  C   UNL     1      -3.504  -5.126   4.805  1.00  0.00     0.176 C 
ENDROOT
BRANCH   1   2
ATOM      2  C   UNL     1      -2.665  -4.048   5.548  1.00  0.00     0.171 C 
BRANCH   2   3
ATOM      3  C   UNL     1      -1.469  -4.649   6.302  1.00  0.00     0.190 C 
BRANCH   3   4
ATOM      4  O   UNL     1      -1.400  -4.104   7.591  1.00  0.00    -0.394 OA
ATOM      5  H   UNL     1      -0.451  -4.176   7.871  1.00  0.00     0.210 HD
ENDBRANCH   3   4
ENDBRANCH   2   3
BRANCH   2   6
ATOM      6  O   UNL     1      -3.473  -3.305   6.424  1.00  0.00    -0.388 OA
ATOM      7  H   UNL     1      -4.056  -3.950   6.903  1.00  0.00     0.211 HD
ENDBRANCH   2   6
ENDBRANCH   1   2
BRANCH   1   8
ATOM      8  C   UNL     1      -4.722  -4.624   3.977  1.00  0.00     0.171 C 
BRANCH   8   9
ATOM      9  C   UNL     1      -6.101  -4.911   4.606  1.00  0.00     0.190 C 
BRANCH   9  10
ATOM     10  O   UNL     1      -6.224  -4.255   5.838  1.00  0.00    -0.394 OA
ATOM     11  H   UNL     1      -5.834  -3.350   5.710  1.00  0.00     0.210 HD
ENDBRANCH   9  10
ENDBRANCH   8   9
BRANCH   8  12
ATOM     12  O   UNL     1      -4.582  -3.236   3.798  1.00  0.00    -0.388 OA
ATOM     13  H   UNL     1      -5.085  -2.794   4.533  1.00  0.00     0.211 HD
ENDBRANCH   8  12
ENDBRANCH   1   8
BRANCH   1  14
ATOM     14  O   UNL     1      -2.681  -5.971   4.037  1.00  0.00    -0.388 OA
ATOM     15  H   UNL     1      -2.036  -5.409   3.537  1.00  0.00     0.211 HD
ENDBRANCH   1  14
TORSDOF 9
ENDMDL
