MODEL 1
REMARK VINA RESULT:    -4.851      0.000      0.000
REMARK INTER + INTRA:         -10.992
REMARK INTER:                  -9.105
REMARK INTRA:                  -1.887
REMARK UNBOUND:                -1.887
REMARK SMILES O=C([O-])CCCCCCCCCCCCCCC(=O)[O-]
REMARK SMILES IDX 10 1 9 2 8 3 7 4 6 5 5 6 4 7 2 8 1 9 3 10 11 11 12 12 13 13
REMARK SMILES IDX 14 14 15 15 16 16 17 17 18 18 19 19 20 20
REMARK H PARENT
REMARK Flexibility Score: inf
ROOT
ATOM      1  C   UNL     1      -4.330   9.909 -10.287  1.00  0.00     0.000 C 
ENDROOT
BRANCH   1   2
ATOM      2  C   UNL     1      -3.235  10.323  -9.287  1.00  0.00     0.000 C 
BRANCH   2   3
ATOM      3  C   UNL     1      -2.940  11.833  -9.227  1.00  0.00     0.000 C 
BRANCH   3   4
ATOM      4  C   UNL     1      -1.722  12.175  -8.358  1.00  0.00     0.000 C 
BRANCH   4   5
ATOM      5  C   UNL     1      -0.966  10.903  -7.948  1.00  0.00     0.000 C 
BRANCH   5   6
ATOM      6  C   UNL     1       0.553  11.125  -7.821  1.00  0.00     0.006 C 
BRANCH   6   7
ATOM      7  C   UNL     1       1.401   9.879  -8.118  1.00  0.00     0.053 C 
BRANCH   7   8
ATOM      8  C   UNL     1       2.867  10.186  -8.117  1.00  0.00     0.041 C 
ATOM      9  O   UNL     1       3.577   9.895  -9.115  1.00  0.00    -0.550 OA
ATOM     10  O   UNL     1       3.442  10.825  -7.026  1.00  0.00    -0.550 OA
ENDBRANCH   7   8
ENDBRANCH   6   7
ENDBRANCH   5   6
ENDBRANCH   4   5
ENDBRANCH   3   4
ENDBRANCH   2   3
ENDBRANCH   1   2
BRANCH   1  11
ATOM     11  C   UNL     1      -5.217  11.086 -10.724  1.00  0.00     0.000 C 
BRANCH  11  12
ATOM     12  C   UNL     1      -6.692  10.888 -10.336  1.00  0.00     0.000 C 
BRANCH  12  13
ATOM     13  C   UNL     1      -7.010  11.410  -8.924  1.00  0.00     0.000 C 
BRANCH  13  14
ATOM     14  C   UNL     1      -6.356  12.771  -8.638  1.00  0.00     0.000 C 
BRANCH  14  15
ATOM     15  C   UNL     1      -6.102  13.001  -7.140  1.00  0.00     0.000 C 
BRANCH  15  16
ATOM     16  C   UNL     1      -5.267  11.860  -6.542  1.00  0.00     0.006 C 
BRANCH  16  17
ATOM     17  C   UNL     1      -4.204  12.370  -5.560  1.00  0.00     0.053 C 
BRANCH  17  18
ATOM     18  C   UNL     1      -3.293  11.270  -5.109  1.00  0.00     0.041 C 
ATOM     19  O   UNL     1      -3.547  10.073  -5.406  1.00  0.00    -0.550 OA
ATOM     20  O   UNL     1      -2.181  11.564  -4.331  1.00  0.00    -0.550 OA
ENDBRANCH  17  18
ENDBRANCH  16  17
ENDBRANCH  15  16
ENDBRANCH  14  15
ENDBRANCH  13  14
ENDBRANCH  12  13
ENDBRANCH  11  12
ENDBRANCH   1  11
TORSDOF 15
ENDMDL
MODEL 2
REMARK VINA RESULT:    -4.805      2.627      6.267
REMARK INTER + INTRA:         -10.905
REMARK INTER:                  -9.141
REMARK INTRA:                  -1.764
REMARK UNBOUND:                -1.887
REMARK SMILES O=C([O-])CCCCCCCCCCCCCCC(=O)[O-]
REMARK SMILES IDX 10 1 9 2 8 3 7 4 6 5 5 6 4 7 2 8 1 9 3 10 11 11 12 12 13 13
REMARK SMILES IDX 14 14 15 15 16 16 17 17 18 18 19 19 20 20
REMARK H PARENT
REMARK Flexibility Score: inf
ROOT
ATOM      1  C   UNL     1      -3.339  10.376  -8.450  1.00  0.00     0.000 C 
ENDROOT
BRANCH   1   2
ATOM      2  C   UNL     1      -3.404  11.098  -9.808  1.00  0.00     0.000 C 
BRANCH   2   3
ATOM      3  C   UNL     1      -4.644  10.773 -10.663  1.00  0.00     0.000 C 
BRANCH   3   4
ATOM      4  C   UNL     1      -5.960  11.214 -10.005  1.00  0.00     0.000 C 
BRANCH   4   5
ATOM      5  C   UNL     1      -6.953  10.045  -9.926  1.00  0.00     0.000 C 
BRANCH   5   6
ATOM      6  C   UNL     1      -6.376   8.819  -9.195  1.00  0.00     0.006 C 
BRANCH   6   7
ATOM      7  C   UNL     1      -6.512   7.499  -9.969  1.00  0.00     0.053 C 
BRANCH   7   8
ATOM      8  C   UNL     1      -5.220   7.088 -10.605  1.00  0.00     0.041 C 
ATOM      9  O   UNL     1      -4.122   7.398 -10.070  1.00  0.00    -0.550 OA
ATOM     10  O   UNL     1      -5.228   6.334 -11.771  1.00  0.00    -0.550 OA
ENDBRANCH   7   8
ENDBRANCH   6   7
ENDBRANCH   5   6
ENDBRANCH   4   5
ENDBRANCH   3   4
ENDBRANCH   2   3
ENDBRANCH   1   2
BRANCH   1  11
ATOM     11  C   UNL     1      -3.743  11.279  -7.272  1.00  0.00     0.000 C 
BRANCH  11  12
ATOM     12  C   UNL     1      -3.417  12.761  -7.527  1.00  0.00     0.000 C 
BRANCH  12  13
ATOM     13  C   UNL     1      -2.091  13.196  -6.880  1.00  0.00     0.000 C 
BRANCH  13  14
ATOM     14  C   UNL     1      -1.703  12.316  -5.680  1.00  0.00     0.000 C 
BRANCH  14  15
ATOM     15  C   UNL     1      -0.417  11.513  -5.928  1.00  0.00     0.000 C 
BRANCH  15  16
ATOM     16  C   UNL     1       0.217  11.894  -7.273  1.00  0.00     0.006 C 
BRANCH  16  17
ATOM     17  C   UNL     1       0.582  10.663  -8.114  1.00  0.00     0.053 C 
BRANCH  17  18
ATOM     18  C   UNL     1       2.055  10.396  -8.098  1.00  0.00     0.041 C 
ATOM     19  O   UNL     1       2.577   9.665  -8.981  1.00  0.00    -0.550 OA
ATOM     20  O   UNL     1       2.847  10.929  -7.089  1.00  0.00    -0.550 OA
ENDBRANCH  17  18
ENDBRANCH  16  17
ENDBRANCH  15  16
ENDBRANCH  14  15
ENDBRANCH  13  14
ENDBRANCH  12  13
ENDBRANCH  11  12
ENDBRANCH   1  11
TORSDOF 15
ENDMDL
MODEL 3
REMARK VINA RESULT:    -4.802      2.378      6.508
REMARK INTER + INTRA:         -10.900
REMARK INTER:                  -9.493
REMARK INTRA:                  -1.407
REMARK UNBOUND:                -1.887
REMARK SMILES O=C([O-])CCCCCCCCCCCCCCC(=O)[O-]
REMARK SMILES IDX 10 1 9 2 8 3 7 4 6 5 5 6 4 7 2 8 1 9 3 10 11 11 12 12 13 13
REMARK SMILES IDX 14 14 15 15 16 16 17 17 18 18 19 19 20 20
REMARK H PARENT
REMARK Flexibility Score: inf
ROOT
ATOM      1  C   UNL     1      -4.987  13.294  -7.694  1.00  0.00     0.000 C 
ENDROOT
BRANCH   1   2
ATOM      2  C   UNL     1      -6.100  12.936  -8.696  1.00  0.00     0.000 C 
BRANCH   2   3
ATOM      3  C   UNL     1      -6.392  11.430  -8.839  1.00  0.00     0.000 C 
BRANCH   3   4
ATOM      4  C   UNL     1      -6.030  10.876 -10.225  1.00  0.00     0.000 C 
BRANCH   4   5
ATOM      5  C   UNL     1      -4.510  10.721 -10.375  1.00  0.00     0.000 C 
BRANCH   5   6
ATOM      6  C   UNL     1      -4.085   9.275 -10.688  1.00  0.00     0.006 C 
BRANCH   6   7
ATOM      7  C   UNL     1      -4.627   8.229  -9.703  1.00  0.00     0.053 C 
BRANCH   7   8
ATOM      8  C   UNL     1      -5.651   7.339 -10.338  1.00  0.00     0.041 C 
ATOM      9  O   UNL     1      -5.337   6.605 -11.312  1.00  0.00    -0.550 OA
ATOM     10  O   UNL     1      -6.944   7.296  -9.832  1.00  0.00    -0.550 OA
ENDBRANCH   7   8
ENDBRANCH   6   7
ENDBRANCH   5   6
ENDBRANCH   4   5
ENDBRANCH   3   4
ENDBRANCH   2   3
ENDBRANCH   1   2
BRANCH   1  11
ATOM     11  C   UNL     1      -4.427  12.066  -6.957  1.00  0.00     0.000 C 
BRANCH  11  12
ATOM     12  C   UNL     1      -3.148  12.387  -6.166  1.00  0.00     0.000 C 
BRANCH  12  13
ATOM     13  C   UNL     1      -2.114  11.248  -6.222  1.00  0.00     0.000 C 
BRANCH  13  14
ATOM     14  C   UNL     1      -1.777  10.828  -7.662  1.00  0.00     0.000 C 
BRANCH  14  15
ATOM     15  C   UNL     1      -0.755  11.764  -8.327  1.00  0.00     0.000 C 
BRANCH  15  16
ATOM     16  C   UNL     1       0.656  11.514  -7.778  1.00  0.00     0.006 C 
BRANCH  16  17
ATOM     17  C   UNL     1       1.150  10.091  -8.071  1.00  0.00     0.053 C 
BRANCH  17  18
ATOM     18  C   UNL     1       2.595  10.076  -8.466  1.00  0.00     0.041 C 
ATOM     19  O   UNL     1       3.439  10.742  -7.810  1.00  0.00    -0.550 OA
ATOM     20  O   UNL     1       3.004   9.352  -9.578  1.00  0.00    -0.550 OA
ENDBRANCH  17  18
ENDBRANCH  16  17
ENDBRANCH  15  16
ENDBRANCH  14  15
ENDBRANCH  13  14
ENDBRANCH  12  13
ENDBRANCH  11  12
ENDBRANCH   1  11
TORSDOF 15
ENDMDL
MODEL 4
REMARK VINA RESULT:    -4.758      2.971      4.083
REMARK INTER + INTRA:         -10.818
REMARK INTER:                  -9.307
REMARK INTRA:                  -1.511
REMARK UNBOUND:                -1.887
REMARK SMILES O=C([O-])CCCCCCCCCCCCCCC(=O)[O-]
REMARK SMILES IDX 10 1 9 2 8 3 7 4 6 5 5 6 4 7 2 8 1 9 3 10 11 11 12 12 13 13
REMARK SMILES IDX 14 14 15 15 16 16 17 17 18 18 19 19 20 20
REMARK H PARENT
REMARK Flexibility Score: inf
ROOT
ATOM      1  C   UNL     1      -3.198  10.731  -9.461  1.00  0.00     0.000 C 
ENDROOT
BRANCH   1   2
ATOM      2  C   UNL     1      -2.970  12.116  -8.826  1.00  0.00     0.000 C 
BRANCH   2   3
ATOM      3  C   UNL     1      -2.601  12.097  -7.331  1.00  0.00     0.000 C 
BRANCH   3   4
ATOM      4  C   UNL     1      -1.910  10.796  -6.898  1.00  0.00     0.000 C 
BRANCH   4   5
ATOM      5  C   UNL     1      -0.497  11.075  -6.366  1.00  0.00     0.000 C 
BRANCH   5   6
ATOM      6  C   UNL     1       0.521  11.345  -7.490  1.00  0.00     0.006 C 
BRANCH   6   7
ATOM      7  C   UNL     1       1.110  10.077  -8.127  1.00  0.00     0.053 C 
BRANCH   7   8
ATOM      8  C   UNL     1       2.601  10.148  -8.243  1.00  0.00     0.041 C 
ATOM      9  O   UNL     1       3.181   9.690  -9.263  1.00  0.00    -0.550 OA
ATOM     10  O   UNL     1       3.349  10.752  -7.240  1.00  0.00    -0.550 OA
ENDBRANCH   7   8
ENDBRANCH   6   7
ENDBRANCH   5   6
ENDBRANCH   4   5
ENDBRANCH   3   4
ENDBRANCH   2   3
ENDBRANCH   1   2
BRANCH   1  11
ATOM     11  C   UNL     1      -4.362  10.718 -10.467  1.00  0.00     0.000 C 
BRANCH  11  12
ATOM     12  C   UNL     1      -5.552  11.573 -10.000  1.00  0.00     0.000 C 
BRANCH  12  13
ATOM     13  C   UNL     1      -6.764  10.723  -9.579  1.00  0.00     0.000 C 
BRANCH  13  14
ATOM     14  C   UNL     1      -6.731  10.348  -8.088  1.00  0.00     0.000 C 
BRANCH  14  15
ATOM     15  C   UNL     1      -6.379   8.870  -7.858  1.00  0.00     0.000 C 
BRANCH  15  16
ATOM     16  C   UNL     1      -6.783   8.015  -9.067  1.00  0.00     0.006 C 
BRANCH  16  17
ATOM     17  C   UNL     1      -5.683   7.026  -9.474  1.00  0.00     0.053 C 
BRANCH  17  18
ATOM     18  C   UNL     1      -6.059   6.249 -10.698  1.00  0.00     0.041 C 
ATOM     19  O   UNL     1      -7.034   5.452 -10.668  1.00  0.00    -0.550 OA
ATOM     20  O   UNL     1      -5.314   6.381 -11.862  1.00  0.00    -0.550 OA
ENDBRANCH  17  18
ENDBRANCH  16  17
ENDBRANCH  15  16
ENDBRANCH  14  15
ENDBRANCH  13  14
ENDBRANCH  12  13
ENDBRANCH  11  12
ENDBRANCH   1  11
TORSDOF 15
ENDMDL
MODEL 5
REMARK VINA RESULT:    -4.742      3.145      4.953
REMARK INTER + INTRA:         -10.787
REMARK INTER:                  -9.797
REMARK INTRA:                  -0.989
REMARK UNBOUND:                -1.887
REMARK SMILES O=C([O-])CCCCCCCCCCCCCCC(=O)[O-]
REMARK SMILES IDX 10 1 9 2 8 3 7 4 6 5 5 6 4 7 2 8 1 9 3 10 11 11 12 12 13 13
REMARK SMILES IDX 14 14 15 15 16 16 17 17 18 18 19 19 20 20
REMARK H PARENT
REMARK Flexibility Score: inf
ROOT
ATOM      1  C   UNL     1      -2.144  11.344  -6.478  1.00  0.00     0.000 C 
ENDROOT
BRANCH   1   2
ATOM      2  C   UNL     1      -1.665  12.646  -5.809  1.00  0.00     0.000 C 
BRANCH   2   3
ATOM      3  C   UNL     1      -0.296  13.163  -6.290  1.00  0.00     0.000 C 
BRANCH   3   4
ATOM      4  C   UNL     1       0.732  13.285  -5.156  1.00  0.00     0.000 C 
BRANCH   4   5
ATOM      5  C   UNL     1       2.022  12.526  -5.501  1.00  0.00     0.000 C 
BRANCH   5   6
ATOM      6  C   UNL     1       1.776  11.317  -6.422  1.00  0.00     0.006 C 
BRANCH   6   7
ATOM      7  C   UNL     1       3.004  10.881  -7.235  1.00  0.00     0.053 C 
BRANCH   7   8
ATOM      8  C   UNL     1       2.627  10.025  -8.405  1.00  0.00     0.041 C 
ATOM      9  O   UNL     1       1.445   9.610  -8.532  1.00  0.00    -0.550 OA
ATOM     10  O   UNL     1       3.574   9.713  -9.372  1.00  0.00    -0.550 OA
ENDBRANCH   7   8
ENDBRANCH   6   7
ENDBRANCH   5   6
ENDBRANCH   4   5
ENDBRANCH   3   4
ENDBRANCH   2   3
ENDBRANCH   1   2
BRANCH   1  11
ATOM     11  C   UNL     1      -1.554  11.141  -7.884  1.00  0.00     0.000 C 
BRANCH  11  12
ATOM     12  C   UNL     1      -2.373  11.854  -8.974  1.00  0.00     0.000 C 
BRANCH  12  13
ATOM     13  C   UNL     1      -3.875  11.529  -8.896  1.00  0.00     0.000 C 
BRANCH  13  14
ATOM     14  C   UNL     1      -4.370  10.733 -10.115  1.00  0.00     0.000 C 
BRANCH  14  15
ATOM     15  C   UNL     1      -4.581   9.243  -9.803  1.00  0.00     0.000 C 
BRANCH  15  16
ATOM     16  C   UNL     1      -5.990   8.791 -10.213  1.00  0.00     0.006 C 
BRANCH  16  17
ATOM     17  C   UNL     1      -6.325   7.389  -9.689  1.00  0.00     0.053 C 
BRANCH  17  18
ATOM     18  C   UNL     1      -6.075   6.336 -10.724  1.00  0.00     0.041 C 
ATOM     19  O   UNL     1      -5.241   6.537 -11.646  1.00  0.00    -0.550 OA
ATOM     20  O   UNL     1      -6.788   5.144 -10.690  1.00  0.00    -0.550 OA
ENDBRANCH  17  18
ENDBRANCH  16  17
ENDBRANCH  15  16
ENDBRANCH  14  15
ENDBRANCH  13  14
ENDBRANCH  12  13
ENDBRANCH  11  12
ENDBRANCH   1  11
TORSDOF 15
ENDMDL
MODEL 6
REMARK VINA RESULT:    -4.735      0.927      5.886
REMARK INTER + INTRA:         -10.775
REMARK INTER:                  -8.748
REMARK INTRA:                  -2.027
REMARK UNBOUND:                -1.887
REMARK SMILES O=C([O-])CCCCCCCCCCCCCCC(=O)[O-]
REMARK SMILES IDX 10 1 9 2 8 3 7 4 6 5 5 6 4 7 2 8 1 9 3 10 11 11 12 12 13 13
REMARK SMILES IDX 14 14 15 15 16 16 17 17 18 18 19 19 20 20
REMARK H PARENT
REMARK Flexibility Score: inf
ROOT
ATOM      1  C   UNL     1      -4.415   9.547  -9.543  1.00  0.00     0.000 C 
ENDROOT
BRANCH   1   2
ATOM      2  C   UNL     1      -5.855   9.781 -10.035  1.00  0.00     0.000 C 
BRANCH   2   3
ATOM      3  C   UNL     1      -6.246  11.257 -10.238  1.00  0.00     0.000 C 
BRANCH   3   4
ATOM      4  C   UNL     1      -6.753  11.927  -8.953  1.00  0.00     0.000 C 
BRANCH   4   5
ATOM      5  C   UNL     1      -5.870  13.124  -8.572  1.00  0.00     0.000 C 
BRANCH   5   6
ATOM      6  C   UNL     1      -5.248  12.986  -7.170  1.00  0.00     0.006 C 
BRANCH   6   7
ATOM      7  C   UNL     1      -5.270  11.557  -6.608  1.00  0.00     0.053 C 
BRANCH   7   8
ATOM      8  C   UNL     1      -4.210  11.347  -5.570  1.00  0.00     0.041 C 
ATOM      9  O   UNL     1      -3.830  12.307  -4.849  1.00  0.00    -0.550 OA
ATOM     10  O   UNL     1      -3.667  10.084  -5.376  1.00  0.00    -0.550 OA
ENDBRANCH   7   8
ENDBRANCH   6   7
ENDBRANCH   5   6
ENDBRANCH   4   5
ENDBRANCH   3   4
ENDBRANCH   2   3
ENDBRANCH   1   2
BRANCH   1  11
ATOM     11  C   UNL     1      -3.465  10.703  -9.901  1.00  0.00     0.000 C 
BRANCH  11  12
ATOM     12  C   UNL     1      -2.326  10.866  -8.881  1.00  0.00     0.000 C 
BRANCH  12  13
ATOM     13  C   UNL     1      -2.019  12.341  -8.565  1.00  0.00     0.000 C 
BRANCH  13  14
ATOM     14  C   UNL     1      -0.751  12.509  -7.712  1.00  0.00     0.000 C 
BRANCH  14  15
ATOM     15  C   UNL     1      -0.619  11.426  -6.629  1.00  0.00     0.000 C 
BRANCH  15  16
ATOM     16  C   UNL     1       0.779  10.792  -6.655  1.00  0.00     0.006 C 
BRANCH  16  17
ATOM     17  C   UNL     1       1.103  10.156  -8.012  1.00  0.00     0.053 C 
BRANCH  17  18
ATOM     18  C   UNL     1       2.572  10.181  -8.300  1.00  0.00     0.041 C 
ATOM     19  O   UNL     1       3.023   9.650  -9.350  1.00  0.00    -0.550 OA
ATOM     20  O   UNL     1       3.448  10.761  -7.392  1.00  0.00    -0.550 OA
ENDBRANCH  17  18
ENDBRANCH  16  17
ENDBRANCH  15  16
ENDBRANCH  14  15
ENDBRANCH  13  14
ENDBRANCH  12  13
ENDBRANCH  11  12
ENDBRANCH   1  11
TORSDOF 15
ENDMDL
MODEL 7
REMARK VINA RESULT:    -4.733      1.614      6.574
REMARK INTER + INTRA:         -10.770
REMARK INTER:                  -8.877
REMARK INTRA:                  -1.893
REMARK UNBOUND:                -1.887
REMARK SMILES O=C([O-])CCCCCCCCCCCCCCC(=O)[O-]
REMARK SMILES IDX 10 1 9 2 8 3 7 4 6 5 5 6 4 7 2 8 1 9 3 10 11 11 12 12 13 13
REMARK SMILES IDX 14 14 15 15 16 16 17 17 18 18 19 19 20 20
REMARK H PARENT
REMARK Flexibility Score: inf
ROOT
ATOM      1  C   UNL     1      -3.361   9.992  -9.254  1.00  0.00     0.000 C 
ENDROOT
BRANCH   1   2
ATOM      2  C   UNL     1      -4.153   9.705 -10.543  1.00  0.00     0.000 C 
BRANCH   2   3
ATOM      3  C   UNL     1      -5.386   8.800 -10.366  1.00  0.00     0.000 C 
BRANCH   3   4
ATOM      4  C   UNL     1      -6.616   9.554  -9.842  1.00  0.00     0.000 C 
BRANCH   4   5
ATOM      5  C   UNL     1      -6.607  11.015 -10.315  1.00  0.00     0.000 C 
BRANCH   5   6
ATOM      6  C   UNL     1      -6.649  12.021  -9.150  1.00  0.00     0.006 C 
BRANCH   6   7
ATOM      7  C   UNL     1      -6.506  11.384  -7.759  1.00  0.00     0.053 C 
BRANCH   7   8
ATOM      8  C   UNL     1      -6.187  12.401  -6.708  1.00  0.00     0.041 C 
ATOM      9  O   UNL     1      -6.279  13.631  -6.965  1.00  0.00    -0.550 OA
ATOM     10  O   UNL     1      -5.819  11.991  -5.433  1.00  0.00    -0.550 OA
ENDBRANCH   7   8
ENDBRANCH   6   7
ENDBRANCH   5   6
ENDBRANCH   4   5
ENDBRANCH   3   4
ENDBRANCH   2   3
ENDBRANCH   1   2
BRANCH   1  11
ATOM     11  C   UNL     1      -2.656  11.358  -9.276  1.00  0.00     0.000 C 
BRANCH  11  12
ATOM     12  C   UNL     1      -2.766  12.100  -7.934  1.00  0.00     0.000 C 
BRANCH  12  13
ATOM     13  C   UNL     1      -2.590  11.166  -6.723  1.00  0.00     0.000 C 
BRANCH  13  14
ATOM     14  C   UNL     1      -1.120  10.784  -6.484  1.00  0.00     0.000 C 
BRANCH  14  15
ATOM     15  C   UNL     1      -0.190  12.006  -6.444  1.00  0.00     0.000 C 
BRANCH  15  16
ATOM     16  C   UNL     1       0.923  11.884  -7.494  1.00  0.00     0.006 C 
BRANCH  16  17
ATOM     17  C   UNL     1       1.031  10.463  -8.063  1.00  0.00     0.053 C 
BRANCH  17  18
ATOM     18  C   UNL     1       2.450  10.094  -8.368  1.00  0.00     0.041 C 
ATOM     19  O   UNL     1       3.388  10.535  -7.653  1.00  0.00    -0.550 OA
ATOM     20  O   UNL     1       2.739   9.289  -9.462  1.00  0.00    -0.550 OA
ENDBRANCH  17  18
ENDBRANCH  16  17
ENDBRANCH  15  16
ENDBRANCH  14  15
ENDBRANCH  13  14
ENDBRANCH  12  13
ENDBRANCH  11  12
ENDBRANCH   1  11
TORSDOF 15
ENDMDL
MODEL 8
REMARK VINA RESULT:    -4.721      1.566      3.001
REMARK INTER + INTRA:         -10.748
REMARK INTER:                  -8.885
REMARK INTRA:                  -1.863
REMARK UNBOUND:                -1.887
REMARK SMILES O=C([O-])CCCCCCCCCCCCCCC(=O)[O-]
REMARK SMILES IDX 10 1 9 2 8 3 7 4 6 5 5 6 4 7 2 8 1 9 3 10 11 11 12 12 13 13
REMARK SMILES IDX 14 14 15 15 16 16 17 17 18 18 19 19 20 20
REMARK H PARENT
REMARK Flexibility Score: inf
ROOT
ATOM      1  C   UNL     1      -2.331  12.426  -8.562  1.00  0.00     0.000 C 
ENDROOT
BRANCH   1   2
ATOM      2  C   UNL     1      -2.509  12.947  -7.124  1.00  0.00     0.000 C 
BRANCH   2   3
ATOM      3  C   UNL     1      -1.332  13.776  -6.577  1.00  0.00     0.000 C 
BRANCH   3   4
ATOM      4  C   UNL     1      -0.382  12.960  -5.690  1.00  0.00     0.000 C 
BRANCH   4   5
ATOM      5  C   UNL     1       0.779  12.383  -6.514  1.00  0.00     0.000 C 
BRANCH   5   6
ATOM      6  C   UNL     1       0.695  10.854  -6.677  1.00  0.00     0.006 C 
BRANCH   6   7
ATOM      7  C   UNL     1       1.030  10.349  -8.088  1.00  0.00     0.053 C 
BRANCH   7   8
ATOM      8  C   UNL     1       2.495  10.083  -8.254  1.00  0.00     0.041 C 
ATOM      9  O   UNL     1       2.931   9.581  -9.324  1.00  0.00    -0.550 OA
ATOM     10  O   UNL     1       3.382  10.421  -7.241  1.00  0.00    -0.550 OA
ENDBRANCH   7   8
ENDBRANCH   6   7
ENDBRANCH   5   6
ENDBRANCH   4   5
ENDBRANCH   3   4
ENDBRANCH   2   3
ENDBRANCH   1   2
BRANCH   1  11
ATOM     11  C   UNL     1      -2.594  10.916  -8.688  1.00  0.00     0.000 C 
BRANCH  11  12
ATOM     12  C   UNL     1      -3.341  10.555  -9.983  1.00  0.00     0.000 C 
BRANCH  12  13
ATOM     13  C   UNL     1      -4.197   9.284  -9.839  1.00  0.00     0.000 C 
BRANCH  13  14
ATOM     14  C   UNL     1      -5.620   9.466 -10.393  1.00  0.00     0.000 C 
BRANCH  14  15
ATOM     15  C   UNL     1      -6.044  10.942 -10.459  1.00  0.00     0.000 C 
BRANCH  15  16
ATOM     16  C   UNL     1      -6.947  11.306  -9.271  1.00  0.00     0.006 C 
BRANCH  16  17
ATOM     17  C   UNL     1      -6.249  12.244  -8.277  1.00  0.00     0.053 C 
BRANCH  17  18
ATOM     18  C   UNL     1      -5.957  11.558  -6.979  1.00  0.00     0.041 C 
ATOM     19  O   UNL     1      -5.997  10.301  -6.902  1.00  0.00    -0.550 OA
ATOM     20  O   UNL     1      -5.672  12.308  -5.845  1.00  0.00    -0.550 OA
ENDBRANCH  17  18
ENDBRANCH  16  17
ENDBRANCH  15  16
ENDBRANCH  14  15
ENDBRANCH  13  14
ENDBRANCH  12  13
ENDBRANCH  11  12
ENDBRANCH   1  11
TORSDOF 15
ENDMDL
MODEL 9
REMARK VINA RESULT:    -4.699      2.480      3.970
REMARK INTER + INTRA:         -10.706
REMARK INTER:                  -9.062
REMARK INTRA:                  -1.644
REMARK UNBOUND:                -1.887
REMARK SMILES O=C([O-])CCCCCCCCCCCCCCC(=O)[O-]
REMARK SMILES IDX 10 1 9 2 8 3 7 4 6 5 5 6 4 7 2 8 1 9 3 10 11 11 12 12 13 13
REMARK SMILES IDX 14 14 15 15 16 16 17 17 18 18 19 19 20 20
REMARK H PARENT
REMARK Flexibility Score: inf
ROOT
ATOM      1  C   UNL     1      -4.599  12.277  -6.206  1.00  0.00     0.000 C 
ENDROOT
BRANCH   1   2
ATOM      2  C   UNL     1      -3.169  11.725  -6.356  1.00  0.00     0.000 C 
BRANCH   2   3
ATOM      3  C   UNL     1      -2.950  10.795  -7.564  1.00  0.00     0.000 C 
BRANCH   3   4
ATOM      4  C   UNL     1      -1.958  11.363  -8.589  1.00  0.00     0.000 C 
BRANCH   4   5
ATOM      5  C   UNL     1      -1.070  12.442  -7.954  1.00  0.00     0.000 C 
BRANCH   5   6
ATOM      6  C   UNL     1       0.297  11.899  -7.498  1.00  0.00     0.006 C 
BRANCH   6   7
ATOM      7  C   UNL     1       0.649  10.516  -8.066  1.00  0.00     0.053 C 
BRANCH   7   8
ATOM      8  C   UNL     1       2.128  10.279  -8.087  1.00  0.00     0.041 C 
ATOM      9  O   UNL     1       2.657   9.657  -9.046  1.00  0.00    -0.550 OA
ATOM     10  O   UNL     1       2.926  10.773  -7.064  1.00  0.00    -0.550 OA
ENDBRANCH   7   8
ENDBRANCH   6   7
ENDBRANCH   5   6
ENDBRANCH   4   5
ENDBRANCH   3   4
ENDBRANCH   2   3
ENDBRANCH   1   2
BRANCH   1  11
ATOM     11  C   UNL     1      -5.125  12.933  -7.494  1.00  0.00     0.000 C 
BRANCH  11  12
ATOM     12  C   UNL     1      -6.621  12.661  -7.726  1.00  0.00     0.000 C 
BRANCH  12  13
ATOM     13  C   UNL     1      -6.868  11.514  -8.722  1.00  0.00     0.000 C 
BRANCH  13  14
ATOM     14  C   UNL     1      -5.926  11.574  -9.935  1.00  0.00     0.000 C 
BRANCH  14  15
ATOM     15  C   UNL     1      -5.484  10.181 -10.410  1.00  0.00     0.000 C 
BRANCH  15  16
ATOM     16  C   UNL     1      -5.800   9.115  -9.351  1.00  0.00     0.006 C 
BRANCH  16  17
ATOM     17  C   UNL     1      -6.232   7.783  -9.978  1.00  0.00     0.053 C 
BRANCH  17  18
ATOM     18  C   UNL     1      -5.112   7.134 -10.731  1.00  0.00     0.041 C 
ATOM     19  O   UNL     1      -5.355   6.423 -11.742  1.00  0.00    -0.550 OA
ATOM     20  O   UNL     1      -3.802   7.288 -10.297  1.00  0.00    -0.550 OA
ENDBRANCH  17  18
ENDBRANCH  16  17
ENDBRANCH  15  16
ENDBRANCH  14  15
ENDBRANCH  13  14
ENDBRANCH  12  13
ENDBRANCH  11  12
ENDBRANCH   1  11
TORSDOF 15
ENDMDL
