MODEL 1
REMARK VINA RESULT:    -4.977      0.000      0.000
REMARK INTER + INTRA:          -7.667
REMARK INTER:                  -6.140
REMARK INTRA:                  -1.526
REMARK UNBOUND:                -1.526
REMARK SMILES CC(C)=CCC[C@@H](C)c1ccc(C)cc1
REMARK SMILES IDX 6 1 7 2 8 3 9 4 13 5 12 6 11 7 14 8 10 9 15 10 5 11 4 12
REMARK SMILES IDX 2 13 1 14 3 15
REMARK H PARENT
REMARK Flexibility Score: inf
ROOT
ATOM      1  C   UNL     1     -36.669  11.748  -8.397  1.00  0.00     0.012 C 
ENDROOT
BRANCH   1   2
ATOM      2  C   UNL     1     -37.899  11.305  -9.220  1.00  0.00     0.016 C 
ATOM      3  C   UNL     1     -37.532  10.888 -10.655  1.00  0.00     0.013 C 
BRANCH   2   4
ATOM      4  C   UNL     1     -38.741  10.269  -8.489  1.00  0.00    -0.045 A 
ATOM      5  C   UNL     1     -41.162   7.450  -6.284  1.00  0.00     0.044 C 
ATOM      6  C   UNL     1     -40.332   8.417  -7.073  1.00  0.00    -0.051 A 
ATOM      7  C   UNL     1     -40.840   9.680  -7.402  1.00  0.00     0.004 A 
ATOM      8  C   UNL     1     -39.013   8.094  -7.422  1.00  0.00     0.004 A 
ATOM      9  C   UNL     1     -40.053  10.597  -8.104  1.00  0.00     0.004 A 
ATOM     10  C   UNL     1     -38.224   9.010  -8.124  1.00  0.00     0.004 A 
ENDBRANCH   2   4
ENDBRANCH   1   2
BRANCH   1  11
ATOM     11  C   UNL     1     -36.992  12.229  -6.971  1.00  0.00     0.028 C 
BRANCH  11  12
ATOM     12  C   UNL     1     -36.354  11.322  -5.948  1.00  0.00    -0.028 C 
ATOM     13  C   UNL     1     -37.027  10.707  -4.951  1.00  0.00    -0.080 C 
ATOM     14  C   UNL     1     -38.507  10.919  -4.734  1.00  0.00     0.039 C 
ATOM     15  C   UNL     1     -36.263   9.796  -4.024  1.00  0.00     0.039 C 
ENDBRANCH  11  12
ENDBRANCH   1  11
TORSDOF 4
ENDMDL
MODEL 2
REMARK VINA RESULT:    -4.952      1.600      5.170
REMARK INTER + INTRA:          -7.636
REMARK INTER:                  -6.604
REMARK INTRA:                  -1.032
REMARK UNBOUND:                -1.526
REMARK SMILES CC(C)=CCC[C@@H](C)c1ccc(C)cc1
REMARK SMILES IDX 6 1 7 2 8 3 9 4 13 5 12 6 11 7 14 8 10 9 15 10 5 11 4 12
REMARK SMILES IDX 2 13 1 14 3 15
REMARK H PARENT
REMARK Flexibility Score: inf
ROOT
ATOM      1  C   UNL     1     -39.569  10.597  -7.002  1.00  0.00     0.012 C 
ENDROOT
BRANCH   1   2
ATOM      2  C   UNL     1     -38.666  11.762  -6.538  1.00  0.00     0.016 C 
ATOM      3  C   UNL     1     -39.355  12.669  -5.504  1.00  0.00     0.013 C 
BRANCH   2   4
ATOM      4  C   UNL     1     -37.289  11.285  -6.099  1.00  0.00    -0.045 A 
ATOM      5  C   UNL     1     -33.385  10.052  -4.715  1.00  0.00     0.044 C 
ATOM      6  C   UNL     1     -34.745  10.454  -5.203  1.00  0.00    -0.051 A 
ATOM      7  C   UNL     1     -35.835  10.468  -4.323  1.00  0.00     0.004 A 
ATOM      8  C   UNL     1     -34.921  10.891  -6.523  1.00  0.00     0.004 A 
ATOM      9  C   UNL     1     -37.095  10.879  -4.767  1.00  0.00     0.004 A 
ATOM     10  C   UNL     1     -36.181  11.302  -6.969  1.00  0.00     0.004 A 
ENDBRANCH   2   4
ENDBRANCH   1   2
BRANCH   1  11
ATOM     11  C   UNL     1     -39.818  10.546  -8.520  1.00  0.00     0.028 C 
BRANCH  11  12
ATOM     12  C   UNL     1     -39.006   9.444  -9.154  1.00  0.00    -0.028 C 
ATOM     13  C   UNL     1     -37.965   9.650  -9.991  1.00  0.00    -0.080 C 
ATOM     14  C   UNL     1     -37.544  11.037 -10.419  1.00  0.00     0.039 C 
ATOM     15  C   UNL     1     -37.219   8.452 -10.518  1.00  0.00     0.039 C 
ENDBRANCH  11  12
ENDBRANCH   1  11
TORSDOF 4
ENDMDL
MODEL 3
REMARK VINA RESULT:    -4.874      1.744      2.923
REMARK INTER + INTRA:          -7.540
REMARK INTER:                  -6.785
REMARK INTRA:                  -0.756
REMARK UNBOUND:                -1.526
REMARK SMILES CC(C)=CCC[C@@H](C)c1ccc(C)cc1
REMARK SMILES IDX 6 1 7 2 8 3 9 4 13 5 12 6 11 7 14 8 10 9 15 10 5 11 4 12
REMARK SMILES IDX 2 13 1 14 3 15
REMARK H PARENT
REMARK Flexibility Score: inf
ROOT
ATOM      1  C   UNL     1     -37.832  11.276  -5.156  1.00  0.00     0.012 C 
ENDROOT
BRANCH   1   2
ATOM      2  C   UNL     1     -37.894  11.974  -6.534  1.00  0.00     0.016 C 
ATOM      3  C   UNL     1     -36.506  12.138  -7.177  1.00  0.00     0.013 C 
BRANCH   2   4
ATOM      4  C   UNL     1     -38.915  11.332  -7.462  1.00  0.00    -0.045 A 
ATOM      5  C   UNL     1     -41.861   9.397  -9.962  1.00  0.00     0.044 C 
ATOM      6  C   UNL     1     -40.844  10.092  -9.107  1.00  0.00    -0.051 A 
ATOM      7  C   UNL     1     -41.208  10.613  -7.858  1.00  0.00     0.004 A 
ATOM      8  C   UNL     1     -39.505  10.160  -9.516  1.00  0.00     0.004 A 
ATOM      9  C   UNL     1     -40.253  11.228  -7.044  1.00  0.00     0.004 A 
ATOM     10  C   UNL     1     -38.548  10.774  -8.703  1.00  0.00     0.004 A 
ENDBRANCH   2   4
ENDBRANCH   1   2
BRANCH   1  11
ATOM     11  C   UNL     1     -36.868  10.079  -5.088  1.00  0.00     0.028 C 
BRANCH  11  12
ATOM     12  C   UNL     1     -35.889  10.250  -3.953  1.00  0.00    -0.028 C 
ATOM     13  C   UNL     1     -34.550  10.348  -4.110  1.00  0.00    -0.080 C 
ATOM     14  C   UNL     1     -33.893  10.241  -5.466  1.00  0.00     0.039 C 
ATOM     15  C   UNL     1     -33.698  10.556  -2.885  1.00  0.00     0.039 C 
ENDBRANCH  11  12
ENDBRANCH   1  11
TORSDOF 4
ENDMDL
MODEL 4
REMARK VINA RESULT:    -4.865      1.428      4.061
REMARK INTER + INTRA:          -7.529
REMARK INTER:                  -6.013
REMARK INTRA:                  -1.515
REMARK UNBOUND:                -1.526
REMARK SMILES CC(C)=CCC[C@@H](C)c1ccc(C)cc1
REMARK SMILES IDX 6 1 7 2 8 3 9 4 13 5 12 6 11 7 14 8 10 9 15 10 5 11 4 12
REMARK SMILES IDX 2 13 1 14 3 15
REMARK H PARENT
REMARK Flexibility Score: inf
ROOT
ATOM      1  C   UNL     1     -37.808  12.455  -6.141  1.00  0.00     0.012 C 
ENDROOT
BRANCH   1   2
ATOM      2  C   UNL     1     -36.516  11.691  -6.511  1.00  0.00     0.016 C 
ATOM      3  C   UNL     1     -35.870  10.999  -5.299  1.00  0.00     0.013 C 
BRANCH   2   4
ATOM      4  C   UNL     1     -36.715  10.762  -7.700  1.00  0.00    -0.045 A 
ATOM      5  C   UNL     1     -37.448   8.186 -11.092  1.00  0.00     0.044 C 
ATOM      6  C   UNL     1     -37.167   9.082  -9.923  1.00  0.00    -0.051 A 
ATOM      7  C   UNL     1     -37.386  10.463 -10.023  1.00  0.00     0.004 A 
ATOM      8  C   UNL     1     -36.757   8.538  -8.698  1.00  0.00     0.004 A 
ATOM      9  C   UNL     1     -37.161  11.294  -8.922  1.00  0.00     0.004 A 
ATOM     10  C   UNL     1     -36.531   9.369  -7.596  1.00  0.00     0.004 A 
ENDBRANCH   2   4
ENDBRANCH   1   2
BRANCH   1  11
ATOM     11  C   UNL     1     -39.000  11.555  -5.773  1.00  0.00     0.028 C 
BRANCH  11  12
ATOM     12  C   UNL     1     -40.028  11.558  -6.876  1.00  0.00    -0.028 C 
ATOM     13  C   UNL     1     -40.547  10.444  -7.438  1.00  0.00    -0.080 C 
ATOM     14  C   UNL     1     -40.093   9.060  -7.038  1.00  0.00     0.039 C 
ATOM     15  C   UNL     1     -41.598  10.601  -8.507  1.00  0.00     0.039 C 
ENDBRANCH  11  12
ENDBRANCH   1  11
TORSDOF 4
ENDMDL
MODEL 5
REMARK VINA RESULT:    -4.834      1.486      5.164
REMARK INTER + INTRA:          -7.491
REMARK INTER:                  -6.689
REMARK INTRA:                  -0.802
REMARK UNBOUND:                -1.526
REMARK SMILES CC(C)=CCC[C@@H](C)c1ccc(C)cc1
REMARK SMILES IDX 6 1 7 2 8 3 9 4 13 5 12 6 11 7 14 8 10 9 15 10 5 11 4 12
REMARK SMILES IDX 2 13 1 14 3 15
REMARK H PARENT
REMARK Flexibility Score: inf
ROOT
ATOM      1  C   UNL     1     -37.577  11.609  -8.335  1.00  0.00     0.012 C 
ENDROOT
BRANCH   1   2
ATOM      2  C   UNL     1     -37.487  12.107  -6.875  1.00  0.00     0.016 C 
ATOM      3  C   UNL     1     -38.863  12.180  -6.188  1.00  0.00     0.013 C 
BRANCH   2   4
ATOM      4  C   UNL     1     -36.451  11.342  -6.066  1.00  0.00    -0.045 A 
ATOM      5  C   UNL     1     -33.525   9.288  -3.636  1.00  0.00     0.044 C 
ATOM      6  C   UNL     1     -34.549   9.976  -4.489  1.00  0.00    -0.051 A 
ATOM      7  C   UNL     1     -35.818  10.268  -3.972  1.00  0.00     0.004 A 
ATOM      8  C   UNL     1     -34.219  10.401  -5.784  1.00  0.00     0.004 A 
ATOM      9  C   UNL     1     -36.760  10.943  -4.753  1.00  0.00     0.004 A 
ATOM     10  C   UNL     1     -35.160  11.076  -6.566  1.00  0.00     0.004 A 
ENDBRANCH   2   4
ENDBRANCH   1   2
BRANCH   1  11
ATOM     11  C   UNL     1     -38.217  10.220  -8.499  1.00  0.00     0.028 C 
BRANCH  11  12
ATOM     12  C   UNL     1     -39.481  10.311  -9.317  1.00  0.00    -0.028 C 
ATOM     13  C   UNL     1     -40.716  10.029  -8.845  1.00  0.00    -0.080 C 
ATOM     14  C   UNL     1     -40.941   9.532  -7.436  1.00  0.00     0.039 C 
ATOM     15  C   UNL     1     -41.894  10.203  -9.768  1.00  0.00     0.039 C 
ENDBRANCH  11  12
ENDBRANCH   1  11
TORSDOF 4
ENDMDL
MODEL 6
REMARK VINA RESULT:    -4.767      2.020      3.994
REMARK INTER + INTRA:          -7.408
REMARK INTER:                  -5.847
REMARK INTRA:                  -1.561
REMARK UNBOUND:                -1.526
REMARK SMILES CC(C)=CCC[C@@H](C)c1ccc(C)cc1
REMARK SMILES IDX 6 1 7 2 8 3 9 4 13 5 12 6 11 7 14 8 10 9 15 10 5 11 4 12
REMARK SMILES IDX 2 13 1 14 3 15
REMARK H PARENT
REMARK Flexibility Score: inf
ROOT
ATOM      1  C   UNL     1     -38.324   9.624  -6.261  1.00  0.00     0.012 C 
ENDROOT
BRANCH   1   2
ATOM      2  C   UNL     1     -39.621  10.449  -6.420  1.00  0.00     0.016 C 
ATOM      3  C   UNL     1     -39.350  11.958  -6.551  1.00  0.00     0.013 C 
BRANCH   2   4
ATOM      4  C   UNL     1     -40.523   9.903  -7.518  1.00  0.00    -0.045 A 
ATOM      5  C   UNL     1     -42.945   8.251 -10.693  1.00  0.00     0.044 C 
ATOM      6  C   UNL     1     -42.127   8.824  -9.575  1.00  0.00    -0.051 A 
ATOM      7  C   UNL     1     -41.444   7.977  -8.692  1.00  0.00     0.004 A 
ATOM      8  C   UNL     1     -41.977  10.212  -9.450  1.00  0.00     0.004 A 
ATOM      9  C   UNL     1     -40.650   8.511  -7.673  1.00  0.00     0.004 A 
ATOM     10  C   UNL     1     -41.184  10.748  -8.431  1.00  0.00     0.004 A 
ENDBRANCH   2   4
ENDBRANCH   1   2
BRANCH   1  11
ATOM     11  C   UNL     1     -37.198  10.007  -7.237  1.00  0.00     0.028 C 
BRANCH  11  12
ATOM     12  C   UNL     1     -37.196   9.088  -8.432  1.00  0.00    -0.028 C 
ATOM     13  C   UNL     1     -37.482   9.478  -9.694  1.00  0.00    -0.080 C 
ATOM     14  C   UNL     1     -37.893  10.895 -10.020  1.00  0.00     0.039 C 
ATOM     15  C   UNL     1     -37.402   8.455 -10.798  1.00  0.00     0.039 C 
ENDBRANCH  11  12
ENDBRANCH   1  11
TORSDOF 4
ENDMDL
MODEL 7
REMARK VINA RESULT:    -4.737      1.562      2.706
REMARK INTER + INTRA:          -7.371
REMARK INTER:                  -5.897
REMARK INTRA:                  -1.474
REMARK UNBOUND:                -1.526
REMARK SMILES CC(C)=CCC[C@@H](C)c1ccc(C)cc1
REMARK SMILES IDX 6 1 7 2 8 3 9 4 13 5 12 6 11 7 14 8 10 9 15 10 5 11 4 12
REMARK SMILES IDX 2 13 1 14 3 15
REMARK H PARENT
REMARK Flexibility Score: inf
ROOT
ATOM      1  C   UNL     1     -35.295  10.324  -7.989  1.00  0.00     0.012 C 
ENDROOT
BRANCH   1   2
ATOM      2  C   UNL     1     -36.107   9.027  -8.211  1.00  0.00     0.016 C 
ATOM      3  C   UNL     1     -35.947   8.025  -7.055  1.00  0.00     0.013 C 
BRANCH   2   4
ATOM      4  C   UNL     1     -37.559   9.309  -8.567  1.00  0.00    -0.045 A 
ATOM      5  C   UNL     1     -41.649  10.285  -9.564  1.00  0.00     0.044 C 
ATOM      6  C   UNL     1     -40.231   9.925  -9.236  1.00  0.00    -0.051 A 
ATOM      7  C   UNL     1     -39.172  10.497  -9.953  1.00  0.00     0.004 A 
ATOM      8  C   UNL     1     -39.951   9.072  -8.159  1.00  0.00     0.004 A 
ATOM      9  C   UNL     1     -37.849  10.191  -9.622  1.00  0.00     0.004 A 
ATOM     10  C   UNL     1     -38.628   8.765  -7.827  1.00  0.00     0.004 A 
ENDBRANCH   2   4
ENDBRANCH   1   2
BRANCH   1  11
ATOM     11  C   UNL     1     -35.459  10.951  -6.594  1.00  0.00     0.028 C 
BRANCH  11  12
ATOM     12  C   UNL     1     -36.723  11.771  -6.526  1.00  0.00    -0.028 C 
ATOM     13  C   UNL     1     -37.727  11.552  -5.647  1.00  0.00    -0.080 C 
ATOM     14  C   UNL     1     -37.694  10.405  -4.665  1.00  0.00     0.039 C 
ATOM     15  C   UNL     1     -38.915  12.478  -5.670  1.00  0.00     0.039 C 
ENDBRANCH  11  12
ENDBRANCH   1  11
TORSDOF 4
ENDMDL
MODEL 8
REMARK VINA RESULT:    -4.686      1.688      4.779
REMARK INTER + INTRA:          -7.308
REMARK INTER:                  -5.771
REMARK INTRA:                  -1.537
REMARK UNBOUND:                -1.526
REMARK SMILES CC(C)=CCC[C@@H](C)c1ccc(C)cc1
REMARK SMILES IDX 6 1 7 2 8 3 9 4 13 5 12 6 11 7 14 8 10 9 15 10 5 11 4 12
REMARK SMILES IDX 2 13 1 14 3 15
REMARK H PARENT
REMARK Flexibility Score: inf
ROOT
ATOM      1  C   UNL     1     -37.147  11.837  -8.507  1.00  0.00     0.012 C 
ENDROOT
BRANCH   1   2
ATOM      2  C   UNL     1     -37.423  12.094  -7.008  1.00  0.00     0.016 C 
ATOM      3  C   UNL     1     -38.897  11.868  -6.630  1.00  0.00     0.013 C 
BRANCH   2   4
ATOM      4  C   UNL     1     -36.449  11.351  -6.106  1.00  0.00    -0.045 A 
ATOM      5  C   UNL     1     -33.656   9.121  -3.676  1.00  0.00     0.044 C 
ATOM      6  C   UNL     1     -34.616   9.918  -4.507  1.00  0.00    -0.051 A 
ATOM      7  C   UNL     1     -34.245  10.365  -5.783  1.00  0.00     0.004 A 
ATOM      8  C   UNL     1     -35.918  10.158  -4.047  1.00  0.00     0.004 A 
ATOM      9  C   UNL     1     -35.152  11.075  -6.574  1.00  0.00     0.004 A 
ATOM     10  C   UNL     1     -36.827  10.869  -4.837  1.00  0.00     0.004 A 
ENDBRANCH   2   4
ENDBRANCH   1   2
BRANCH   1  11
ATOM     11  C   UNL     1     -37.915  10.644  -9.103  1.00  0.00     0.028 C 
BRANCH  11  12
ATOM     12  C   UNL     1     -37.002   9.454  -9.266  1.00  0.00    -0.028 C 
ATOM     13  C   UNL     1     -37.013   8.369  -8.460  1.00  0.00    -0.080 C 
ATOM     14  C   UNL     1     -37.928   8.272  -7.262  1.00  0.00     0.039 C 
ATOM     15  C   UNL     1     -36.069   7.236  -8.767  1.00  0.00     0.039 C 
ENDBRANCH  11  12
ENDBRANCH   1  11
TORSDOF 4
ENDMDL
MODEL 9
REMARK VINA RESULT:    -4.674      1.599      4.137
REMARK INTER + INTRA:          -7.293
REMARK INTER:                  -5.913
REMARK INTRA:                  -1.380
REMARK UNBOUND:                -1.526
REMARK SMILES CC(C)=CCC[C@@H](C)c1ccc(C)cc1
REMARK SMILES IDX 6 1 7 2 8 3 9 4 13 5 12 6 11 7 14 8 10 9 15 10 5 11 4 12
REMARK SMILES IDX 2 13 1 14 3 15
REMARK H PARENT
REMARK Flexibility Score: inf
ROOT
ATOM      1  C   UNL     1     -34.759  10.548  -6.453  1.00  0.00     0.012 C 
ENDROOT
BRANCH   1   2
ATOM      2  C   UNL     1     -35.837  10.062  -5.458  1.00  0.00     0.016 C 
ATOM      3  C   UNL     1     -35.611  10.596  -4.033  1.00  0.00     0.013 C 
BRANCH   2   4
ATOM      4  C   UNL     1     -37.249  10.301  -5.974  1.00  0.00    -0.045 A 
ATOM      5  C   UNL     1     -41.223  10.866  -7.575  1.00  0.00     0.044 C 
ATOM      6  C   UNL     1     -39.854  10.672  -6.994  1.00  0.00    -0.051 A 
ATOM      7  C   UNL     1     -39.373   9.382  -6.734  1.00  0.00     0.004 A 
ATOM      8  C   UNL     1     -39.016  11.775  -6.777  1.00  0.00     0.004 A 
ATOM      9  C   UNL     1     -38.083   9.198  -6.228  1.00  0.00     0.004 A 
ATOM     10  C   UNL     1     -37.726  11.593  -6.271  1.00  0.00     0.004 A 
ENDBRANCH   2   4
ENDBRANCH   1   2
BRANCH   1  11
ATOM     11  C   UNL     1     -34.789   9.846  -7.822  1.00  0.00     0.028 C 
BRANCH  11  12
ATOM     12  C   UNL     1     -35.648  10.616  -8.794  1.00  0.00    -0.028 C 
ATOM     13  C   UNL     1     -36.630  10.067  -9.544  1.00  0.00    -0.080 C 
ATOM     14  C   UNL     1     -36.926   8.587  -9.515  1.00  0.00     0.039 C 
ATOM     15  C   UNL     1     -37.435  10.969 -10.444  1.00  0.00     0.039 C 
ENDBRANCH  11  12
ENDBRANCH   1  11
TORSDOF 4
ENDMDL
