MODEL 1
REMARK VINA RESULT:    -4.062      0.000      0.000
REMARK INTER + INTRA:         -10.457
REMARK INTER:                  -7.862
REMARK INTRA:                  -2.595
REMARK UNBOUND:                -2.595
REMARK SMILES CCCCCCCCCCCCCCCCCC(=O)[O-]
REMARK SMILES IDX 10 1 11 2 12 3 13 4 14 5 15 6 16 7 17 8 18 9 19 10 20 11
REMARK SMILES IDX 9 12 8 13 7 14 6 15 5 16 4 17 3 18 2 19 1 20
REMARK H PARENT
REMARK Flexibility Score: inf
ROOT
ATOM      1  C   UNL     1      21.857   3.716  10.057  1.00  0.00     0.000 C 
ENDROOT
BRANCH   1   2
ATOM      2  C   UNL     1      22.304   4.186   8.664  1.00  0.00     0.000 C 
BRANCH   2   3
ATOM      3  C   UNL     1      23.770   4.653   8.639  1.00  0.00     0.000 C 
BRANCH   3   4
ATOM      4  C   UNL     1      23.926   6.129   9.039  1.00  0.00     0.000 C 
BRANCH   4   5
ATOM      5  C   UNL     1      24.578   6.300  10.423  1.00  0.00     0.000 C 
BRANCH   5   6
ATOM      6  C   UNL     1      23.609   6.866  11.475  1.00  0.00     0.000 C 
BRANCH   6   7
ATOM      7  C   UNL     1      23.334   5.946  12.681  1.00  0.00     0.006 C 
BRANCH   7   8
ATOM      8  C   UNL     1      22.801   6.683  13.924  1.00  0.00     0.053 C 
BRANCH   8   9
ATOM      9  C   UNL     1      21.346   6.415  14.175  1.00  0.00     0.041 C 
ATOM     10  O   UNL     1      20.565   7.362  14.458  1.00  0.00    -0.550 OA
ATOM     11  O   UNL     1      20.861   5.114  14.137  1.00  0.00    -0.550 OA
ENDBRANCH   8   9
ENDBRANCH   7   8
ENDBRANCH   6   7
ENDBRANCH   5   6
ENDBRANCH   4   5
ENDBRANCH   3   4
ENDBRANCH   2   3
ENDBRANCH   1   2
BRANCH   1  12
ATOM     12  C   UNL     1      20.729   4.578  10.643  1.00  0.00     0.000 C 
BRANCH  12  13
ATOM     13  C   UNL     1      20.214   5.585   9.608  1.00  0.00    -0.000 C 
BRANCH  13  14
ATOM     14  C   UNL     1      20.191   7.007  10.189  1.00  0.00    -0.000 C 
BRANCH  14  15
ATOM     15  C   UNL     1      19.131   7.182  11.289  1.00  0.00    -0.000 C 
BRANCH  15  16
ATOM     16  C   UNL     1      17.796   7.713  10.748  1.00  0.00    -0.000 C 
BRANCH  16  17
ATOM     17  C   UNL     1      18.013   8.551   9.480  1.00  0.00    -0.000 C 
BRANCH  17  18
ATOM     18  C   UNL     1      17.086   8.138   8.322  1.00  0.00    -0.000 C 
BRANCH  18  19
ATOM     19  C   UNL     1      17.668   7.073   7.376  1.00  0.00    -0.003 C 
ATOM     20  C   UNL     1      17.075   5.683   7.605  1.00  0.00     0.004 C 
ENDBRANCH  18  19
ENDBRANCH  17  18
ENDBRANCH  16  17
ENDBRANCH  15  16
ENDBRANCH  14  15
ENDBRANCH  13  14
ENDBRANCH  12  13
ENDBRANCH   1  12
TORSDOF 16
ENDMDL
MODEL 2
REMARK VINA RESULT:    -3.972      7.103      9.824
REMARK INTER + INTRA:         -10.281
REMARK INTER:                  -8.473
REMARK INTRA:                  -1.808
REMARK UNBOUND:                -2.595
REMARK SMILES CCCCCCCCCCCCCCCCCC(=O)[O-]
REMARK SMILES IDX 10 1 11 2 12 3 13 4 14 5 15 6 16 7 17 8 18 9 19 10 20 11
REMARK SMILES IDX 9 12 8 13 7 14 6 15 5 16 4 17 3 18 2 19 1 20
REMARK H PARENT
REMARK Flexibility Score: inf
ROOT
ATOM      1  C   UNL     1      28.251   2.563  18.619  1.00  0.00     0.000 C 
ENDROOT
BRANCH   1   2
ATOM      2  C   UNL     1      29.685   3.114  18.649  1.00  0.00     0.000 C 
BRANCH   2   3
ATOM      3  C   UNL     1      29.727   4.650  18.722  1.00  0.00     0.000 C 
BRANCH   3   4
ATOM      4  C   UNL     1      30.979   5.239  18.050  1.00  0.00     0.000 C 
BRANCH   4   5
ATOM      5  C   UNL     1      30.633   6.242  16.936  1.00  0.00     0.000 C 
BRANCH   5   6
ATOM      6  C   UNL     1      29.509   5.744  16.010  1.00  0.00     0.000 C 
BRANCH   6   7
ATOM      7  C   UNL     1      28.816   6.834  15.169  1.00  0.00     0.006 C 
BRANCH   7   8
ATOM      8  C   UNL     1      27.539   6.357  14.452  1.00  0.00     0.053 C 
BRANCH   8   9
ATOM      9  C   UNL     1      27.468   6.823  13.027  1.00  0.00     0.041 C 
ATOM     10  O   UNL     1      26.620   6.329  12.239  1.00  0.00    -0.550 OA
ATOM     11  O   UNL     1      28.367   7.773  12.561  1.00  0.00    -0.550 OA
ENDBRANCH   8   9
ENDBRANCH   7   8
ENDBRANCH   6   7
ENDBRANCH   5   6
ENDBRANCH   4   5
ENDBRANCH   3   4
ENDBRANCH   2   3
ENDBRANCH   1   2
BRANCH   1  12
ATOM     12  C   UNL     1      27.190   3.651  18.843  1.00  0.00     0.000 C 
BRANCH  12  13
ATOM     13  C   UNL     1      25.797   3.149  18.449  1.00  0.00    -0.000 C 
BRANCH  13  14
ATOM     14  C   UNL     1      25.629   3.136  16.922  1.00  0.00    -0.000 C 
BRANCH  14  15
ATOM     15  C   UNL     1      25.044   4.450  16.378  1.00  0.00    -0.000 C 
BRANCH  15  16
ATOM     16  C   UNL     1      23.565   4.322  15.984  1.00  0.00    -0.000 C 
BRANCH  16  17
ATOM     17  C   UNL     1      22.651   4.661  17.171  1.00  0.00    -0.000 C 
BRANCH  17  18
ATOM     18  C   UNL     1      23.068   5.952  17.899  1.00  0.00    -0.000 C 
BRANCH  18  19
ATOM     19  C   UNL     1      23.165   5.828  19.430  1.00  0.00    -0.003 C 
ATOM     20  C   UNL     1      22.810   4.431  19.940  1.00  0.00     0.004 C 
ENDBRANCH  18  19
ENDBRANCH  17  18
ENDBRANCH  16  17
ENDBRANCH  15  16
ENDBRANCH  14  15
ENDBRANCH  13  14
ENDBRANCH  12  13
ENDBRANCH   1  12
TORSDOF 16
ENDMDL
MODEL 3
REMARK VINA RESULT:    -3.944      2.562      3.725
REMARK INTER + INTRA:         -10.227
REMARK INTER:                  -8.103
REMARK INTRA:                  -2.124
REMARK UNBOUND:                -2.595
REMARK SMILES CCCCCCCCCCCCCCCCCC(=O)[O-]
REMARK SMILES IDX 10 1 11 2 12 3 13 4 14 5 15 6 16 7 17 8 18 9 19 10 20 11
REMARK SMILES IDX 9 12 8 13 7 14 6 15 5 16 4 17 3 18 2 19 1 20
REMARK H PARENT
REMARK Flexibility Score: inf
ROOT
ATOM      1  C   UNL     1      24.122   5.380   8.660  1.00  0.00     0.000 C 
ENDROOT
BRANCH   1   2
ATOM      2  C   UNL     1      24.393   6.432   9.746  1.00  0.00     0.000 C 
BRANCH   2   3
ATOM      3  C   UNL     1      23.200   7.380   9.963  1.00  0.00     0.000 C 
BRANCH   3   4
ATOM      4  C   UNL     1      22.830   7.532  11.449  1.00  0.00     0.000 C 
BRANCH   4   5
ATOM      5  C   UNL     1      22.952   6.209  12.225  1.00  0.00     0.000 C 
BRANCH   5   6
ATOM      6  C   UNL     1      23.831   6.332  13.482  1.00  0.00     0.000 C 
BRANCH   6   7
ATOM      7  C   UNL     1      24.737   5.119  13.774  1.00  0.00     0.006 C 
BRANCH   7   8
ATOM      8  C   UNL     1      26.094   5.159  13.046  1.00  0.00     0.053 C 
BRANCH   8   9
ATOM      9  C   UNL     1      26.809   6.465  13.227  1.00  0.00     0.041 C 
ATOM     10  O   UNL     1      27.121   7.163  12.227  1.00  0.00    -0.550 OA
ATOM     11  O   UNL     1      27.168   6.892  14.499  1.00  0.00    -0.550 OA
ENDBRANCH   8   9
ENDBRANCH   7   8
ENDBRANCH   6   7
ENDBRANCH   5   6
ENDBRANCH   4   5
ENDBRANCH   3   4
ENDBRANCH   2   3
ENDBRANCH   1   2
BRANCH   1  12
ATOM     12  C   UNL     1      23.064   4.348   9.081  1.00  0.00     0.000 C 
BRANCH  12  13
ATOM     13  C   UNL     1      22.088   4.064   7.934  1.00  0.00    -0.000 C 
BRANCH  13  14
ATOM     14  C   UNL     1      20.632   4.193   8.406  1.00  0.00    -0.000 C 
BRANCH  14  15
ATOM     15  C   UNL     1      20.521   4.705   9.852  1.00  0.00    -0.000 C 
BRANCH  15  16
ATOM     16  C   UNL     1      19.284   5.588  10.075  1.00  0.00    -0.000 C 
BRANCH  16  17
ATOM     17  C   UNL     1      19.617   7.067   9.834  1.00  0.00    -0.000 C 
BRANCH  17  18
ATOM     18  C   UNL     1      18.362   7.951   9.701  1.00  0.00    -0.000 C 
BRANCH  18  19
ATOM     19  C   UNL     1      17.812   8.495  11.031  1.00  0.00    -0.003 C 
ATOM     20  C   UNL     1      16.495   7.839  11.446  1.00  0.00     0.004 C 
ENDBRANCH  18  19
ENDBRANCH  17  18
ENDBRANCH  16  17
ENDBRANCH  15  16
ENDBRANCH  14  15
ENDBRANCH  13  14
ENDBRANCH  12  13
ENDBRANCH   1  12
TORSDOF 16
ENDMDL
MODEL 4
REMARK VINA RESULT:    -3.934      2.849      4.260
REMARK INTER + INTRA:         -10.208
REMARK INTER:                  -7.083
REMARK INTRA:                  -3.125
REMARK UNBOUND:                -2.595
REMARK SMILES CCCCCCCCCCCCCCCCCC(=O)[O-]
REMARK SMILES IDX 10 1 11 2 12 3 13 4 14 5 15 6 16 7 17 8 18 9 19 10 20 11
REMARK SMILES IDX 9 12 8 13 7 14 6 15 5 16 4 17 3 18 2 19 1 20
REMARK H PARENT
REMARK Flexibility Score: inf
ROOT
ATOM      1  C   UNL     1      21.445   7.241  12.053  1.00  0.00     0.000 C 
ENDROOT
BRANCH   1   2
ATOM      2  C   UNL     1      22.656   7.741  11.250  1.00  0.00     0.000 C 
BRANCH   2   3
ATOM      3  C   UNL     1      22.722   7.133   9.838  1.00  0.00     0.000 C 
BRANCH   3   4
ATOM      4  C   UNL     1      24.034   6.371   9.585  1.00  0.00     0.000 C 
BRANCH   4   5
ATOM      5  C   UNL     1      24.957   6.361  10.816  1.00  0.00     0.000 C 
BRANCH   5   6
ATOM      6  C   UNL     1      24.987   4.999  11.531  1.00  0.00     0.000 C 
BRANCH   6   7
ATOM      7  C   UNL     1      25.217   5.059  13.054  1.00  0.00     0.006 C 
BRANCH   7   8
ATOM      8  C   UNL     1      25.734   6.419  13.559  1.00  0.00     0.053 C 
BRANCH   8   9
ATOM      9  C   UNL     1      27.232   6.500  13.566  1.00  0.00     0.041 C 
ATOM     10  O   UNL     1      27.905   5.758  14.329  1.00  0.00    -0.550 OA
ATOM     11  O   UNL     1      27.883   7.425  12.760  1.00  0.00    -0.550 OA
ENDBRANCH   8   9
ENDBRANCH   7   8
ENDBRANCH   6   7
ENDBRANCH   5   6
ENDBRANCH   4   5
ENDBRANCH   3   4
ENDBRANCH   2   3
ENDBRANCH   1   2
BRANCH   1  12
ATOM     12  C   UNL     1      21.824   6.745  13.457  1.00  0.00     0.000 C 
BRANCH  12  13
ATOM     13  C   UNL     1      21.527   5.249  13.610  1.00  0.00    -0.000 C 
BRANCH  13  14
ATOM     14  C   UNL     1      20.835   4.695  12.355  1.00  0.00    -0.000 C 
BRANCH  14  15
ATOM     15  C   UNL     1      21.608   3.528  11.718  1.00  0.00    -0.000 C 
BRANCH  15  16
ATOM     16  C   UNL     1      21.609   3.586  10.183  1.00  0.00    -0.000 C 
BRANCH  16  17
ATOM     17  C   UNL     1      20.178   3.683   9.637  1.00  0.00    -0.000 C 
BRANCH  17  18
ATOM     18  C   UNL     1      19.990   4.853   8.652  1.00  0.00    -0.000 C 
BRANCH  18  19
ATOM     19  C   UNL     1      19.200   6.049   9.213  1.00  0.00    -0.003 C 
ATOM     20  C   UNL     1      18.235   6.657   8.196  1.00  0.00     0.004 C 
ENDBRANCH  18  19
ENDBRANCH  17  18
ENDBRANCH  16  17
ENDBRANCH  15  16
ENDBRANCH  14  15
ENDBRANCH  13  14
ENDBRANCH  12  13
ENDBRANCH   1  12
TORSDOF 16
ENDMDL
MODEL 5
REMARK VINA RESULT:    -3.930      7.482     10.008
REMARK INTER + INTRA:         -10.200
REMARK INTER:                  -8.280
REMARK INTRA:                  -1.920
REMARK UNBOUND:                -2.595
REMARK SMILES CCCCCCCCCCCCCCCCCC(=O)[O-]
REMARK SMILES IDX 10 1 11 2 12 3 13 4 14 5 15 6 16 7 17 8 18 9 19 10 20 11
REMARK SMILES IDX 9 12 8 13 7 14 6 15 5 16 4 17 3 18 2 19 1 20
REMARK H PARENT
REMARK Flexibility Score: inf
ROOT
ATOM      1  C   UNL     1      26.696   3.034  18.944  1.00  0.00     0.000 C 
ENDROOT
BRANCH   1   2
ATOM      2  C   UNL     1      27.607   3.703  17.902  1.00  0.00     0.000 C 
BRANCH   2   3
ATOM      3  C   UNL     1      28.925   4.214  18.511  1.00  0.00     0.000 C 
BRANCH   3   4
ATOM      4  C   UNL     1      29.564   5.337  17.676  1.00  0.00     0.000 C 
BRANCH   4   5
ATOM      5  C   UNL     1      29.938   4.877  16.257  1.00  0.00     0.000 C 
BRANCH   5   6
ATOM      6  C   UNL     1      29.405   5.817  15.162  1.00  0.00     0.000 C 
BRANCH   6   7
ATOM      7  C   UNL     1      28.013   6.422  15.432  1.00  0.00     0.006 C 
BRANCH   7   8
ATOM      8  C   UNL     1      26.963   6.088  14.356  1.00  0.00     0.053 C 
BRANCH   8   9
ATOM      9  C   UNL     1      27.227   6.789  13.056  1.00  0.00     0.041 C 
ATOM     10  O   UNL     1      28.054   7.737  13.001  1.00  0.00    -0.550 OA
ATOM     11  O   UNL     1      26.527   6.422  11.913  1.00  0.00    -0.550 OA
ENDBRANCH   8   9
ENDBRANCH   7   8
ENDBRANCH   6   7
ENDBRANCH   5   6
ENDBRANCH   4   5
ENDBRANCH   3   4
ENDBRANCH   2   3
ENDBRANCH   1   2
BRANCH   1  12
ATOM     12  C   UNL     1      26.213   1.642  18.506  1.00  0.00     0.000 C 
BRANCH  12  13
ATOM     13  C   UNL     1      24.772   1.393  18.963  1.00  0.00    -0.000 C 
BRANCH  13  14
ATOM     14  C   UNL     1      24.698   1.233  20.489  1.00  0.00    -0.000 C 
BRANCH  14  15
ATOM     15  C   UNL     1      23.595   2.097  21.123  1.00  0.00    -0.000 C 
BRANCH  15  16
ATOM     16  C   UNL     1      22.718   2.800  20.077  1.00  0.00    -0.000 C 
BRANCH  16  17
ATOM     17  C   UNL     1      22.775   4.325  20.249  1.00  0.00    -0.000 C 
BRANCH  17  18
ATOM     18  C   UNL     1      23.462   5.037  19.069  1.00  0.00    -0.000 C 
BRANCH  18  19
ATOM     19  C   UNL     1      23.066   4.511  17.678  1.00  0.00    -0.003 C 
ATOM     20  C   UNL     1      24.195   4.621  16.654  1.00  0.00     0.004 C 
ENDBRANCH  18  19
ENDBRANCH  17  18
ENDBRANCH  16  17
ENDBRANCH  15  16
ENDBRANCH  14  15
ENDBRANCH  13  14
ENDBRANCH  12  13
ENDBRANCH   1  12
TORSDOF 16
ENDMDL
MODEL 6
REMARK VINA RESULT:    -3.873      6.364      9.975
REMARK INTER + INTRA:         -10.091
REMARK INTER:                  -7.821
REMARK INTRA:                  -2.270
REMARK UNBOUND:                -2.595
REMARK SMILES CCCCCCCCCCCCCCCCCC(=O)[O-]
REMARK SMILES IDX 10 1 11 2 12 3 13 4 14 5 15 6 16 7 17 8 18 9 19 10 20 11
REMARK SMILES IDX 9 12 8 13 7 14 6 15 5 16 4 17 3 18 2 19 1 20
REMARK H PARENT
REMARK Flexibility Score: inf
ROOT
ATOM      1  C   UNL     1      25.754   3.326  18.737  1.00  0.00     0.000 C 
ENDROOT
BRANCH   1   2
ATOM      2  C   UNL     1      25.191   3.793  17.386  1.00  0.00     0.000 C 
BRANCH   2   3
ATOM      3  C   UNL     1      23.657   3.916  17.394  1.00  0.00     0.000 C 
BRANCH   3   4
ATOM      4  C   UNL     1      23.138   4.725  18.595  1.00  0.00     0.000 C 
BRANCH   4   5
ATOM      5  C   UNL     1      23.061   6.234  18.300  1.00  0.00     0.000 C 
BRANCH   5   6
ATOM      6  C   UNL     1      22.769   6.541  16.821  1.00  0.00     0.000 C 
BRANCH   6   7
ATOM      7  C   UNL     1      23.964   7.079  16.011  1.00  0.00     0.006 C 
BRANCH   7   8
ATOM      8  C   UNL     1      24.124   6.433  14.622  1.00  0.00     0.053 C 
BRANCH   8   9
ATOM      9  C   UNL     1      25.408   6.820  13.949  1.00  0.00     0.041 C 
ATOM     10  O   UNL     1      26.408   7.159  14.635  1.00  0.00    -0.550 OA
ATOM     11  O   UNL     1      25.486   6.847  12.562  1.00  0.00    -0.550 OA
ENDBRANCH   8   9
ENDBRANCH   7   8
ENDBRANCH   6   7
ENDBRANCH   5   6
ENDBRANCH   4   5
ENDBRANCH   3   4
ENDBRANCH   2   3
ENDBRANCH   1   2
BRANCH   1  12
ATOM     12  C   UNL     1      26.244   1.870  18.707  1.00  0.00     0.000 C 
BRANCH  12  13
ATOM     13  C   UNL     1      25.505   1.020  19.747  1.00  0.00    -0.000 C 
BRANCH  13  14
ATOM     14  C   UNL     1      24.442   1.851  20.482  1.00  0.00    -0.000 C 
BRANCH  14  15
ATOM     15  C   UNL     1      23.880   1.133  21.720  1.00  0.00    -0.000 C 
BRANCH  15  16
ATOM     16  C   UNL     1      22.348   1.206  21.803  1.00  0.00    -0.000 C 
BRANCH  16  17
ATOM     17  C   UNL     1      21.775   2.029  20.641  1.00  0.00    -0.000 C 
BRANCH  17  18
ATOM     18  C   UNL     1      20.912   1.190  19.680  1.00  0.00    -0.000 C 
BRANCH  18  19
ATOM     19  C   UNL     1      21.313   1.288  18.198  1.00  0.00    -0.003 C 
ATOM     20  C   UNL     1      22.423   0.310  17.814  1.00  0.00     0.004 C 
ENDBRANCH  18  19
ENDBRANCH  17  18
ENDBRANCH  16  17
ENDBRANCH  15  16
ENDBRANCH  14  15
ENDBRANCH  13  14
ENDBRANCH  12  13
ENDBRANCH   1  12
TORSDOF 16
ENDMDL
MODEL 7
REMARK VINA RESULT:    -3.798      7.040     10.381
REMARK INTER + INTRA:          -9.944
REMARK INTER:                  -8.493
REMARK INTRA:                  -1.451
REMARK UNBOUND:                -2.595
REMARK SMILES CCCCCCCCCCCCCCCCCC(=O)[O-]
REMARK SMILES IDX 10 1 11 2 12 3 13 4 14 5 15 6 16 7 17 8 18 9 19 10 20 11
REMARK SMILES IDX 9 12 8 13 7 14 6 15 5 16 4 17 3 18 2 19 1 20
REMARK H PARENT
REMARK Flexibility Score: inf
ROOT
ATOM      1  C   UNL     1      22.831   4.070  18.575  1.00  0.00     0.000 C 
ENDROOT
BRANCH   1   2
ATOM      2  C   UNL     1      23.026   5.544  18.185  1.00  0.00     0.000 C 
BRANCH   2   3
ATOM      3  C   UNL     1      22.640   5.825  16.723  1.00  0.00     0.000 C 
BRANCH   3   4
ATOM      4  C   UNL     1      23.208   7.158  16.208  1.00  0.00     0.000 C 
BRANCH   4   5
ATOM      5  C   UNL     1      24.695   7.056  15.825  1.00  0.00     0.000 C 
BRANCH   5   6
ATOM      6  C   UNL     1      25.160   5.605  15.614  1.00  0.00     0.000 C 
BRANCH   6   7
ATOM      7  C   UNL     1      26.687   5.407  15.526  1.00  0.00     0.006 C 
BRANCH   7   8
ATOM      8  C   UNL     1      27.239   5.414  14.089  1.00  0.00     0.053 C 
BRANCH   8   9
ATOM      9  C   UNL     1      27.873   6.722  13.720  1.00  0.00     0.041 C 
ATOM     10  O   UNL     1      27.558   7.301  12.647  1.00  0.00    -0.550 OA
ATOM     11  O   UNL     1      28.844   7.281  14.541  1.00  0.00    -0.550 OA
ENDBRANCH   8   9
ENDBRANCH   7   8
ENDBRANCH   6   7
ENDBRANCH   5   6
ENDBRANCH   4   5
ENDBRANCH   3   4
ENDBRANCH   2   3
ENDBRANCH   1   2
BRANCH   1  12
ATOM     12  C   UNL     1      24.108   3.429  19.140  1.00  0.00     0.000 C 
BRANCH  12  13
ATOM     13  C   UNL     1      23.914   1.926  19.366  1.00  0.00    -0.000 C 
BRANCH  13  14
ATOM     14  C   UNL     1      24.688   1.452  20.606  1.00  0.00    -0.000 C 
BRANCH  14  15
ATOM     15  C   UNL     1      23.771   1.189  21.812  1.00  0.00    -0.000 C 
BRANCH  15  16
ATOM     16  C   UNL     1      23.380   2.477  22.552  1.00  0.00    -0.000 C 
BRANCH  16  17
ATOM     17  C   UNL     1      21.948   2.900  22.197  1.00  0.00    -0.000 C 
BRANCH  17  18
ATOM     18  C   UNL     1      20.956   1.722  22.200  1.00  0.00    -0.000 C 
BRANCH  18  19
ATOM     19  C   UNL     1      20.240   1.476  20.860  1.00  0.00    -0.003 C 
ATOM     20  C   UNL     1      20.665   0.172  20.186  1.00  0.00     0.004 C 
ENDBRANCH  18  19
ENDBRANCH  17  18
ENDBRANCH  16  17
ENDBRANCH  15  16
ENDBRANCH  14  15
ENDBRANCH  13  14
ENDBRANCH  12  13
ENDBRANCH   1  12
TORSDOF 16
ENDMDL
MODEL 8
REMARK VINA RESULT:    -3.730     10.325     12.835
REMARK INTER + INTRA:          -9.813
REMARK INTER:                  -7.420
REMARK INTRA:                  -2.393
REMARK UNBOUND:                -2.595
REMARK SMILES CCCCCCCCCCCCCCCCCC(=O)[O-]
REMARK SMILES IDX 10 1 11 2 12 3 13 4 14 5 15 6 16 7 17 8 18 9 19 10 20 11
REMARK SMILES IDX 9 12 8 13 7 14 6 15 5 16 4 17 3 18 2 19 1 20
REMARK H PARENT
REMARK Flexibility Score: inf
ROOT
ATOM      1  C   UNL     1      31.362  -4.458   5.633  1.00  0.00     0.000 C 
ENDROOT
BRANCH   1   2
ATOM      2  C   UNL     1      30.816  -3.869   6.943  1.00  0.00     0.000 C 
BRANCH   2   3
ATOM      3  C   UNL     1      29.633  -4.675   7.507  1.00  0.00     0.000 C 
BRANCH   3   4
ATOM      4  C   UNL     1      28.476  -3.777   7.975  1.00  0.00     0.000 C 
BRANCH   4   5
ATOM      5  C   UNL     1      28.298  -2.534   7.086  1.00  0.00     0.000 C 
BRANCH   5   6
ATOM      6  C   UNL     1      28.160  -1.233   7.896  1.00  0.00     0.000 C 
BRANCH   6   7
ATOM      7  C   UNL     1      28.411  -1.369   9.411  1.00  0.00     0.006 C 
BRANCH   7   8
ATOM      8  C   UNL     1      27.180  -1.055  10.282  1.00  0.00     0.053 C 
BRANCH   8   9
ATOM      9  C   UNL     1      26.329  -2.265  10.537  1.00  0.00     0.041 C 
ATOM     10  O   UNL     1      26.539  -2.986  11.548  1.00  0.00    -0.550 OA
ATOM     11  O   UNL     1      25.333  -2.618   9.637  1.00  0.00    -0.550 OA
ENDBRANCH   8   9
ENDBRANCH   7   8
ENDBRANCH   6   7
ENDBRANCH   5   6
ENDBRANCH   4   5
ENDBRANCH   3   4
ENDBRANCH   2   3
ENDBRANCH   1   2
BRANCH   1  12
ATOM     12  C   UNL     1      30.482  -4.125   4.418  1.00  0.00     0.000 C 
BRANCH  12  13
ATOM     13  C   UNL     1      30.255  -2.613   4.303  1.00  0.00    -0.000 C 
BRANCH  13  14
ATOM     14  C   UNL     1      31.474  -1.919   3.678  1.00  0.00    -0.000 C 
BRANCH  14  15
ATOM     15  C   UNL     1      31.805  -0.579   4.354  1.00  0.00    -0.000 C 
BRANCH  15  16
ATOM     16  C   UNL     1      31.093  -0.403   5.703  1.00  0.00    -0.000 C 
BRANCH  16  17
ATOM     17  C   UNL     1      30.265   0.890   5.721  1.00  0.00    -0.000 C 
BRANCH  17  18
ATOM     18  C   UNL     1      29.102   0.872   4.713  1.00  0.00    -0.000 C 
BRANCH  18  19
ATOM     19  C   UNL     1      29.104   2.032   3.702  1.00  0.00    -0.003 C 
ATOM     20  C   UNL     1      30.168   3.086   4.006  1.00  0.00     0.004 C 
ENDBRANCH  18  19
ENDBRANCH  17  18
ENDBRANCH  16  17
ENDBRANCH  15  16
ENDBRANCH  14  15
ENDBRANCH  13  14
ENDBRANCH  12  13
ENDBRANCH   1  12
TORSDOF 16
ENDMDL
MODEL 9
REMARK VINA RESULT:    -3.719     10.117     12.984
REMARK INTER + INTRA:          -9.793
REMARK INTER:                  -6.937
REMARK INTRA:                  -2.856
REMARK UNBOUND:                -2.595
REMARK SMILES CCCCCCCCCCCCCCCCCC(=O)[O-]
REMARK SMILES IDX 10 1 11 2 12 3 13 4 14 5 15 6 16 7 17 8 18 9 19 10 20 11
REMARK SMILES IDX 9 12 8 13 7 14 6 15 5 16 4 17 3 18 2 19 1 20
REMARK H PARENT
REMARK Flexibility Score: inf
ROOT
ATOM      1  C   UNL     1      29.542   0.068   9.104  1.00  0.00     0.000 C 
ENDROOT
BRANCH   1   2
ATOM      2  C   UNL     1      28.404  -0.516   8.252  1.00  0.00     0.000 C 
BRANCH   2   3
ATOM      3  C   UNL     1      28.840  -0.817   6.808  1.00  0.00     0.000 C 
BRANCH   3   4
ATOM      4  C   UNL     1      28.765  -2.315   6.468  1.00  0.00     0.000 C 
BRANCH   4   5
ATOM      5  C   UNL     1      28.306  -3.168   7.664  1.00  0.00     0.000 C 
BRANCH   5   6
ATOM      6  C   UNL     1      29.383  -4.155   8.144  1.00  0.00     0.000 C 
BRANCH   6   7
ATOM      7  C   UNL     1      30.821  -3.835   7.690  1.00  0.00     0.006 C 
BRANCH   7   8
ATOM      8  C   UNL     1      31.853  -3.821   8.834  1.00  0.00     0.053 C 
BRANCH   8   9
ATOM      9  C   UNL     1      32.891  -4.894   8.688  1.00  0.00     0.041 C 
ATOM     10  O   UNL     1      32.768  -5.986   9.303  1.00  0.00    -0.550 OA
ATOM     11  O   UNL     1      34.017  -4.671   7.905  1.00  0.00    -0.550 OA
ENDBRANCH   8   9
ENDBRANCH   7   8
ENDBRANCH   6   7
ENDBRANCH   5   6
ENDBRANCH   4   5
ENDBRANCH   3   4
ENDBRANCH   2   3
ENDBRANCH   1   2
BRANCH   1  12
ATOM     12  C   UNL     1      29.357  -0.198  10.606  1.00  0.00     0.000 C 
BRANCH  12  13
ATOM     13  C   UNL     1      30.293  -1.313  11.086  1.00  0.00    -0.000 C 
BRANCH  13  14
ATOM     14  C   UNL     1      29.498  -2.568  11.477  1.00  0.00    -0.000 C 
BRANCH  14  15
ATOM     15  C   UNL     1      28.609  -2.346  12.712  1.00  0.00    -0.000 C 
BRANCH  15  16
ATOM     16  C   UNL     1      27.124  -2.622  12.432  1.00  0.00    -0.000 C 
BRANCH  16  17
ATOM     17  C   UNL     1      26.917  -3.081  10.982  1.00  0.00    -0.000 C 
BRANCH  17  18
ATOM     18  C   UNL     1      25.819  -2.285  10.252  1.00  0.00    -0.000 C 
BRANCH  18  19
ATOM     19  C   UNL     1      25.448  -0.944  10.909  1.00  0.00    -0.003 C 
ATOM     20  C   UNL     1      23.968  -0.848  11.277  1.00  0.00     0.004 C 
ENDBRANCH  18  19
ENDBRANCH  17  18
ENDBRANCH  16  17
ENDBRANCH  15  16
ENDBRANCH  14  15
ENDBRANCH  13  14
ENDBRANCH  12  13
ENDBRANCH   1  12
TORSDOF 16
ENDMDL
