MODEL 1
REMARK VINA RESULT:    -3.105      0.000      0.000
REMARK INTER + INTRA:          -6.888
REMARK INTER:                  -5.646
REMARK INTRA:                  -1.242
REMARK UNBOUND:                -1.242
REMARK SMILES CCCCCCCCCCCCCCCC(=O)[O-]
REMARK SMILES IDX 9 1 10 2 11 3 12 4 13 5 14 6 15 7 16 8 17 9 18 10 8 11 7 12
REMARK SMILES IDX 6 13 5 14 4 15 3 16 2 17 1 18
REMARK H PARENT
REMARK Flexibility Score: inf
ROOT
ATOM      1  C   UNL     1      55.534  26.072 -35.676  1.00  0.00     0.000 C 
ENDROOT
BRANCH   1   2
ATOM      2  C   UNL     1      56.797  26.504 -34.903  1.00  0.00     0.000 C 
BRANCH   2   3
ATOM      3  C   UNL     1      57.125  28.009 -34.969  1.00  0.00     0.000 C 
BRANCH   3   4
ATOM      4  C   UNL     1      56.915  28.774 -33.650  1.00  0.00     0.000 C 
BRANCH   4   5
ATOM      5  C   UNL     1      55.974  28.039 -32.680  1.00  0.00     0.000 C 
BRANCH   5   6
ATOM      6  C   UNL     1      56.120  28.531 -31.232  1.00  0.00     0.006 C 
BRANCH   6   7
ATOM      7  C   UNL     1      55.703  29.998 -31.063  1.00  0.00     0.053 C 
BRANCH   7   8
ATOM      8  C   UNL     1      56.052  30.487 -29.693  1.00  0.00     0.041 C 
ATOM      9  O   UNL     1      56.110  29.680 -28.728  1.00  0.00    -0.550 OA
ATOM     10  O   UNL     1      56.263  31.842 -29.470  1.00  0.00    -0.550 OA
ENDBRANCH   7   8
ENDBRANCH   6   7
ENDBRANCH   5   6
ENDBRANCH   4   5
ENDBRANCH   3   4
ENDBRANCH   2   3
ENDBRANCH   1   2
BRANCH   1  11
ATOM     11  C   UNL     1      54.840  27.191 -36.474  1.00  0.00     0.000 C 
BRANCH  11  12
ATOM     12  C   UNL     1      54.851  26.936 -37.990  1.00  0.00    -0.000 C 
BRANCH  12  13
ATOM     13  C   UNL     1      54.235  28.097 -38.788  1.00  0.00    -0.000 C 
BRANCH  13  14
ATOM     14  C   UNL     1      55.241  29.224 -39.070  1.00  0.00    -0.000 C 
BRANCH  14  15
ATOM     15  C   UNL     1      54.728  30.565 -38.531  1.00  0.00    -0.000 C 
BRANCH  15  16
ATOM     16  C   UNL     1      54.925  30.662 -37.013  1.00  0.00    -0.000 C 
BRANCH  16  17
ATOM     17  C   UNL     1      55.423  32.056 -36.612  1.00  0.00    -0.003 C 
ATOM     18  C   UNL     1      56.380  31.978 -35.427  1.00  0.00     0.004 C 
ENDBRANCH  16  17
ENDBRANCH  15  16
ENDBRANCH  14  15
ENDBRANCH  13  14
ENDBRANCH  12  13
ENDBRANCH  11  12
ENDBRANCH   1  11
TORSDOF 14
ENDMDL
MODEL 2
REMARK VINA RESULT:    -2.772     20.174     22.122
REMARK INTER + INTRA:          -6.283
REMARK INTER:                  -5.555
REMARK INTRA:                  -0.729
REMARK UNBOUND:                -1.242
REMARK SMILES CCCCCCCCCCCCCCCC(=O)[O-]
REMARK SMILES IDX 9 1 10 2 11 3 12 4 13 5 14 6 15 7 16 8 17 9 18 10 8 11 7 12
REMARK SMILES IDX 6 13 5 14 4 15 3 16 2 17 1 18
REMARK H PARENT
REMARK Flexibility Score: inf
ROOT
ATOM      1  C   UNL     1      40.702  12.546 -35.765  1.00  0.00     0.000 C 
ENDROOT
BRANCH   1   2
ATOM      2  C   UNL     1      42.143  12.795 -36.257  1.00  0.00     0.000 C 
BRANCH   2   3
ATOM      3  C   UNL     1      43.225  11.924 -35.589  1.00  0.00     0.000 C 
BRANCH   3   4
ATOM      4  C   UNL     1      43.708  12.431 -34.218  1.00  0.00     0.000 C 
BRANCH   4   5
ATOM      5  C   UNL     1      45.240  12.524 -34.124  1.00  0.00     0.000 C 
BRANCH   5   6
ATOM      6  C   UNL     1      45.715  13.079 -32.772  1.00  0.00     0.006 C 
BRANCH   6   7
ATOM      7  C   UNL     1      45.135  12.305 -31.581  1.00  0.00     0.053 C 
BRANCH   7   8
ATOM      8  C   UNL     1      45.843  12.680 -30.318  1.00  0.00     0.041 C 
ATOM      9  O   UNL     1      45.542  13.745 -29.716  1.00  0.00    -0.550 OA
ATOM     10  O   UNL     1      46.870  11.881 -29.832  1.00  0.00    -0.550 OA
ENDBRANCH   7   8
ENDBRANCH   6   7
ENDBRANCH   5   6
ENDBRANCH   4   5
ENDBRANCH   3   4
ENDBRANCH   2   3
ENDBRANCH   1   2
BRANCH   1  11
ATOM     11  C   UNL     1      39.768  11.875 -36.789  1.00  0.00     0.000 C 
BRANCH  11  12
ATOM     12  C   UNL     1      38.287  11.953 -36.384  1.00  0.00    -0.000 C 
BRANCH  12  13
ATOM     13  C   UNL     1      37.618  13.259 -36.843  1.00  0.00    -0.000 C 
BRANCH  13  14
ATOM     14  C   UNL     1      37.380  14.242 -35.687  1.00  0.00    -0.000 C 
BRANCH  14  15
ATOM     15  C   UNL     1      36.904  13.505 -34.429  1.00  0.00    -0.000 C 
BRANCH  15  16
ATOM     16  C   UNL     1      37.723  13.922 -33.202  1.00  0.00    -0.000 C 
BRANCH  16  17
ATOM     17  C   UNL     1      36.885  13.821 -31.921  1.00  0.00    -0.003 C 
ATOM     18  C   UNL     1      37.143  12.504 -31.197  1.00  0.00     0.004 C 
ENDBRANCH  16  17
ENDBRANCH  15  16
ENDBRANCH  14  15
ENDBRANCH  13  14
ENDBRANCH  12  13
ENDBRANCH  11  12
ENDBRANCH   1  11
TORSDOF 14
ENDMDL
MODEL 3
REMARK VINA RESULT:    -2.463      1.961      2.375
REMARK INTER + INTRA:          -5.721
REMARK INTER:                  -5.089
REMARK INTRA:                  -0.632
REMARK UNBOUND:                -1.242
REMARK SMILES CCCCCCCCCCCCCCCC(=O)[O-]
REMARK SMILES IDX 9 1 10 2 11 3 12 4 13 5 14 6 15 7 16 8 17 9 18 10 8 11 7 12
REMARK SMILES IDX 6 13 5 14 4 15 3 16 2 17 1 18
REMARK H PARENT
REMARK Flexibility Score: inf
ROOT
ATOM      1  C   UNL     1      54.886  26.842 -35.961  1.00  0.00     0.000 C 
ENDROOT
BRANCH   1   2
ATOM      2  C   UNL     1      56.078  26.550 -35.026  1.00  0.00     0.000 C 
BRANCH   2   3
ATOM      3  C   UNL     1      56.775  27.795 -34.441  1.00  0.00     0.000 C 
BRANCH   3   4
ATOM      4  C   UNL     1      57.005  27.751 -32.920  1.00  0.00     0.000 C 
BRANCH   4   5
ATOM      5  C   UNL     1      55.986  28.598 -32.139  1.00  0.00     0.000 C 
BRANCH   5   6
ATOM      6  C   UNL     1      56.657  29.647 -31.240  1.00  0.00     0.006 C 
BRANCH   6   7
ATOM      7  C   UNL     1      56.753  31.024 -31.912  1.00  0.00     0.053 C 
BRANCH   7   8
ATOM      8  C   UNL     1      55.587  31.244 -32.822  1.00  0.00     0.041 C 
ATOM      9  O   UNL     1      55.715  31.093 -34.065  1.00  0.00    -0.550 OA
ATOM     10  O   UNL     1      54.369  31.665 -32.302  1.00  0.00    -0.550 OA
ENDBRANCH   7   8
ENDBRANCH   6   7
ENDBRANCH   5   6
ENDBRANCH   4   5
ENDBRANCH   3   4
ENDBRANCH   2   3
ENDBRANCH   1   2
BRANCH   1  11
ATOM     11  C   UNL     1      55.117  26.494 -37.443  1.00  0.00     0.000 C 
BRANCH  11  12
ATOM     12  C   UNL     1      54.135  27.213 -38.383  1.00  0.00    -0.000 C 
BRANCH  12  13
ATOM     13  C   UNL     1      54.666  28.574 -38.863  1.00  0.00    -0.000 C 
BRANCH  13  14
ATOM     14  C   UNL     1      55.283  29.404 -37.728  1.00  0.00    -0.000 C 
BRANCH  14  15
ATOM     15  C   UNL     1      55.234  30.902 -38.054  1.00  0.00    -0.000 C 
BRANCH  15  16
ATOM     16  C   UNL     1      54.175  31.617 -37.207  1.00  0.00    -0.000 C 
BRANCH  16  17
ATOM     17  C   UNL     1      53.022  32.125 -38.083  1.00  0.00    -0.003 C 
ATOM     18  C   UNL     1      51.703  32.113 -37.317  1.00  0.00     0.004 C 
ENDBRANCH  16  17
ENDBRANCH  15  16
ENDBRANCH  14  15
ENDBRANCH  13  14
ENDBRANCH  12  13
ENDBRANCH  11  12
ENDBRANCH   1  11
TORSDOF 14
ENDMDL
MODEL 4
REMARK VINA RESULT:    -2.398     19.291     20.702
REMARK INTER + INTRA:          -5.602
REMARK INTER:                  -5.074
REMARK INTRA:                  -0.528
REMARK UNBOUND:                -1.242
REMARK SMILES CCCCCCCCCCCCCCCC(=O)[O-]
REMARK SMILES IDX 9 1 10 2 11 3 12 4 13 5 14 6 15 7 16 8 17 9 18 10 8 11 7 12
REMARK SMILES IDX 6 13 5 14 4 15 3 16 2 17 1 18
REMARK H PARENT
REMARK Flexibility Score: inf
ROOT
ATOM      1  C   UNL     1      44.694  13.120 -31.675  1.00  0.00     0.000 C 
ENDROOT
BRANCH   1   2
ATOM      2  C   UNL     1      45.958  13.367 -30.826  1.00  0.00     0.000 C 
BRANCH   2   3
ATOM      3  C   UNL     1      46.787  12.109 -30.500  1.00  0.00     0.000 C 
BRANCH   3   4
ATOM      4  C   UNL     1      47.046  11.876 -29.001  1.00  0.00     0.000 C 
BRANCH   4   5
ATOM      5  C   UNL     1      45.814  12.176 -28.130  1.00  0.00     0.000 C 
BRANCH   5   6
ATOM      6  C   UNL     1      46.056  11.876 -26.643  1.00  0.00     0.006 C 
BRANCH   6   7
ATOM      7  C   UNL     1      44.759  11.877 -25.823  1.00  0.00     0.053 C 
BRANCH   7   8
ATOM      8  C   UNL     1      44.756  13.013 -24.850  1.00  0.00     0.041 C 
ATOM      9  O   UNL     1      43.724  13.718 -24.702  1.00  0.00    -0.550 OA
ATOM     10  O   UNL     1      45.910  13.325 -24.142  1.00  0.00    -0.550 OA
ENDBRANCH   7   8
ENDBRANCH   6   7
ENDBRANCH   5   6
ENDBRANCH   4   5
ENDBRANCH   3   4
ENDBRANCH   2   3
ENDBRANCH   1   2
BRANCH   1  11
ATOM     11  C   UNL     1      44.822  13.495 -33.163  1.00  0.00     0.000 C 
BRANCH  11  12
ATOM     12  C   UNL     1      44.730  12.275 -34.095  1.00  0.00    -0.000 C 
BRANCH  12  13
ATOM     13  C   UNL     1      44.212  12.640 -35.496  1.00  0.00    -0.000 C 
BRANCH  13  14
ATOM     14  C   UNL     1      42.796  12.109 -35.762  1.00  0.00    -0.000 C 
BRANCH  14  15
ATOM     15  C   UNL     1      41.813  13.263 -36.000  1.00  0.00    -0.000 C 
BRANCH  15  16
ATOM     16  C   UNL     1      40.361  12.782 -35.894  1.00  0.00    -0.000 C 
BRANCH  16  17
ATOM     17  C   UNL     1      39.394  13.970 -35.811  1.00  0.00    -0.003 C 
ATOM     18  C   UNL     1      37.943  13.502 -35.860  1.00  0.00     0.004 C 
ENDBRANCH  16  17
ENDBRANCH  15  16
ENDBRANCH  14  15
ENDBRANCH  13  14
ENDBRANCH  12  13
ENDBRANCH  11  12
ENDBRANCH   1  11
TORSDOF 14
ENDMDL
MODEL 5
REMARK VINA RESULT:    -1.253     20.033     22.226
REMARK INTER + INTRA:          -3.521
REMARK INTER:                  -2.966
REMARK INTRA:                  -0.555
REMARK UNBOUND:                -1.242
REMARK SMILES CCCCCCCCCCCCCCCC(=O)[O-]
REMARK SMILES IDX 9 1 10 2 11 3 12 4 13 5 14 6 15 7 16 8 17 9 18 10 8 11 7 12
REMARK SMILES IDX 6 13 5 14 4 15 3 16 2 17 1 18
REMARK H PARENT
REMARK Flexibility Score: inf
ROOT
ATOM      1  C   UNL     1      45.007  12.249 -33.619  1.00  0.00     0.000 C 
ENDROOT
BRANCH   1   2
ATOM      2  C   UNL     1      44.062  13.203 -34.379  1.00  0.00     0.000 C 
BRANCH   2   3
ATOM      3  C   UNL     1      43.423  12.617 -35.653  1.00  0.00     0.000 C 
BRANCH   3   4
ATOM      4  C   UNL     1      42.081  11.897 -35.430  1.00  0.00     0.000 C 
BRANCH   4   5
ATOM      5  C   UNL     1      40.988  12.360 -36.408  1.00  0.00     0.000 C 
BRANCH   5   6
ATOM      6  C   UNL     1      40.039  13.395 -35.785  1.00  0.00     0.006 C 
BRANCH   6   7
ATOM      7  C   UNL     1      38.574  13.163 -36.177  1.00  0.00     0.053 C 
BRANCH   7   8
ATOM      8  C   UNL     1      37.662  13.610 -35.079  1.00  0.00     0.041 C 
ATOM      9  O   UNL     1      36.954  12.771 -34.462  1.00  0.00    -0.550 OA
ATOM     10  O   UNL     1      37.555  14.960 -34.769  1.00  0.00    -0.550 OA
ENDBRANCH   7   8
ENDBRANCH   6   7
ENDBRANCH   5   6
ENDBRANCH   4   5
ENDBRANCH   3   4
ENDBRANCH   2   3
ENDBRANCH   1   2
BRANCH   1  11
ATOM     11  C   UNL     1      45.851  12.909 -32.513  1.00  0.00     0.000 C 
BRANCH  11  12
ATOM     12  C   UNL     1      46.589  11.884 -31.636  1.00  0.00    -0.000 C 
BRANCH  12  13
ATOM     13  C   UNL     1      46.704  12.334 -30.170  1.00  0.00    -0.000 C 
BRANCH  13  14
ATOM     14  C   UNL     1      45.340  12.643 -29.536  1.00  0.00    -0.000 C 
BRANCH  14  15
ATOM     15  C   UNL     1      45.480  12.894 -28.029  1.00  0.00    -0.000 C 
BRANCH  15  16
ATOM     16  C   UNL     1      46.536  11.970 -27.412  1.00  0.00    -0.000 C 
BRANCH  16  17
ATOM     17  C   UNL     1      46.362  11.875 -25.891  1.00  0.00    -0.003 C 
ATOM     18  C   UNL     1      44.983  12.368 -25.463  1.00  0.00     0.004 C 
ENDBRANCH  16  17
ENDBRANCH  15  16
ENDBRANCH  14  15
ENDBRANCH  13  14
ENDBRANCH  12  13
ENDBRANCH  11  12
ENDBRANCH   1  11
TORSDOF 14
ENDMDL
MODEL 6
REMARK VINA RESULT:    -1.221     18.000     20.465
REMARK INTER + INTRA:          -3.462
REMARK INTER:                  -3.038
REMARK INTRA:                  -0.424
REMARK UNBOUND:                -1.242
REMARK SMILES CCCCCCCCCCCCCCCC(=O)[O-]
REMARK SMILES IDX 9 1 10 2 11 3 12 4 13 5 14 6 15 7 16 8 17 9 18 10 8 11 7 12
REMARK SMILES IDX 6 13 5 14 4 15 3 16 2 17 1 18
REMARK H PARENT
REMARK Flexibility Score: inf
ROOT
ATOM      1  C   UNL     1      45.862  12.360 -24.016  1.00  0.00     0.000 C 
ENDROOT
BRANCH   1   2
ATOM      2  C   UNL     1      45.180  12.204 -25.391  1.00  0.00     0.000 C 
BRANCH   2   3
ATOM      3  C   UNL     1      46.129  11.877 -26.561  1.00  0.00     0.000 C 
BRANCH   3   4
ATOM      4  C   UNL     1      45.493  11.985 -27.959  1.00  0.00     0.000 C 
BRANCH   4   5
ATOM      5  C   UNL     1      46.528  11.889 -29.093  1.00  0.00     0.000 C 
BRANCH   5   6
ATOM      6  C   UNL     1      46.153  12.753 -30.307  1.00  0.00     0.006 C 
BRANCH   6   7
ATOM      7  C   UNL     1      45.518  11.934 -31.438  1.00  0.00     0.053 C 
BRANCH   7   8
ATOM      8  C   UNL     1      45.375  12.768 -32.671  1.00  0.00     0.041 C 
ATOM      9  O   UNL     1      46.145  13.745 -32.868  1.00  0.00    -0.550 OA
ATOM     10  O   UNL     1      44.360  12.499 -33.580  1.00  0.00    -0.550 OA
ENDBRANCH   7   8
ENDBRANCH   6   7
ENDBRANCH   5   6
ENDBRANCH   4   5
ENDBRANCH   3   4
ENDBRANCH   2   3
ENDBRANCH   1   2
BRANCH   1  11
ATOM     11  C   UNL     1      45.424  13.594 -23.205  1.00  0.00     0.000 C 
BRANCH  11  12
ATOM     12  C   UNL     1      46.414  14.765 -23.324  1.00  0.00    -0.000 C 
BRANCH  12  13
ATOM     13  C   UNL     1      45.733  16.133 -23.146  1.00  0.00    -0.000 C 
BRANCH  13  14
ATOM     14  C   UNL     1      46.684  17.201 -22.587  1.00  0.00    -0.000 C 
BRANCH  14  15
ATOM     15  C   UNL     1      46.205  18.611 -22.959  1.00  0.00    -0.000 C 
BRANCH  15  16
ATOM     16  C   UNL     1      46.423  18.892 -24.451  1.00  0.00    -0.000 C 
BRANCH  16  17
ATOM     17  C   UNL     1      47.597  19.855 -24.662  1.00  0.00    -0.003 C 
ATOM     18  C   UNL     1      47.298  20.852 -25.777  1.00  0.00     0.004 C 
ENDBRANCH  16  17
ENDBRANCH  15  16
ENDBRANCH  14  15
ENDBRANCH  13  14
ENDBRANCH  12  13
ENDBRANCH  11  12
ENDBRANCH   1  11
TORSDOF 14
ENDMDL
MODEL 7
REMARK VINA RESULT:    -1.200     20.054     21.974
REMARK INTER + INTRA:          -3.423
REMARK INTER:                  -3.251
REMARK INTRA:                  -0.172
REMARK UNBOUND:                -1.242
REMARK SMILES CCCCCCCCCCCCCCCC(=O)[O-]
REMARK SMILES IDX 9 1 10 2 11 3 12 4 13 5 14 6 15 7 16 8 17 9 18 10 8 11 7 12
REMARK SMILES IDX 6 13 5 14 4 15 3 16 2 17 1 18
REMARK H PARENT
REMARK Flexibility Score: inf
ROOT
ATOM      1  C   UNL     1      45.086  12.299 -31.497  1.00  0.00     0.000 C 
ENDROOT
BRANCH   1   2
ATOM      2  C   UNL     1      44.757  13.479 -32.436  1.00  0.00     0.000 C 
BRANCH   2   3
ATOM      3  C   UNL     1      44.795  13.151 -33.942  1.00  0.00     0.000 C 
BRANCH   3   4
ATOM      4  C   UNL     1      43.791  12.075 -34.394  1.00  0.00     0.000 C 
BRANCH   4   5
ATOM      5  C   UNL     1      42.373  12.635 -34.602  1.00  0.00     0.000 C 
BRANCH   5   6
ATOM      6  C   UNL     1      42.158  13.183 -36.021  1.00  0.00     0.006 C 
BRANCH   6   7
ATOM      7  C   UNL     1      41.191  14.374 -36.052  1.00  0.00     0.053 C 
BRANCH   7   8
ATOM      8  C   UNL     1      39.775  13.896 -36.103  1.00  0.00     0.041 C 
ATOM      9  O   UNL     1      38.828  14.725 -36.152  1.00  0.00    -0.550 OA
ATOM     10  O   UNL     1      39.496  12.536 -36.047  1.00  0.00    -0.550 OA
ENDBRANCH   7   8
ENDBRANCH   6   7
ENDBRANCH   5   6
ENDBRANCH   4   5
ENDBRANCH   3   4
ENDBRANCH   2   3
ENDBRANCH   1   2
BRANCH   1  11
ATOM     11  C   UNL     1      46.546  12.235 -31.015  1.00  0.00     0.000 C 
BRANCH  11  12
ATOM     12  C   UNL     1      46.665  11.876 -29.524  1.00  0.00    -0.000 C 
BRANCH  12  13
ATOM     13  C   UNL     1      45.649  12.632 -28.652  1.00  0.00    -0.000 C 
BRANCH  13  14
ATOM     14  C   UNL     1      45.413  11.954 -27.294  1.00  0.00    -0.000 C 
BRANCH  14  15
ATOM     15  C   UNL     1      46.668  12.034 -26.415  1.00  0.00    -0.000 C 
BRANCH  15  16
ATOM     16  C   UNL     1      46.312  11.886 -24.931  1.00  0.00    -0.000 C 
BRANCH  16  17
ATOM     17  C   UNL     1      45.424  13.045 -24.461  1.00  0.00    -0.003 C 
ATOM     18  C   UNL     1      43.948  12.734 -24.689  1.00  0.00     0.004 C 
ENDBRANCH  16  17
ENDBRANCH  15  16
ENDBRANCH  14  15
ENDBRANCH  13  14
ENDBRANCH  12  13
ENDBRANCH  11  12
ENDBRANCH   1  11
TORSDOF 14
ENDMDL
MODEL 8
REMARK VINA RESULT:    -0.931     17.434     19.477
REMARK INTER + INTRA:          -2.935
REMARK INTER:                  -2.529
REMARK INTRA:                  -0.406
REMARK UNBOUND:                -1.242
REMARK SMILES CCCCCCCCCCCCCCCC(=O)[O-]
REMARK SMILES IDX 9 1 10 2 11 3 12 4 13 5 14 6 15 7 16 8 17 9 18 10 8 11 7 12
REMARK SMILES IDX 6 13 5 14 4 15 3 16 2 17 1 18
REMARK H PARENT
REMARK Flexibility Score: inf
ROOT
ATOM      1  C   UNL     1      45.564  12.364 -23.872  1.00  0.00     0.000 C 
ENDROOT
BRANCH   1   2
ATOM      2  C   UNL     1      45.625  13.896 -23.701  1.00  0.00     0.000 C 
BRANCH   2   3
ATOM      3  C   UNL     1      46.385  14.387 -22.452  1.00  0.00     0.000 C 
BRANCH   3   4
ATOM      4  C   UNL     1      47.080  15.751 -22.615  1.00  0.00     0.000 C 
BRANCH   4   5
ATOM      5  C   UNL     1      46.102  16.875 -22.998  1.00  0.00     0.000 C 
BRANCH   5   6
ATOM      6  C   UNL     1      46.789  18.245 -23.098  1.00  0.00     0.006 C 
BRANCH   6   7
ATOM      7  C   UNL     1      46.435  18.989 -24.393  1.00  0.00     0.053 C 
BRANCH   7   8
ATOM      8  C   UNL     1      47.408  20.097 -24.642  1.00  0.00     0.041 C 
ATOM      9  O   UNL     1      47.507  20.608 -25.788  1.00  0.00    -0.550 OA
ATOM     10  O   UNL     1      48.242  20.534 -23.620  1.00  0.00    -0.550 OA
ENDBRANCH   7   8
ENDBRANCH   6   7
ENDBRANCH   5   6
ENDBRANCH   4   5
ENDBRANCH   3   4
ENDBRANCH   2   3
ENDBRANCH   1   2
BRANCH   1  11
ATOM     11  C   UNL     1      45.040  11.879 -25.236  1.00  0.00     0.000 C 
BRANCH  11  12
ATOM     12  C   UNL     1      46.117  11.914 -26.334  1.00  0.00    -0.000 C 
BRANCH  12  13
ATOM     13  C   UNL     1      45.516  11.967 -27.748  1.00  0.00    -0.000 C 
BRANCH  13  14
ATOM     14  C   UNL     1      46.583  11.875 -28.850  1.00  0.00    -0.000 C 
BRANCH  14  15
ATOM     15  C   UNL     1      46.245  12.809 -30.019  1.00  0.00    -0.000 C 
BRANCH  15  16
ATOM     16  C   UNL     1      45.786  12.013 -31.246  1.00  0.00    -0.000 C 
BRANCH  16  17
ATOM     17  C   UNL     1      45.412  12.951 -32.401  1.00  0.00    -0.003 C 
ATOM     18  C   UNL     1      46.228  12.638 -33.651  1.00  0.00     0.004 C 
ENDBRANCH  16  17
ENDBRANCH  15  16
ENDBRANCH  14  15
ENDBRANCH  13  14
ENDBRANCH  12  13
ENDBRANCH  11  12
ENDBRANCH   1  11
TORSDOF 14
ENDMDL
MODEL 9
REMARK VINA RESULT:    -0.377     18.485     20.070
REMARK INTER + INTRA:          -1.928
REMARK INTER:                  -1.471
REMARK INTRA:                  -0.457
REMARK UNBOUND:                -1.242
REMARK SMILES CCCCCCCCCCCCCCCC(=O)[O-]
REMARK SMILES IDX 9 1 10 2 11 3 12 4 13 5 14 6 15 7 16 8 17 9 18 10 8 11 7 12
REMARK SMILES IDX 6 13 5 14 4 15 3 16 2 17 1 18
REMARK H PARENT
REMARK Flexibility Score: inf
ROOT
ATOM      1  C   UNL     1      45.634  11.876 -27.085  1.00  0.00     0.000 C 
ENDROOT
BRANCH   1   2
ATOM      2  C   UNL     1      45.677  12.757 -25.820  1.00  0.00     0.000 C 
BRANCH   2   3
ATOM      3  C   UNL     1      44.431  12.669 -24.915  1.00  0.00     0.000 C 
BRANCH   3   4
ATOM      4  C   UNL     1      44.659  13.108 -23.458  1.00  0.00     0.000 C 
BRANCH   4   5
ATOM      5  C   UNL     1      45.949  13.927 -23.277  1.00  0.00     0.000 C 
BRANCH   5   6
ATOM      6  C   UNL     1      45.677  15.349 -22.765  1.00  0.00     0.006 C 
BRANCH   6   7
ATOM      7  C   UNL     1      46.868  16.292 -22.982  1.00  0.00     0.053 C 
BRANCH   7   8
ATOM      8  C   UNL     1      46.402  17.708 -23.094  1.00  0.00     0.041 C 
ATOM      9  O   UNL     1      47.206  18.615 -23.434  1.00  0.00    -0.550 OA
ATOM     10  O   UNL     1      45.090  18.036 -22.773  1.00  0.00    -0.550 OA
ENDBRANCH   7   8
ENDBRANCH   6   7
ENDBRANCH   5   6
ENDBRANCH   4   5
ENDBRANCH   3   4
ENDBRANCH   2   3
ENDBRANCH   1   2
BRANCH   1  11
ATOM     11  C   UNL     1      46.674  12.230 -28.164  1.00  0.00     0.000 C 
BRANCH  11  12
ATOM     12  C   UNL     1      46.202  11.875 -29.584  1.00  0.00    -0.000 C 
BRANCH  12  13
ATOM     13  C   UNL     1      45.979  13.119 -30.460  1.00  0.00    -0.000 C 
BRANCH  13  14
ATOM     14  C   UNL     1      46.004  12.800 -31.962  1.00  0.00    -0.000 C 
BRANCH  14  15
ATOM     15  C   UNL     1      44.589  12.522 -32.487  1.00  0.00    -0.000 C 
BRANCH  15  16
ATOM     16  C   UNL     1      44.534  12.637 -34.015  1.00  0.00    -0.000 C 
BRANCH  16  17
ATOM     17  C   UNL     1      43.193  12.127 -34.557  1.00  0.00    -0.003 C 
ATOM     18  C   UNL     1      43.118  12.281 -36.072  1.00  0.00     0.004 C 
ENDBRANCH  16  17
ENDBRANCH  15  16
ENDBRANCH  14  15
ENDBRANCH  13  14
ENDBRANCH  12  13
ENDBRANCH  11  12
ENDBRANCH   1  11
TORSDOF 14
ENDMDL
