MODEL 1
REMARK VINA RESULT:    -4.621      0.000      0.000
REMARK INTER + INTRA:         -11.095
REMARK INTER:                  -8.402
REMARK INTRA:                  -2.693
REMARK UNBOUND:                -2.693
REMARK SMILES CCCCCCCCCCCCCC[C@@H](C)C(=O)[O-]
REMARK SMILES IDX 9 1 10 2 11 3 12 4 13 5 14 6 15 7 16 8 17 9 18 10 19 11 8 12
REMARK SMILES IDX 7 13 6 14 5 15 4 16 3 17 2 18 1 19
REMARK H PARENT
REMARK Flexibility Score: inf
ROOT
ATOM      1  C   UNL     1     -20.721  61.138  29.930  1.00  0.00     0.000 C 
ENDROOT
BRANCH   1   2
ATOM      2  C   UNL     1     -21.203  62.197  30.939  1.00  0.00     0.000 C 
BRANCH   2   3
ATOM      3  C   UNL     1     -22.644  61.967  31.442  1.00  0.00     0.000 C 
BRANCH   3   4
ATOM      4  C   UNL     1     -23.687  62.724  30.606  1.00  0.00     0.000 C 
BRANCH   4   5
ATOM      5  C   UNL     1     -25.112  62.350  31.031  1.00  0.00     0.001 C 
BRANCH   5   6
ATOM      6  C   UNL     1     -25.099  61.480  32.298  1.00  0.00     0.009 C 
BRANCH   6   7
ATOM      7  C   UNL     1     -26.475  60.852  32.605  1.00  0.00     0.032 C 
ATOM      8  C   UNL     1     -26.623  59.448  32.002  1.00  0.00     0.014 C 
BRANCH   7   9
ATOM      9  C   UNL     1     -26.692  60.790  34.092  1.00  0.00     0.044 C 
ATOM     10  O   UNL     1     -27.796  60.406  34.563  1.00  0.00    -0.550 OA
ATOM     11  O   UNL     1     -25.670  61.159  34.958  1.00  0.00    -0.550 OA
ENDBRANCH   7   9
ENDBRANCH   6   7
ENDBRANCH   5   6
ENDBRANCH   4   5
ENDBRANCH   3   4
ENDBRANCH   2   3
ENDBRANCH   1   2
BRANCH   1  12
ATOM     12  C   UNL     1     -20.573  61.636  28.480  1.00  0.00     0.000 C 
BRANCH  12  13
ATOM     13  C   UNL     1     -21.858  61.567  27.634  1.00  0.00    -0.000 C 
BRANCH  13  14
ATOM     14  C   UNL     1     -22.509  60.176  27.647  1.00  0.00    -0.000 C 
BRANCH  14  15
ATOM     15  C   UNL     1     -23.995  60.267  28.016  1.00  0.00    -0.000 C 
BRANCH  15  16
ATOM     16  C   UNL     1     -24.330  59.323  29.180  1.00  0.00    -0.000 C 
BRANCH  16  17
ATOM     17  C   UNL     1     -23.246  58.257  29.408  1.00  0.00    -0.000 C 
BRANCH  17  18
ATOM     18  C   UNL     1     -23.415  57.519  30.743  1.00  0.00    -0.003 C 
ATOM     19  C   UNL     1     -22.985  58.397  31.915  1.00  0.00     0.004 C 
ENDBRANCH  17  18
ENDBRANCH  16  17
ENDBRANCH  15  16
ENDBRANCH  14  15
ENDBRANCH  13  14
ENDBRANCH  12  13
ENDBRANCH   1  12
TORSDOF 14
ENDMDL
MODEL 2
REMARK VINA RESULT:    -4.550      1.834      3.404
REMARK INTER + INTRA:         -10.967
REMARK INTER:                  -8.338
REMARK INTRA:                  -2.629
REMARK UNBOUND:                -2.693
REMARK SMILES CCCCCCCCCCCCCC[C@@H](C)C(=O)[O-]
REMARK SMILES IDX 9 1 10 2 11 3 12 4 13 5 14 6 15 7 16 8 17 9 18 10 19 11 8 12
REMARK SMILES IDX 7 13 6 14 5 15 4 16 3 17 2 18 1 19
REMARK H PARENT
REMARK Flexibility Score: inf
ROOT
ATOM      1  C   UNL     1     -21.838  61.257  27.674  1.00  0.00     0.000 C 
ENDROOT
BRANCH   1   2
ATOM      2  C   UNL     1     -23.217  61.809  28.081  1.00  0.00     0.000 C 
BRANCH   2   3
ATOM      3  C   UNL     1     -24.223  60.718  28.506  1.00  0.00     0.000 C 
BRANCH   3   4
ATOM      4  C   UNL     1     -25.326  61.261  29.427  1.00  0.00     0.000 C 
BRANCH   4   5
ATOM      5  C   UNL     1     -24.753  62.247  30.452  1.00  0.00     0.001 C 
BRANCH   5   6
ATOM      6  C   UNL     1     -24.479  61.549  31.794  1.00  0.00     0.009 C 
BRANCH   6   7
ATOM      7  C   UNL     1     -25.486  60.419  32.096  1.00  0.00     0.032 C 
ATOM      8  C   UNL     1     -24.793  59.120  32.531  1.00  0.00     0.014 C 
BRANCH   7   9
ATOM      9  C   UNL     1     -26.450  60.861  33.162  1.00  0.00     0.044 C 
ATOM     10  O   UNL     1     -26.627  60.161  34.195  1.00  0.00    -0.550 OA
ATOM     11  O   UNL     1     -27.153  62.050  33.014  1.00  0.00    -0.550 OA
ENDBRANCH   7   9
ENDBRANCH   6   7
ENDBRANCH   5   6
ENDBRANCH   4   5
ENDBRANCH   3   4
ENDBRANCH   2   3
ENDBRANCH   1   2
BRANCH   1  12
ATOM     12  C   UNL     1     -20.679  61.631  28.617  1.00  0.00     0.000 C 
BRANCH  12  13
ATOM     13  C   UNL     1     -21.056  61.718  30.108  1.00  0.00    -0.000 C 
BRANCH  13  14
ATOM     14  C   UNL     1     -21.194  60.339  30.771  1.00  0.00    -0.000 C 
BRANCH  14  15
ATOM     15  C   UNL     1     -20.953  60.429  32.283  1.00  0.00    -0.000 C 
BRANCH  15  16
ATOM     16  C   UNL     1     -20.827  61.892  32.732  1.00  0.00    -0.000 C 
BRANCH  16  17
ATOM     17  C   UNL     1     -21.416  62.133  34.132  1.00  0.00    -0.000 C 
BRANCH  17  18
ATOM     18  C   UNL     1     -22.096  60.884  34.710  1.00  0.00    -0.003 C 
ATOM     19  C   UNL     1     -23.421  61.239  35.379  1.00  0.00     0.004 C 
ENDBRANCH  17  18
ENDBRANCH  16  17
ENDBRANCH  15  16
ENDBRANCH  14  15
ENDBRANCH  13  14
ENDBRANCH  12  13
ENDBRANCH   1  12
TORSDOF 14
ENDMDL
MODEL 3
REMARK VINA RESULT:    -4.544      1.681      3.123
REMARK INTER + INTRA:         -10.957
REMARK INTER:                  -8.778
REMARK INTRA:                  -2.179
REMARK UNBOUND:                -2.693
REMARK SMILES CCCCCCCCCCCCCC[C@@H](C)C(=O)[O-]
REMARK SMILES IDX 9 1 10 2 11 3 12 4 13 5 14 6 15 7 16 8 17 9 18 10 19 11 8 12
REMARK SMILES IDX 7 13 6 14 5 15 4 16 3 17 2 18 1 19
REMARK H PARENT
REMARK Flexibility Score: inf
ROOT
ATOM      1  C   UNL     1     -23.115  61.638  31.557  1.00  0.00     0.000 C 
ENDROOT
BRANCH   1   2
ATOM      2  C   UNL     1     -21.623  61.738  31.923  1.00  0.00     0.000 C 
BRANCH   2   3
ATOM      3  C   UNL     1     -21.365  61.957  33.430  1.00  0.00     0.000 C 
BRANCH   3   4
ATOM      4  C   UNL     1     -22.059  60.903  34.305  1.00  0.00     0.000 C 
BRANCH   4   5
ATOM      5  C   UNL     1     -23.104  61.548  35.223  1.00  0.00     0.001 C 
BRANCH   5   6
ATOM      6  C   UNL     1     -24.335  60.642  35.380  1.00  0.00     0.009 C 
BRANCH   6   7
ATOM      7  C   UNL     1     -25.304  60.741  34.181  1.00  0.00     0.032 C 
ATOM      8  C   UNL     1     -25.394  59.426  33.394  1.00  0.00     0.014 C 
BRANCH   7   9
ATOM      9  C   UNL     1     -26.673  61.140  34.659  1.00  0.00     0.044 C 
ATOM     10  O   UNL     1     -26.815  61.768  35.742  1.00  0.00    -0.550 OA
ATOM     11  O   UNL     1     -27.794  60.816  33.905  1.00  0.00    -0.550 OA
ENDBRANCH   7   9
ENDBRANCH   6   7
ENDBRANCH   5   6
ENDBRANCH   4   5
ENDBRANCH   3   4
ENDBRANCH   2   3
ENDBRANCH   1   2
BRANCH   1  12
ATOM     12  C   UNL     1     -23.641  62.763  30.646  1.00  0.00     0.000 C 
BRANCH  12  13
ATOM     13  C   UNL     1     -24.922  62.420  29.863  1.00  0.00    -0.000 C 
BRANCH  13  14
ATOM     14  C   UNL     1     -25.318  60.940  29.982  1.00  0.00    -0.000 C 
BRANCH  14  15
ATOM     15  C   UNL     1     -25.150  60.217  28.640  1.00  0.00    -0.000 C 
BRANCH  15  16
ATOM     16  C   UNL     1     -24.053  59.145  28.729  1.00  0.00    -0.000 C 
BRANCH  16  17
ATOM     17  C   UNL     1     -22.902  59.394  27.741  1.00  0.00    -0.000 C 
BRANCH  17  18
ATOM     18  C   UNL     1     -21.876  60.405  28.272  1.00  0.00    -0.003 C 
ATOM     19  C   UNL     1     -21.899  61.693  27.452  1.00  0.00     0.004 C 
ENDBRANCH  17  18
ENDBRANCH  16  17
ENDBRANCH  15  16
ENDBRANCH  14  15
ENDBRANCH  13  14
ENDBRANCH  12  13
ENDBRANCH   1  12
TORSDOF 14
ENDMDL
MODEL 4
REMARK VINA RESULT:    -4.536      1.835      4.142
REMARK INTER + INTRA:         -10.942
REMARK INTER:                  -8.517
REMARK INTRA:                  -2.425
REMARK UNBOUND:                -2.693
REMARK SMILES CCCCCCCCCCCCCC[C@@H](C)C(=O)[O-]
REMARK SMILES IDX 9 1 10 2 11 3 12 4 13 5 14 6 15 7 16 8 17 9 18 10 19 11 8 12
REMARK SMILES IDX 7 13 6 14 5 15 4 16 3 17 2 18 1 19
REMARK H PARENT
REMARK Flexibility Score: inf
ROOT
ATOM      1  C   UNL     1     -22.857  61.537  27.694  1.00  0.00     0.000 C 
ENDROOT
BRANCH   1   2
ATOM      2  C   UNL     1     -21.361  61.646  28.040  1.00  0.00     0.000 C 
BRANCH   2   3
ATOM      3  C   UNL     1     -20.977  60.953  29.365  1.00  0.00     0.000 C 
BRANCH   3   4
ATOM      4  C   UNL     1     -20.270  61.903  30.343  1.00  0.00     0.000 C 
BRANCH   4   5
ATOM      5  C   UNL     1     -21.259  62.483  31.360  1.00  0.00     0.001 C 
BRANCH   5   6
ATOM      6  C   UNL     1     -21.237  61.681  32.670  1.00  0.00     0.009 C 
BRANCH   6   7
ATOM      7  C   UNL     1     -22.644  61.222  33.114  1.00  0.00     0.032 C 
ATOM      8  C   UNL     1     -23.045  59.881  32.484  1.00  0.00     0.014 C 
BRANCH   7   9
ATOM      9  C   UNL     1     -22.701  61.117  34.613  1.00  0.00     0.044 C 
ATOM     10  O   UNL     1     -22.286  62.061  35.337  1.00  0.00    -0.550 OA
ATOM     11  O   UNL     1     -23.215  59.972  35.209  1.00  0.00    -0.550 OA
ENDBRANCH   7   9
ENDBRANCH   6   7
ENDBRANCH   5   6
ENDBRANCH   4   5
ENDBRANCH   3   4
ENDBRANCH   2   3
ENDBRANCH   1   2
BRANCH   1  12
ATOM     12  C   UNL     1     -23.655  60.532  28.547  1.00  0.00     0.000 C 
BRANCH  12  13
ATOM     13  C   UNL     1     -24.871  61.125  29.282  1.00  0.00    -0.000 C 
BRANCH  13  14
ATOM     14  C   UNL     1     -24.538  62.418  30.043  1.00  0.00    -0.000 C 
BRANCH  14  15
ATOM     15  C   UNL     1     -25.591  62.710  31.118  1.00  0.00    -0.000 C 
BRANCH  15  16
ATOM     16  C   UNL     1     -26.279  61.416  31.578  1.00  0.00    -0.000 C 
BRANCH  16  17
ATOM     17  C   UNL     1     -27.089  61.605  32.872  1.00  0.00    -0.000 C 
BRANCH  17  18
ATOM     18  C   UNL     1     -26.582  60.722  34.021  1.00  0.00    -0.003 C 
ATOM     19  C   UNL     1     -26.324  61.550  35.277  1.00  0.00     0.004 C 
ENDBRANCH  17  18
ENDBRANCH  16  17
ENDBRANCH  15  16
ENDBRANCH  14  15
ENDBRANCH  13  14
ENDBRANCH  12  13
ENDBRANCH   1  12
TORSDOF 14
ENDMDL
MODEL 5
REMARK VINA RESULT:    -4.508      2.394      4.642
REMARK INTER + INTRA:         -10.890
REMARK INTER:                  -7.879
REMARK INTRA:                  -3.011
REMARK UNBOUND:                -2.693
REMARK SMILES CCCCCCCCCCCCCC[C@@H](C)C(=O)[O-]
REMARK SMILES IDX 9 1 10 2 11 3 12 4 13 5 14 6 15 7 16 8 17 9 18 10 19 11 8 12
REMARK SMILES IDX 7 13 6 14 5 15 4 16 3 17 2 18 1 19
REMARK H PARENT
REMARK Flexibility Score: inf
ROOT
ATOM      1  C   UNL     1     -23.258  60.213  28.031  1.00  0.00     0.000 C 
ENDROOT
BRANCH   1   2
ATOM      2  C   UNL     1     -23.436  61.688  28.437  1.00  0.00     0.000 C 
BRANCH   2   3
ATOM      3  C   UNL     1     -24.679  61.947  29.315  1.00  0.00     0.000 C 
BRANCH   3   4
ATOM      4  C   UNL     1     -24.318  62.519  30.694  1.00  0.00     0.000 C 
BRANCH   4   5
ATOM      5  C   UNL     1     -22.806  62.451  30.941  1.00  0.00     0.001 C 
BRANCH   5   6
ATOM      6  C   UNL     1     -22.483  61.547  32.140  1.00  0.00     0.009 C 
BRANCH   6   7
ATOM      7  C   UNL     1     -21.215  60.693  31.921  1.00  0.00     0.032 C 
ATOM      8  C   UNL     1     -20.487  61.055  30.619  1.00  0.00     0.014 C 
BRANCH   7   9
ATOM      9  C   UNL     1     -20.280  60.854  33.088  1.00  0.00     0.044 C 
ATOM     10  O   UNL     1     -20.728  61.114  34.236  1.00  0.00    -0.550 OA
ATOM     11  O   UNL     1     -18.910  60.714  32.904  1.00  0.00    -0.550 OA
ENDBRANCH   7   9
ENDBRANCH   6   7
ENDBRANCH   5   6
ENDBRANCH   4   5
ENDBRANCH   3   4
ENDBRANCH   2   3
ENDBRANCH   1   2
BRANCH   1  12
ATOM     12  C   UNL     1     -24.168  59.216  28.774  1.00  0.00     0.000 C 
BRANCH  12  13
ATOM     13  C   UNL     1     -23.522  58.533  29.995  1.00  0.00    -0.000 C 
BRANCH  13  14
ATOM     14  C   UNL     1     -24.395  58.614  31.256  1.00  0.00    -0.000 C 
BRANCH  14  15
ATOM     15  C   UNL     1     -25.850  58.941  30.898  1.00  0.00    -0.000 C 
BRANCH  15  16
ATOM     16  C   UNL     1     -26.479  59.868  31.949  1.00  0.00    -0.000 C 
BRANCH  16  17
ATOM     17  C   UNL     1     -25.852  59.693  33.342  1.00  0.00    -0.000 C 
BRANCH  17  18
ATOM     18  C   UNL     1     -25.478  61.032  33.993  1.00  0.00    -0.003 C 
ATOM     19  C   UNL     1     -24.628  60.817  35.242  1.00  0.00     0.004 C 
ENDBRANCH  17  18
ENDBRANCH  16  17
ENDBRANCH  15  16
ENDBRANCH  14  15
ENDBRANCH  13  14
ENDBRANCH  12  13
ENDBRANCH   1  12
TORSDOF 14
ENDMDL
MODEL 6
REMARK VINA RESULT:    -4.449      3.040      6.004
REMARK INTER + INTRA:         -10.782
REMARK INTER:                  -8.354
REMARK INTRA:                  -2.428
REMARK UNBOUND:                -2.693
REMARK SMILES CCCCCCCCCCCCCC[C@@H](C)C(=O)[O-]
REMARK SMILES IDX 9 1 10 2 11 3 12 4 13 5 14 6 15 7 16 8 17 9 18 10 19 11 8 12
REMARK SMILES IDX 7 13 6 14 5 15 4 16 3 17 2 18 1 19
REMARK H PARENT
REMARK Flexibility Score: inf
ROOT
ATOM      1  C   UNL     1     -25.405  59.957  32.780  1.00  0.00     0.000 C 
ENDROOT
BRANCH   1   2
ATOM      2  C   UNL     1     -25.318  60.638  31.402  1.00  0.00     0.000 C 
BRANCH   2   3
ATOM      3  C   UNL     1     -25.551  62.164  31.446  1.00  0.00     0.000 C 
BRANCH   3   4
ATOM      4  C   UNL     1     -24.787  62.908  30.341  1.00  0.00     0.000 C 
BRANCH   4   5
ATOM      5  C   UNL     1     -23.587  62.089  29.851  1.00  0.00     0.001 C 
BRANCH   5   6
ATOM      6  C   UNL     1     -23.632  61.904  28.326  1.00  0.00     0.009 C 
BRANCH   6   7
ATOM      7  C   UNL     1     -22.465  61.043  27.795  1.00  0.00     0.032 C 
ATOM      8  C   UNL     1     -21.108  61.493  28.352  1.00  0.00     0.014 C 
BRANCH   7   9
ATOM      9  C   UNL     1     -22.699  59.596  28.133  1.00  0.00     0.044 C 
ATOM     10  O   UNL     1     -21.734  58.850  28.451  1.00  0.00    -0.550 OA
ATOM     11  O   UNL     1     -23.985  59.073  28.098  1.00  0.00    -0.550 OA
ENDBRANCH   7   9
ENDBRANCH   6   7
ENDBRANCH   5   6
ENDBRANCH   4   5
ENDBRANCH   3   4
ENDBRANCH   2   3
ENDBRANCH   1   2
BRANCH   1  12
ATOM     12  C   UNL     1     -26.120  60.777  33.871  1.00  0.00     0.000 C 
BRANCH  12  13
ATOM     13  C   UNL     1     -25.279  61.053  35.132  1.00  0.00    -0.000 C 
BRANCH  13  14
ATOM     14  C   UNL     1     -23.829  60.562  35.003  1.00  0.00    -0.000 C 
BRANCH  14  15
ATOM     15  C   UNL     1     -22.840  61.644  35.455  1.00  0.00    -0.000 C 
BRANCH  15  16
ATOM     16  C   UNL     1     -21.604  61.673  34.544  1.00  0.00    -0.000 C 
BRANCH  16  17
ATOM     17  C   UNL     1     -21.970  61.664  33.050  1.00  0.00    -0.000 C 
BRANCH  17  18
ATOM     18  C   UNL     1     -21.105  60.692  32.236  1.00  0.00    -0.003 C 
ATOM     19  C   UNL     1     -21.867  59.405  31.926  1.00  0.00     0.004 C 
ENDBRANCH  17  18
ENDBRANCH  16  17
ENDBRANCH  15  16
ENDBRANCH  14  15
ENDBRANCH  13  14
ENDBRANCH  12  13
ENDBRANCH   1  12
TORSDOF 14
ENDMDL
MODEL 7
REMARK VINA RESULT:    -4.412      3.298      5.674
REMARK INTER + INTRA:         -10.717
REMARK INTER:                  -8.058
REMARK INTRA:                  -2.659
REMARK UNBOUND:                -2.693
REMARK SMILES CCCCCCCCCCCCCC[C@@H](C)C(=O)[O-]
REMARK SMILES IDX 9 1 10 2 11 3 12 4 13 5 14 6 15 7 16 8 17 9 18 10 19 11 8 12
REMARK SMILES IDX 7 13 6 14 5 15 4 16 3 17 2 18 1 19
REMARK H PARENT
REMARK Flexibility Score: inf
ROOT
ATOM      1  C   UNL     1     -24.391  59.374  28.971  1.00  0.00     0.000 C 
ENDROOT
BRANCH   1   2
ATOM      2  C   UNL     1     -25.214  60.670  28.862  1.00  0.00     0.000 C 
BRANCH   2   3
ATOM      3  C   UNL     1     -24.401  61.950  29.154  1.00  0.00     0.000 C 
BRANCH   3   4
ATOM      4  C   UNL     1     -24.564  62.434  30.602  1.00  0.00     0.000 C 
BRANCH   4   5
ATOM      5  C   UNL     1     -23.284  62.195  31.411  1.00  0.00     0.001 C 
BRANCH   5   6
ATOM      6  C   UNL     1     -22.094  61.901  30.485  1.00  0.00     0.009 C 
BRANCH   6   7
ATOM      7  C   UNL     1     -20.891  61.288  31.235  1.00  0.00     0.032 C 
ATOM      8  C   UNL     1     -21.207  59.900  31.809  1.00  0.00     0.014 C 
BRANCH   7   9
ATOM      9  C   UNL     1     -19.704  61.199  30.316  1.00  0.00     0.044 C 
ATOM     10  O   UNL     1     -18.681  60.545  30.653  1.00  0.00    -0.550 OA
ATOM     11  O   UNL     1     -19.730  61.840  29.083  1.00  0.00    -0.550 OA
ENDBRANCH   7   9
ENDBRANCH   6   7
ENDBRANCH   5   6
ENDBRANCH   4   5
ENDBRANCH   3   4
ENDBRANCH   2   3
ENDBRANCH   1   2
BRANCH   1  12
ATOM     12  C   UNL     1     -24.477  58.657  30.333  1.00  0.00     0.000 C 
BRANCH  12  13
ATOM     13  C   UNL     1     -25.711  59.020  31.181  1.00  0.00    -0.000 C 
BRANCH  13  14
ATOM     14  C   UNL     1     -25.391  59.141  32.679  1.00  0.00    -0.000 C 
BRANCH  14  15
ATOM     15  C   UNL     1     -26.172  60.297  33.316  1.00  0.00    -0.000 C 
BRANCH  15  16
ATOM     16  C   UNL     1     -25.375  60.930  34.466  1.00  0.00    -0.000 C 
BRANCH  16  17
ATOM     17  C   UNL     1     -23.915  60.450  34.507  1.00  0.00    -0.000 C 
BRANCH  17  18
ATOM     18  C   UNL     1     -23.083  61.180  35.572  1.00  0.00    -0.003 C 
ATOM     19  C   UNL     1     -21.914  61.929  34.937  1.00  0.00     0.004 C 
ENDBRANCH  17  18
ENDBRANCH  16  17
ENDBRANCH  15  16
ENDBRANCH  14  15
ENDBRANCH  13  14
ENDBRANCH  12  13
ENDBRANCH   1  12
TORSDOF 14
ENDMDL
MODEL 8
REMARK VINA RESULT:    -4.406      1.679      2.701
REMARK INTER + INTRA:         -10.705
REMARK INTER:                  -8.172
REMARK INTRA:                  -2.533
REMARK UNBOUND:                -2.693
REMARK SMILES CCCCCCCCCCCCCC[C@@H](C)C(=O)[O-]
REMARK SMILES IDX 9 1 10 2 11 3 12 4 13 5 14 6 15 7 16 8 17 9 18 10 19 11 8 12
REMARK SMILES IDX 7 13 6 14 5 15 4 16 3 17 2 18 1 19
REMARK H PARENT
REMARK Flexibility Score: inf
ROOT
ATOM      1  C   UNL     1     -21.016  61.548  32.971  1.00  0.00     0.000 C 
ENDROOT
BRANCH   1   2
ATOM      2  C   UNL     1     -21.605  61.948  34.336  1.00  0.00     0.000 C 
BRANCH   2   3
ATOM      3  C   UNL     1     -22.702  60.988  34.846  1.00  0.00     0.000 C 
BRANCH   3   4
ATOM      4  C   UNL     1     -23.086  59.926  33.805  1.00  0.00     0.000 C 
BRANCH   4   5
ATOM      5  C   UNL     1     -24.604  59.875  33.601  1.00  0.00     0.001 C 
BRANCH   5   6
ATOM      6  C   UNL     1     -25.193  61.291  33.495  1.00  0.00     0.009 C 
BRANCH   6   7
ATOM      7  C   UNL     1     -26.672  61.290  33.048  1.00  0.00     0.032 C 
ATOM      8  C   UNL     1     -27.064  59.991  32.330  1.00  0.00     0.014 C 
BRANCH   7   9
ATOM      9  C   UNL     1     -27.567  61.502  34.238  1.00  0.00     0.044 C 
ATOM     10  O   UNL     1     -28.030  60.518  34.874  1.00  0.00    -0.550 OA
ATOM     11  O   UNL     1     -27.890  62.791  34.643  1.00  0.00    -0.550 OA
ENDBRANCH   7   9
ENDBRANCH   6   7
ENDBRANCH   5   6
ENDBRANCH   4   5
ENDBRANCH   3   4
ENDBRANCH   2   3
ENDBRANCH   1   2
BRANCH   1  12
ATOM     12  C   UNL     1     -21.367  62.492  31.805  1.00  0.00     0.000 C 
BRANCH  12  13
ATOM     13  C   UNL     1     -22.347  61.909  30.769  1.00  0.00    -0.000 C 
BRANCH  13  14
ATOM     14  C   UNL     1     -23.638  62.732  30.638  1.00  0.00    -0.000 C 
BRANCH  14  15
ATOM     15  C   UNL     1     -24.686  61.981  29.809  1.00  0.00    -0.000 C 
BRANCH  15  16
ATOM     16  C   UNL     1     -24.017  61.118  28.729  1.00  0.00    -0.000 C 
BRANCH  16  17
ATOM     17  C   UNL     1     -24.667  59.731  28.594  1.00  0.00    -0.000 C 
BRANCH  17  18
ATOM     18  C   UNL     1     -24.798  59.005  29.940  1.00  0.00    -0.003 C 
ATOM     19  C   UNL     1     -23.458  58.419  30.380  1.00  0.00     0.004 C 
ENDBRANCH  17  18
ENDBRANCH  16  17
ENDBRANCH  15  16
ENDBRANCH  14  15
ENDBRANCH  13  14
ENDBRANCH  12  13
ENDBRANCH   1  12
TORSDOF 14
ENDMDL
MODEL 9
REMARK VINA RESULT:    -4.399      2.648      5.086
REMARK INTER + INTRA:         -10.692
REMARK INTER:                  -8.789
REMARK INTRA:                  -1.903
REMARK UNBOUND:                -2.693
REMARK SMILES CCCCCCCCCCCCCC[C@@H](C)C(=O)[O-]
REMARK SMILES IDX 9 1 10 2 11 3 12 4 13 5 14 6 15 7 16 8 17 9 18 10 19 11 8 12
REMARK SMILES IDX 7 13 6 14 5 15 4 16 3 17 2 18 1 19
REMARK H PARENT
REMARK Flexibility Score: inf
ROOT
ATOM      1  C   UNL     1     -23.917  60.750  28.792  1.00  0.00     0.000 C 
ENDROOT
BRANCH   1   2
ATOM      2  C   UNL     1     -24.170  62.159  29.360  1.00  0.00     0.000 C 
BRANCH   2   3
ATOM      3  C   UNL     1     -23.531  62.395  30.746  1.00  0.00     0.000 C 
BRANCH   3   4
ATOM      4  C   UNL     1     -22.054  61.974  30.792  1.00  0.00     0.000 C 
BRANCH   4   5
ATOM      5  C   UNL     1     -21.507  62.039  32.223  1.00  0.00     0.001 C 
BRANCH   5   6
ATOM      6  C   UNL     1     -22.427  61.290  33.199  1.00  0.00     0.009 C 
BRANCH   6   7
ATOM      7  C   UNL     1     -22.194  61.698  34.671  1.00  0.00     0.032 C 
ATOM      8  C   UNL     1     -23.279  61.146  35.607  1.00  0.00     0.014 C 
BRANCH   7   9
ATOM      9  C   UNL     1     -20.842  61.225  35.127  1.00  0.00     0.044 C 
ATOM     10  O   UNL     1     -19.960  62.054  35.481  1.00  0.00    -0.550 OA
ATOM     11  O   UNL     1     -20.556  59.866  35.163  1.00  0.00    -0.550 OA
ENDBRANCH   7   9
ENDBRANCH   6   7
ENDBRANCH   5   6
ENDBRANCH   4   5
ENDBRANCH   3   4
ENDBRANCH   2   3
ENDBRANCH   1   2
BRANCH   1  12
ATOM     12  C   UNL     1     -25.112  59.782  28.886  1.00  0.00     0.000 C 
BRANCH  12  13
ATOM     13  C   UNL     1     -25.219  59.009  30.213  1.00  0.00    -0.000 C 
BRANCH  13  14
ATOM     14  C   UNL     1     -26.057  59.747  31.269  1.00  0.00    -0.000 C 
BRANCH  14  15
ATOM     15  C   UNL     1     -25.538  59.457  32.683  1.00  0.00    -0.000 C 
BRANCH  15  16
ATOM     16  C   UNL     1     -26.322  60.260  33.731  1.00  0.00    -0.000 C 
BRANCH  16  17
ATOM     17  C   UNL     1     -26.864  61.587  33.175  1.00  0.00    -0.000 C 
BRANCH  17  18
ATOM     18  C   UNL     1     -27.717  62.351  34.197  1.00  0.00    -0.003 C 
ATOM     19  C   UNL     1     -27.308  62.001  35.626  1.00  0.00     0.004 C 
ENDBRANCH  17  18
ENDBRANCH  16  17
ENDBRANCH  15  16
ENDBRANCH  14  15
ENDBRANCH  13  14
ENDBRANCH  12  13
ENDBRANCH   1  12
TORSDOF 14
ENDMDL
