MODEL 1
REMARK VINA RESULT:    -4.541      0.000      0.000
REMARK INTER + INTRA:          -9.805
REMARK INTER:                  -7.992
REMARK INTRA:                  -1.813
REMARK UNBOUND:                -1.813
REMARK SMILES CCCCCCC=CCCCCCCCC(=O)[O-]
REMARK SMILES IDX 10 1 11 2 12 3 13 4 14 5 15 6 16 7 17 8 18 9 9 10 8 11 7 12
REMARK SMILES IDX 6 13 5 14 4 15 3 16 2 17 1 18
REMARK H PARENT
REMARK Flexibility Score: inf
ROOT
ATOM      1  C   UNL     1      31.439   9.495  48.770  1.00  0.00     0.004 C 
ENDROOT
BRANCH   1   2
ATOM      2  C   UNL     1      31.220   8.056  49.279  1.00  0.00     0.000 C 
BRANCH   2   3
ATOM      3  C   UNL     1      30.514   7.129  48.268  1.00  0.00     0.000 C 
BRANCH   3   4
ATOM      4  C   UNL     1      31.267   5.814  47.986  1.00  0.00     0.000 C 
BRANCH   4   5
ATOM      5  C   UNL     1      32.744   5.884  48.404  1.00  0.00     0.006 C 
BRANCH   5   6
ATOM      6  C   UNL     1      33.658   5.981  47.179  1.00  0.00     0.053 C 
BRANCH   6   7
ATOM      7  C   UNL     1      34.806   5.031  47.306  1.00  0.00     0.041 C 
ATOM      8  O   UNL     1      35.258   4.732  48.442  1.00  0.00    -0.550 OA
ATOM      9  O   UNL     1      35.411   4.515  46.166  1.00  0.00    -0.550 OA
ENDBRANCH   6   7
ENDBRANCH   5   6
ENDBRANCH   4   5
ENDBRANCH   3   4
ENDBRANCH   2   3
ENDBRANCH   1   2
BRANCH   1  10
ATOM     10  C   UNL     1      32.659   9.612  47.844  1.00  0.00     0.027 C 
BRANCH  10  11
ATOM     11  C   UNL     1      33.946   9.462  48.619  1.00  0.00    -0.031 C 
ATOM     12  C   UNL     1      34.980  10.317  48.521  1.00  0.00    -0.031 C 
BRANCH  12  13
ATOM     13  C   UNL     1      35.011  11.522  47.612  1.00  0.00     0.027 C 
BRANCH  13  14
ATOM     14  C   UNL     1      35.724  11.235  46.276  1.00  0.00     0.004 C 
BRANCH  14  15
ATOM     15  C   UNL     1      34.983  11.791  45.047  1.00  0.00     0.000 C 
BRANCH  15  16
ATOM     16  C   UNL     1      34.111  10.739  44.349  1.00  0.00    -0.000 C 
BRANCH  16  17
ATOM     17  C   UNL     1      34.946   9.524  43.927  1.00  0.00    -0.003 C 
ATOM     18  C   UNL     1      34.268   8.220  44.336  1.00  0.00     0.004 C 
ENDBRANCH  16  17
ENDBRANCH  15  16
ENDBRANCH  14  15
ENDBRANCH  13  14
ENDBRANCH  12  13
ENDBRANCH  10  11
ENDBRANCH   1  10
TORSDOF 13
ENDMDL
MODEL 2
REMARK VINA RESULT:    -4.498      1.002      2.058
REMARK INTER + INTRA:          -9.729
REMARK INTER:                  -8.291
REMARK INTRA:                  -1.438
REMARK UNBOUND:                -1.813
REMARK SMILES CCCCCCC=CCCCCCCCC(=O)[O-]
REMARK SMILES IDX 10 1 11 2 12 3 13 4 14 5 15 6 16 7 17 8 18 9 9 10 8 11 7 12
REMARK SMILES IDX 6 13 5 14 4 15 3 16 2 17 1 18
REMARK H PARENT
REMARK Flexibility Score: inf
ROOT
ATOM      1  C   UNL     1      30.075   7.444  49.842  1.00  0.00     0.004 C 
ENDROOT
BRANCH   1   2
ATOM      2  C   UNL     1      30.187   6.161  48.994  1.00  0.00     0.000 C 
BRANCH   2   3
ATOM      3  C   UNL     1      31.070   6.309  47.738  1.00  0.00     0.000 C 
BRANCH   3   4
ATOM      4  C   UNL     1      32.426   5.579  47.832  1.00  0.00     0.000 C 
BRANCH   4   5
ATOM      5  C   UNL     1      33.599   6.464  47.385  1.00  0.00     0.006 C 
BRANCH   5   6
ATOM      6  C   UNL     1      34.196   5.961  46.067  1.00  0.00     0.053 C 
BRANCH   6   7
ATOM      7  C   UNL     1      35.164   4.850  46.322  1.00  0.00     0.041 C 
ATOM      8  O   UNL     1      35.367   3.972  45.442  1.00  0.00    -0.550 OA
ATOM      9  O   UNL     1      35.806   4.753  47.550  1.00  0.00    -0.550 OA
ENDBRANCH   6   7
ENDBRANCH   5   6
ENDBRANCH   4   5
ENDBRANCH   3   4
ENDBRANCH   2   3
ENDBRANCH   1   2
BRANCH   1  10
ATOM     10  C   UNL     1      31.357   8.291  49.799  1.00  0.00     0.027 C 
BRANCH  10  11
ATOM     11  C   UNL     1      31.173   9.509  48.925  1.00  0.00    -0.031 C 
ATOM     12  C   UNL     1      32.158  10.382  48.646  1.00  0.00    -0.031 C 
BRANCH  12  13
ATOM     13  C   UNL     1      33.566  10.284  49.183  1.00  0.00     0.027 C 
BRANCH  13  14
ATOM     14  C   UNL     1      34.617  10.152  48.063  1.00  0.00     0.004 C 
BRANCH  14  15
ATOM     15  C   UNL     1      34.012  10.093  46.650  1.00  0.00     0.000 C 
BRANCH  15  16
ATOM     16  C   UNL     1      34.879  10.799  45.599  1.00  0.00    -0.000 C 
BRANCH  16  17
ATOM     17  C   UNL     1      34.450  10.410  44.180  1.00  0.00    -0.003 C 
ATOM     18  C   UNL     1      34.630   8.913  43.939  1.00  0.00     0.004 C 
ENDBRANCH  16  17
ENDBRANCH  15  16
ENDBRANCH  14  15
ENDBRANCH  13  14
ENDBRANCH  12  13
ENDBRANCH  10  11
ENDBRANCH   1  10
TORSDOF 13
ENDMDL
MODEL 3
REMARK VINA RESULT:    -4.476      2.026      4.438
REMARK INTER + INTRA:          -9.691
REMARK INTER:                  -8.001
REMARK INTRA:                  -1.690
REMARK UNBOUND:                -1.813
REMARK SMILES CCCCCCC=CCCCCCCCC(=O)[O-]
REMARK SMILES IDX 10 1 11 2 12 3 13 4 14 5 15 6 16 7 17 8 18 9 9 10 8 11 7 12
REMARK SMILES IDX 6 13 5 14 4 15 3 16 2 17 1 18
REMARK H PARENT
REMARK Flexibility Score: inf
ROOT
ATOM      1  C   UNL     1      34.754  11.175  47.474  1.00  0.00     0.004 C 
ENDROOT
BRANCH   1   2
ATOM      2  C   UNL     1      34.171   9.839  47.977  1.00  0.00     0.000 C 
BRANCH   2   3
ATOM      3  C   UNL     1      32.690   9.616  47.605  1.00  0.00     0.000 C 
BRANCH   3   4
ATOM      4  C   UNL     1      31.715   9.756  48.790  1.00  0.00     0.000 C 
BRANCH   4   5
ATOM      5  C   UNL     1      30.887   8.482  49.021  1.00  0.00     0.006 C 
BRANCH   5   6
ATOM      6  C   UNL     1      31.160   7.443  47.929  1.00  0.00     0.053 C 
BRANCH   6   7
ATOM      7  C   UNL     1      30.334   6.218  48.153  1.00  0.00     0.041 C 
ATOM      8  O   UNL     1      30.885   5.131  48.470  1.00  0.00    -0.550 OA
ATOM      9  O   UNL     1      28.958   6.262  47.964  1.00  0.00    -0.550 OA
ENDBRANCH   6   7
ENDBRANCH   5   6
ENDBRANCH   4   5
ENDBRANCH   3   4
ENDBRANCH   2   3
ENDBRANCH   1   2
BRANCH   1  10
ATOM     10  C   UNL     1      35.564  11.012  46.178  1.00  0.00     0.027 C 
BRANCH  10  11
ATOM     11  C   UNL     1      34.699  11.250  44.963  1.00  0.00    -0.031 C 
ATOM     12  C   UNL     1      34.363  10.287  44.086  1.00  0.00    -0.031 C 
BRANCH  12  13
ATOM     13  C   UNL     1      34.819   8.851  44.177  1.00  0.00     0.027 C 
BRANCH  13  14
ATOM     14  C   UNL     1      33.661   7.881  44.485  1.00  0.00     0.004 C 
BRANCH  14  15
ATOM     15  C   UNL     1      34.125   6.495  44.965  1.00  0.00     0.000 C 
BRANCH  15  16
ATOM     16  C   UNL     1      34.202   6.387  46.494  1.00  0.00    -0.000 C 
BRANCH  16  17
ATOM     17  C   UNL     1      34.665   4.991  46.924  1.00  0.00    -0.003 C 
ATOM     18  C   UNL     1      35.475   4.314  45.822  1.00  0.00     0.004 C 
ENDBRANCH  16  17
ENDBRANCH  15  16
ENDBRANCH  14  15
ENDBRANCH  13  14
ENDBRANCH  12  13
ENDBRANCH  10  11
ENDBRANCH   1  10
TORSDOF 13
ENDMDL
MODEL 4
REMARK VINA RESULT:    -4.472     17.844     19.996
REMARK INTER + INTRA:          -9.684
REMARK INTER:                  -8.205
REMARK INTRA:                  -1.479
REMARK UNBOUND:                -1.813
REMARK SMILES CCCCCCC=CCCCCCCCC(=O)[O-]
REMARK SMILES IDX 10 1 11 2 12 3 13 4 14 5 15 6 16 7 17 8 18 9 9 10 8 11 7 12
REMARK SMILES IDX 6 13 5 14 4 15 3 16 2 17 1 18
REMARK H PARENT
REMARK Flexibility Score: inf
ROOT
ATOM      1  C   UNL     1      20.858  14.449  34.078  1.00  0.00     0.004 C 
ENDROOT
BRANCH   1   2
ATOM      2  C   UNL     1      20.862  14.824  32.582  1.00  0.00     0.000 C 
BRANCH   2   3
ATOM      3  C   UNL     1      21.735  13.904  31.703  1.00  0.00     0.000 C 
BRANCH   3   4
ATOM      4  C   UNL     1      22.793  14.652  30.867  1.00  0.00     0.000 C 
BRANCH   4   5
ATOM      5  C   UNL     1      22.574  16.173  30.869  1.00  0.00     0.006 C 
BRANCH   5   6
ATOM      6  C   UNL     1      23.871  16.916  30.534  1.00  0.00     0.053 C 
BRANCH   6   7
ATOM      7  C   UNL     1      23.852  18.291  31.120  1.00  0.00     0.041 C 
ATOM      8  O   UNL     1      22.788  18.964  31.124  1.00  0.00    -0.550 OA
ATOM      9  O   UNL     1      25.022  18.852  31.617  1.00  0.00    -0.550 OA
ENDBRANCH   6   7
ENDBRANCH   5   6
ENDBRANCH   4   5
ENDBRANCH   3   4
ENDBRANCH   2   3
ENDBRANCH   1   2
BRANCH   1  10
ATOM     10  C   UNL     1      19.567  13.731  34.500  1.00  0.00     0.027 C 
BRANCH  10  11
ATOM     11  C   UNL     1      19.599  13.375  35.968  1.00  0.00    -0.031 C 
ATOM     12  C   UNL     1      19.463  12.120  36.434  1.00  0.00    -0.031 C 
BRANCH  12  13
ATOM     13  C   UNL     1      19.235  10.905  35.567  1.00  0.00     0.027 C 
BRANCH  13  14
ATOM     14  C   UNL     1      20.452   9.960  35.542  1.00  0.00     0.004 C 
BRANCH  14  15
ATOM     15  C   UNL     1      21.275  10.046  34.245  1.00  0.00     0.000 C 
BRANCH  15  16
ATOM     16  C   UNL     1      22.351  11.140  34.291  1.00  0.00    -0.000 C 
BRANCH  16  17
ATOM     17  C   UNL     1      22.961  11.252  35.693  1.00  0.00    -0.003 C 
ATOM     18  C   UNL     1      24.437  10.864  35.685  1.00  0.00     0.004 C 
ENDBRANCH  16  17
ENDBRANCH  15  16
ENDBRANCH  14  15
ENDBRANCH  13  14
ENDBRANCH  12  13
ENDBRANCH  10  11
ENDBRANCH   1  10
TORSDOF 13
ENDMDL
MODEL 5
REMARK VINA RESULT:    -4.440      2.536      5.464
REMARK INTER + INTRA:          -9.628
REMARK INTER:                  -8.091
REMARK INTRA:                  -1.538
REMARK UNBOUND:                -1.813
REMARK SMILES CCCCCCC=CCCCCCCCC(=O)[O-]
REMARK SMILES IDX 10 1 11 2 12 3 13 4 14 5 15 6 16 7 17 8 18 9 9 10 8 11 7 12
REMARK SMILES IDX 6 13 5 14 4 15 3 16 2 17 1 18
REMARK H PARENT
REMARK Flexibility Score: inf
ROOT
ATOM      1  C   UNL     1      31.615   9.881  48.605  1.00  0.00     0.004 C 
ENDROOT
BRANCH   1   2
ATOM      2  C   UNL     1      32.871  10.752  48.811  1.00  0.00     0.000 C 
BRANCH   2   3
ATOM      3  C   UNL     1      34.199  10.028  48.505  1.00  0.00     0.000 C 
BRANCH   3   4
ATOM      4  C   UNL     1      35.349  10.970  48.096  1.00  0.00     0.000 C 
BRANCH   4   5
ATOM      5  C   UNL     1      35.260  11.396  46.622  1.00  0.00     0.006 C 
BRANCH   5   6
ATOM      6  C   UNL     1      34.597  10.308  45.773  1.00  0.00     0.053 C 
BRANCH   6   7
ATOM      7  C   UNL     1      34.428  10.773  44.363  1.00  0.00     0.041 C 
ATOM      8  O   UNL     1      34.453  12.003  44.094  1.00  0.00    -0.550 OA
ATOM      9  O   UNL     1      34.193   9.853  43.349  1.00  0.00    -0.550 OA
ENDBRANCH   6   7
ENDBRANCH   5   6
ENDBRANCH   4   5
ENDBRANCH   3   4
ENDBRANCH   2   3
ENDBRANCH   1   2
BRANCH   1  10
ATOM     10  C   UNL     1      31.570   8.680  49.563  1.00  0.00     0.027 C 
BRANCH  10  11
ATOM     11  C   UNL     1      30.223   7.998  49.516  1.00  0.00    -0.031 C 
ATOM     12  C   UNL     1      29.911   7.021  48.645  1.00  0.00    -0.031 C 
BRANCH  12  13
ATOM     13  C   UNL     1      30.845   6.490  47.585  1.00  0.00     0.027 C 
BRANCH  13  14
ATOM     14  C   UNL     1      31.834   5.446  48.138  1.00  0.00     0.004 C 
BRANCH  14  15
ATOM     15  C   UNL     1      33.309   5.776  47.850  1.00  0.00     0.000 C 
BRANCH  15  16
ATOM     16  C   UNL     1      33.480   6.848  46.765  1.00  0.00    -0.000 C 
BRANCH  16  17
ATOM     17  C   UNL     1      34.168   6.269  45.523  1.00  0.00    -0.003 C 
ATOM     18  C   UNL     1      35.010   5.047  45.879  1.00  0.00     0.004 C 
ENDBRANCH  16  17
ENDBRANCH  15  16
ENDBRANCH  14  15
ENDBRANCH  13  14
ENDBRANCH  12  13
ENDBRANCH  10  11
ENDBRANCH   1  10
TORSDOF 13
ENDMDL
MODEL 6
REMARK VINA RESULT:    -4.375      0.949      4.489
REMARK INTER + INTRA:          -9.514
REMARK INTER:                  -7.924
REMARK INTRA:                  -1.590
REMARK UNBOUND:                -1.813
REMARK SMILES CCCCCCC=CCCCCCCCC(=O)[O-]
REMARK SMILES IDX 10 1 11 2 12 3 13 4 14 5 15 6 16 7 17 8 18 9 9 10 8 11 7 12
REMARK SMILES IDX 6 13 5 14 4 15 3 16 2 17 1 18
REMARK H PARENT
REMARK Flexibility Score: inf
ROOT
ATOM      1  C   UNL     1      34.885  11.661  45.170  1.00  0.00     0.004 C 
ENDROOT
BRANCH   1   2
ATOM      2  C   UNL     1      34.350  10.750  44.047  1.00  0.00     0.000 C 
BRANCH   2   3
ATOM      3  C   UNL     1      34.934   9.322  44.059  1.00  0.00     0.000 C 
BRANCH   3   4
ATOM      4  C   UNL     1      33.875   8.209  44.183  1.00  0.00     0.000 C 
BRANCH   4   5
ATOM      5  C   UNL     1      33.984   7.442  45.510  1.00  0.00     0.006 C 
BRANCH   5   6
ATOM      6  C   UNL     1      34.225   5.949  45.263  1.00  0.00     0.053 C 
BRANCH   6   7
ATOM      7  C   UNL     1      34.879   5.321  46.452  1.00  0.00     0.041 C 
ATOM      8  O   UNL     1      34.651   5.765  47.609  1.00  0.00    -0.550 OA
ATOM      9  O   UNL     1      35.779   4.277  46.281  1.00  0.00    -0.550 OA
ENDBRANCH   6   7
ENDBRANCH   5   6
ENDBRANCH   4   5
ENDBRANCH   3   4
ENDBRANCH   2   3
ENDBRANCH   1   2
BRANCH   1  10
ATOM     10  C   UNL     1      35.413  10.864  46.372  1.00  0.00     0.027 C 
BRANCH  10  11
ATOM     11  C   UNL     1      35.037  11.531  47.674  1.00  0.00    -0.031 C 
ATOM     12  C   UNL     1      34.152  11.016  48.548  1.00  0.00    -0.031 C 
BRANCH  12  13
ATOM     13  C   UNL     1      33.399   9.724  48.341  1.00  0.00     0.027 C 
BRANCH  13  14
ATOM     14  C   UNL     1      31.872   9.932  48.297  1.00  0.00     0.004 C 
BRANCH  14  15
ATOM     15  C   UNL     1      31.067   8.694  48.728  1.00  0.00     0.000 C 
BRANCH  15  16
ATOM     16  C   UNL     1      31.827   7.379  48.504  1.00  0.00    -0.000 C 
BRANCH  16  17
ATOM     17  C   UNL     1      30.950   6.353  47.777  1.00  0.00    -0.003 C 
ATOM     18  C   UNL     1      29.504   6.426  48.256  1.00  0.00     0.004 C 
ENDBRANCH  16  17
ENDBRANCH  15  16
ENDBRANCH  14  15
ENDBRANCH  13  14
ENDBRANCH  12  13
ENDBRANCH  10  11
ENDBRANCH   1  10
TORSDOF 13
ENDMDL
MODEL 7
REMARK VINA RESULT:    -4.186      0.714      1.070
REMARK INTER + INTRA:          -9.181
REMARK INTER:                  -7.241
REMARK INTRA:                  -1.941
REMARK UNBOUND:                -1.813
REMARK SMILES CCCCCCC=CCCCCCCCC(=O)[O-]
REMARK SMILES IDX 10 1 11 2 12 3 13 4 14 5 15 6 16 7 17 8 18 9 9 10 8 11 7 12
REMARK SMILES IDX 6 13 5 14 4 15 3 16 2 17 1 18
REMARK H PARENT
REMARK Flexibility Score: inf
ROOT
ATOM      1  C   UNL     1      31.892  10.337  48.736  1.00  0.00     0.004 C 
ENDROOT
BRANCH   1   2
ATOM      2  C   UNL     1      31.484   9.117  49.586  1.00  0.00     0.000 C 
BRANCH   2   3
ATOM      3  C   UNL     1      30.891   7.949  48.771  1.00  0.00     0.000 C 
BRANCH   3   4
ATOM      4  C   UNL     1      31.689   6.635  48.883  1.00  0.00     0.000 C 
BRANCH   4   5
ATOM      5  C   UNL     1      32.016   6.030  47.509  1.00  0.00     0.006 C 
BRANCH   5   6
ATOM      6  C   UNL     1      33.434   6.406  47.067  1.00  0.00     0.053 C 
BRANCH   6   7
ATOM      7  C   UNL     1      34.420   5.390  47.551  1.00  0.00     0.041 C 
ATOM      8  O   UNL     1      34.785   4.452  46.796  1.00  0.00    -0.550 OA
ATOM      9  O   UNL     1      34.898   5.451  48.854  1.00  0.00    -0.550 OA
ENDBRANCH   6   7
ENDBRANCH   5   6
ENDBRANCH   4   5
ENDBRANCH   3   4
ENDBRANCH   2   3
ENDBRANCH   1   2
BRANCH   1  10
ATOM     10  C   UNL     1      32.936   9.985  47.665  1.00  0.00     0.027 C 
BRANCH  10  11
ATOM     11  C   UNL     1      34.307   9.817  48.278  1.00  0.00    -0.031 C 
ATOM     12  C   UNL     1      35.300  10.715  48.141  1.00  0.00    -0.031 C 
BRANCH  12  13
ATOM     13  C   UNL     1      35.195  11.992  47.344  1.00  0.00     0.027 C 
BRANCH  13  14
ATOM     14  C   UNL     1      35.799  11.858  45.932  1.00  0.00     0.004 C 
BRANCH  14  15
ATOM     15  C   UNL     1      34.797  12.144  44.800  1.00  0.00     0.000 C 
BRANCH  15  16
ATOM     16  C   UNL     1      34.132  10.873  44.255  1.00  0.00    -0.000 C 
BRANCH  16  17
ATOM     17  C   UNL     1      35.091   9.679  44.322  1.00  0.00    -0.003 C 
ATOM     18  C   UNL     1      34.345   8.361  44.135  1.00  0.00     0.004 C 
ENDBRANCH  16  17
ENDBRANCH  15  16
ENDBRANCH  14  15
ENDBRANCH  13  14
ENDBRANCH  12  13
ENDBRANCH  10  11
ENDBRANCH   1  10
TORSDOF 13
ENDMDL
MODEL 8
REMARK VINA RESULT:    -4.181      1.170      2.163
REMARK INTER + INTRA:          -9.171
REMARK INTER:                  -7.473
REMARK INTRA:                  -1.698
REMARK UNBOUND:                -1.813
REMARK SMILES CCCCCCC=CCCCCCCCC(=O)[O-]
REMARK SMILES IDX 10 1 11 2 12 3 13 4 14 5 15 6 16 7 17 8 18 9 9 10 8 11 7 12
REMARK SMILES IDX 6 13 5 14 4 15 3 16 2 17 1 18
REMARK H PARENT
REMARK Flexibility Score: inf
ROOT
ATOM      1  C   UNL     1      30.903   8.745  48.658  1.00  0.00     0.004 C 
ENDROOT
BRANCH   1   2
ATOM      2  C   UNL     1      30.117   7.551  49.236  1.00  0.00     0.000 C 
BRANCH   2   3
ATOM      3  C   UNL     1      30.482   6.191  48.607  1.00  0.00     0.000 C 
BRANCH   3   4
ATOM      4  C   UNL     1      31.540   6.278  47.489  1.00  0.00     0.000 C 
BRANCH   4   5
ATOM      5  C   UNL     1      32.861   5.597  47.877  1.00  0.00     0.006 C 
BRANCH   5   6
ATOM      6  C   UNL     1      33.973   5.945  46.882  1.00  0.00     0.053 C 
BRANCH   6   7
ATOM      7  C   UNL     1      35.016   4.873  46.867  1.00  0.00     0.041 C 
ATOM      8  O   UNL     1      35.581   4.524  47.936  1.00  0.00    -0.550 OA
ATOM      9  O   UNL     1      35.401   4.294  45.664  1.00  0.00    -0.550 OA
ENDBRANCH   6   7
ENDBRANCH   5   6
ENDBRANCH   4   5
ENDBRANCH   3   4
ENDBRANCH   2   3
ENDBRANCH   1   2
BRANCH   1  10
ATOM     10  C   UNL     1      31.825   9.401  49.698  1.00  0.00     0.027 C 
BRANCH  10  11
ATOM     11  C   UNL     1      33.147   8.676  49.785  1.00  0.00    -0.031 C 
ATOM     12  C   UNL     1      34.230   9.011  49.059  1.00  0.00    -0.031 C 
BRANCH  12  13
ATOM     13  C   UNL     1      34.269  10.130  48.046  1.00  0.00     0.027 C 
BRANCH  13  14
ATOM     14  C   UNL     1      33.901   9.654  46.627  1.00  0.00     0.004 C 
BRANCH  14  15
ATOM     15  C   UNL     1      34.652  10.400  45.510  1.00  0.00     0.000 C 
BRANCH  15  16
ATOM     16  C   UNL     1      35.698  11.385  46.050  1.00  0.00    -0.000 C 
BRANCH  16  17
ATOM     17  C   UNL     1      35.445  12.801  45.521  1.00  0.00    -0.003 C 
ATOM     18  C   UNL     1      36.300  13.827  46.258  1.00  0.00     0.004 C 
ENDBRANCH  16  17
ENDBRANCH  15  16
ENDBRANCH  14  15
ENDBRANCH  13  14
ENDBRANCH  12  13
ENDBRANCH  10  11
ENDBRANCH   1  10
TORSDOF 13
ENDMDL
MODEL 9
REMARK VINA RESULT:    -4.034     18.091     20.266
REMARK INTER + INTRA:          -8.912
REMARK INTER:                  -7.422
REMARK INTRA:                  -1.491
REMARK UNBOUND:                -1.813
REMARK SMILES CCCCCCC=CCCCCCCCC(=O)[O-]
REMARK SMILES IDX 10 1 11 2 12 3 13 4 14 5 15 6 16 7 17 8 18 9 9 10 8 11 7 12
REMARK SMILES IDX 6 13 5 14 4 15 3 16 2 17 1 18
REMARK H PARENT
REMARK Flexibility Score: inf
ROOT
ATOM      1  C   UNL     1      19.933  14.471  32.656  1.00  0.00     0.004 C 
ENDROOT
BRANCH   1   2
ATOM      2  C   UNL     1      20.688  14.429  31.312  1.00  0.00     0.000 C 
BRANCH   2   3
ATOM      3  C   UNL     1      22.220  14.313  31.451  1.00  0.00     0.000 C 
BRANCH   3   4
ATOM      4  C   UNL     1      23.001  14.755  30.198  1.00  0.00     0.000 C 
BRANCH   4   5
ATOM      5  C   UNL     1      24.323  15.455  30.548  1.00  0.00     0.006 C 
BRANCH   5   6
ATOM      6  C   UNL     1      24.371  16.867  29.956  1.00  0.00     0.053 C 
BRANCH   6   7
ATOM      7  C   UNL     1      24.003  17.881  30.991  1.00  0.00     0.041 C 
ATOM      8  O   UNL     1      24.894  18.589  31.529  1.00  0.00    -0.550 OA
ATOM      9  O   UNL     1      22.681  18.011  31.399  1.00  0.00    -0.550 OA
ENDBRANCH   6   7
ENDBRANCH   5   6
ENDBRANCH   4   5
ENDBRANCH   3   4
ENDBRANCH   2   3
ENDBRANCH   1   2
BRANCH   1  10
ATOM     10  C   UNL     1      20.880  14.419  33.864  1.00  0.00     0.027 C 
BRANCH  10  11
ATOM     11  C   UNL     1      20.214  13.760  35.049  1.00  0.00    -0.031 C 
ATOM     12  C   UNL     1      20.794  12.799  35.791  1.00  0.00    -0.031 C 
BRANCH  12  13
ATOM     13  C   UNL     1      22.169  12.231  35.532  1.00  0.00     0.027 C 
BRANCH  13  14
ATOM     14  C   UNL     1      22.190  10.691  35.580  1.00  0.00     0.004 C 
BRANCH  14  15
ATOM     15  C   UNL     1      20.825  10.063  35.913  1.00  0.00     0.000 C 
BRANCH  15  16
ATOM     16  C   UNL     1      20.123   9.474  34.682  1.00  0.00    -0.000 C 
BRANCH  16  17
ATOM     17  C   UNL     1      20.938   9.726  33.409  1.00  0.00    -0.003 C 
ATOM     18  C   UNL     1      20.227  10.710  32.484  1.00  0.00     0.004 C 
ENDBRANCH  16  17
ENDBRANCH  15  16
ENDBRANCH  14  15
ENDBRANCH  13  14
ENDBRANCH  12  13
ENDBRANCH  10  11
ENDBRANCH   1  10
TORSDOF 13
ENDMDL
