MODEL 1
REMARK VINA RESULT:    -4.871      0.000      0.000
REMARK INTER + INTRA:          -5.828
REMARK INTER:                  -5.725
REMARK INTRA:                  -0.103
REMARK UNBOUND:                -0.103
REMARK SMILES O=C([O-])C=Cc1ccc(O)c(O)c1
REMARK SMILES IDX 6 1 13 2 7 3 11 4 8 5 9 6 5 7 4 8 2 9 1 10 3 11 12 12 10 14
REMARK H PARENT 12 13 10 15
REMARK Flexibility Score: inf
ROOT
ATOM      1  C   UNL     1       8.855  16.094 -21.601  1.00  0.00    -0.022 A 
ATOM      2  C   UNL     1       8.382  14.781 -21.764  1.00  0.00     0.058 A 
ATOM      3  C   UNL     1       9.591  16.422 -20.454  1.00  0.00     0.012 A 
ATOM      4  C   UNL     1       8.686  13.794 -20.819  1.00  0.00     0.157 A 
ATOM      5  C   UNL     1       9.897  15.438 -19.508  1.00  0.00     0.051 A 
ATOM      6  C   UNL     1       9.452  14.122 -19.688  1.00  0.00     0.157 A 
ENDROOT
BRANCH   1   7
ATOM      7  C   UNL     1       8.499  17.161 -22.559  1.00  0.00     0.010 C 
ATOM      8  C   UNL     1       8.788  17.154 -23.870  1.00  0.00     0.025 C 
BRANCH   8   9
ATOM      9  C   UNL     1       9.669  16.185 -24.547  1.00  0.00     0.064 C 
ATOM     10  O   UNL     1       9.180  15.401 -25.403  1.00  0.00    -0.545 OA
ATOM     11  O   UNL     1      11.039  16.163 -24.316  1.00  0.00    -0.545 OA
ENDBRANCH   8   9
ENDBRANCH   1   7
BRANCH   4  12
ATOM     12  O   UNL     1       8.214  12.497 -21.020  1.00  0.00    -0.504 OA
ATOM     13  H   UNL     1       8.840  11.704 -21.102  1.00  0.00     0.293 HD
ENDBRANCH   4  12
BRANCH   6  14
ATOM     14  O   UNL     1       9.761  13.143 -18.744  1.00  0.00    -0.504 OA
ATOM     15  H   UNL     1       9.059  12.767 -18.119  1.00  0.00     0.293 HD
ENDBRANCH   6  14
TORSDOF 4
ENDMDL
MODEL 2
REMARK VINA RESULT:    -4.817      0.746      1.880
REMARK INTER + INTRA:          -5.765
REMARK INTER:                  -5.752
REMARK INTRA:                  -0.012
REMARK UNBOUND:                -0.103
REMARK SMILES O=C([O-])C=Cc1ccc(O)c(O)c1
REMARK SMILES IDX 6 1 13 2 7 3 11 4 8 5 9 6 5 7 4 8 2 9 1 10 3 11 12 12 10 14
REMARK H PARENT 12 13 10 15
REMARK Flexibility Score: inf
ROOT
ATOM      1  C   UNL     1       8.773  16.177 -21.594  1.00  0.00    -0.022 A 
ATOM      2  C   UNL     1       9.519  16.417 -20.428  1.00  0.00     0.058 A 
ATOM      3  C   UNL     1       8.375  14.867 -21.896  1.00  0.00     0.012 A 
ATOM      4  C   UNL     1       9.819  15.371 -19.547  1.00  0.00     0.157 A 
ATOM      5  C   UNL     1       8.671  13.820 -21.018  1.00  0.00     0.051 A 
ATOM      6  C   UNL     1       9.388  14.067 -19.840  1.00  0.00     0.157 A 
ENDROOT
BRANCH   1   7
ATOM      7  C   UNL     1       8.495  17.258 -22.562  1.00  0.00     0.010 C 
ATOM      8  C   UNL     1       8.818  17.235 -23.864  1.00  0.00     0.025 C 
BRANCH   8   9
ATOM      9  C   UNL     1       9.671  16.225 -24.517  1.00  0.00     0.064 C 
ATOM     10  O   UNL     1       9.163  15.444 -25.364  1.00  0.00    -0.545 OA
ATOM     11  O   UNL     1      11.038  16.160 -24.271  1.00  0.00    -0.545 OA
ENDBRANCH   8   9
ENDBRANCH   1   7
BRANCH   4  12
ATOM     12  O   UNL     1      10.547  15.648 -18.390  1.00  0.00    -0.504 OA
ATOM     13  H   UNL     1      11.548  15.808 -18.410  1.00  0.00     0.293 HD
ENDBRANCH   4  12
BRANCH   6  14
ATOM     14  O   UNL     1       9.679  13.020 -18.966  1.00  0.00    -0.504 OA
ATOM     15  H   UNL     1       9.991  12.118 -19.303  1.00  0.00     0.293 HD
ENDBRANCH   6  14
TORSDOF 4
ENDMDL
MODEL 3
REMARK VINA RESULT:    -4.682      2.929      3.824
REMARK INTER + INTRA:          -5.607
REMARK INTER:                  -5.343
REMARK INTRA:                  -0.263
REMARK UNBOUND:                -0.103
REMARK SMILES O=C([O-])C=Cc1ccc(O)c(O)c1
REMARK SMILES IDX 6 1 13 2 7 3 11 4 8 5 9 6 5 7 4 8 2 9 1 10 3 11 12 12 10 14
REMARK H PARENT 12 13 10 15
REMARK Flexibility Score: inf
ROOT
ATOM      1  C   UNL     1       8.254  14.686 -20.740  1.00  0.00    -0.022 A 
ATOM      2  C   UNL     1       9.134  13.665 -21.137  1.00  0.00     0.058 A 
ATOM      3  C   UNL     1       7.111  14.356 -19.999  1.00  0.00     0.012 A 
ATOM      4  C   UNL     1       8.904  12.338 -20.755  1.00  0.00     0.157 A 
ATOM      5  C   UNL     1       6.878  13.033 -19.613  1.00  0.00     0.051 A 
ATOM      6  C   UNL     1       7.773  12.021 -19.984  1.00  0.00     0.157 A 
ENDROOT
BRANCH   1   7
ATOM      7  C   UNL     1       8.452  16.083 -21.180  1.00  0.00     0.010 C 
ATOM      8  C   UNL     1       9.058  17.042 -20.464  1.00  0.00     0.025 C 
BRANCH   8   9
ATOM      9  C   UNL     1       9.461  16.931 -19.050  1.00  0.00     0.064 C 
ATOM     10  O   UNL     1       8.698  17.381 -18.155  1.00  0.00    -0.545 OA
ATOM     11  O   UNL     1      10.630  16.278 -18.677  1.00  0.00    -0.545 OA
ENDBRANCH   8   9
ENDBRANCH   1   7
BRANCH   4  12
ATOM     12  O   UNL     1       9.806  11.352 -21.153  1.00  0.00    -0.504 OA
ATOM     13  H   UNL     1       9.517  10.544 -21.691  1.00  0.00     0.293 HD
ENDBRANCH   4  12
BRANCH   6  14
ATOM     14  O   UNL     1       7.539  10.702 -19.596  1.00  0.00    -0.504 OA
ATOM     15  H   UNL     1       7.512   9.947 -20.270  1.00  0.00     0.293 HD
ENDBRANCH   6  14
TORSDOF 4
ENDMDL
MODEL 4
REMARK VINA RESULT:    -4.635      1.476      2.190
REMARK INTER + INTRA:          -5.551
REMARK INTER:                  -5.583
REMARK INTRA:                   0.032
REMARK UNBOUND:                -0.103
REMARK SMILES O=C([O-])C=Cc1ccc(O)c(O)c1
REMARK SMILES IDX 6 1 13 2 7 3 11 4 8 5 9 6 5 7 4 8 2 9 1 10 3 11 12 12 10 14
REMARK H PARENT 12 13 10 15
REMARK Flexibility Score: inf
ROOT
ATOM      1  C   UNL     1       8.439  14.946 -20.699  1.00  0.00    -0.022 A 
ATOM      2  C   UNL     1       9.310  13.917 -21.094  1.00  0.00     0.058 A 
ATOM      3  C   UNL     1       7.209  14.617 -20.112  1.00  0.00     0.012 A 
ATOM      4  C   UNL     1       8.980  12.577 -20.860  1.00  0.00     0.157 A 
ATOM      5  C   UNL     1       6.877  13.280 -19.875  1.00  0.00     0.051 A 
ATOM      6  C   UNL     1       7.760  12.256 -20.242  1.00  0.00     0.157 A 
ENDROOT
BRANCH   1   7
ATOM      7  C   UNL     1       8.746  16.363 -20.987  1.00  0.00     0.010 C 
ATOM      8  C   UNL     1       8.967  16.875 -22.207  1.00  0.00     0.025 C 
BRANCH   8   9
ATOM      9  C   UNL     1       9.134  16.094 -23.447  1.00  0.00     0.064 C 
ATOM     10  O   UNL     1       8.113  15.702 -24.070  1.00  0.00    -0.545 OA
ATOM     11  O   UNL     1      10.392  15.841 -23.981  1.00  0.00    -0.545 OA
ENDBRANCH   8   9
ENDBRANCH   1   7
BRANCH   4  12
ATOM     12  O   UNL     1       9.875  11.581 -21.250  1.00  0.00    -0.504 OA
ATOM     13  H   UNL     1      10.857  11.773 -21.413  1.00  0.00     0.293 HD
ENDBRANCH   4  12
BRANCH   6  14
ATOM     14  O   UNL     1       7.426  10.924 -20.001  1.00  0.00    -0.504 OA
ATOM     15  H   UNL     1       7.864  10.393 -19.258  1.00  0.00     0.293 HD
ENDBRANCH   6  14
TORSDOF 4
ENDMDL
MODEL 5
REMARK VINA RESULT:    -4.615      2.483      3.922
REMARK INTER + INTRA:          -5.528
REMARK INTER:                  -5.277
REMARK INTRA:                  -0.251
REMARK UNBOUND:                -0.103
REMARK SMILES O=C([O-])C=Cc1ccc(O)c(O)c1
REMARK SMILES IDX 6 1 13 2 7 3 11 4 8 5 9 6 5 7 4 8 2 9 1 10 3 11 12 12 10 14
REMARK H PARENT 12 13 10 15
REMARK Flexibility Score: inf
ROOT
ATOM      1  C   UNL     1       9.624  16.105 -18.546  1.00  0.00    -0.022 A 
ATOM      2  C   UNL     1       8.707  15.768 -17.536  1.00  0.00     0.058 A 
ATOM      3  C   UNL     1      10.958  15.691 -18.427  1.00  0.00     0.012 A 
ATOM      4  C   UNL     1       9.104  14.983 -16.448  1.00  0.00     0.157 A 
ATOM      5  C   UNL     1      11.358  14.905 -17.342  1.00  0.00     0.051 A 
ATOM      6  C   UNL     1      10.435  14.544 -16.352  1.00  0.00     0.157 A 
ENDROOT
BRANCH   1   7
ATOM      7  C   UNL     1       9.237  16.978 -19.674  1.00  0.00     0.010 C 
ATOM      8  C   UNL     1       8.608  16.572 -20.787  1.00  0.00     0.025 C 
BRANCH   8   9
ATOM      9  C   UNL     1       8.364  15.169 -21.170  1.00  0.00     0.064 C 
ATOM     10  O   UNL     1       9.096  14.632 -22.042  1.00  0.00    -0.545 OA
ATOM     11  O   UNL     1       7.389  14.403 -20.542  1.00  0.00    -0.545 OA
ENDBRANCH   8   9
ENDBRANCH   1   7
BRANCH   4  12
ATOM     12  O   UNL     1       8.163  14.653 -15.472  1.00  0.00    -0.504 OA
ATOM     13  H   UNL     1       8.052  15.199 -14.625  1.00  0.00     0.293 HD
ENDBRANCH   4  12
BRANCH   6  14
ATOM     14  O   UNL     1      10.837  13.758 -15.273  1.00  0.00    -0.504 OA
ATOM     15  H   UNL     1      11.662  13.983 -14.730  1.00  0.00     0.293 HD
ENDBRANCH   6  14
TORSDOF 4
ENDMDL
MODEL 6
REMARK VINA RESULT:    -4.560      4.111      5.976
REMARK INTER + INTRA:          -5.462
REMARK INTER:                  -5.175
REMARK INTRA:                  -0.287
REMARK UNBOUND:                -0.103
REMARK SMILES O=C([O-])C=Cc1ccc(O)c(O)c1
REMARK SMILES IDX 6 1 13 2 7 3 11 4 8 5 9 6 5 7 4 8 2 9 1 10 3 11 12 12 10 14
REMARK H PARENT 12 13 10 15
REMARK Flexibility Score: inf
ROOT
ATOM      1  C   UNL     1       8.366  17.458 -19.314  1.00  0.00    -0.022 A 
ATOM      2  C   UNL     1       9.139  18.631 -19.344  1.00  0.00     0.058 A 
ATOM      3  C   UNL     1       7.249  17.393 -18.470  1.00  0.00     0.012 A 
ATOM      4  C   UNL     1       8.771  19.745 -18.580  1.00  0.00     0.157 A 
ATOM      5  C   UNL     1       6.877  18.505 -17.707  1.00  0.00     0.051 A 
ATOM      6  C   UNL     1       7.631  19.684 -17.762  1.00  0.00     0.157 A 
ENDROOT
BRANCH   1   7
ATOM      7  C   UNL     1       8.769  16.254 -20.071  1.00  0.00     0.010 C 
ATOM      8  C   UNL     1       9.558  15.274 -19.605  1.00  0.00     0.025 C 
BRANCH   8   9
ATOM      9  C   UNL     1      10.314  15.311 -18.340  1.00  0.00     0.064 C 
ATOM     10  O   UNL     1      11.494  15.750 -18.340  1.00  0.00    -0.545 OA
ATOM     11  O   UNL     1       9.731  14.939 -17.134  1.00  0.00    -0.545 OA
ENDBRANCH   8   9
ENDBRANCH   1   7
BRANCH   4  12
ATOM     12  O   UNL     1       9.552  20.899 -18.646  1.00  0.00    -0.504 OA
ATOM     13  H   UNL     1       9.643  21.532 -17.860  1.00  0.00     0.293 HD
ENDBRANCH   4  12
BRANCH   6  14
ATOM     14  O   UNL     1       7.256  20.791 -17.001  1.00  0.00    -0.504 OA
ATOM     15  H   UNL     1       6.549  20.724 -16.279  1.00  0.00     0.293 HD
ENDBRANCH   6  14
TORSDOF 4
ENDMDL
MODEL 7
REMARK VINA RESULT:    -4.425      4.288      4.984
REMARK INTER + INTRA:          -5.304
REMARK INTER:                  -5.049
REMARK INTRA:                  -0.255
REMARK UNBOUND:                -0.103
REMARK SMILES O=C([O-])C=Cc1ccc(O)c(O)c1
REMARK SMILES IDX 6 1 13 2 7 3 11 4 8 5 9 6 5 7 4 8 2 9 1 10 3 11 12 12 10 14
REMARK H PARENT 12 13 10 15
REMARK Flexibility Score: inf
ROOT
ATOM      1  C   UNL     1       9.265  15.829 -18.533  1.00  0.00    -0.022 A 
ATOM      2  C   UNL     1       8.491  15.445 -17.426  1.00  0.00     0.058 A 
ATOM      3  C   UNL     1      10.654  15.648 -18.496  1.00  0.00     0.012 A 
ATOM      4  C   UNL     1       9.090  14.839 -16.315  1.00  0.00     0.157 A 
ATOM      5  C   UNL     1      11.257  15.042 -17.390  1.00  0.00     0.051 A 
ATOM      6  C   UNL     1      10.479  14.631 -16.299  1.00  0.00     0.157 A 
ENDROOT
BRANCH   1   7
ATOM      7  C   UNL     1       8.658  16.519 -19.691  1.00  0.00     0.010 C 
ATOM      8  C   UNL     1       8.435  17.840 -19.776  1.00  0.00     0.025 C 
BRANCH   8   9
ATOM      9  C   UNL     1       8.574  18.806 -18.670  1.00  0.00     0.064 C 
ATOM     10  O   UNL     1       9.585  19.556 -18.631  1.00  0.00    -0.545 OA
ATOM     11  O   UNL     1       7.583  18.956 -17.708  1.00  0.00    -0.545 OA
ENDBRANCH   8   9
ENDBRANCH   1   7
BRANCH   4  12
ATOM     12  O   UNL     1       8.290  14.455 -15.239  1.00  0.00    -0.504 OA
ATOM     13  H   UNL     1       7.332  14.148 -15.364  1.00  0.00     0.293 HD
ENDBRANCH   4  12
BRANCH   6  14
ATOM     14  O   UNL     1      11.083  14.024 -15.198  1.00  0.00    -0.504 OA
ATOM     15  H   UNL     1      10.664  14.059 -14.276  1.00  0.00     0.293 HD
ENDBRANCH   6  14
TORSDOF 4
ENDMDL
MODEL 8
REMARK VINA RESULT:    -4.417      2.390      5.355
REMARK INTER + INTRA:          -5.295
REMARK INTER:                  -5.007
REMARK INTRA:                  -0.287
REMARK UNBOUND:                -0.103
REMARK SMILES O=C([O-])C=Cc1ccc(O)c(O)c1
REMARK SMILES IDX 6 1 13 2 7 3 11 4 8 5 9 6 5 7 4 8 2 9 1 10 3 11 12 12 10 14
REMARK H PARENT 12 13 10 15
REMARK Flexibility Score: inf
ROOT
ATOM      1  C   UNL     1       8.444  15.646 -18.179  1.00  0.00    -0.022 A 
ATOM      2  C   UNL     1       8.004  14.784 -19.196  1.00  0.00     0.058 A 
ATOM      3  C   UNL     1       9.038  16.868 -18.524  1.00  0.00     0.012 A 
ATOM      4  C   UNL     1       8.107  15.158 -20.541  1.00  0.00     0.157 A 
ATOM      5  C   UNL     1       9.142  17.247 -19.866  1.00  0.00     0.051 A 
ATOM      6  C   UNL     1       8.674  16.399 -20.878  1.00  0.00     0.157 A 
ENDROOT
BRANCH   1   7
ATOM      7  C   UNL     1       8.393  15.245 -16.757  1.00  0.00     0.010 C 
ATOM      8  C   UNL     1       9.382  14.629 -16.090  1.00  0.00     0.025 C 
BRANCH   8   9
ATOM      9  C   UNL     1      10.607  14.075 -16.693  1.00  0.00     0.064 C 
ATOM     10  O   UNL     1      10.611  12.882 -17.094  1.00  0.00    -0.545 OA
ATOM     11  O   UNL     1      11.737  14.860 -16.894  1.00  0.00    -0.545 OA
ENDBRANCH   8   9
ENDBRANCH   1   7
BRANCH   4  12
ATOM     12  O   UNL     1       7.645  14.284 -21.525  1.00  0.00    -0.504 OA
ATOM     13  H   UNL     1       8.053  14.254 -22.452  1.00  0.00     0.293 HD
ENDBRANCH   4  12
BRANCH   6  14
ATOM     14  O   UNL     1       8.776  16.781 -22.215  1.00  0.00    -0.504 OA
ATOM     15  H   UNL     1       7.981  16.742 -22.841  1.00  0.00     0.293 HD
ENDBRANCH   6  14
TORSDOF 4
ENDMDL
