MODEL 1
REMARK VINA RESULT:    -3.410      0.000      0.000
REMARK INTER + INTRA:          -4.740
REMARK INTER:                  -4.606
REMARK INTRA:                  -0.135
REMARK UNBOUND:                -0.135
REMARK SMILES C=C1C(=O)O[C@H]2[C@@H]1CCC(C)=CCC[C@]1(C)O[C@H]21
REMARK SMILES IDX 6 1 7 2 2 3 1 4 3 5 4 6 5 7 8 8 9 9 10 10 11 11 12 12 18 14
REMARK SMILES IDX 15 15 17 16 16 17 14 18 13 19
REMARK H PARENT
REMARK Flexibility Score: 70.00
ROOT
ATOM      1  C   UNL     1      -0.858   2.420   9.484  1.00  0.00     0.216 C 
ATOM      2  C   UNL     1      -1.339   0.971   9.085  1.00  0.00     0.070 C 
ATOM      3  C   UNL     1      -2.840   1.109   9.020  1.00  0.00     0.037 C 
ATOM      4  C   UNL     1      -3.717   0.125   8.809  1.00  0.00     0.021 C 
ATOM      5  C   UNL     1      -3.181   2.452   9.420  1.00  0.00     0.334 C 
ATOM      6  O   UNL     1      -4.350   2.913   9.533  1.00  0.00    -0.247 OA
ATOM      7  O   UNL     1      -2.049   3.182   9.692  1.00  0.00    -0.455 OA
ENDROOT
BRANCH   2   8
ATOM      8  C   UNL     1      -0.741   0.349   7.781  1.00  0.00     0.017 C 
BRANCH   8   9
ATOM      9  C   UNL     1       0.278  -0.795   8.047  1.00  0.00     0.031 C 
BRANCH   9  10
ATOM     10  C   UNL     1       0.766  -0.846   9.487  1.00  0.00    -0.077 C 
ATOM     11  C   UNL     1       0.096  -1.805  10.439  1.00  0.00     0.039 C 
ATOM     12  C   UNL     1       1.751  -0.057   9.968  1.00  0.00    -0.028 CG0
ATOM     13  G   UNL     1       2.582   0.901   9.153  1.00  0.00     0.000 G0
ENDBRANCH   9  10
ENDBRANCH   8   9
ENDBRANCH   2   8
BRANCH   1  14
ATOM     14  C   UNL     1      -0.014   3.162   8.430  1.00  0.00     0.192 C 
ATOM     15  C   UNL     1       1.484   3.140   8.471  1.00  0.00     0.096 C 
ATOM     16  O   UNL     1       0.740   4.194   9.042  1.00  0.00    -0.362 OA
ATOM     17  C   UNL     1       2.225   3.620   7.217  1.00  0.00     0.045 C 
BRANCH  15  18
ATOM     18  C   UNL     1       2.287   2.374   9.551  1.00  0.00     0.042 C 
BRANCH  18  19
ATOM     19  C   UNL     1       2.595   0.913   9.166  1.00  0.00     0.030 CG0
ATOM     20  G   UNL     1       1.764  -0.068   9.954  1.00  0.00     0.000 G0
ENDBRANCH  18  19
ENDBRANCH  15  18
ENDBRANCH   1  14
TORSDOF 0
ENDMDL
MODEL 2
REMARK VINA RESULT:    -3.312      2.930      5.278
REMARK INTER + INTRA:          -4.608
REMARK INTER:                  -4.541
REMARK INTRA:                  -0.067
REMARK UNBOUND:                -0.135
REMARK SMILES C=C1C(=O)O[C@H]2[C@@H]1CCC(C)=CCC[C@]1(C)O[C@H]21
REMARK SMILES IDX 6 1 7 2 2 3 1 4 3 5 4 6 5 7 8 8 9 9 10 10 11 11 12 12 18 14
REMARK SMILES IDX 15 15 17 16 16 17 14 18 13 19
REMARK H PARENT
REMARK Flexibility Score: 70.00
ROOT
ATOM      1  C   UNL     1       1.427  -0.390   9.525  1.00  0.00     0.216 C 
ATOM      2  C   UNL     1       0.664   0.829   8.875  1.00  0.00     0.070 C 
ATOM      3  C   UNL     1       1.774   1.795   8.539  1.00  0.00     0.037 C 
ATOM      4  C   UNL     1       1.630   3.028   8.049  1.00  0.00     0.021 C 
ATOM      5  C   UNL     1       3.013   1.233   9.020  1.00  0.00     0.334 C 
ATOM      6  O   UNL     1       4.145   1.786   8.958  1.00  0.00    -0.247 OA
ATOM      7  O   UNL     1       2.801  -0.001   9.587  1.00  0.00    -0.455 OA
ENDROOT
BRANCH   2   8
ATOM      8  C   UNL     1      -0.256   0.529   7.646  1.00  0.00     0.017 C 
BRANCH   8   9
ATOM      9  C   UNL     1      -1.767   0.454   8.004  1.00  0.00     0.031 C 
BRANCH   9  10
ATOM     10  C   UNL     1      -2.039   0.531   9.499  1.00  0.00    -0.077 C 
ATOM     11  C   UNL     1      -2.254   1.888  10.122  1.00  0.00     0.039 C 
ATOM     12  C   UNL     1      -2.070  -0.551  10.307  1.00  0.00    -0.028 CG0
ATOM     13  G   UNL     1      -1.954  -1.984   9.855  1.00  0.00     0.000 G0
ENDBRANCH   9  10
ENDBRANCH   8   9
ENDBRANCH   2   8
BRANCH   1  14
ATOM     14  C   UNL     1       1.359  -1.718   8.747  1.00  0.00     0.192 C 
ATOM     15  C   UNL     1       0.377  -2.789   9.113  1.00  0.00     0.096 C 
ATOM     16  O   UNL     1       1.703  -2.800   9.593  1.00  0.00    -0.362 OA
ATOM     17  C   UNL     1       0.160  -3.916   8.096  1.00  0.00     0.045 C 
BRANCH  15  18
ATOM     18  C   UNL     1      -0.637  -2.643  10.274  1.00  0.00     0.042 C 
BRANCH  18  19
ATOM     19  C   UNL     1      -1.968  -1.990   9.851  1.00  0.00     0.030 CG0
ATOM     20  G   UNL     1      -2.063  -0.554  10.298  1.00  0.00     0.000 G0
ENDBRANCH  18  19
ENDBRANCH  15  18
ENDBRANCH   1  14
TORSDOF 0
ENDMDL
MODEL 3
REMARK VINA RESULT:    -3.144      9.475     12.168
REMARK INTER + INTRA:          -4.382
REMARK INTER:                  -4.283
REMARK INTRA:                  -0.099
REMARK UNBOUND:                -0.135
REMARK SMILES C=C1C(=O)O[C@H]2[C@@H]1CCC(C)=CCC[C@]1(C)O[C@H]21
REMARK SMILES IDX 6 1 7 2 2 3 1 4 3 5 4 6 5 7 8 8 9 9 10 10 11 11 12 12 18 14
REMARK SMILES IDX 15 15 17 16 16 17 14 18 13 19
REMARK H PARENT
REMARK Flexibility Score: 70.00
ROOT
ATOM      1  C   UNL     1      -6.879  -6.006   6.703  1.00  0.00     0.216 C 
ATOM      2  C   UNL     1      -7.930  -5.755   7.854  1.00  0.00     0.070 C 
ATOM      3  C   UNL     1      -7.224  -4.778   8.761  1.00  0.00     0.037 C 
ATOM      4  C   UNL     1      -7.669  -4.324   9.935  1.00  0.00     0.021 C 
ATOM      5  C   UNL     1      -5.896  -4.564   8.239  1.00  0.00     0.334 C 
ATOM      6  O   UNL     1      -5.004  -3.845   8.766  1.00  0.00    -0.247 OA
ATOM      7  O   UNL     1      -5.709  -5.275   7.078  1.00  0.00    -0.455 OA
ENDROOT
BRANCH   2   8
ATOM      8  C   UNL     1      -9.351  -5.257   7.433  1.00  0.00     0.017 C 
BRANCH   8   9
ATOM      9  C   UNL     1     -10.494  -6.239   7.816  1.00  0.00     0.031 C 
BRANCH   9  10
ATOM     10  C   UNL     1     -10.042  -7.690   7.897  1.00  0.00    -0.077 C 
ATOM     11  C   UNL     1      -9.941  -8.337   9.256  1.00  0.00     0.039 C 
ATOM     12  C   UNL     1      -9.698  -8.424   6.816  1.00  0.00    -0.028 CG0
ATOM     13  G   UNL     1      -9.807  -7.974   5.382  1.00  0.00     0.000 G0
ENDBRANCH   9  10
ENDBRANCH   8   9
ENDBRANCH   2   8
BRANCH   1  14
ATOM     14  C   UNL     1      -7.292  -5.525   5.299  1.00  0.00     0.192 C 
ATOM     15  C   UNL     1      -8.022  -6.424   4.348  1.00  0.00     0.096 C 
ATOM     16  O   UNL     1      -6.620  -6.279   4.305  1.00  0.00    -0.362 OA
ATOM     17  C   UNL     1      -8.672  -5.768   3.124  1.00  0.00     0.045 C 
BRANCH  15  18
ATOM     18  C   UNL     1      -8.423  -7.878   4.701  1.00  0.00     0.042 C 
BRANCH  18  19
ATOM     19  C   UNL     1      -9.808  -7.989   5.370  1.00  0.00     0.030 CG0
ATOM     20  G   UNL     1      -9.709  -8.423   6.810  1.00  0.00     0.000 G0
ENDBRANCH  18  19
ENDBRANCH  15  18
ENDBRANCH   1  14
TORSDOF 0
ENDMDL
MODEL 4
REMARK VINA RESULT:    -3.120     10.149     12.504
REMARK INTER + INTRA:          -4.349
REMARK INTER:                  -4.390
REMARK INTRA:                   0.041
REMARK UNBOUND:                -0.135
REMARK SMILES C=C1C(=O)O[C@H]2[C@@H]1CCC(C)=CCC[C@]1(C)O[C@H]21
REMARK SMILES IDX 6 1 7 2 2 3 1 4 3 5 4 6 5 7 8 8 9 9 10 10 11 11 12 12 18 14
REMARK SMILES IDX 15 15 17 16 16 17 14 18 13 19
REMARK H PARENT
REMARK Flexibility Score: 70.00
ROOT
ATOM      1  C   UNL     1      -7.573  -6.896   4.177  1.00  0.00     0.216 C 
ATOM      2  C   UNL     1      -8.883  -7.652   4.629  1.00  0.00     0.070 C 
ATOM      3  C   UNL     1      -9.342  -8.336   3.365  1.00  0.00     0.037 C 
ATOM      4  C   UNL     1     -10.470  -9.033   3.207  1.00  0.00     0.021 C 
ATOM      5  C   UNL     1      -8.453  -7.945   2.298  1.00  0.00     0.334 C 
ATOM      6  O   UNL     1      -8.560  -8.284   1.088  1.00  0.00    -0.247 OA
ATOM      7  O   UNL     1      -7.461  -7.119   2.770  1.00  0.00    -0.455 OA
ENDROOT
BRANCH   2   8
ATOM      8  C   UNL     1      -8.760  -8.645   5.832  1.00  0.00     0.017 C 
BRANCH   8   9
ATOM      9  C   UNL     1      -8.723  -7.942   7.218  1.00  0.00     0.031 C 
BRANCH   9  10
ATOM     10  C   UNL     1      -9.269  -6.522   7.190  1.00  0.00    -0.077 C 
ATOM     11  C   UNL     1     -10.742  -6.324   6.931  1.00  0.00     0.039 C 
ATOM     12  C   UNL     1      -8.500  -5.424   7.356  1.00  0.00    -0.028 CG0
ATOM     13  G   UNL     1      -7.032  -5.428   7.697  1.00  0.00     0.000 G0
ENDBRANCH   9  10
ENDBRANCH   8   9
ENDBRANCH   2   8
BRANCH   1  14
ATOM     14  C   UNL     1      -6.261  -7.376   4.826  1.00  0.00     0.192 C 
ATOM     15  C   UNL     1      -5.586  -6.583   5.903  1.00  0.00     0.096 C 
ATOM     16  O   UNL     1      -5.214  -6.463   4.548  1.00  0.00    -0.362 OA
ATOM     17  C   UNL     1      -4.486  -7.288   6.706  1.00  0.00     0.045 C 
BRANCH  15  18
ATOM     18  C   UNL     1      -6.150  -5.247   6.447  1.00  0.00     0.042 C 
BRANCH  18  19
ATOM     19  C   UNL     1      -7.023  -5.415   7.707  1.00  0.00     0.030 CG0
ATOM     20  G   UNL     1      -8.495  -5.425   7.381  1.00  0.00     0.000 G0
ENDBRANCH  18  19
ENDBRANCH  15  18
ENDBRANCH   1  14
TORSDOF 0
ENDMDL
MODEL 5
REMARK VINA RESULT:    -3.052      3.216      5.464
REMARK INTER + INTRA:          -4.258
REMARK INTER:                  -4.304
REMARK INTRA:                   0.046
REMARK UNBOUND:                -0.135
REMARK SMILES C=C1C(=O)O[C@H]2[C@@H]1CCC(C)=CCC[C@]1(C)O[C@H]21
REMARK SMILES IDX 6 1 7 2 2 3 1 4 3 5 4 6 5 7 8 8 9 9 10 10 11 11 12 12 18 14
REMARK SMILES IDX 15 15 17 16 16 17 14 18 13 19
REMARK H PARENT
REMARK Flexibility Score: 70.00
ROOT
ATOM      1  C   UNL     1      -1.063  -1.987  10.286  1.00  0.00     0.216 C 
ATOM      2  C   UNL     1       0.262  -1.853   9.439  1.00  0.00     0.070 C 
ATOM      3  C   UNL     1       0.910  -3.207   9.591  1.00  0.00     0.037 C 
ATOM      4  C   UNL     1       2.110  -3.567   9.131  1.00  0.00     0.021 C 
ATOM      5  C   UNL     1       0.098  -3.991  10.490  1.00  0.00     0.334 C 
ATOM      6  O   UNL     1       0.357  -5.159  10.889  1.00  0.00    -0.247 OA
ATOM      7  O   UNL     1      -1.012  -3.283  10.886  1.00  0.00    -0.455 OA
ENDROOT
BRANCH   2   8
ATOM      8  C   UNL     1       0.118  -1.427   7.941  1.00  0.00     0.017 C 
BRANCH   8   9
ATOM      9  C   UNL     1      -0.100   0.100   7.746  1.00  0.00     0.031 C 
BRANCH   9  10
ATOM     10  C   UNL     1       0.305   0.928   8.957  1.00  0.00    -0.077 C 
ATOM     11  C   UNL     1       1.768   1.007   9.317  1.00  0.00     0.039 C 
ATOM     12  C   UNL     1      -0.579   1.574   9.747  1.00  0.00    -0.028 CG0
ATOM     13  G   UNL     1      -2.064   1.671   9.502  1.00  0.00     0.000 G0
ENDBRANCH   9  10
ENDBRANCH   8   9
ENDBRANCH   2   8
BRANCH   1  14
ATOM     14  C   UNL     1      -2.380  -1.897   9.493  1.00  0.00     0.192 C 
ATOM     15  C   UNL     1      -3.228  -0.663   9.523  1.00  0.00     0.096 C 
ATOM     16  O   UNL     1      -3.477  -1.757  10.378  1.00  0.00    -0.362 OA
ATOM     17  C   UNL     1      -4.329  -0.544   8.461  1.00  0.00     0.045 C 
BRANCH  15  18
ATOM     18  C   UNL     1      -2.848   0.603  10.331  1.00  0.00     0.042 C 
BRANCH  18  19
ATOM     19  C   UNL     1      -2.073   1.650   9.505  1.00  0.00     0.030 CG0
ATOM     20  G   UNL     1      -0.586   1.565   9.735  1.00  0.00     0.000 G0
ENDBRANCH  18  19
ENDBRANCH  15  18
ENDBRANCH   1  14
TORSDOF 0
ENDMDL
MODEL 6
REMARK VINA RESULT:    -2.983     13.369     15.017
REMARK INTER + INTRA:          -4.164
REMARK INTER:                  -4.326
REMARK INTRA:                   0.162
REMARK UNBOUND:                -0.135
REMARK SMILES C=C1C(=O)O[C@H]2[C@@H]1CCC(C)=CCC[C@]1(C)O[C@H]21
REMARK SMILES IDX 6 1 7 2 2 3 1 4 3 5 4 6 5 7 8 8 9 9 10 10 11 11 12 12 18 14
REMARK SMILES IDX 15 15 17 16 16 17 14 18 13 19
REMARK H PARENT
REMARK Flexibility Score: 70.00
ROOT
ATOM      1  C   UNL     1       3.197  -0.396  -5.267  1.00  0.00     0.216 C 
ATOM      2  C   UNL     1       4.707  -0.200  -4.853  1.00  0.00     0.070 C 
ATOM      3  C   UNL     1       4.989   1.232  -5.238  1.00  0.00     0.037 C 
ATOM      4  C   UNL     1       6.170   1.852  -5.171  1.00  0.00     0.021 C 
ATOM      5  C   UNL     1       3.809   1.762  -5.877  1.00  0.00     0.334 C 
ATOM      6  O   UNL     1       3.696   2.915  -6.375  1.00  0.00    -0.247 OA
ATOM      7  O   UNL     1       2.804   0.825  -5.898  1.00  0.00    -0.455 OA
ENDROOT
BRANCH   2   8
ATOM      8  C   UNL     1       5.090  -0.503  -3.367  1.00  0.00     0.017 C 
BRANCH   8   9
ATOM      9  C   UNL     1       4.989  -2.008  -2.993  1.00  0.00     0.031 C 
BRANCH   9  10
ATOM     10  C   UNL     1       5.324  -2.942  -4.147  1.00  0.00    -0.077 C 
ATOM     11  C   UNL     1       6.688  -2.838  -4.783  1.00  0.00     0.039 C 
ATOM     12  C   UNL     1       4.453  -3.841  -4.654  1.00  0.00    -0.028 CG0
ATOM     13  G   UNL     1       3.081  -4.137  -4.103  1.00  0.00     0.000 G0
ENDBRANCH   9  10
ENDBRANCH   8   9
ENDBRANCH   2   8
BRANCH   1  14
ATOM     14  C   UNL     1       2.211  -0.657  -4.112  1.00  0.00     0.192 C 
ATOM     15  C   UNL     1       1.635  -2.018  -3.868  1.00  0.00     0.096 C 
ATOM     16  O   UNL     1       0.948  -1.044  -4.623  1.00  0.00    -0.362 OA
ATOM     17  C   UNL     1       0.936  -2.251  -2.523  1.00  0.00     0.045 C 
BRANCH  15  18
ATOM     18  C   UNL     1       1.987  -3.251  -4.736  1.00  0.00     0.042 C 
BRANCH  18  19
ATOM     19  C   UNL     1       3.070  -4.154  -4.111  1.00  0.00     0.030 CG0
ATOM     20  G   UNL     1       4.446  -3.838  -4.640  1.00  0.00     0.000 G0
ENDBRANCH  18  19
ENDBRANCH  15  18
ENDBRANCH   1  14
TORSDOF 0
ENDMDL
MODEL 7
REMARK VINA RESULT:    -2.975     11.043     12.784
REMARK INTER + INTRA:          -4.153
REMARK INTER:                  -4.024
REMARK INTRA:                  -0.129
REMARK UNBOUND:                -0.135
REMARK SMILES C=C1C(=O)O[C@H]2[C@@H]1CCC(C)=CCC[C@]1(C)O[C@H]21
REMARK SMILES IDX 6 1 7 2 2 3 1 4 3 5 4 6 5 7 8 8 9 9 10 10 11 11 12 12 18 14
REMARK SMILES IDX 15 15 17 16 16 17 14 18 13 19
REMARK H PARENT
REMARK Flexibility Score: 70.00
ROOT
ATOM      1  C   UNL     1      -9.458  -7.706   5.511  1.00  0.00     0.216 C 
ATOM      2  C   UNL     1      -8.388  -7.218   4.458  1.00  0.00     0.070 C 
ATOM      3  C   UNL     1      -8.943  -7.711   3.145  1.00  0.00     0.037 C 
ATOM      4  C   UNL     1      -8.350  -7.627   1.953  1.00  0.00     0.021 C 
ATOM      5  C   UNL     1     -10.141  -8.466   3.424  1.00  0.00     0.334 C 
ATOM      6  O   UNL     1     -10.847  -9.069   2.570  1.00  0.00    -0.247 OA
ATOM      7  O   UNL     1     -10.415  -8.464   4.770  1.00  0.00    -0.455 OA
ENDROOT
BRANCH   2   8
ATOM      8  C   UNL     1      -8.053  -5.691   4.428  1.00  0.00     0.017 C 
BRANCH   8   9
ATOM      9  C   UNL     1      -6.647  -5.350   4.996  1.00  0.00     0.031 C 
BRANCH   9  10
ATOM     10  C   UNL     1      -6.026  -6.486   5.795  1.00  0.00    -0.077 C 
ATOM     11  C   UNL     1      -5.046  -7.400   5.103  1.00  0.00     0.039 C 
ATOM     12  C   UNL     1      -6.328  -6.740   7.087  1.00  0.00    -0.028 CG0
ATOM     13  G   UNL     1      -7.221  -5.896   7.959  1.00  0.00     0.000 G0
ENDBRANCH   9  10
ENDBRANCH   8   9
ENDBRANCH   2   8
BRANCH   1  14
ATOM     14  C   UNL     1     -10.225  -6.595   6.254  1.00  0.00     0.192 C 
ATOM     15  C   UNL     1      -9.782  -6.103   7.598  1.00  0.00     0.096 C 
ATOM     16  O   UNL     1     -10.772  -7.098   7.460  1.00  0.00    -0.362 OA
ATOM     17  C   UNL     1     -10.399  -4.792   8.102  1.00  0.00     0.045 C 
BRANCH  15  18
ATOM     18  C   UNL     1      -8.533  -6.655   8.329  1.00  0.00     0.042 C 
BRANCH  18  19
ATOM     19  C   UNL     1      -7.232  -5.908   7.973  1.00  0.00     0.030 CG0
ATOM     20  G   UNL     1      -6.323  -6.736   7.100  1.00  0.00     0.000 G0
ENDBRANCH  18  19
ENDBRANCH  15  18
ENDBRANCH   1  14
TORSDOF 0
ENDMDL
MODEL 8
REMARK VINA RESULT:    -2.946      4.466      6.421
REMARK INTER + INTRA:          -4.114
REMARK INTER:                  -3.991
REMARK INTRA:                  -0.122
REMARK UNBOUND:                -0.135
REMARK SMILES C=C1C(=O)O[C@H]2[C@@H]1CCC(C)=CCC[C@]1(C)O[C@H]21
REMARK SMILES IDX 6 1 7 2 2 3 1 4 3 5 4 6 5 7 8 8 9 9 10 10 11 11 12 12 18 14
REMARK SMILES IDX 15 15 17 16 16 17 14 18 13 19
REMARK H PARENT
REMARK Flexibility Score: 70.00
ROOT
ATOM      1  C   UNL     1       5.232   2.705   7.863  1.00  0.00     0.216 C 
ATOM      2  C   UNL     1       4.140   2.112   8.837  1.00  0.00     0.070 C 
ATOM      3  C   UNL     1       4.799   0.869   9.382  1.00  0.00     0.037 C 
ATOM      4  C   UNL     1       4.237  -0.037  10.186  1.00  0.00     0.021 C 
ATOM      5  C   UNL     1       6.078   0.721   8.731  1.00  0.00     0.334 C 
ATOM      6  O   UNL     1       6.885  -0.233   8.901  1.00  0.00    -0.247 OA
ATOM      7  O   UNL     1       6.306   1.762   7.864  1.00  0.00    -0.455 OA
ENDROOT
BRANCH   2   8
ATOM      8  C   UNL     1       3.604   3.048   9.970  1.00  0.00     0.017 C 
BRANCH   8   9
ATOM      9  C   UNL     1       2.146   3.536   9.737  1.00  0.00     0.031 C 
BRANCH   9  10
ATOM     10  C   UNL     1       1.660   3.327   8.310  1.00  0.00    -0.077 C 
ATOM     11  C   UNL     1       0.824   2.109   8.007  1.00  0.00     0.039 C 
ATOM     12  C   UNL     1       1.961   4.160   7.291  1.00  0.00    -0.028 CG0
ATOM     13  G   UNL     1       2.717   5.458   7.416  1.00  0.00     0.000 G0
ENDBRANCH   9  10
ENDBRANCH   8   9
ENDBRANCH   2   8
BRANCH   1  14
ATOM     14  C   UNL     1       5.818   4.072   8.262  1.00  0.00     0.192 C 
ATOM     15  C   UNL     1       5.271   5.350   7.704  1.00  0.00     0.096 C 
ATOM     16  O   UNL     1       6.391   4.709   7.134  1.00  0.00    -0.362 OA
ATOM     17  C   UNL     1       5.690   6.652   8.398  1.00  0.00     0.045 C 
BRANCH  15  18
ATOM     18  C   UNL     1       4.086   5.397   6.708  1.00  0.00     0.042 C 
BRANCH  18  19
ATOM     19  C   UNL     1       2.708   5.467   7.395  1.00  0.00     0.030 CG0
ATOM     20  G   UNL     1       1.958   4.163   7.296  1.00  0.00     0.000 G0
ENDBRANCH  18  19
ENDBRANCH  15  18
ENDBRANCH   1  14
TORSDOF 0
ENDMDL
MODEL 9
REMARK VINA RESULT:    -2.937      3.033      5.206
REMARK INTER + INTRA:          -4.102
REMARK INTER:                  -3.989
REMARK INTRA:                  -0.113
REMARK UNBOUND:                -0.135
REMARK SMILES C=C1C(=O)O[C@H]2[C@@H]1CCC(C)=CCC[C@]1(C)O[C@H]21
REMARK SMILES IDX 6 1 7 2 2 3 1 4 3 5 4 6 5 7 8 8 9 9 10 10 11 11 12 12 18 14
REMARK SMILES IDX 15 15 17 16 16 17 14 18 13 19
REMARK H PARENT
REMARK Flexibility Score: 70.00
ROOT
ATOM      1  C   UNL     1       3.650   2.237   8.339  1.00  0.00     0.216 C 
ATOM      2  C   UNL     1       3.171   0.997   9.190  1.00  0.00     0.070 C 
ATOM      3  C   UNL     1       4.464   0.323   9.580  1.00  0.00     0.037 C 
ATOM      4  C   UNL     1       4.588  -0.833  10.235  1.00  0.00     0.021 C 
ATOM      5  C   UNL     1       5.547   1.041   8.953  1.00  0.00     0.334 C 
ATOM      6  O   UNL     1       6.769   0.734   9.015  1.00  0.00    -0.247 OA
ATOM      7  O   UNL     1       5.071   2.117   8.243  1.00  0.00    -0.455 OA
ENDROOT
BRANCH   2   8
ATOM      8  C   UNL     1       2.253   1.283  10.424  1.00  0.00     0.017 C 
BRANCH   8   9
ATOM      9  C   UNL     1       0.802   0.751  10.256  1.00  0.00     0.031 C 
BRANCH   9  10
ATOM     10  C   UNL     1       0.412   0.505   8.806  1.00  0.00    -0.077 C 
ATOM     11  C   UNL     1       0.421  -0.913   8.291  1.00  0.00     0.039 C 
ATOM     12  C   UNL     1       0.085   1.492   7.944  1.00  0.00    -0.028 CG0
ATOM     13  G   UNL     1      -0.051   2.951   8.297  1.00  0.00     0.000 G0
ENDBRANCH   9  10
ENDBRANCH   8   9
ENDBRANCH   2   8
BRANCH   1  14
ATOM     14  C   UNL     1       3.344   3.622   8.939  1.00  0.00     0.192 C 
ATOM     15  C   UNL     1       2.098   4.373   8.578  1.00  0.00     0.096 C 
ATOM     16  O   UNL     1       3.324   4.605   7.919  1.00  0.00    -0.362 OA
ATOM     17  C   UNL     1       1.722   5.570   9.459  1.00  0.00     0.045 C 
BRANCH  15  18
ATOM     18  C   UNL     1       1.034   3.819   7.598  1.00  0.00     0.042 C 
BRANCH  18  19
ATOM     19  C   UNL     1      -0.045   2.957   8.285  1.00  0.00     0.030 CG0
ATOM     20  G   UNL     1       0.096   1.495   7.944  1.00  0.00     0.000 G0
ENDBRANCH  18  19
ENDBRANCH  15  18
ENDBRANCH   1  14
TORSDOF 0
ENDMDL
