MODEL 1
REMARK VINA RESULT:    -3.956      0.000      0.000
REMARK INTER + INTRA:          -6.100
REMARK INTER:                  -5.574
REMARK INTRA:                  -0.526
REMARK UNBOUND:                -0.526
REMARK SMILES CCCCCCCCC(=O)[O-]
REMARK SMILES IDX 6 1 7 2 8 3 9 4 10 5 11 6 5 7 4 8 3 9 2 10 1 11
REMARK H PARENT
REMARK Flexibility Score: inf
ROOT
ATOM      1  C   UNL     1      -4.321  -1.503   8.995  1.00  0.00     0.000 C 
ENDROOT
BRANCH   1   2
ATOM      2  C   UNL     1      -3.774  -0.268   9.725  1.00  0.00     0.006 C 
BRANCH   2   3
ATOM      3  C   UNL     1      -3.823  -0.425  11.250  1.00  0.00     0.053 C 
BRANCH   3   4
ATOM      4  C   UNL     1      -4.406   0.784  11.916  1.00  0.00     0.041 C 
ATOM      5  O   UNL     1      -4.088   1.937  11.524  1.00  0.00    -0.550 OA
ATOM      6  O   UNL     1      -5.327   0.636  12.946  1.00  0.00    -0.550 OA
ENDBRANCH   3   4
ENDBRANCH   2   3
ENDBRANCH   1   2
BRANCH   1   7
ATOM      7  C   UNL     1      -3.178  -2.388   8.482  1.00  0.00     0.000 C 
BRANCH   7   8
ATOM      8  C   UNL     1      -3.402  -3.856   8.868  1.00  0.00    -0.000 C 
BRANCH   8   9
ATOM      9  C   UNL     1      -3.445  -4.022  10.394  1.00  0.00    -0.000 C 
BRANCH   9  10
ATOM     10  C   UNL     1      -4.582  -4.949  10.854  1.00  0.00    -0.003 C 
ATOM     11  C   UNL     1      -5.666  -5.129   9.792  1.00  0.00     0.004 C 
ENDBRANCH   9  10
ENDBRANCH   8   9
ENDBRANCH   7   8
ENDBRANCH   1   7
TORSDOF 7
ENDMDL
MODEL 2
REMARK VINA RESULT:    -3.861      6.244      8.077
REMARK INTER + INTRA:          -5.967
REMARK INTER:                  -5.581
REMARK INTRA:                  -0.386
REMARK UNBOUND:                -0.526
REMARK SMILES CCCCCCCCC(=O)[O-]
REMARK SMILES IDX 6 1 7 2 8 3 9 4 10 5 11 6 5 7 4 8 3 9 2 10 1 11
REMARK H PARENT
REMARK Flexibility Score: inf
ROOT
ATOM      1  C   UNL     1      -1.534   1.174  15.562  1.00  0.00     0.000 C 
ENDROOT
BRANCH   1   2
ATOM      2  C   UNL     1      -2.770   1.609  14.761  1.00  0.00     0.006 C 
BRANCH   2   3
ATOM      3  C   UNL     1      -3.602   2.664  15.504  1.00  0.00     0.053 C 
BRANCH   3   4
ATOM      4  C   UNL     1      -5.071   2.457  15.304  1.00  0.00     0.041 C 
ATOM      5  O   UNL     1      -5.512   2.094  14.181  1.00  0.00    -0.550 OA
ATOM      6  O   UNL     1      -5.951   2.629  16.365  1.00  0.00    -0.550 OA
ENDBRANCH   3   4
ENDBRANCH   2   3
ENDBRANCH   1   2
BRANCH   1   7
ATOM      7  C   UNL     1      -0.992   2.333  16.407  1.00  0.00     0.000 C 
BRANCH   7   8
ATOM      8  C   UNL     1      -0.565   1.847  17.798  1.00  0.00    -0.000 C 
BRANCH   8   9
ATOM      9  C   UNL     1       0.105   0.467  17.716  1.00  0.00    -0.000 C 
BRANCH   9  10
ATOM     10  C   UNL     1      -0.289  -0.450  18.884  1.00  0.00    -0.003 C 
ATOM     11  C   UNL     1      -0.642   0.325  20.153  1.00  0.00     0.004 C 
ENDBRANCH   9  10
ENDBRANCH   8   9
ENDBRANCH   7   8
ENDBRANCH   1   7
TORSDOF 7
ENDMDL
MODEL 3
REMARK VINA RESULT:    -3.826      2.700      4.691
REMARK INTER + INTRA:          -5.917
REMARK INTER:                  -5.144
REMARK INTRA:                  -0.773
REMARK UNBOUND:                -0.526
REMARK SMILES CCCCCCCCC(=O)[O-]
REMARK SMILES IDX 6 1 7 2 8 3 9 4 10 5 11 6 5 7 4 8 3 9 2 10 1 11
REMARK H PARENT
REMARK Flexibility Score: inf
ROOT
ATOM      1  C   UNL     1      -2.765  -2.089   8.471  1.00  0.00     0.000 C 
ENDROOT
BRANCH   1   2
ATOM      2  C   UNL     1      -2.763  -3.499   9.079  1.00  0.00     0.006 C 
BRANCH   2   3
ATOM      3  C   UNL     1      -4.183  -4.044   9.286  1.00  0.00     0.053 C 
BRANCH   3   4
ATOM      4  C   UNL     1      -4.375  -4.587  10.669  1.00  0.00     0.041 C 
ATOM      5  O   UNL     1      -5.155  -5.555  10.866  1.00  0.00    -0.550 OA
ATOM      6  O   UNL     1      -3.665  -4.047  11.735  1.00  0.00    -0.550 OA
ENDBRANCH   3   4
ENDBRANCH   2   3
ENDBRANCH   1   2
BRANCH   1   7
ATOM      7  C   UNL     1      -4.084  -1.364   8.770  1.00  0.00     0.000 C 
BRANCH   7   8
ATOM      8  C   UNL     1      -3.843  -0.114   9.626  1.00  0.00    -0.000 C 
BRANCH   8   9
ATOM      9  C   UNL     1      -3.734  -0.481  11.115  1.00  0.00    -0.000 C 
BRANCH   9  10
ATOM     10  C   UNL     1      -2.370  -0.103  11.716  1.00  0.00    -0.003 C 
ATOM     11  C   UNL     1      -1.471  -1.316  11.952  1.00  0.00     0.004 C 
ENDBRANCH   9  10
ENDBRANCH   8   9
ENDBRANCH   7   8
ENDBRANCH   1   7
TORSDOF 7
ENDMDL
MODEL 4
REMARK VINA RESULT:    -3.813      4.288      6.552
REMARK INTER + INTRA:          -5.899
REMARK INTER:                  -5.571
REMARK INTRA:                  -0.328
REMARK UNBOUND:                -0.526
REMARK SMILES CCCCCCCCC(=O)[O-]
REMARK SMILES IDX 6 1 7 2 8 3 9 4 10 5 11 6 5 7 4 8 3 9 2 10 1 11
REMARK H PARENT
REMARK Flexibility Score: inf
ROOT
ATOM      1  C   UNL     1      -5.466   2.872  14.426  1.00  0.00     0.000 C 
ENDROOT
BRANCH   1   2
ATOM      2  C   UNL     1      -5.563   3.072  15.946  1.00  0.00     0.006 C 
BRANCH   2   3
ATOM      3  C   UNL     1      -6.989   2.857  16.471  1.00  0.00     0.053 C 
BRANCH   3   4
ATOM      4  C   UNL     1      -7.876   4.024  16.168  1.00  0.00     0.041 C 
ATOM      5  O   UNL     1      -7.764   5.092  16.826  1.00  0.00    -0.550 OA
ATOM      6  O   UNL     1      -8.803   3.947  15.136  1.00  0.00    -0.550 OA
ENDBRANCH   3   4
ENDBRANCH   2   3
ENDBRANCH   1   2
BRANCH   1   7
ATOM      7  C   UNL     1      -4.707   1.582  14.091  1.00  0.00     0.000 C 
BRANCH   7   8
ATOM      8  C   UNL     1      -5.204   0.978  12.771  1.00  0.00    -0.000 C 
BRANCH   8   9
ATOM      9  C   UNL     1      -4.071   0.233  12.047  1.00  0.00    -0.000 C 
BRANCH   9  10
ATOM     10  C   UNL     1      -3.907   0.686  10.587  1.00  0.00    -0.003 C 
ATOM     11  C   UNL     1      -4.139   2.185  10.402  1.00  0.00     0.004 C 
ENDBRANCH   9  10
ENDBRANCH   8   9
ENDBRANCH   7   8
ENDBRANCH   1   7
TORSDOF 7
ENDMDL
MODEL 5
REMARK VINA RESULT:    -3.758      4.149      7.615
REMARK INTER + INTRA:          -5.822
REMARK INTER:                  -5.321
REMARK INTRA:                  -0.501
REMARK UNBOUND:                -0.526
REMARK SMILES CCCCCCCCC(=O)[O-]
REMARK SMILES IDX 6 1 7 2 8 3 9 4 10 5 11 6 5 7 4 8 3 9 2 10 1 11
REMARK H PARENT
REMARK Flexibility Score: inf
ROOT
ATOM      1  C   UNL     1      -4.578   2.120  15.025  1.00  0.00     0.000 C 
ENDROOT
BRANCH   1   2
ATOM      2  C   UNL     1      -5.220   2.135  13.630  1.00  0.00     0.006 C 
BRANCH   2   3
ATOM      3  C   UNL     1      -5.172   0.758  12.954  1.00  0.00     0.053 C 
BRANCH   3   4
ATOM      4  C   UNL     1      -4.198   0.729  11.817  1.00  0.00     0.041 C 
ATOM      5  O   UNL     1      -3.536   1.760  11.525  1.00  0.00    -0.550 OA
ATOM      6  O   UNL     1      -3.994  -0.445  11.102  1.00  0.00    -0.550 OA
ENDBRANCH   3   4
ENDBRANCH   2   3
ENDBRANCH   1   2
BRANCH   1   7
ATOM      7  C   UNL     1      -5.164   3.227  15.910  1.00  0.00     0.000 C 
BRANCH   7   8
ATOM      8  C   UNL     1      -6.506   2.794  16.516  1.00  0.00    -0.000 C 
BRANCH   8   9
ATOM      9  C   UNL     1      -7.521   3.947  16.481  1.00  0.00    -0.000 C 
BRANCH   9  10
ATOM     10  C   UNL     1      -7.708   4.525  15.069  1.00  0.00    -0.003 C 
ATOM     11  C   UNL     1      -8.957   3.989  14.371  1.00  0.00     0.004 C 
ENDBRANCH   9  10
ENDBRANCH   8   9
ENDBRANCH   7   8
ENDBRANCH   1   7
TORSDOF 7
ENDMDL
MODEL 6
REMARK VINA RESULT:    -3.744      1.423      1.651
REMARK INTER + INTRA:          -5.803
REMARK INTER:                  -5.159
REMARK INTRA:                  -0.644
REMARK UNBOUND:                -0.526
REMARK SMILES CCCCCCCCC(=O)[O-]
REMARK SMILES IDX 6 1 7 2 8 3 9 4 10 5 11 6 5 7 4 8 3 9 2 10 1 11
REMARK H PARENT
REMARK Flexibility Score: inf
ROOT
ATOM      1  C   UNL     1      -4.191  -1.805   8.965  1.00  0.00     0.000 C 
ENDROOT
BRANCH   1   2
ATOM      2  C   UNL     1      -3.656  -0.391   9.235  1.00  0.00     0.006 C 
BRANCH   2   3
ATOM      3  C   UNL     1      -3.941   0.074  10.670  1.00  0.00     0.053 C 
BRANCH   3   4
ATOM      4  C   UNL     1      -2.738  -0.066  11.551  1.00  0.00     0.041 C 
ATOM      5  O   UNL     1      -2.739   0.435  12.706  1.00  0.00    -0.550 OA
ATOM      6  O   UNL     1      -1.630  -0.779  11.110  1.00  0.00    -0.550 OA
ENDBRANCH   3   4
ENDBRANCH   2   3
ENDBRANCH   1   2
BRANCH   1   7
ATOM      7  C   UNL     1      -3.069  -2.733   8.484  1.00  0.00     0.000 C 
BRANCH   7   8
ATOM      8  C   UNL     1      -2.988  -3.996   9.352  1.00  0.00    -0.000 C 
BRANCH   8   9
ATOM      9  C   UNL     1      -3.687  -3.779  10.703  1.00  0.00    -0.000 C 
BRANCH   9  10
ATOM     10  C   UNL     1      -4.660  -4.916  11.053  1.00  0.00    -0.003 C 
ATOM     11  C   UNL     1      -5.660  -5.205   9.935  1.00  0.00     0.004 C 
ENDBRANCH   9  10
ENDBRANCH   8   9
ENDBRANCH   7   8
ENDBRANCH   1   7
TORSDOF 7
ENDMDL
MODEL 7
REMARK VINA RESULT:    -3.710      2.603      5.106
REMARK INTER + INTRA:          -5.755
REMARK INTER:                  -5.425
REMARK INTRA:                  -0.330
REMARK UNBOUND:                -0.526
REMARK SMILES CCCCCCCCC(=O)[O-]
REMARK SMILES IDX 6 1 7 2 8 3 9 4 10 5 11 6 5 7 4 8 3 9 2 10 1 11
REMARK H PARENT
REMARK Flexibility Score: inf
ROOT
ATOM      1  C   UNL     1      -4.210  -1.476   8.804  1.00  0.00     0.000 C 
ENDROOT
BRANCH   1   2
ATOM      2  C   UNL     1      -3.055  -2.482   8.918  1.00  0.00     0.006 C 
BRANCH   2   3
ATOM      3  C   UNL     1      -3.547  -3.935   8.906  1.00  0.00     0.053 C 
BRANCH   3   4
ATOM      4  C   UNL     1      -4.149  -4.331  10.219  1.00  0.00     0.041 C 
ATOM      5  O   UNL     1      -5.159  -5.082  10.251  1.00  0.00    -0.550 OA
ATOM      6  O   UNL     1      -3.574  -3.899  11.408  1.00  0.00    -0.550 OA
ENDBRANCH   3   4
ENDBRANCH   2   3
ENDBRANCH   1   2
BRANCH   1   7
ATOM      7  C   UNL     1      -3.858  -0.155   9.500  1.00  0.00     0.000 C 
BRANCH   7   8
ATOM      8  C   UNL     1      -3.835  -0.326  11.024  1.00  0.00    -0.000 C 
BRANCH   8   9
ATOM      9  C   UNL     1      -4.192   0.992  11.730  1.00  0.00    -0.000 C 
BRANCH   9  10
ATOM     10  C   UNL     1      -5.219   0.797  12.856  1.00  0.00    -0.003 C 
ATOM     11  C   UNL     1      -5.268   1.980  13.823  1.00  0.00     0.004 C 
ENDBRANCH   9  10
ENDBRANCH   8   9
ENDBRANCH   7   8
ENDBRANCH   1   7
TORSDOF 7
ENDMDL
MODEL 8
REMARK VINA RESULT:    -3.641      2.938      5.439
REMARK INTER + INTRA:          -5.657
REMARK INTER:                  -5.284
REMARK INTRA:                  -0.374
REMARK UNBOUND:                -0.526
REMARK SMILES CCCCCCCCC(=O)[O-]
REMARK SMILES IDX 6 1 7 2 8 3 9 4 10 5 11 6 5 7 4 8 3 9 2 10 1 11
REMARK H PARENT
REMARK Flexibility Score: inf
ROOT
ATOM      1  C   UNL     1      -4.330  -1.465   8.816  1.00  0.00     0.000 C 
ENDROOT
BRANCH   1   2
ATOM      2  C   UNL     1      -3.118  -2.408   8.805  1.00  0.00     0.006 C 
BRANCH   2   3
ATOM      3  C   UNL     1      -3.530  -3.883   8.898  1.00  0.00     0.053 C 
BRANCH   3   4
ATOM      4  C   UNL     1      -3.886  -4.276  10.299  1.00  0.00     0.041 C 
ATOM      5  O   UNL     1      -3.243  -3.799  11.272  1.00  0.00    -0.550 OA
ATOM      6  O   UNL     1      -4.950  -5.138  10.533  1.00  0.00    -0.550 OA
ENDBRANCH   3   4
ENDBRANCH   2   3
ENDBRANCH   1   2
BRANCH   1   7
ATOM      7  C   UNL     1      -4.008  -0.167   9.567  1.00  0.00     0.000 C 
BRANCH   7   8
ATOM      8  C   UNL     1      -2.594   0.327   9.232  1.00  0.00    -0.000 C 
BRANCH   8   9
ATOM      9  C   UNL     1      -2.435   1.815   9.584  1.00  0.00    -0.000 C 
BRANCH   9  10
ATOM     10  C   UNL     1      -3.706   2.412  10.210  1.00  0.00    -0.003 C 
ATOM     11  C   UNL     1      -3.912   3.881   9.844  1.00  0.00     0.004 C 
ENDBRANCH   9  10
ENDBRANCH   8   9
ENDBRANCH   7   8
ENDBRANCH   1   7
TORSDOF 7
ENDMDL
MODEL 9
REMARK VINA RESULT:    -3.579      5.657      8.367
REMARK INTER + INTRA:          -5.570
REMARK INTER:                  -4.971
REMARK INTRA:                  -0.599
REMARK UNBOUND:                -0.526
REMARK SMILES CCCCCCCCC(=O)[O-]
REMARK SMILES IDX 6 1 7 2 8 3 9 4 10 5 11 6 5 7 4 8 3 9 2 10 1 11
REMARK H PARENT
REMARK Flexibility Score: inf
ROOT
ATOM      1  C   UNL     1      -7.517   3.954  15.766  1.00  0.00     0.000 C 
ENDROOT
BRANCH   1   2
ATOM      2  C   UNL     1      -7.791   5.103  16.747  1.00  0.00     0.006 C 
BRANCH   2   3
ATOM      3  C   UNL     1      -6.501   5.805  17.195  1.00  0.00     0.053 C 
BRANCH   3   4
ATOM      4  C   UNL     1      -5.862   6.564  16.073  1.00  0.00     0.041 C 
ATOM      5  O   UNL     1      -6.393   7.622  15.642  1.00  0.00    -0.550 OA
ATOM      6  O   UNL     1      -4.661   6.126  15.529  1.00  0.00    -0.550 OA
ENDBRANCH   3   4
ENDBRANCH   2   3
ENDBRANCH   1   2
BRANCH   1   7
ATOM      7  C   UNL     1      -6.714   2.835  16.442  1.00  0.00     0.000 C 
BRANCH   7   8
ATOM      8  C   UNL     1      -5.399   2.574  15.697  1.00  0.00    -0.000 C 
BRANCH   8   9
ATOM      9  C   UNL     1      -5.519   2.964  14.216  1.00  0.00    -0.000 C 
BRANCH   9  10
ATOM     10  C   UNL     1      -4.598   2.132  13.310  1.00  0.00    -0.003 C 
ATOM     11  C   UNL     1      -5.191   0.768  12.956  1.00  0.00     0.004 C 
ENDBRANCH   9  10
ENDBRANCH   8   9
ENDBRANCH   7   8
ENDBRANCH   1   7
TORSDOF 7
ENDMDL
