MODEL 1
REMARK VINA RESULT:    -6.029      0.000      0.000
REMARK INTER + INTRA:          -6.452
REMARK INTER:                  -6.381
REMARK INTRA:                  -0.071
REMARK UNBOUND:                -0.071
REMARK SMILES CC(=O)c1ccccc1
REMARK SMILES IDX 4 1 5 2 6 3 7 4 8 5 9 6 2 7 1 8 3 9
REMARK H PARENT
REMARK Flexibility Score: inf
ROOT
ATOM      1  C   UNL     1     152.633 155.302 159.702  1.00  0.00     0.017 A 
ATOM      2  C   UNL     1     152.900 155.336 158.318  1.00  0.00     0.012 A 
ATOM      3  C   UNL     1     152.236 156.246 157.489  1.00  0.00     0.001 A 
ATOM      4  C   UNL     1     151.300 157.132 158.027  1.00  0.00     0.000 A 
ATOM      5  C   UNL     1     151.027 157.111 159.395  1.00  0.00     0.001 A 
ATOM      6  C   UNL     1     151.687 156.203 160.228  1.00  0.00     0.012 A 
ENDROOT
BRANCH   1   7
ATOM      7  C   UNL     1     153.329 154.342 160.601  1.00  0.00     0.159 C 
ATOM      8  C   UNL     1     153.185 154.404 162.091  1.00  0.00     0.093 C 
ATOM      9  O   UNL     1     154.065 153.444 160.107  1.00  0.00    -0.295 OA
ENDBRANCH   1   7
TORSDOF 1
ENDMDL
MODEL 2
REMARK VINA RESULT:    -6.021      0.055      1.614
REMARK INTER + INTRA:          -6.445
REMARK INTER:                  -6.375
REMARK INTRA:                  -0.070
REMARK UNBOUND:                -0.071
REMARK SMILES CC(=O)c1ccccc1
REMARK SMILES IDX 4 1 5 2 6 3 7 4 8 5 9 6 2 7 1 8 3 9
REMARK H PARENT
REMARK Flexibility Score: inf
ROOT
ATOM      1  C   UNL     1     152.651 155.288 159.728  1.00  0.00     0.017 A 
ATOM      2  C   UNL     1     151.722 156.224 160.229  1.00  0.00     0.012 A 
ATOM      3  C   UNL     1     151.082 157.120 159.367  1.00  0.00     0.001 A 
ATOM      4  C   UNL     1     151.359 157.096 157.998  1.00  0.00     0.000 A 
ATOM      5  C   UNL     1     152.275 156.175 157.488  1.00  0.00     0.001 A 
ATOM      6  C   UNL     1     152.918 155.277 158.345  1.00  0.00     0.012 A 
ENDROOT
BRANCH   1   7
ATOM      7  C   UNL     1     153.342 154.326 160.629  1.00  0.00     0.159 C 
ATOM      8  C   UNL     1     153.202 154.394 162.120  1.00  0.00     0.093 C 
ATOM      9  O   UNL     1     154.070 153.422 160.137  1.00  0.00    -0.295 OA
ENDBRANCH   1   7
TORSDOF 1
ENDMDL
MODEL 3
REMARK VINA RESULT:    -5.859      2.187      3.365
REMARK INTER + INTRA:          -6.273
REMARK INTER:                  -6.213
REMARK INTRA:                  -0.060
REMARK UNBOUND:                -0.071
REMARK SMILES CC(=O)c1ccccc1
REMARK SMILES IDX 4 1 5 2 6 3 7 4 8 5 9 6 2 7 1 8 3 9
REMARK H PARENT
REMARK Flexibility Score: inf
ROOT
ATOM      1  C   UNL     1     151.297 156.971 158.780  1.00  0.00     0.017 A 
ATOM      2  C   UNL     1     150.690 156.659 160.014  1.00  0.00     0.012 A 
ATOM      3  C   UNL     1     149.517 157.307 160.413  1.00  0.00     0.001 A 
ATOM      4  C   UNL     1     148.934 158.273 159.588  1.00  0.00     0.000 A 
ATOM      5  C   UNL     1     149.523 158.591 158.364  1.00  0.00     0.001 A 
ATOM      6  C   UNL     1     150.696 157.947 157.961  1.00  0.00     0.012 A 
ENDROOT
BRANCH   1   7
ATOM      7  C   UNL     1     152.545 156.292 158.338  1.00  0.00     0.159 C 
ATOM      8  C   UNL     1     152.567 155.353 157.170  1.00  0.00     0.093 C 
ATOM      9  O   UNL     1     153.624 156.504 158.955  1.00  0.00    -0.295 OA
ENDBRANCH   1   7
TORSDOF 1
ENDMDL
MODEL 4
REMARK VINA RESULT:    -5.647      2.469      4.005
REMARK INTER + INTRA:          -6.048
REMARK INTER:                  -5.979
REMARK INTRA:                  -0.070
REMARK UNBOUND:                -0.071
REMARK SMILES CC(=O)c1ccccc1
REMARK SMILES IDX 4 1 5 2 6 3 7 4 8 5 9 6 2 7 1 8 3 9
REMARK H PARENT
REMARK Flexibility Score: inf
ROOT
ATOM      1  C   UNL     1     150.959 156.928 159.241  1.00  0.00     0.017 A 
ATOM      2  C   UNL     1     151.735 156.787 158.072  1.00  0.00     0.012 A 
ATOM      3  C   UNL     1     152.849 155.942 158.056  1.00  0.00     0.001 A 
ATOM      4  C   UNL     1     153.204 155.228 159.203  1.00  0.00     0.000 A 
ATOM      5  C   UNL     1     152.446 155.357 160.367  1.00  0.00     0.001 A 
ATOM      6  C   UNL     1     151.331 156.201 160.389  1.00  0.00     0.012 A 
ENDROOT
BRANCH   1   7
ATOM      7  C   UNL     1     149.769 157.821 159.277  1.00  0.00     0.159 C 
ATOM      8  C   UNL     1     149.459 158.774 158.162  1.00  0.00     0.093 C 
ATOM      9  O   UNL     1     148.992 157.787 160.269  1.00  0.00    -0.295 OA
ENDBRANCH   1   7
TORSDOF 1
ENDMDL
MODEL 5
REMARK VINA RESULT:    -5.633      2.434      4.212
REMARK INTER + INTRA:          -6.034
REMARK INTER:                  -5.963
REMARK INTRA:                  -0.071
REMARK UNBOUND:                -0.071
REMARK SMILES CC(=O)c1ccccc1
REMARK SMILES IDX 4 1 5 2 6 3 7 4 8 5 9 6 2 7 1 8 3 9
REMARK H PARENT
REMARK Flexibility Score: inf
ROOT
ATOM      1  C   UNL     1     151.011 156.832 159.320  1.00  0.00     0.017 A 
ATOM      2  C   UNL     1     151.345 156.096 160.475  1.00  0.00     0.012 A 
ATOM      3  C   UNL     1     152.451 155.239 160.477  1.00  0.00     0.001 A 
ATOM      4  C   UNL     1     153.237 155.106 159.330  1.00  0.00     0.000 A 
ATOM      5  C   UNL     1     152.919 155.830 158.179  1.00  0.00     0.001 A 
ATOM      6  C   UNL     1     151.814 156.687 158.172  1.00  0.00     0.012 A 
ENDROOT
BRANCH   1   7
ATOM      7  C   UNL     1     149.839 157.749 159.299  1.00  0.00     0.159 C 
ATOM      8  C   UNL     1     149.595 158.698 158.165  1.00  0.00     0.093 C 
ATOM      9  O   UNL     1     149.019 157.737 160.257  1.00  0.00    -0.295 OA
ENDBRANCH   1   7
TORSDOF 1
ENDMDL
MODEL 6
REMARK VINA RESULT:    -5.522      1.559      3.892
REMARK INTER + INTRA:          -5.916
REMARK INTER:                  -5.847
REMARK INTRA:                  -0.069
REMARK UNBOUND:                -0.071
REMARK SMILES CC(=O)c1ccccc1
REMARK SMILES IDX 4 1 5 2 6 3 7 4 8 5 9 6 2 7 1 8 3 9
REMARK H PARENT
REMARK Flexibility Score: inf
ROOT
ATOM      1  C   UNL     1     152.628 155.376 159.262  1.00  0.00     0.017 A 
ATOM      2  C   UNL     1     152.083 155.822 160.484  1.00  0.00     0.012 A 
ATOM      3  C   UNL     1     152.497 155.258 161.694  1.00  0.00     0.001 A 
ATOM      4  C   UNL     1     153.457 154.244 161.704  1.00  0.00     0.000 A 
ATOM      5  C   UNL     1     154.006 153.793 160.503  1.00  0.00     0.001 A 
ATOM      6  C   UNL     1     153.595 154.353 159.289  1.00  0.00     0.012 A 
ENDROOT
BRANCH   1   7
ATOM      7  C   UNL     1     152.200 155.964 157.963  1.00  0.00     0.159 C 
ATOM      8  C   UNL     1     151.393 157.225 157.891  1.00  0.00     0.093 C 
ATOM      9  O   UNL     1     152.519 155.395 156.884  1.00  0.00    -0.295 OA
ENDBRANCH   1   7
TORSDOF 1
ENDMDL
MODEL 7
REMARK VINA RESULT:    -5.227     16.427     17.172
REMARK INTER + INTRA:          -5.604
REMARK INTER:                  -5.544
REMARK INTRA:                  -0.060
REMARK UNBOUND:                -0.071
REMARK SMILES CC(=O)c1ccccc1
REMARK SMILES IDX 4 1 5 2 6 3 7 4 8 5 9 6 2 7 1 8 3 9
REMARK H PARENT
REMARK Flexibility Score: inf
ROOT
ATOM      1  C   UNL     1     149.901 170.103 151.314  1.00  0.00     0.017 A 
ATOM      2  C   UNL     1     150.906 169.173 150.979  1.00  0.00     0.012 A 
ATOM      3  C   UNL     1     150.866 168.494 149.757  1.00  0.00     0.001 A 
ATOM      4  C   UNL     1     149.827 168.732 148.855  1.00  0.00     0.000 A 
ATOM      5  C   UNL     1     148.826 169.651 149.173  1.00  0.00     0.001 A 
ATOM      6  C   UNL     1     148.860 170.333 150.393  1.00  0.00     0.012 A 
ENDROOT
BRANCH   1   7
ATOM      7  C   UNL     1     149.926 170.836 152.609  1.00  0.00     0.159 C 
ATOM      8  C   UNL     1     151.017 171.804 152.952  1.00  0.00     0.093 C 
ATOM      9  O   UNL     1     149.007 170.646 153.452  1.00  0.00    -0.295 OA
ENDBRANCH   1   7
TORSDOF 1
ENDMDL
MODEL 8
REMARK VINA RESULT:    -5.225     16.449     17.223
REMARK INTER + INTRA:          -5.602
REMARK INTER:                  -5.542
REMARK INTRA:                  -0.060
REMARK UNBOUND:                -0.071
REMARK SMILES CC(=O)c1ccccc1
REMARK SMILES IDX 4 1 5 2 6 3 7 4 8 5 9 6 2 7 1 8 3 9
REMARK H PARENT
REMARK Flexibility Score: inf
ROOT
ATOM      1  C   UNL     1     149.908 170.150 151.323  1.00  0.00     0.017 A 
ATOM      2  C   UNL     1     148.858 170.357 150.405  1.00  0.00     0.012 A 
ATOM      3  C   UNL     1     148.817 169.648 149.200  1.00  0.00     0.001 A 
ATOM      4  C   UNL     1     149.820 168.725 148.895  1.00  0.00     0.000 A 
ATOM      5  C   UNL     1     150.865 168.509 149.794  1.00  0.00     0.001 A 
ATOM      6  C   UNL     1     150.911 169.216 151.000  1.00  0.00     0.012 A 
ENDROOT
BRANCH   1   7
ATOM      7  C   UNL     1     149.969 170.895 152.610  1.00  0.00     0.159 C 
ATOM      8  C   UNL     1     151.062 171.876 152.908  1.00  0.00     0.093 C 
ATOM      9  O   UNL     1     149.081 170.705 153.485  1.00  0.00    -0.295 OA
ENDBRANCH   1   7
TORSDOF 1
ENDMDL
MODEL 9
REMARK VINA RESULT:    -5.147     15.740     16.568
REMARK INTER + INTRA:          -5.519
REMARK INTER:                  -5.458
REMARK INTRA:                  -0.061
REMARK UNBOUND:                -0.071
REMARK SMILES CC(=O)c1ccccc1
REMARK SMILES IDX 4 1 5 2 6 3 7 4 8 5 9 6 2 7 1 8 3 9
REMARK H PARENT
REMARK Flexibility Score: inf
ROOT
ATOM      1  C   UNL     1     150.707 169.552 151.386  1.00  0.00     0.017 A 
ATOM      2  C   UNL     1     151.015 168.711 150.298  1.00  0.00     0.012 A 
ATOM      3  C   UNL     1     150.182 168.667 149.175  1.00  0.00     0.001 A 
ATOM      4  C   UNL     1     149.033 169.459 149.123  1.00  0.00     0.000 A 
ATOM      5  C   UNL     1     148.715 170.297 150.193  1.00  0.00     0.001 A 
ATOM      6  C   UNL     1     149.544 170.345 151.318  1.00  0.00     0.012 A 
ENDROOT
BRANCH   1   7
ATOM      7  C   UNL     1     151.581 169.613 152.589  1.00  0.00     0.159 C 
ATOM      8  C   UNL     1     152.255 170.881 153.017  1.00  0.00     0.093 C 
ATOM      9  O   UNL     1     151.769 168.574 153.279  1.00  0.00    -0.295 OA
ENDBRANCH   1   7
TORSDOF 1
ENDMDL
