MODEL 1
REMARK VINA RESULT:    -3.772      0.000      0.000
REMARK INTER + INTRA:          -4.777
REMARK INTER:                  -4.654
REMARK INTRA:                  -0.124
REMARK UNBOUND:                -0.124
REMARK SMILES CCCCCC(=O)[O-]
REMARK SMILES IDX 4 1 5 2 6 3 7 4 8 5 3 6 2 7 1 8
REMARK H PARENT
REMARK Flexibility Score: inf
ROOT
ATOM      1  C   UNL     1       8.244  21.602  29.878  1.00  0.00     0.006 C 
ENDROOT
BRANCH   1   2
ATOM      2  C   UNL     1       7.876  21.990  31.317  1.00  0.00     0.053 C 
BRANCH   2   3
ATOM      3  C   UNL     1       8.971  22.763  31.986  1.00  0.00     0.041 C 
ATOM      4  O   UNL     1       9.976  23.136  31.326  1.00  0.00    -0.550 OA
ATOM      5  O   UNL     1       8.873  23.093  33.331  1.00  0.00    -0.550 OA
ENDBRANCH   2   3
ENDBRANCH   1   2
BRANCH   1   6
ATOM      6  C   UNL     1       8.217  20.086  29.611  1.00  0.00     0.000 C 
BRANCH   6   7
ATOM      7  C   UNL     1       8.834  19.247  30.750  1.00  0.00    -0.003 C 
ATOM      8  C   UNL     1       9.666  18.076  30.231  1.00  0.00     0.004 C 
ENDBRANCH   6   7
ENDBRANCH   1   6
TORSDOF 4
ENDMDL
MODEL 2
REMARK VINA RESULT:    -3.763      4.387      5.389
REMARK INTER + INTRA:          -4.767
REMARK INTER:                  -4.639
REMARK INTRA:                  -0.128
REMARK UNBOUND:                -0.124
REMARK SMILES CCCCCC(=O)[O-]
REMARK SMILES IDX 4 1 5 2 6 3 7 4 8 5 3 6 2 7 1 8
REMARK H PARENT
REMARK Flexibility Score: inf
ROOT
ATOM      1  C   UNL     1       9.538  18.482  33.512  1.00  0.00     0.006 C 
ENDROOT
BRANCH   1   2
ATOM      2  C   UNL     1       9.882  17.094  34.070  1.00  0.00     0.053 C 
BRANCH   2   3
ATOM      3  C   UNL     1       9.187  16.826  35.370  1.00  0.00     0.041 C 
ATOM      4  O   UNL     1       7.929  16.818  35.426  1.00  0.00    -0.550 OA
ATOM      5  O   UNL     1       9.926  16.562  36.516  1.00  0.00    -0.550 OA
ENDBRANCH   2   3
ENDBRANCH   1   2
BRANCH   1   6
ATOM      6  C   UNL     1       8.536  18.458  32.343  1.00  0.00     0.000 C 
BRANCH   6   7
ATOM      7  C   UNL     1       9.142  18.923  31.002  1.00  0.00    -0.003 C 
ATOM      8  C   UNL     1       9.877  17.800  30.272  1.00  0.00     0.004 C 
ENDBRANCH   6   7
ENDBRANCH   1   6
TORSDOF 4
ENDMDL
MODEL 3
REMARK VINA RESULT:    -3.735      2.839      4.058
REMARK INTER + INTRA:          -4.732
REMARK INTER:                  -4.635
REMARK INTRA:                  -0.097
REMARK UNBOUND:                -0.124
REMARK SMILES CCCCCC(=O)[O-]
REMARK SMILES IDX 4 1 5 2 6 3 7 4 8 5 3 6 2 7 1 8
REMARK H PARENT
REMARK Flexibility Score: inf
ROOT
ATOM      1  C   UNL     1       8.326  20.022  29.759  1.00  0.00     0.006 C 
ENDROOT
BRANCH   1   2
ATOM      2  C   UNL     1       8.691  19.452  31.137  1.00  0.00     0.053 C 
BRANCH   2   3
ATOM      3  C   UNL     1       9.583  18.253  31.027  1.00  0.00     0.041 C 
ATOM      4  O   UNL     1       9.962  17.847  29.897  1.00  0.00    -0.550 OA
ATOM      5  O   UNL     1      10.016  17.598  32.173  1.00  0.00    -0.550 OA
ENDBRANCH   2   3
ENDBRANCH   1   2
BRANCH   1   6
ATOM      6  C   UNL     1       7.985  21.524  29.772  1.00  0.00     0.000 C 
BRANCH   6   7
ATOM      7  C   UNL     1       8.039  22.157  31.179  1.00  0.00    -0.003 C 
ATOM      8  C   UNL     1       9.268  23.045  31.374  1.00  0.00     0.004 C 
ENDBRANCH   6   7
ENDBRANCH   1   6
TORSDOF 4
ENDMDL
MODEL 4
REMARK VINA RESULT:    -3.712      3.977      4.758
REMARK INTER + INTRA:          -4.703
REMARK INTER:                  -4.634
REMARK INTRA:                  -0.069
REMARK UNBOUND:                -0.124
REMARK SMILES CCCCCC(=O)[O-]
REMARK SMILES IDX 4 1 5 2 6 3 7 4 8 5 3 6 2 7 1 8
REMARK H PARENT
REMARK Flexibility Score: inf
ROOT
ATOM      1  C   UNL     1       8.458  18.356  33.013  1.00  0.00     0.006 C 
ENDROOT
BRANCH   1   2
ATOM      2  C   UNL     1       7.963  18.859  34.376  1.00  0.00     0.053 C 
BRANCH   2   3
ATOM      3  C   UNL     1       8.339  17.926  35.486  1.00  0.00     0.041 C 
ATOM      4  O   UNL     1       8.763  18.381  36.580  1.00  0.00    -0.550 OA
ATOM      5  O   UNL     1       8.200  16.553  35.322  1.00  0.00    -0.550 OA
ENDBRANCH   2   3
ENDBRANCH   1   2
BRANCH   1   6
ATOM      6  C   UNL     1       8.673  19.472  31.973  1.00  0.00     0.000 C 
BRANCH   6   7
ATOM      7  C   UNL     1       8.997  18.944  30.559  1.00  0.00    -0.003 C 
ATOM      8  C   UNL     1       9.822  17.659  30.590  1.00  0.00     0.004 C 
ENDBRANCH   6   7
ENDBRANCH   1   6
TORSDOF 4
ENDMDL
MODEL 5
REMARK VINA RESULT:    -3.708      3.008      4.152
REMARK INTER + INTRA:          -4.699
REMARK INTER:                  -4.560
REMARK INTRA:                  -0.139
REMARK UNBOUND:                -0.124
REMARK SMILES CCCCCC(=O)[O-]
REMARK SMILES IDX 4 1 5 2 6 3 7 4 8 5 3 6 2 7 1 8
REMARK H PARENT
REMARK Flexibility Score: inf
ROOT
ATOM      1  C   UNL     1       9.171  20.506  31.698  1.00  0.00     0.006 C 
ENDROOT
BRANCH   1   2
ATOM      2  C   UNL     1       8.665  19.108  32.080  1.00  0.00     0.053 C 
BRANCH   2   3
ATOM      3  C   UNL     1       9.538  18.026  31.524  1.00  0.00     0.041 C 
ATOM      4  O   UNL     1       9.987  17.124  32.279  1.00  0.00    -0.550 OA
ATOM      5  O   UNL     1       9.839  17.998  30.168  1.00  0.00    -0.550 OA
ENDBRANCH   2   3
ENDBRANCH   1   2
BRANCH   1   6
ATOM      6  C   UNL     1       8.051  21.517  31.390  1.00  0.00     0.000 C 
BRANCH   6   7
ATOM      7  C   UNL     1       8.011  21.962  29.912  1.00  0.00    -0.003 C 
ATOM      8  C   UNL     1       7.896  20.781  28.949  1.00  0.00     0.004 C 
ENDBRANCH   6   7
ENDBRANCH   1   6
TORSDOF 4
ENDMDL
MODEL 6
REMARK VINA RESULT:    -3.679      1.972      2.678
REMARK INTER + INTRA:          -4.663
REMARK INTER:                  -4.440
REMARK INTRA:                  -0.223
REMARK UNBOUND:                -0.124
REMARK SMILES CCCCCC(=O)[O-]
REMARK SMILES IDX 4 1 5 2 6 3 7 4 8 5 3 6 2 7 1 8
REMARK H PARENT
REMARK Flexibility Score: inf
ROOT
ATOM      1  C   UNL     1       8.663  19.769  33.112  1.00  0.00     0.006 C 
ENDROOT
BRANCH   1   2
ATOM      2  C   UNL     1       9.362  20.829  32.249  1.00  0.00     0.053 C 
BRANCH   2   3
ATOM      3  C   UNL     1       8.413  21.489  31.296  1.00  0.00     0.041 C 
ATOM      4  O   UNL     1       7.875  22.587  31.596  1.00  0.00    -0.550 OA
ATOM      5  O   UNL     1       8.139  20.905  30.066  1.00  0.00    -0.550 OA
ENDBRANCH   2   3
ENDBRANCH   1   2
BRANCH   1   6
ATOM      6  C   UNL     1       8.723  18.345  32.527  1.00  0.00     0.000 C 
BRANCH   6   7
ATOM      7  C   UNL     1      10.027  18.050  31.755  1.00  0.00    -0.003 C 
ATOM      8  C   UNL     1       9.780  17.778  30.272  1.00  0.00     0.004 C 
ENDBRANCH   6   7
ENDBRANCH   1   6
TORSDOF 4
ENDMDL
MODEL 7
REMARK VINA RESULT:    -3.527      2.827      4.092
REMARK INTER + INTRA:          -4.475
REMARK INTER:                  -4.315
REMARK INTRA:                  -0.160
REMARK UNBOUND:                -0.124
REMARK SMILES CCCCCC(=O)[O-]
REMARK SMILES IDX 4 1 5 2 6 3 7 4 8 5 3 6 2 7 1 8
REMARK H PARENT
REMARK Flexibility Score: inf
ROOT
ATOM      1  C   UNL     1      10.125  18.263  32.437  1.00  0.00     0.006 C 
ENDROOT
BRANCH   1   2
ATOM      2  C   UNL     1       9.327  17.776  33.655  1.00  0.00     0.053 C 
BRANCH   2   3
ATOM      3  C   UNL     1       8.537  18.883  34.284  1.00  0.00     0.041 C 
ATOM      4  O   UNL     1       7.973  18.705  35.396  1.00  0.00    -0.550 OA
ATOM      5  O   UNL     1       8.443  20.119  33.657  1.00  0.00    -0.550 OA
ENDBRANCH   2   3
ENDBRANCH   1   2
BRANCH   1   6
ATOM      6  C   UNL     1       9.915  17.414  31.169  1.00  0.00     0.000 C 
BRANCH   6   7
ATOM      7  C   UNL     1       9.548  18.247  29.922  1.00  0.00    -0.003 C 
ATOM      8  C   UNL     1       8.699  19.469  30.265  1.00  0.00     0.004 C 
ENDBRANCH   6   7
ENDBRANCH   1   6
TORSDOF 4
ENDMDL
MODEL 8
REMARK VINA RESULT:    -1.905      2.930      4.184
REMARK INTER + INTRA:          -2.474
REMARK INTER:                  -2.387
REMARK INTRA:                  -0.087
REMARK UNBOUND:                -0.124
REMARK SMILES CCCCCC(=O)[O-]
REMARK SMILES IDX 4 1 5 2 6 3 7 4 8 5 3 6 2 7 1 8
REMARK H PARENT
REMARK Flexibility Score: inf
ROOT
ATOM      1  C   UNL     1       8.624  19.689  30.525  1.00  0.00     0.006 C 
ENDROOT
BRANCH   1   2
ATOM      2  C   UNL     1       9.444  18.424  30.818  1.00  0.00     0.053 C 
BRANCH   2   3
ATOM      3  C   UNL     1       9.271  17.961  32.232  1.00  0.00     0.041 C 
ATOM      4  O   UNL     1       8.334  18.418  32.938  1.00  0.00    -0.550 OA
ATOM      5  O   UNL     1      10.128  17.006  32.764  1.00  0.00    -0.550 OA
ENDBRANCH   2   3
ENDBRANCH   1   2
BRANCH   1   6
ATOM      6  C   UNL     1       8.295  19.892  29.034  1.00  0.00     0.000 C 
BRANCH   6   7
ATOM      7  C   UNL     1       7.875  21.336  28.687  1.00  0.00    -0.003 C 
ATOM      8  C   UNL     1       7.877  22.256  29.907  1.00  0.00     0.004 C 
ENDBRANCH   6   7
ENDBRANCH   1   6
TORSDOF 4
ENDMDL
