MODEL 1
REMARK VINA RESULT:    -5.083      0.000      0.000
REMARK INTER + INTRA:          -9.772
REMARK INTER:                  -7.906
REMARK INTRA:                  -1.866
REMARK UNBOUND:                -1.866
REMARK SMILES COc1cc(CNC(=O)CCCCC=CC(C)C)ccc1O
REMARK SMILES IDX 11 1 12 2 13 3 14 4 15 5 16 6 17 7 18 8 10 9 8 10 9 11 7 12
REMARK SMILES IDX 6 14 5 15 4 16 19 17 3 18 20 19 21 20 2 21 1 22 22 23
REMARK H PARENT 7 13 22 24
REMARK Flexibility Score: inf
ROOT
ATOM      1  C   UNL     1    -105.121  41.152 328.126  1.00  0.00     0.010 C 
ENDROOT
BRANCH   1   2
ATOM      2  C   UNL     1    -105.376  40.107 327.021  1.00  0.00     0.005 C 
BRANCH   2   3
ATOM      3  C   UNL     1    -104.827  38.702 327.334  1.00  0.00     0.027 C 
BRANCH   3   4
ATOM      4  C   UNL     1    -104.749  37.810 326.118  1.00  0.00    -0.031 C 
ATOM      5  C   UNL     1    -105.145  36.524 326.070  1.00  0.00    -0.028 C 
BRANCH   5   6
ATOM      6  C   UNL     1    -105.733  35.742 327.223  1.00  0.00     0.005 C 
ATOM      7  C   UNL     1    -107.228  35.514 326.981  1.00  0.00     0.012 C 
ATOM      8  C   UNL     1    -105.004  34.405 327.366  1.00  0.00     0.012 C 
ENDBRANCH   5   6
ENDBRANCH   3   4
ENDBRANCH   2   3
ENDBRANCH   1   2
BRANCH   1   9
ATOM      9  C   UNL     1    -103.872  42.019 327.902  1.00  0.00     0.100 C 
BRANCH   9  10
ATOM     10  C   UNL     1    -102.605  41.252 328.150  1.00  0.00     0.220 C 
ATOM     11  O   UNL     1    -102.368  40.809 329.308  1.00  0.00    -0.275 OA
ATOM     12  N   UNL     1    -101.683  41.012 327.077  1.00  0.00    -0.352 N 
ATOM     13  H   UNL     1    -101.880  41.416 326.136  1.00  0.00     0.163 HD
BRANCH  12  14
ATOM     14  C   UNL     1    -100.492  40.183 327.238  1.00  0.00     0.151 C 
BRANCH  14  15
ATOM     15  C   UNL     1    -100.818  38.734 326.996  1.00  0.00    -0.025 A 
ATOM     16  C   UNL     1    -101.062  38.278 325.692  1.00  0.00     0.056 A 
ATOM     17  C   UNL     1    -100.879  37.831 328.066  1.00  0.00     0.009 A 
ATOM     18  C   UNL     1    -101.368  36.924 325.454  1.00  0.00     0.160 A 
ATOM     19  C   UNL     1    -101.185  36.489 327.836  1.00  0.00     0.050 A 
ATOM     20  C   UNL     1    -101.432  36.035 326.534  1.00  0.00     0.157 A 
BRANCH  18  21
ATOM     21  O   UNL     1    -101.614  36.430 324.164  1.00  0.00    -0.493 OA
ATOM     22  C   UNL     1    -102.569  36.977 323.261  1.00  0.00     0.278 C 
ENDBRANCH  18  21
BRANCH  20  23
ATOM     23  O   UNL     1    -101.742  34.695 326.305  1.00  0.00    -0.504 OA
ATOM     24  H   UNL     1    -101.026  33.978 326.305  1.00  0.00     0.293 HD
ENDBRANCH  20  23
ENDBRANCH  14  15
ENDBRANCH  12  14
ENDBRANCH   9  10
ENDBRANCH   1   9
TORSDOF 10
ENDMDL
MODEL 2
REMARK VINA RESULT:    -5.006      2.200      4.924
REMARK INTER + INTRA:          -9.653
REMARK INTER:                  -7.300
REMARK INTRA:                  -2.353
REMARK UNBOUND:                -1.866
REMARK SMILES COc1cc(CNC(=O)CCCCC=CC(C)C)ccc1O
REMARK SMILES IDX 11 1 12 2 13 3 14 4 15 5 16 6 17 7 18 8 10 9 8 10 9 11 7 12
REMARK SMILES IDX 6 14 5 15 4 16 19 17 3 18 20 19 21 20 2 21 1 22 22 23
REMARK H PARENT 7 13 22 24
REMARK Flexibility Score: inf
ROOT
ATOM      1  C   UNL     1    -106.291  35.243 328.063  1.00  0.00     0.010 C 
ENDROOT
BRANCH   1   2
ATOM      2  C   UNL     1    -107.180  35.638 326.866  1.00  0.00     0.005 C 
BRANCH   2   3
ATOM      3  C   UNL     1    -106.891  37.039 326.293  1.00  0.00     0.027 C 
BRANCH   3   4
ATOM      4  C   UNL     1    -105.466  37.204 325.821  1.00  0.00    -0.031 C 
ATOM      5  C   UNL     1    -104.553  38.026 326.374  1.00  0.00    -0.028 C 
BRANCH   5   6
ATOM      6  C   UNL     1    -104.793  38.931 327.562  1.00  0.00     0.005 C 
ATOM      7  C   UNL     1    -104.383  38.211 328.850  1.00  0.00     0.012 C 
ATOM      8  C   UNL     1    -103.993  40.224 327.395  1.00  0.00     0.012 C 
ENDBRANCH   5   6
ENDBRANCH   3   4
ENDBRANCH   2   3
ENDBRANCH   1   2
BRANCH   1   9
ATOM      9  C   UNL     1    -105.397  34.019 327.811  1.00  0.00     0.100 C 
BRANCH   9  10
ATOM     10  C   UNL     1    -103.948  34.320 328.070  1.00  0.00     0.220 C 
ATOM     11  O   UNL     1    -103.486  34.178 329.235  1.00  0.00    -0.275 OA
ATOM     12  N   UNL     1    -103.096  34.749 326.998  1.00  0.00    -0.352 N 
ATOM     13  H   UNL     1    -103.505  34.895 326.049  1.00  0.00     0.163 HD
BRANCH  12  14
ATOM     14  C   UNL     1    -101.660  34.953 327.171  1.00  0.00     0.151 C 
BRANCH  14  15
ATOM     15  C   UNL     1    -101.290  36.382 326.886  1.00  0.00    -0.025 A 
ATOM     16  C   UNL     1    -100.940  37.241 327.938  1.00  0.00     0.056 A 
ATOM     17  C   UNL     1    -101.289  36.867 325.570  1.00  0.00     0.009 A 
ATOM     18  C   UNL     1    -100.592  38.581 327.683  1.00  0.00     0.160 A 
ATOM     19  C   UNL     1    -100.948  38.195 325.312  1.00  0.00     0.050 A 
ATOM     20  C   UNL     1    -100.602  39.053 326.364  1.00  0.00     0.157 A 
BRANCH  18  21
ATOM     21  O   UNL     1    -100.233  39.468 328.709  1.00  0.00    -0.493 OA
ATOM     22  C   UNL     1    -101.104  39.886 329.754  1.00  0.00     0.278 C 
ENDBRANCH  18  21
BRANCH  20  23
ATOM     23  O   UNL     1    -100.266  40.381 326.106  1.00  0.00    -0.504 OA
ATOM     24  H   UNL     1    -100.976  41.091 325.969  1.00  0.00     0.293 HD
ENDBRANCH  20  23
ENDBRANCH  14  15
ENDBRANCH  12  14
ENDBRANCH   9  10
ENDBRANCH   1   9
TORSDOF 10
ENDMDL
MODEL 3
REMARK VINA RESULT:    -4.965      2.240      4.804
REMARK INTER + INTRA:          -9.588
REMARK INTER:                  -7.753
REMARK INTRA:                  -1.835
REMARK UNBOUND:                -1.866
REMARK SMILES COc1cc(CNC(=O)CCCCC=CC(C)C)ccc1O
REMARK SMILES IDX 11 1 12 2 13 3 14 4 15 5 16 6 17 7 18 8 10 9 8 10 9 11 7 12
REMARK SMILES IDX 6 14 5 15 4 16 19 17 3 18 20 19 21 20 2 21 1 22 22 23
REMARK H PARENT 7 13 22 24
REMARK Flexibility Score: inf
ROOT
ATOM      1  C   UNL     1    -105.895  40.453 328.829  1.00  0.00     0.010 C 
ENDROOT
BRANCH   1   2
ATOM      2  C   UNL     1    -105.059  41.691 328.446  1.00  0.00     0.005 C 
BRANCH   2   3
ATOM      3  C   UNL     1    -103.862  41.392 327.524  1.00  0.00     0.027 C 
BRANCH   3   4
ATOM      4  C   UNL     1    -103.315  39.995 327.695  1.00  0.00    -0.031 C 
ATOM      5  C   UNL     1    -102.021  39.645 327.572  1.00  0.00    -0.028 C 
BRANCH   5   6
ATOM      6  C   UNL     1    -100.886  40.587 327.236  1.00  0.00     0.005 C 
ATOM      7  C   UNL     1    -100.194  41.039 328.526  1.00  0.00     0.012 C 
ATOM      8  C   UNL     1     -99.889  39.885 326.313  1.00  0.00     0.012 C 
ENDBRANCH   5   6
ENDBRANCH   3   4
ENDBRANCH   2   3
ENDBRANCH   1   2
BRANCH   1   9
ATOM      9  C   UNL     1    -107.097  40.190 327.908  1.00  0.00     0.100 C 
BRANCH   9  10
ATOM     10  C   UNL     1    -106.898  38.963 327.064  1.00  0.00     0.220 C 
ATOM     11  O   UNL     1    -107.335  38.950 325.880  1.00  0.00    -0.275 OA
ATOM     12  N   UNL     1    -106.202  37.826 327.594  1.00  0.00    -0.352 N 
ATOM     13  H   UNL     1    -105.879  37.843 328.586  1.00  0.00     0.163 HD
BRANCH  12  14
ATOM     14  C   UNL     1    -105.888  36.651 326.784  1.00  0.00     0.151 C 
BRANCH  14  15
ATOM     15  C   UNL     1    -104.440  36.660 326.378  1.00  0.00    -0.025 A 
ATOM     16  C   UNL     1    -103.462  36.160 327.250  1.00  0.00     0.056 A 
ATOM     17  C   UNL     1    -104.055  37.165 325.127  1.00  0.00     0.009 A 
ATOM     18  C   UNL     1    -102.104  36.164 326.881  1.00  0.00     0.160 A 
ATOM     19  C   UNL     1    -102.711  37.173 324.757  1.00  0.00     0.050 A 
ATOM     20  C   UNL     1    -101.734  36.677 325.631  1.00  0.00     0.157 A 
BRANCH  18  21
ATOM     21  O   UNL     1    -101.098  35.669 327.725  1.00  0.00    -0.493 OA
ATOM     22  C   UNL     1    -101.339  34.929 328.916  1.00  0.00     0.278 C 
ENDBRANCH  18  21
BRANCH  20  23
ATOM     23  O   UNL     1    -100.390  36.690 325.262  1.00  0.00    -0.504 OA
ATOM     24  H   UNL     1     -99.964  37.506 324.837  1.00  0.00     0.293 HD
ENDBRANCH  20  23
ENDBRANCH  14  15
ENDBRANCH  12  14
ENDBRANCH   9  10
ENDBRANCH   1   9
TORSDOF 10
ENDMDL
MODEL 4
REMARK VINA RESULT:    -4.936      2.134      6.839
REMARK INTER + INTRA:          -9.543
REMARK INTER:                  -8.013
REMARK INTRA:                  -1.530
REMARK UNBOUND:                -1.866
REMARK SMILES COc1cc(CNC(=O)CCCCC=CC(C)C)ccc1O
REMARK SMILES IDX 11 1 12 2 13 3 14 4 15 5 16 6 17 7 18 8 10 9 8 10 9 11 7 12
REMARK SMILES IDX 6 14 5 15 4 16 19 17 3 18 20 19 21 20 2 21 1 22 22 23
REMARK H PARENT 7 13 22 24
REMARK Flexibility Score: inf
ROOT
ATOM      1  C   UNL     1    -102.142  37.237 324.278  1.00  0.00     0.010 C 
ENDROOT
BRANCH   1   2
ATOM      2  C   UNL     1    -101.164  36.847 325.405  1.00  0.00     0.005 C 
BRANCH   2   3
ATOM      3  C   UNL     1    -101.040  37.892 326.530  1.00  0.00     0.027 C 
BRANCH   3   4
ATOM      4  C   UNL     1    -100.576  39.242 326.039  1.00  0.00    -0.031 C 
ATOM      5  C   UNL     1     -99.978  40.182 326.796  1.00  0.00    -0.028 C 
BRANCH   5   6
ATOM      6  C   UNL     1     -99.668  40.055 328.271  1.00  0.00     0.005 C 
ATOM      7  C   UNL     1     -98.151  40.055 328.481  1.00  0.00     0.012 C 
ATOM      8  C   UNL     1    -100.314  41.213 329.034  1.00  0.00     0.012 C 
ENDBRANCH   5   6
ENDBRANCH   3   4
ENDBRANCH   2   3
ENDBRANCH   1   2
BRANCH   1   9
ATOM      9  C   UNL     1    -103.479  36.479 324.308  1.00  0.00     0.100 C 
BRANCH   9  10
ATOM     10  C   UNL     1    -104.240  36.737 325.577  1.00  0.00     0.220 C 
ATOM     11  O   UNL     1    -104.435  35.788 326.385  1.00  0.00    -0.275 OA
ATOM     12  N   UNL     1    -104.726  38.054 325.874  1.00  0.00    -0.352 N 
ATOM     13  H   UNL     1    -104.586  38.818 325.177  1.00  0.00     0.163 HD
BRANCH  12  14
ATOM     14  C   UNL     1    -105.378  38.383 327.139  1.00  0.00     0.151 C 
BRANCH  14  15
ATOM     15  C   UNL     1    -105.051  39.792 327.552  1.00  0.00    -0.025 A 
ATOM     16  C   UNL     1    -105.982  40.543 328.286  1.00  0.00     0.056 A 
ATOM     17  C   UNL     1    -103.818  40.365 327.211  1.00  0.00     0.009 A 
ATOM     18  C   UNL     1    -105.687  41.862 328.678  1.00  0.00     0.160 A 
ATOM     19  C   UNL     1    -103.522  41.673 327.594  1.00  0.00     0.050 A 
ATOM     20  C   UNL     1    -104.453  42.424 328.323  1.00  0.00     0.157 A 
BRANCH  18  21
ATOM     21  O   UNL     1    -106.591  42.642 329.415  1.00  0.00    -0.493 OA
ATOM     22  C   UNL     1    -107.746  43.269 328.869  1.00  0.00     0.278 C 
ENDBRANCH  18  21
BRANCH  20  23
ATOM     23  O   UNL     1    -104.159  43.733 328.702  1.00  0.00    -0.504 OA
ATOM     24  H   UNL     1    -103.595  43.934 329.520  1.00  0.00     0.293 HD
ENDBRANCH  20  23
ENDBRANCH  14  15
ENDBRANCH  12  14
ENDBRANCH   9  10
ENDBRANCH   1   9
TORSDOF 10
ENDMDL
MODEL 5
REMARK VINA RESULT:    -4.923      1.107      2.228
REMARK INTER + INTRA:          -9.522
REMARK INTER:                  -7.630
REMARK INTRA:                  -1.892
REMARK UNBOUND:                -1.866
REMARK SMILES COc1cc(CNC(=O)CCCCC=CC(C)C)ccc1O
REMARK SMILES IDX 11 1 12 2 13 3 14 4 15 5 16 6 17 7 18 8 10 9 8 10 9 11 7 12
REMARK SMILES IDX 6 14 5 15 4 16 19 17 3 18 20 19 21 20 2 21 1 22 22 23
REMARK H PARENT 7 13 22 24
REMARK Flexibility Score: inf
ROOT
ATOM      1  C   UNL     1    -104.233  41.654 327.737  1.00  0.00     0.010 C 
ENDROOT
BRANCH   1   2
ATOM      2  C   UNL     1    -105.232  40.618 328.290  1.00  0.00     0.005 C 
BRANCH   2   3
ATOM      3  C   UNL     1    -104.765  39.155 328.167  1.00  0.00     0.027 C 
BRANCH   3   4
ATOM      4  C   UNL     1    -104.537  38.722 326.738  1.00  0.00    -0.031 C 
ATOM      5  C   UNL     1    -105.104  37.653 326.148  1.00  0.00    -0.028 C 
BRANCH   5   6
ATOM      6  C   UNL     1    -106.068  36.694 326.811  1.00  0.00     0.005 C 
ATOM      7  C   UNL     1    -107.332  36.561 325.956  1.00  0.00     0.012 C 
ATOM      8  C   UNL     1    -105.398  35.330 326.989  1.00  0.00     0.012 C 
ENDBRANCH   5   6
ENDBRANCH   3   4
ENDBRANCH   2   3
ENDBRANCH   1   2
BRANCH   1   9
ATOM      9  C   UNL     1    -103.065  41.975 328.683  1.00  0.00     0.100 C 
BRANCH   9  10
ATOM     10  C   UNL     1    -101.826  41.203 328.327  1.00  0.00     0.220 C 
ATOM     11  O   UNL     1    -101.017  40.877 329.238  1.00  0.00    -0.275 OA
ATOM     12  N   UNL     1    -101.576  40.826 326.965  1.00  0.00    -0.352 N 
ATOM     13  H   UNL     1    -102.239  41.135 326.220  1.00  0.00     0.163 HD
BRANCH  12  14
ATOM     14  C   UNL     1    -100.446  39.986 326.579  1.00  0.00     0.151 C 
BRANCH  14  15
ATOM     15  C   UNL     1    -100.846  38.536 326.559  1.00  0.00    -0.025 A 
ATOM     16  C   UNL     1    -100.841  37.790 327.747  1.00  0.00     0.056 A 
ATOM     17  C   UNL     1    -101.230  37.920 325.360  1.00  0.00     0.009 A 
ATOM     18  C   UNL     1    -101.214  36.432 327.741  1.00  0.00     0.160 A 
ATOM     19  C   UNL     1    -101.597  36.575 325.347  1.00  0.00     0.050 A 
ATOM     20  C   UNL     1    -101.588  35.829 326.533  1.00  0.00     0.157 A 
BRANCH  18  21
ATOM     21  O   UNL     1    -101.224  35.655 328.909  1.00  0.00    -0.493 OA
ATOM     22  C   UNL     1    -102.186  35.780 329.951  1.00  0.00     0.278 C 
ENDBRANCH  18  21
BRANCH  20  23
ATOM     23  O   UNL     1    -101.951  34.483 326.520  1.00  0.00    -0.504 OA
ATOM     24  H   UNL     1    -102.924  34.196 326.538  1.00  0.00     0.293 HD
ENDBRANCH  20  23
ENDBRANCH  14  15
ENDBRANCH  12  14
ENDBRANCH   9  10
ENDBRANCH   1   9
TORSDOF 10
ENDMDL
MODEL 6
REMARK VINA RESULT:    -4.874      3.315      6.082
REMARK INTER + INTRA:          -9.446
REMARK INTER:                  -8.113
REMARK INTRA:                  -1.334
REMARK UNBOUND:                -1.866
REMARK SMILES COc1cc(CNC(=O)CCCCC=CC(C)C)ccc1O
REMARK SMILES IDX 11 1 12 2 13 3 14 4 15 5 16 6 17 7 18 8 10 9 8 10 9 11 7 12
REMARK SMILES IDX 6 14 5 15 4 16 19 17 3 18 20 19 21 20 2 21 1 22 22 23
REMARK H PARENT 7 13 22 24
REMARK Flexibility Score: inf
ROOT
ATOM      1  C   UNL     1    -100.977  37.185 325.834  1.00  0.00     0.010 C 
ENDROOT
BRANCH   1   2
ATOM      2  C   UNL     1    -101.574  36.443 324.622  1.00  0.00     0.005 C 
BRANCH   2   3
ATOM      3  C   UNL     1    -102.853  37.083 324.050  1.00  0.00     0.027 C 
BRANCH   3   4
ATOM      4  C   UNL     1    -104.120  36.509 324.640  1.00  0.00    -0.031 C 
ATOM      5  C   UNL     1    -104.815  37.044 325.661  1.00  0.00    -0.028 C 
BRANCH   5   6
ATOM      6  C   UNL     1    -104.452  38.312 326.401  1.00  0.00     0.005 C 
ATOM      7  C   UNL     1    -105.638  39.280 326.379  1.00  0.00     0.012 C 
ATOM      8  C   UNL     1    -104.064  37.975 327.842  1.00  0.00     0.012 C 
ENDBRANCH   5   6
ENDBRANCH   3   4
ENDBRANCH   2   3
ENDBRANCH   1   2
BRANCH   1   9
ATOM      9  C   UNL     1    -100.757  38.690 325.610  1.00  0.00     0.100 C 
BRANCH   9  10
ATOM     10  C   UNL     1    -100.892  39.472 326.886  1.00  0.00     0.220 C 
ATOM     11  O   UNL     1    -101.533  40.559 326.879  1.00  0.00    -0.275 OA
ATOM     12  N   UNL     1    -100.312  38.979 328.102  1.00  0.00    -0.352 N 
ATOM     13  H   UNL     1     -99.756  38.096 328.080  1.00  0.00     0.163 HD
BRANCH  12  14
ATOM     14  C   UNL     1    -100.504  39.644 329.388  1.00  0.00     0.151 C 
BRANCH  14  15
ATOM     15  C   UNL     1     -99.303  40.479 329.736  1.00  0.00    -0.025 A 
ATOM     16  C   UNL     1     -99.455  41.646 330.498  1.00  0.00     0.056 A 
ATOM     17  C   UNL     1     -98.024  40.099 329.305  1.00  0.00     0.009 A 
ATOM     18  C   UNL     1     -98.338  42.436 330.830  1.00  0.00     0.160 A 
ATOM     19  C   UNL     1     -96.913  40.879 329.628  1.00  0.00     0.050 A 
ATOM     20  C   UNL     1     -97.067  42.047 330.386  1.00  0.00     0.157 A 
BRANCH  18  21
ATOM     21  O   UNL     1     -98.452  43.608 331.593  1.00  0.00    -0.493 OA
ATOM     22  C   UNL     1     -99.181  43.709 332.811  1.00  0.00     0.278 C 
ENDBRANCH  18  21
BRANCH  20  23
ATOM     23  O   UNL     1     -95.958  42.830 330.705  1.00  0.00    -0.504 OA
ATOM     24  H   UNL     1     -95.035  42.612 330.347  1.00  0.00     0.293 HD
ENDBRANCH  20  23
ENDBRANCH  14  15
ENDBRANCH  12  14
ENDBRANCH   9  10
ENDBRANCH   1   9
TORSDOF 10
ENDMDL
MODEL 7
REMARK VINA RESULT:    -4.861      2.743      5.167
REMARK INTER + INTRA:          -9.427
REMARK INTER:                  -7.417
REMARK INTRA:                  -2.010
REMARK UNBOUND:                -1.866
REMARK SMILES COc1cc(CNC(=O)CCCCC=CC(C)C)ccc1O
REMARK SMILES IDX 11 1 12 2 13 3 14 4 15 5 16 6 17 7 18 8 10 9 8 10 9 11 7 12
REMARK SMILES IDX 6 14 5 15 4 16 19 17 3 18 20 19 21 20 2 21 1 22 22 23
REMARK H PARENT 7 13 22 24
REMARK Flexibility Score: inf
ROOT
ATOM      1  C   UNL     1    -101.026  37.479 325.647  1.00  0.00     0.010 C 
ENDROOT
BRANCH   1   2
ATOM      2  C   UNL     1    -101.676  37.232 324.270  1.00  0.00     0.005 C 
BRANCH   2   3
ATOM      3  C   UNL     1    -102.842  36.225 324.287  1.00  0.00     0.027 C 
BRANCH   3   4
ATOM      4  C   UNL     1    -104.079  36.761 324.968  1.00  0.00    -0.031 C 
ATOM      5  C   UNL     1    -104.596  36.296 326.121  1.00  0.00    -0.028 C 
BRANCH   5   6
ATOM      6  C   UNL     1    -104.033  35.155 326.939  1.00  0.00     0.005 C 
ATOM      7  C   UNL     1    -103.318  35.710 328.174  1.00  0.00     0.012 C 
ATOM      8  C   UNL     1    -105.163  34.212 327.354  1.00  0.00     0.012 C 
ENDBRANCH   5   6
ENDBRANCH   3   4
ENDBRANCH   2   3
ENDBRANCH   1   2
BRANCH   1   9
ATOM      9  C   UNL     1    -100.550  38.923 325.872  1.00  0.00     0.100 C 
BRANCH   9  10
ATOM     10  C   UNL     1    -101.427  39.658 326.845  1.00  0.00     0.220 C 
ATOM     11  O   UNL     1    -101.181  40.867 327.107  1.00  0.00    -0.275 OA
ATOM     12  N   UNL     1    -102.544  38.995 327.455  1.00  0.00    -0.352 N 
ATOM     13  H   UNL     1    -102.710  37.985 327.252  1.00  0.00     0.163 HD
BRANCH  12  14
ATOM     14  C   UNL     1    -103.490  39.691 328.324  1.00  0.00     0.151 C 
BRANCH  14  15
ATOM     15  C   UNL     1    -104.904  39.332 327.960  1.00  0.00    -0.025 A 
ATOM     16  C   UNL     1    -105.699  38.608 328.861  1.00  0.00     0.056 A 
ATOM     17  C   UNL     1    -105.440  39.719 326.724  1.00  0.00     0.009 A 
ATOM     18  C   UNL     1    -107.025  38.267 328.531  1.00  0.00     0.160 A 
ATOM     19  C   UNL     1    -106.752  39.381 326.390  1.00  0.00     0.050 A 
ATOM     20  C   UNL     1    -107.544  38.654 327.289  1.00  0.00     0.157 A 
BRANCH  18  21
ATOM     21  O   UNL     1    -107.851  37.546 329.407  1.00  0.00    -0.493 OA
ATOM     22  C   UNL     1    -108.609  38.129 330.461  1.00  0.00     0.278 C 
ENDBRANCH  18  21
BRANCH  20  23
ATOM     23  O   UNL     1    -108.854  38.312 326.954  1.00  0.00    -0.504 OA
ATOM     24  H   UNL     1    -109.383  38.846 326.274  1.00  0.00     0.293 HD
ENDBRANCH  20  23
ENDBRANCH  14  15
ENDBRANCH  12  14
ENDBRANCH   9  10
ENDBRANCH   1   9
TORSDOF 10
ENDMDL
MODEL 8
REMARK VINA RESULT:    -4.728      1.949      5.294
REMARK INTER + INTRA:          -9.220
REMARK INTER:                  -7.350
REMARK INTRA:                  -1.870
REMARK UNBOUND:                -1.866
REMARK SMILES COc1cc(CNC(=O)CCCCC=CC(C)C)ccc1O
REMARK SMILES IDX 11 1 12 2 13 3 14 4 15 5 16 6 17 7 18 8 10 9 8 10 9 11 7 12
REMARK SMILES IDX 6 14 5 15 4 16 19 17 3 18 20 19 21 20 2 21 1 22 22 23
REMARK H PARENT 7 13 22 24
REMARK Flexibility Score: inf
ROOT
ATOM      1  C   UNL     1    -103.504  36.656 324.174  1.00  0.00     0.010 C 
ENDROOT
BRANCH   1   2
ATOM      2  C   UNL     1    -104.137  37.456 325.331  1.00  0.00     0.005 C 
BRANCH   2   3
ATOM      3  C   UNL     1    -105.044  36.625 326.258  1.00  0.00     0.027 C 
BRANCH   3   4
ATOM      4  C   UNL     1    -104.323  35.477 326.923  1.00  0.00    -0.031 C 
ATOM      5  C   UNL     1    -103.459  35.590 327.950  1.00  0.00    -0.028 C 
BRANCH   5   6
ATOM      6  C   UNL     1    -103.055  36.886 328.618  1.00  0.00     0.005 C 
ATOM      7  C   UNL     1    -104.056  37.228 329.725  1.00  0.00     0.012 C 
ATOM      8  C   UNL     1    -101.645  36.751 329.195  1.00  0.00     0.012 C 
ENDBRANCH   5   6
ENDBRANCH   3   4
ENDBRANCH   2   3
ENDBRANCH   1   2
BRANCH   1   9
ATOM      9  C   UNL     1    -102.059  37.060 323.841  1.00  0.00     0.100 C 
BRANCH   9  10
ATOM     10  C   UNL     1    -101.257  37.346 325.079  1.00  0.00     0.220 C 
ATOM     11  O   UNL     1    -100.850  36.384 325.787  1.00  0.00    -0.275 OA
ATOM     12  N   UNL     1    -100.943  38.698 325.441  1.00  0.00    -0.352 N 
ATOM     13  H   UNL     1    -101.319  39.481 324.862  1.00  0.00     0.163 HD
BRANCH  12  14
ATOM     14  C   UNL     1    -100.079  39.027 326.572  1.00  0.00     0.151 C 
BRANCH  14  15
ATOM     15  C   UNL     1    -100.765  39.993 327.498  1.00  0.00    -0.025 A 
ATOM     16  C   UNL     1    -100.016  40.719 328.436  1.00  0.00     0.056 A 
ATOM     17  C   UNL     1    -102.153  40.177 327.432  1.00  0.00     0.009 A 
ATOM     18  C   UNL     1    -100.647  41.626 329.308  1.00  0.00     0.160 A 
ATOM     19  C   UNL     1    -102.784  41.073 328.296  1.00  0.00     0.050 A 
ATOM     20  C   UNL     1    -102.036  41.795 329.235  1.00  0.00     0.157 A 
BRANCH  18  21
ATOM     21  O   UNL     1     -99.931  42.373 330.256  1.00  0.00    -0.493 OA
ATOM     22  C   UNL     1     -99.298  41.821 331.405  1.00  0.00     0.278 C 
ENDBRANCH  18  21
BRANCH  20  23
ATOM     23  O   UNL     1    -102.668  42.686 330.101  1.00  0.00    -0.504 OA
ATOM     24  H   UNL     1    -103.542  42.452 330.557  1.00  0.00     0.293 HD
ENDBRANCH  20  23
ENDBRANCH  14  15
ENDBRANCH  12  14
ENDBRANCH   9  10
ENDBRANCH   1   9
TORSDOF 10
ENDMDL
MODEL 9
REMARK VINA RESULT:    -4.723      1.644      4.826
REMARK INTER + INTRA:          -9.211
REMARK INTER:                  -7.221
REMARK INTRA:                  -1.990
REMARK UNBOUND:                -1.866
REMARK SMILES COc1cc(CNC(=O)CCCCC=CC(C)C)ccc1O
REMARK SMILES IDX 11 1 12 2 13 3 14 4 15 5 16 6 17 7 18 8 10 9 8 10 9 11 7 12
REMARK SMILES IDX 6 14 5 15 4 16 19 17 3 18 20 19 21 20 2 21 1 22 22 23
REMARK H PARENT 7 13 22 24
REMARK Flexibility Score: inf
ROOT
ATOM      1  C   UNL     1    -103.454  36.595 324.263  1.00  0.00     0.010 C 
ENDROOT
BRANCH   1   2
ATOM      2  C   UNL     1    -104.197  37.498 325.269  1.00  0.00     0.005 C 
BRANCH   2   3
ATOM      3  C   UNL     1    -105.097  36.739 326.262  1.00  0.00     0.027 C 
BRANCH   3   4
ATOM      4  C   UNL     1    -104.381  35.617 326.975  1.00  0.00    -0.031 C 
ATOM      5  C   UNL     1    -103.540  35.767 328.017  1.00  0.00    -0.028 C 
BRANCH   5   6
ATOM      6  C   UNL     1    -103.161  37.085 328.655  1.00  0.00     0.005 C 
ATOM      7  C   UNL     1    -104.183  37.445 329.738  1.00  0.00     0.012 C 
ATOM      8  C   UNL     1    -101.759  36.982 329.256  1.00  0.00     0.012 C 
ENDBRANCH   5   6
ENDBRANCH   3   4
ENDBRANCH   2   3
ENDBRANCH   1   2
BRANCH   1   9
ATOM      9  C   UNL     1    -102.039  37.077 323.904  1.00  0.00     0.100 C 
BRANCH   9  10
ATOM     10  C   UNL     1    -101.233  37.412 325.126  1.00  0.00     0.220 C 
ATOM     11  O   UNL     1    -100.844  36.480 325.884  1.00  0.00    -0.275 OA
ATOM     12  N   UNL     1    -100.896  38.775 325.419  1.00  0.00    -0.352 N 
ATOM     13  H   UNL     1    -101.256  39.534 324.800  1.00  0.00     0.163 HD
BRANCH  12  14
ATOM     14  C   UNL     1    -100.027  39.146 326.533  1.00  0.00     0.151 C 
BRANCH  14  15
ATOM     15  C   UNL     1    -100.737  40.085 327.469  1.00  0.00    -0.025 A 
ATOM     16  C   UNL     1    -102.127  40.251 327.377  1.00  0.00     0.056 A 
ATOM     17  C   UNL     1    -100.020  40.800 328.438  1.00  0.00     0.009 A 
ATOM     18  C   UNL     1    -102.802  41.127 328.246  1.00  0.00     0.160 A 
ATOM     19  C   UNL     1    -100.684  41.672 329.301  1.00  0.00     0.050 A 
ATOM     20  C   UNL     1    -102.072  41.840 329.206  1.00  0.00     0.157 A 
BRANCH  18  21
ATOM     21  O   UNL     1    -104.192  41.316 328.187  1.00  0.00    -0.493 OA
ATOM     22  C   UNL     1    -105.104  40.402 327.588  1.00  0.00     0.278 C 
ENDBRANCH  18  21
BRANCH  20  23
ATOM     23  O   UNL     1    -102.735  42.715 330.065  1.00  0.00    -0.504 OA
ATOM     24  H   UNL     1    -102.635  43.720 329.979  1.00  0.00     0.293 HD
ENDBRANCH  20  23
ENDBRANCH  14  15
ENDBRANCH  12  14
ENDBRANCH   9  10
ENDBRANCH   1   9
TORSDOF 10
ENDMDL
