MODEL 1
REMARK VINA RESULT:    -4.779      0.000      0.000
REMARK INTER + INTRA:          -6.286
REMARK INTER:                  -6.734
REMARK INTRA:                   0.448
REMARK UNBOUND:                 0.448
REMARK SMILES CC1=CCC(=C(C)C)C(=O)CC(C)=CCC1
REMARK SMILES IDX 12 1 14 2 13 3 15 4 16 5 2 6 1 7 3 8 11 10 9 11 10 12 5 13
REMARK SMILES IDX 6 14 7 15 8 16 4 17
REMARK H PARENT
REMARK Flexibility Score: 60.00
ROOT
ATOM      1  C   UNL     1      34.052  20.238  24.281  1.00  0.00    -0.070 C 
ATOM      2  C   UNL     1      33.248  19.257  24.772  1.00  0.00    -0.027 C 
ATOM      3  C   UNL     1      34.646  21.202  25.279  1.00  0.00     0.039 C 
ENDROOT
BRANCH   2   4
ATOM      4  C   UNL     1      32.662  18.101  23.996  1.00  0.00     0.032 C 
BRANCH   4   5
ATOM      5  C   UNL     1      31.154  17.914  24.221  1.00  0.00     0.034 C 
BRANCH   5   6
ATOM      6  C   UNL     1      30.351  19.149  23.856  1.00  0.00    -0.077 C 
ATOM      7  C   UNL     1      29.388  19.707  24.876  1.00  0.00     0.039 C 
ATOM      8  C   UNL     1      30.514  19.846  22.702  1.00  0.00    -0.023 CG0
ATOM      9  G   UNL     1      31.317  19.442  21.481  1.00  0.00     0.000 G0
ENDBRANCH   5   6
ENDBRANCH   4   5
ENDBRANCH   2   4
BRANCH   1  10
ATOM     10  C   UNL     1      34.290  20.508  22.799  1.00  0.00     0.111 C 
BRANCH  10  11
ATOM     11  C   UNL     1      33.124  21.139  22.086  1.00  0.00     0.163 C 
ATOM     12  O   UNL     1      32.794  22.319  22.387  1.00  0.00    -0.294 OA
BRANCH  11  13
ATOM     13  C   UNL     1      32.370  20.425  21.016  1.00  0.00    -0.002 C 
ATOM     14  C   UNL     1      32.702  20.543  19.698  1.00  0.00    -0.069 C 
ATOM     15  C   UNL     1      31.910  19.831  18.626  1.00  0.00     0.039 C 
ATOM     16  C   UNL     1      33.913  21.332  19.252  1.00  0.00     0.039 C 
BRANCH  13  17
ATOM     17  C   UNL     1      31.301  19.448  21.478  1.00  0.00     0.066 CG0
ATOM     18  G   UNL     1      30.512  19.872  22.703  1.00  0.00     0.000 G0
ENDBRANCH  13  17
ENDBRANCH  11  13
ENDBRANCH  10  11
ENDBRANCH   1  10
TORSDOF 0
ENDMDL
MODEL 2
REMARK VINA RESULT:    -4.633      1.645      3.867
REMARK INTER + INTRA:          -6.081
REMARK INTER:                  -6.903
REMARK INTRA:                   0.822
REMARK UNBOUND:                 0.448
REMARK SMILES CC1=CCC(=C(C)C)C(=O)CC(C)=CCC1
REMARK SMILES IDX 12 1 14 2 13 3 15 4 16 5 2 6 1 7 3 8 11 10 9 11 10 12 5 13
REMARK SMILES IDX 6 14 7 15 8 16 4 17
REMARK H PARENT
REMARK Flexibility Score: 60.00
ROOT
ATOM      1  C   UNL     1      32.454  20.061  21.242  1.00  0.00    -0.070 C 
ATOM      2  C   UNL     1      31.254  19.515  21.576  1.00  0.00    -0.027 C 
ATOM      3  C   UNL     1      33.058  19.637  19.924  1.00  0.00     0.039 C 
ENDROOT
BRANCH   2   4
ATOM      4  C   UNL     1      30.393  19.890  22.759  1.00  0.00     0.032 C 
BRANCH   4   5
ATOM      5  C   UNL     1      29.917  18.681  23.578  1.00  0.00     0.034 C 
BRANCH   5   6
ATOM      6  C   UNL     1      30.477  18.672  24.988  1.00  0.00    -0.077 C 
ATOM      7  C   UNL     1      29.533  18.924  26.138  1.00  0.00     0.039 C 
ATOM      8  C   UNL     1      31.762  18.352  25.292  1.00  0.00    -0.023 CG0
ATOM      9  G   UNL     1      32.924  18.175  24.333  1.00  0.00     0.000 G0
ENDBRANCH   5   6
ENDBRANCH   4   5
ENDBRANCH   2   4
BRANCH   1  10
ATOM     10  C   UNL     1      33.283  20.964  22.149  1.00  0.00     0.111 C 
BRANCH  10  11
ATOM     11  C   UNL     1      33.210  20.612  23.611  1.00  0.00     0.163 C 
ATOM     12  O   UNL     1      32.566  21.369  24.388  1.00  0.00    -0.294 OA
BRANCH  11  13
ATOM     13  C   UNL     1      33.847  19.380  24.160  1.00  0.00    -0.002 C 
ATOM     14  C   UNL     1      35.139  19.369  24.595  1.00  0.00    -0.069 C 
ATOM     15  C   UNL     1      35.776  18.105  25.124  1.00  0.00     0.039 C 
ATOM     16  C   UNL     1      35.975  20.629  24.632  1.00  0.00     0.039 C 
BRANCH  13  17
ATOM     17  C   UNL     1      32.941  18.173  24.341  1.00  0.00     0.066 CG0
ATOM     18  G   UNL     1      31.769  18.368  25.285  1.00  0.00     0.000 G0
ENDBRANCH  13  17
ENDBRANCH  11  13
ENDBRANCH  10  11
ENDBRANCH   1  10
TORSDOF 0
ENDMDL
MODEL 3
REMARK VINA RESULT:    -4.441      2.338      4.835
REMARK INTER + INTRA:          -5.811
REMARK INTER:                  -6.319
REMARK INTRA:                   0.508
REMARK UNBOUND:                 0.448
REMARK SMILES CC1=CCC(=C(C)C)C(=O)CC(C)=CCC1
REMARK SMILES IDX 12 1 14 2 13 3 15 4 16 5 2 6 1 7 3 8 11 10 9 11 10 12 5 13
REMARK SMILES IDX 6 14 7 15 8 16 4 17
REMARK H PARENT
REMARK Flexibility Score: 60.00
ROOT
ATOM      1  C   UNL     1      31.375  18.555  24.607  1.00  0.00    -0.070 C 
ATOM      2  C   UNL     1      30.566  19.422  23.942  1.00  0.00    -0.027 C 
ATOM      3  C   UNL     1      30.889  18.051  25.945  1.00  0.00     0.039 C 
ENDROOT
BRANCH   2   4
ATOM      4  C   UNL     1      30.765  19.943  22.538  1.00  0.00     0.032 C 
BRANCH   4   5
ATOM      5  C   UNL     1      31.566  21.252  22.479  1.00  0.00     0.034 C 
BRANCH   5   6
ATOM      6  C   UNL     1      32.973  21.054  21.947  1.00  0.00    -0.077 C 
ATOM      7  C   UNL     1      33.175  20.993  20.452  1.00  0.00     0.039 C 
ATOM      8  C   UNL     1      34.083  21.026  22.730  1.00  0.00    -0.023 CG0
ATOM      9  G   UNL     1      34.147  20.951  24.244  1.00  0.00     0.000 G0
ENDBRANCH   5   6
ENDBRANCH   4   5
ENDBRANCH   2   4
BRANCH   1  10
ATOM     10  C   UNL     1      32.779  18.159  24.162  1.00  0.00     0.111 C 
BRANCH  10  11
ATOM     11  C   UNL     1      33.872  18.565  25.115  1.00  0.00     0.163 C 
ATOM     12  O   UNL     1      34.025  17.907  26.180  1.00  0.00    -0.294 OA
BRANCH  11  13
ATOM     13  C   UNL     1      34.794  19.699  24.822  1.00  0.00    -0.002 C 
ATOM     14  C   UNL     1      36.147  19.578  24.943  1.00  0.00    -0.069 C 
ATOM     15  C   UNL     1      37.065  20.747  24.666  1.00  0.00     0.039 C 
ATOM     16  C   UNL     1      36.798  18.258  25.292  1.00  0.00     0.039 C 
BRANCH  13  17
ATOM     17  C   UNL     1      34.160  20.956  24.247  1.00  0.00     0.066 CG0
ATOM     18  G   UNL     1      34.094  21.023  22.733  1.00  0.00     0.000 G0
ENDBRANCH  13  17
ENDBRANCH  11  13
ENDBRANCH  10  11
ENDBRANCH   1  10
TORSDOF 0
ENDMDL
MODEL 4
REMARK VINA RESULT:    -4.427      5.462      7.739
REMARK INTER + INTRA:          -5.791
REMARK INTER:                  -5.670
REMARK INTRA:                  -0.120
REMARK UNBOUND:                 0.448
REMARK SMILES CC1=CCC(=C(C)C)C(=O)CC(C)=CCC1
REMARK SMILES IDX 12 1 14 2 13 3 15 4 16 5 2 6 1 7 3 8 11 10 9 11 10 12 5 13
REMARK SMILES IDX 6 14 7 15 8 16 4 17
REMARK H PARENT
REMARK Flexibility Score: 60.00
ROOT
ATOM      1  C   UNL     1      38.158  19.286  28.342  1.00  0.00    -0.070 C 
ATOM      2  C   UNL     1      37.023  18.795  27.777  1.00  0.00    -0.027 C 
ATOM      3  C   UNL     1      37.999  20.407  29.340  1.00  0.00     0.039 C 
ENDROOT
BRANCH   2   4
ATOM      4  C   UNL     1      36.916  17.591  26.872  1.00  0.00     0.032 C 
BRANCH   4   5
ATOM      5  C   UNL     1      36.954  17.942  25.378  1.00  0.00     0.034 C 
BRANCH   5   6
ATOM      6  C   UNL     1      36.401  19.325  25.087  1.00  0.00    -0.077 C 
ATOM      7  C   UNL     1      34.904  19.521  25.111  1.00  0.00     0.039 C 
ATOM      8  C   UNL     1      37.173  20.427  24.902  1.00  0.00    -0.023 CG0
ATOM      9  G   UNL     1      38.678  20.484  24.717  1.00  0.00     0.000 G0
ENDBRANCH   5   6
ENDBRANCH   4   5
ENDBRANCH   2   4
BRANCH   1  10
ATOM     10  C   UNL     1      39.574  18.876  27.948  1.00  0.00     0.111 C 
BRANCH  10  11
ATOM     11  C   UNL     1      40.006  19.359  26.589  1.00  0.00     0.163 C 
ATOM     12  O   UNL     1      40.802  18.648  25.917  1.00  0.00    -0.294 OA
BRANCH  11  13
ATOM     13  C   UNL     1      39.498  20.632  26.004  1.00  0.00    -0.002 C 
ATOM     14  C   UNL     1      39.841  21.849  26.516  1.00  0.00    -0.069 C 
ATOM     15  C   UNL     1      39.295  23.128  25.925  1.00  0.00     0.039 C 
ATOM     16  C   UNL     1      40.833  21.982  27.649  1.00  0.00     0.039 C 
BRANCH  13  17
ATOM     17  C   UNL     1      38.688  20.512  24.723  1.00  0.00     0.066 CG0
ATOM     18  G   UNL     1      37.183  20.447  24.902  1.00  0.00     0.000 G0
ENDBRANCH  13  17
ENDBRANCH  11  13
ENDBRANCH  10  11
ENDBRANCH   1  10
TORSDOF 0
ENDMDL
MODEL 5
REMARK VINA RESULT:    -4.413      5.895      8.521
REMARK INTER + INTRA:          -5.771
REMARK INTER:                  -5.780
REMARK INTRA:                   0.008
REMARK UNBOUND:                 0.448
REMARK SMILES CC1=CCC(=C(C)C)C(=O)CC(C)=CCC1
REMARK SMILES IDX 12 1 14 2 13 3 15 4 16 5 2 6 1 7 3 8 11 10 9 11 10 12 5 13
REMARK SMILES IDX 6 14 7 15 8 16 4 17
REMARK H PARENT
REMARK Flexibility Score: 60.00
ROOT
ATOM      1  C   UNL     1      36.173  19.744  25.184  1.00  0.00    -0.070 C 
ATOM      2  C   UNL     1      36.153  18.386  25.252  1.00  0.00    -0.027 C 
ATOM      3  C   UNL     1      34.877  20.432  24.828  1.00  0.00     0.039 C 
ENDROOT
BRANCH   2   4
ATOM      4  C   UNL     1      37.274  17.492  25.726  1.00  0.00     0.032 C 
BRANCH   4   5
ATOM      5  C   UNL     1      37.634  17.692  27.205  1.00  0.00     0.034 C 
BRANCH   5   6
ATOM      6  C   UNL     1      39.130  17.798  27.436  1.00  0.00    -0.077 C 
ATOM      7  C   UNL     1      39.999  16.620  27.067  1.00  0.00     0.039 C 
ATOM      8  C   UNL     1      39.753  18.927  27.863  1.00  0.00    -0.023 CG0
ATOM      9  G   UNL     1      39.113  20.191  28.404  1.00  0.00     0.000 G0
ENDBRANCH   5   6
ENDBRANCH   4   5
ENDBRANCH   2   4
BRANCH   1  10
ATOM     10  C   UNL     1      37.426  20.604  25.313  1.00  0.00     0.111 C 
BRANCH  10  11
ATOM     11  C   UNL     1      37.582  21.278  26.650  1.00  0.00     0.163 C 
ATOM     12  O   UNL     1      36.572  21.816  27.180  1.00  0.00    -0.294 OA
BRANCH  11  13
ATOM     13  C   UNL     1      38.883  21.300  27.378  1.00  0.00    -0.002 C 
ATOM     14  C   UNL     1      39.773  22.323  27.234  1.00  0.00    -0.069 C 
ATOM     15  C   UNL     1      41.099  22.314  27.960  1.00  0.00     0.039 C 
ATOM     16  C   UNL     1      39.453  23.542  26.400  1.00  0.00     0.039 C 
BRANCH  13  17
ATOM     17  C   UNL     1      39.107  20.192  28.395  1.00  0.00     0.066 CG0
ATOM     18  G   UNL     1      39.766  18.934  27.860  1.00  0.00     0.000 G0
ENDBRANCH  13  17
ENDBRANCH  11  13
ENDBRANCH  10  11
ENDBRANCH   1  10
TORSDOF 0
ENDMDL
MODEL 6
REMARK VINA RESULT:    -4.324      6.618      9.198
REMARK INTER + INTRA:          -5.646
REMARK INTER:                  -5.852
REMARK INTRA:                   0.206
REMARK UNBOUND:                 0.448
REMARK SMILES CC1=CCC(=C(C)C)C(=O)CC(C)=CCC1
REMARK SMILES IDX 12 1 14 2 13 3 15 4 16 5 2 6 1 7 3 8 11 10 9 11 10 12 5 13
REMARK SMILES IDX 6 14 7 15 8 16 4 17
REMARK H PARENT
REMARK Flexibility Score: 60.00
ROOT
ATOM      1  C   UNL     1      37.171  18.719  25.692  1.00  0.00    -0.070 C 
ATOM      2  C   UNL     1      37.914  17.616  25.406  1.00  0.00    -0.027 C 
ATOM      3  C   UNL     1      35.877  18.500  26.438  1.00  0.00     0.039 C 
ENDROOT
BRANCH   2   4
ATOM      4  C   UNL     1      39.299  17.595  24.805  1.00  0.00     0.032 C 
BRANCH   4   5
ATOM      5  C   UNL     1      40.384  17.119  25.782  1.00  0.00     0.034 C 
BRANCH   5   6
ATOM      6  C   UNL     1      41.320  18.234  26.207  1.00  0.00    -0.077 C 
ATOM      7  C   UNL     1      42.711  18.268  25.621  1.00  0.00     0.039 C 
ATOM      8  C   UNL     1      40.954  19.267  27.010  1.00  0.00    -0.023 CG0
ATOM      9  G   UNL     1      39.674  19.409  27.811  1.00  0.00     0.000 G0
ENDBRANCH   5   6
ENDBRANCH   4   5
ENDBRANCH   2   4
BRANCH   1  10
ATOM     10  C   UNL     1      37.485  20.130  25.207  1.00  0.00     0.111 C 
BRANCH  10  11
ATOM     11  C   UNL     1      38.576  20.825  25.978  1.00  0.00     0.163 C 
ATOM     12  O   UNL     1      39.319  21.646  25.374  1.00  0.00    -0.294 OA
BRANCH  11  13
ATOM     13  C   UNL     1      38.782  20.595  27.437  1.00  0.00    -0.002 C 
ATOM     14  C   UNL     1      38.124  21.326  28.382  1.00  0.00    -0.069 C 
ATOM     15  C   UNL     1      38.365  21.097  29.856  1.00  0.00     0.039 C 
ATOM     16  C   UNL     1      37.076  22.350  28.006  1.00  0.00     0.039 C 
BRANCH  13  17
ATOM     17  C   UNL     1      39.656  19.412  27.819  1.00  0.00     0.066 CG0
ATOM     18  G   UNL     1      40.952  19.276  27.041  1.00  0.00     0.000 G0
ENDBRANCH  13  17
ENDBRANCH  11  13
ENDBRANCH  10  11
ENDBRANCH   1  10
TORSDOF 0
ENDMDL
MODEL 7
REMARK VINA RESULT:    -4.286      4.738      6.921
REMARK INTER + INTRA:          -5.591
REMARK INTER:                  -5.928
REMARK INTRA:                   0.337
REMARK UNBOUND:                 0.448
REMARK SMILES CC1=CCC(=C(C)C)C(=O)CC(C)=CCC1
REMARK SMILES IDX 12 1 14 2 13 3 15 4 16 5 2 6 1 7 3 8 11 10 9 11 10 12 5 13
REMARK SMILES IDX 6 14 7 15 8 16 4 17
REMARK H PARENT
REMARK Flexibility Score: 60.00
ROOT
ATOM      1  C   UNL     1      38.587  21.070  27.168  1.00  0.00    -0.070 C 
ATOM      2  C   UNL     1      39.019  20.059  27.967  1.00  0.00    -0.027 C 
ATOM      3  C   UNL     1      39.579  22.162  26.845  1.00  0.00     0.039 C 
ENDROOT
BRANCH   2   4
ATOM      4  C   UNL     1      38.266  18.795  28.307  1.00  0.00     0.032 C 
BRANCH   4   5
ATOM      5  C   UNL     1      38.839  17.540  27.632  1.00  0.00     0.034 C 
BRANCH   5   6
ATOM      6  C   UNL     1      38.953  17.685  26.126  1.00  0.00    -0.077 C 
ATOM      7  C   UNL     1      40.324  17.603  25.498  1.00  0.00     0.039 C 
ATOM      8  C   UNL     1      37.887  17.786  25.291  1.00  0.00    -0.023 CG0
ATOM      9  G   UNL     1      36.433  18.004  25.666  1.00  0.00     0.000 G0
ENDBRANCH   5   6
ENDBRANCH   4   5
ENDBRANCH   2   4
BRANCH   1  10
ATOM     10  C   UNL     1      37.150  21.244  26.685  1.00  0.00     0.111 C 
BRANCH  10  11
ATOM     11  C   UNL     1      36.833  20.521  25.403  1.00  0.00     0.163 C 
ATOM     12  O   UNL     1      37.430  20.866  24.347  1.00  0.00    -0.294 OA
BRANCH  11  13
ATOM     13  C   UNL     1      35.862  19.391  25.353  1.00  0.00    -0.002 C 
ATOM     14  C   UNL     1      34.573  19.565  24.941  1.00  0.00    -0.069 C 
ATOM     15  C   UNL     1      33.596  18.413  24.921  1.00  0.00     0.039 C 
ATOM     16  C   UNL     1      34.079  20.897  24.422  1.00  0.00     0.039 C 
BRANCH  13  17
ATOM     17  C   UNL     1      36.418  18.008  25.651  1.00  0.00     0.066 CG0
ATOM     18  G   UNL     1      37.872  17.791  25.280  1.00  0.00     0.000 G0
ENDBRANCH  13  17
ENDBRANCH  11  13
ENDBRANCH  10  11
ENDBRANCH   1  10
TORSDOF 0
ENDMDL
MODEL 8
REMARK VINA RESULT:    -4.245      4.396      6.746
REMARK INTER + INTRA:          -5.534
REMARK INTER:                  -6.107
REMARK INTRA:                   0.573
REMARK UNBOUND:                 0.448
REMARK SMILES CC1=CCC(=C(C)C)C(=O)CC(C)=CCC1
REMARK SMILES IDX 12 1 14 2 13 3 15 4 16 5 2 6 1 7 3 8 11 10 9 11 10 12 5 13
REMARK SMILES IDX 6 14 7 15 8 16 4 17
REMARK H PARENT
REMARK Flexibility Score: 60.00
ROOT
ATOM      1  C   UNL     1      37.422  17.765  27.377  1.00  0.00    -0.070 C 
ATOM      2  C   UNL     1      38.208  18.795  27.793  1.00  0.00    -0.027 C 
ATOM      3  C   UNL     1      38.050  16.392  27.346  1.00  0.00     0.039 C 
ENDROOT
BRANCH   2   4
ATOM      4  C   UNL     1      37.768  20.217  28.046  1.00  0.00     0.032 C 
BRANCH   4   5
ATOM      5  C   UNL     1      38.376  21.229  27.063  1.00  0.00     0.034 C 
BRANCH   5   6
ATOM      6  C   UNL     1      38.753  20.602  25.734  1.00  0.00    -0.077 C 
ATOM      7  C   UNL     1      40.197  20.231  25.498  1.00  0.00     0.039 C 
ATOM      8  C   UNL     1      37.854  20.259  24.775  1.00  0.00    -0.023 CG0
ATOM      9  G   UNL     1      36.382  20.621  24.713  1.00  0.00     0.000 G0
ENDBRANCH   5   6
ENDBRANCH   4   5
ENDBRANCH   2   4
BRANCH   1  10
ATOM     10  C   UNL     1      36.008  17.917  26.826  1.00  0.00     0.111 C 
BRANCH  10  11
ATOM     11  C   UNL     1      35.943  18.168  25.343  1.00  0.00     0.163 C 
ATOM     12  O   UNL     1      36.327  17.261  24.555  1.00  0.00    -0.294 OA
BRANCH  11  13
ATOM     13  C   UNL     1      35.408  19.441  24.780  1.00  0.00    -0.002 C 
ATOM     14  C   UNL     1      34.094  19.587  24.447  1.00  0.00    -0.069 C 
ATOM     15  C   UNL     1      33.576  20.877  23.854  1.00  0.00     0.039 C 
ATOM     16  C   UNL     1      33.081  18.497  24.717  1.00  0.00     0.039 C 
BRANCH  13  17
ATOM     17  C   UNL     1      36.374  20.614  24.725  1.00  0.00     0.066 CG0
ATOM     18  G   UNL     1      37.846  20.255  24.784  1.00  0.00     0.000 G0
ENDBRANCH  13  17
ENDBRANCH  11  13
ENDBRANCH  10  11
ENDBRANCH   1  10
TORSDOF 0
ENDMDL
MODEL 9
REMARK VINA RESULT:    -3.987      6.190      8.830
REMARK INTER + INTRA:          -5.170
REMARK INTER:                  -5.245
REMARK INTRA:                   0.075
REMARK UNBOUND:                 0.448
REMARK SMILES CC1=CCC(=C(C)C)C(=O)CC(C)=CCC1
REMARK SMILES IDX 12 1 14 2 13 3 15 4 16 5 2 6 1 7 3 8 11 10 9 11 10 12 5 13
REMARK SMILES IDX 6 14 7 15 8 16 4 17
REMARK H PARENT
REMARK Flexibility Score: 60.00
ROOT
ATOM      1  C   UNL     1      39.622  23.153  27.639  1.00  0.00    -0.070 C 
ATOM      2  C   UNL     1      40.573  22.740  28.518  1.00  0.00    -0.027 C 
ATOM      3  C   UNL     1      39.110  24.565  27.796  1.00  0.00     0.039 C 
ENDROOT
BRANCH   2   4
ATOM      4  C   UNL     1      41.335  21.437  28.473  1.00  0.00     0.032 C 
BRANCH   4   5
ATOM      5  C   UNL     1      40.601  20.274  29.158  1.00  0.00     0.034 C 
BRANCH   5   6
ATOM      6  C   UNL     1      40.405  19.083  28.239  1.00  0.00    -0.077 C 
ATOM      7  C   UNL     1      41.620  18.295  27.813  1.00  0.00     0.039 C 
ATOM      8  C   UNL     1      39.189  18.617  27.851  1.00  0.00    -0.023 CG0
ATOM      9  G   UNL     1      37.839  19.281  28.039  1.00  0.00     0.000 G0
ENDBRANCH   5   6
ENDBRANCH   4   5
ENDBRANCH   2   4
BRANCH   1  10
ATOM     10  C   UNL     1      38.951  22.262  26.599  1.00  0.00     0.111 C 
BRANCH  10  11
ATOM     11  C   UNL     1      37.660  21.637  27.056  1.00  0.00     0.163 C 
ATOM     12  O   UNL     1      36.773  22.376  27.563  1.00  0.00    -0.294 OA
BRANCH  11  13
ATOM     13  C   UNL     1      37.387  20.180  26.896  1.00  0.00    -0.002 C 
ATOM     14  C   UNL     1      36.880  19.663  25.740  1.00  0.00    -0.069 C 
ATOM     15  C   UNL     1      36.586  18.187  25.606  1.00  0.00     0.039 C 
ATOM     16  C   UNL     1      36.653  20.525  24.519  1.00  0.00     0.039 C 
BRANCH  13  17
ATOM     17  C   UNL     1      37.833  19.279  28.037  1.00  0.00     0.066 CG0
ATOM     18  G   UNL     1      39.181  18.608  27.855  1.00  0.00     0.000 G0
ENDBRANCH  13  17
ENDBRANCH  11  13
ENDBRANCH  10  11
ENDBRANCH   1  10
TORSDOF 0
ENDMDL
