MODEL 1
REMARK VINA RESULT:    -4.547      0.000      0.000
REMARK INTER + INTRA:         -11.109
REMARK INTER:                  -8.535
REMARK INTRA:                  -2.574
REMARK UNBOUND:                -2.574
REMARK SMILES O=C([O-])CCCCCCCCCCCCCCC(=O)[O-]
REMARK SMILES IDX 10 1 9 2 8 3 7 4 6 5 5 6 4 7 2 8 1 9 3 10 11 11 12 12 13 13
REMARK SMILES IDX 14 14 15 15 16 16 17 17 18 18 19 19 20 20
REMARK H PARENT
REMARK Flexibility Score: inf
ROOT
ATOM      1  C   UNL     1       6.395   7.390  27.666  1.00  0.00     0.000 C 
ENDROOT
BRANCH   1   2
ATOM      2  C   UNL     1       7.240   6.482  28.583  1.00  0.00     0.000 C 
BRANCH   2   3
ATOM      3  C   UNL     1       7.567   5.096  28.001  1.00  0.00     0.000 C 
BRANCH   3   4
ATOM      4  C   UNL     1       8.953   4.583  28.423  1.00  0.00     0.000 C 
BRANCH   4   5
ATOM      5  C   UNL     1       9.534   3.637  27.361  1.00  0.00     0.000 C 
BRANCH   5   6
ATOM      6  C   UNL     1      10.986   3.233  27.659  1.00  0.00     0.006 C 
BRANCH   6   7
ATOM      7  C   UNL     1      11.548   3.926  28.907  1.00  0.00     0.053 C 
BRANCH   7   8
ATOM      8  C   UNL     1      11.814   2.923  29.986  1.00  0.00     0.041 C 
ATOM      9  O   UNL     1      10.863   2.279  30.501  1.00  0.00    -0.550 OA
ATOM     10  O   UNL     1      13.119   2.665  30.388  1.00  0.00    -0.550 OA
ENDBRANCH   7   8
ENDBRANCH   6   7
ENDBRANCH   5   6
ENDBRANCH   4   5
ENDBRANCH   3   4
ENDBRANCH   2   3
ENDBRANCH   1   2
BRANCH   1  11
ATOM     11  C   UNL     1       7.206   8.290  26.713  1.00  0.00     0.000 C 
BRANCH  11  12
ATOM     12  C   UNL     1       7.673   7.607  25.412  1.00  0.00     0.000 C 
BRANCH  12  13
ATOM     13  C   UNL     1       9.161   7.216  25.381  1.00  0.00     0.000 C 
BRANCH  13  14
ATOM     14  C   UNL     1      10.044   8.148  26.227  1.00  0.00     0.000 C 
BRANCH  14  15
ATOM     15  C   UNL     1      10.919   7.368  27.233  1.00  0.00     0.000 C 
BRANCH  15  16
ATOM     16  C   UNL     1      10.787   7.873  28.682  1.00  0.00     0.006 C 
BRANCH  16  17
ATOM     17  C   UNL     1      10.094   9.237  28.808  1.00  0.00     0.053 C 
BRANCH  17  18
ATOM     18  C   UNL     1       9.174   9.287  29.989  1.00  0.00     0.041 C 
ATOM     19  O   UNL     1       8.011   9.754  29.870  1.00  0.00    -0.550 OA
ATOM     20  O   UNL     1       9.609   8.834  31.228  1.00  0.00    -0.550 OA
ENDBRANCH  17  18
ENDBRANCH  16  17
ENDBRANCH  15  16
ENDBRANCH  14  15
ENDBRANCH  13  14
ENDBRANCH  12  13
ENDBRANCH  11  12
ENDBRANCH   1  11
TORSDOF 15
ENDMDL
MODEL 2
REMARK VINA RESULT:    -4.484      3.071      5.150
REMARK INTER + INTRA:         -10.991
REMARK INTER:                  -8.726
REMARK INTRA:                  -2.265
REMARK UNBOUND:                -2.574
REMARK SMILES O=C([O-])CCCCCCCCCCCCCCC(=O)[O-]
REMARK SMILES IDX 10 1 9 2 8 3 7 4 6 5 5 6 4 7 2 8 1 9 3 10 11 11 12 12 13 13
REMARK SMILES IDX 14 14 15 15 16 16 17 17 18 18 19 19 20 20
REMARK H PARENT
REMARK Flexibility Score: inf
ROOT
ATOM      1  C   UNL     1       5.449  10.583  31.107  1.00  0.00     0.000 C 
ENDROOT
BRANCH   1   2
ATOM      2  C   UNL     1       4.423   9.436  31.001  1.00  0.00     0.000 C 
BRANCH   2   3
ATOM      3  C   UNL     1       4.726   8.395  29.909  1.00  0.00     0.000 C 
BRANCH   3   4
ATOM      4  C   UNL     1       5.243   9.027  28.607  1.00  0.00     0.000 C 
BRANCH   4   5
ATOM      5  C   UNL     1       6.628   8.474  28.241  1.00  0.00     0.000 C 
BRANCH   5   6
ATOM      6  C   UNL     1       6.566   7.400  27.144  1.00  0.00     0.006 C 
BRANCH   6   7
ATOM      7  C   UNL     1       7.350   6.134  27.512  1.00  0.00     0.053 C 
BRANCH   7   8
ATOM      8  C   UNL     1       8.000   5.551  26.296  1.00  0.00     0.041 C 
ATOM      9  O   UNL     1       7.558   5.823  25.150  1.00  0.00    -0.550 OA
ATOM     10  O   UNL     1       9.124   4.745  26.428  1.00  0.00    -0.550 OA
ENDBRANCH   7   8
ENDBRANCH   6   7
ENDBRANCH   5   6
ENDBRANCH   4   5
ENDBRANCH   3   4
ENDBRANCH   2   3
ENDBRANCH   1   2
BRANCH   1  11
ATOM     11  C   UNL     1       6.757  10.223  31.838  1.00  0.00     0.000 C 
BRANCH  11  12
ATOM     12  C   UNL     1       7.997  11.022  31.388  1.00  0.00     0.000 C 
BRANCH  12  13
ATOM     13  C   UNL     1       8.979  10.247  30.492  1.00  0.00     0.000 C 
BRANCH  13  14
ATOM     14  C   UNL     1       9.255   8.822  30.998  1.00  0.00     0.000 C 
BRANCH  14  15
ATOM     15  C   UNL     1       9.830   7.911  29.890  1.00  0.00     0.000 C 
BRANCH  15  16
ATOM     16  C   UNL     1      10.627   8.679  28.818  1.00  0.00     0.006 C 
BRANCH  16  17
ATOM     17  C   UNL     1      10.561   8.048  27.420  1.00  0.00     0.053 C 
BRANCH  17  18
ATOM     18  C   UNL     1       9.857   8.936  26.440  1.00  0.00     0.041 C 
ATOM     19  O   UNL     1       9.364  10.032  26.816  1.00  0.00    -0.550 OA
ATOM     20  O   UNL     1       9.729   8.544  25.114  1.00  0.00    -0.550 OA
ENDBRANCH  17  18
ENDBRANCH  16  17
ENDBRANCH  15  16
ENDBRANCH  14  15
ENDBRANCH  13  14
ENDBRANCH  12  13
ENDBRANCH  11  12
ENDBRANCH   1  11
TORSDOF 15
ENDMDL
MODEL 3
REMARK VINA RESULT:    -4.461      3.076      5.630
REMARK INTER + INTRA:         -10.947
REMARK INTER:                  -8.954
REMARK INTRA:                  -1.993
REMARK UNBOUND:                -2.574
REMARK SMILES O=C([O-])CCCCCCCCCCCCCCC(=O)[O-]
REMARK SMILES IDX 10 1 9 2 8 3 7 4 6 5 5 6 4 7 2 8 1 9 3 10 11 11 12 12 13 13
REMARK SMILES IDX 14 14 15 15 16 16 17 17 18 18 19 19 20 20
REMARK H PARENT
REMARK Flexibility Score: inf
ROOT
ATOM      1  C   UNL     1       9.171   8.489  30.074  1.00  0.00     0.000 C 
ENDROOT
BRANCH   1   2
ATOM      2  C   UNL     1       9.201   9.372  28.809  1.00  0.00     0.000 C 
BRANCH   2   3
ATOM      3  C   UNL     1      10.141   8.879  27.695  1.00  0.00     0.000 C 
BRANCH   3   4
ATOM      4  C   UNL     1       9.528   9.015  26.292  1.00  0.00     0.000 C 
BRANCH   4   5
ATOM      5  C   UNL     1       8.373   8.021  26.100  1.00  0.00     0.000 C 
BRANCH   5   6
ATOM      6  C   UNL     1       8.844   6.663  25.559  1.00  0.00     0.006 C 
BRANCH   6   7
ATOM      7  C   UNL     1       8.751   5.546  26.606  1.00  0.00     0.053 C 
BRANCH   7   8
ATOM      8  C   UNL     1       7.426   5.589  27.300  1.00  0.00     0.041 C 
ATOM      9  O   UNL     1       7.366   5.791  28.541  1.00  0.00    -0.550 OA
ATOM     10  O   UNL     1       6.253   5.453  26.567  1.00  0.00    -0.550 OA
ENDBRANCH   7   8
ENDBRANCH   6   7
ENDBRANCH   5   6
ENDBRANCH   4   5
ENDBRANCH   3   4
ENDBRANCH   2   3
ENDBRANCH   1   2
BRANCH   1  11
ATOM     11  C   UNL     1       9.109   9.261  31.406  1.00  0.00     0.000 C 
BRANCH  11  12
ATOM     12  C   UNL     1       8.302  10.574  31.362  1.00  0.00     0.000 C 
BRANCH  12  13
ATOM     13  C   UNL     1       7.244  10.725  32.469  1.00  0.00     0.000 C 
BRANCH  13  14
ATOM     14  C   UNL     1       5.832  10.331  32.006  1.00  0.00     0.000 C 
BRANCH  14  15
ATOM     15  C   UNL     1       5.701  10.337  30.467  1.00  0.00     0.000 C 
BRANCH  15  16
ATOM     16  C   UNL     1       5.119   9.029  29.896  1.00  0.00     0.006 C 
BRANCH  16  17
ATOM     17  C   UNL     1       5.508   8.757  28.436  1.00  0.00     0.053 C 
BRANCH  17  18
ATOM     18  C   UNL     1       5.272   9.953  27.565  1.00  0.00     0.041 C 
ATOM     19  O   UNL     1       4.105  10.253  27.200  1.00  0.00    -0.550 OA
ATOM     20  O   UNL     1       6.345  10.727  27.141  1.00  0.00    -0.550 OA
ENDBRANCH  17  18
ENDBRANCH  16  17
ENDBRANCH  15  16
ENDBRANCH  14  15
ENDBRANCH  13  14
ENDBRANCH  12  13
ENDBRANCH  11  12
ENDBRANCH   1  11
TORSDOF 15
ENDMDL
MODEL 4
REMARK VINA RESULT:    -4.453      3.549      5.744
REMARK INTER + INTRA:         -10.932
REMARK INTER:                  -8.495
REMARK INTRA:                  -2.437
REMARK UNBOUND:                -2.574
REMARK SMILES O=C([O-])CCCCCCCCCCCCCCC(=O)[O-]
REMARK SMILES IDX 10 1 9 2 8 3 7 4 6 5 5 6 4 7 2 8 1 9 3 10 11 11 12 12 13 13
REMARK SMILES IDX 14 14 15 15 16 16 17 17 18 18 19 19 20 20
REMARK H PARENT
REMARK Flexibility Score: inf
ROOT
ATOM      1  C   UNL     1      11.520   6.305  28.388  1.00  0.00     0.000 C 
ENDROOT
BRANCH   1   2
ATOM      2  C   UNL     1      11.510   7.429  27.331  1.00  0.00     0.000 C 
BRANCH   2   3
ATOM      3  C   UNL     1      10.418   8.495  27.529  1.00  0.00     0.000 C 
BRANCH   3   4
ATOM      4  C   UNL     1       9.534   8.682  26.285  1.00  0.00     0.000 C 
BRANCH   4   5
ATOM      5  C   UNL     1       9.613   7.454  25.367  1.00  0.00     0.000 C 
BRANCH   5   6
ATOM      6  C   UNL     1       8.278   7.147  24.673  1.00  0.00     0.006 C 
BRANCH   6   7
ATOM      7  C   UNL     1       8.279   5.786  23.965  1.00  0.00     0.053 C 
BRANCH   7   8
ATOM      8  C   UNL     1       7.985   5.954  22.508  1.00  0.00     0.041 C 
ATOM      9  O   UNL     1       8.639   5.306  21.650  1.00  0.00    -0.550 OA
ATOM     10  O   UNL     1       6.954   6.792  22.099  1.00  0.00    -0.550 OA
ENDBRANCH   7   8
ENDBRANCH   6   7
ENDBRANCH   5   6
ENDBRANCH   4   5
ENDBRANCH   3   4
ENDBRANCH   2   3
ENDBRANCH   1   2
BRANCH   1  11
ATOM     11  C   UNL     1      11.070   4.924  27.874  1.00  0.00     0.000 C 
BRANCH  11  12
ATOM     12  C   UNL     1       9.674   4.474  28.351  1.00  0.00     0.000 C 
BRANCH  12  13
ATOM     13  C   UNL     1       8.611   4.372  27.243  1.00  0.00     0.000 C 
BRANCH  13  14
ATOM     14  C   UNL     1       7.270   5.014  27.638  1.00  0.00     0.000 C 
BRANCH  14  15
ATOM     15  C   UNL     1       7.464   6.324  28.434  1.00  0.00     0.000 C 
BRANCH  15  16
ATOM     16  C   UNL     1       6.549   7.470  27.960  1.00  0.00     0.006 C 
BRANCH  16  17
ATOM     17  C   UNL     1       6.455   8.643  28.946  1.00  0.00     0.053 C 
BRANCH  17  18
ATOM     18  C   UNL     1       5.121   8.695  29.624  1.00  0.00     0.041 C 
ATOM     19  O   UNL     1       4.106   8.195  29.072  1.00  0.00    -0.550 OA
ATOM     20  O   UNL     1       4.994   9.314  30.862  1.00  0.00    -0.550 OA
ENDBRANCH  17  18
ENDBRANCH  16  17
ENDBRANCH  15  16
ENDBRANCH  14  15
ENDBRANCH  13  14
ENDBRANCH  12  13
ENDBRANCH  11  12
ENDBRANCH   1  11
TORSDOF 15
ENDMDL
MODEL 5
REMARK VINA RESULT:    -4.444      3.580      6.085
REMARK INTER + INTRA:         -10.914
REMARK INTER:                  -9.427
REMARK INTRA:                  -1.487
REMARK UNBOUND:                -2.574
REMARK SMILES O=C([O-])CCCCCCCCCCCCCCC(=O)[O-]
REMARK SMILES IDX 10 1 9 2 8 3 7 4 6 5 5 6 4 7 2 8 1 9 3 10 11 11 12 12 13 13
REMARK SMILES IDX 14 14 15 15 16 16 17 17 18 18 19 19 20 20
REMARK H PARENT
REMARK Flexibility Score: inf
ROOT
ATOM      1  C   UNL     1       8.689  10.438  30.013  1.00  0.00     0.000 C 
ENDROOT
BRANCH   1   2
ATOM      2  C   UNL     1       9.418   9.483  29.046  1.00  0.00     0.000 C 
BRANCH   2   3
ATOM      3  C   UNL     1       9.844   8.138  29.660  1.00  0.00     0.000 C 
BRANCH   3   4
ATOM      4  C   UNL     1      10.838   7.366  28.778  1.00  0.00     0.000 C 
BRANCH   4   5
ATOM      5  C   UNL     1      10.964   8.018  27.394  1.00  0.00     0.000 C 
BRANCH   5   6
ATOM      6  C   UNL     1      10.355   7.158  26.276  1.00  0.00     0.006 C 
BRANCH   6   7
ATOM      7  C   UNL     1       9.056   7.751  25.716  1.00  0.00     0.053 C 
BRANCH   7   8
ATOM      8  C   UNL     1       8.410   6.791  24.767  1.00  0.00     0.041 C 
ATOM      9  O   UNL     1       7.663   7.215  23.847  1.00  0.00    -0.550 OA
ATOM     10  O   UNL     1       8.672   5.430  24.870  1.00  0.00    -0.550 OA
ENDBRANCH   7   8
ENDBRANCH   6   7
ENDBRANCH   5   6
ENDBRANCH   4   5
ENDBRANCH   3   4
ENDBRANCH   2   3
ENDBRANCH   1   2
BRANCH   1  11
ATOM     11  C   UNL     1       8.548   9.920  31.457  1.00  0.00     0.000 C 
BRANCH  11  12
ATOM     12  C   UNL     1       7.429  10.588  32.283  1.00  0.00     0.000 C 
BRANCH  12  13
ATOM     13  C   UNL     1       6.246  11.125  31.459  1.00  0.00     0.000 C 
BRANCH  13  14
ATOM     14  C   UNL     1       4.886  10.880  32.133  1.00  0.00     0.000 C 
BRANCH  14  15
ATOM     15  C   UNL     1       3.906  10.122  31.211  1.00  0.00     0.000 C 
BRANCH  15  16
ATOM     16  C   UNL     1       4.584   9.028  30.363  1.00  0.00     0.006 C 
BRANCH  16  17
ATOM     17  C   UNL     1       4.284   9.126  28.861  1.00  0.00     0.053 C 
BRANCH  17  18
ATOM     18  C   UNL     1       5.521   9.402  28.063  1.00  0.00     0.041 C 
ATOM     19  O   UNL     1       6.203   8.452  27.598  1.00  0.00    -0.550 OA
ATOM     20  O   UNL     1       5.931  10.712  27.848  1.00  0.00    -0.550 OA
ENDBRANCH  17  18
ENDBRANCH  16  17
ENDBRANCH  15  16
ENDBRANCH  14  15
ENDBRANCH  13  14
ENDBRANCH  12  13
ENDBRANCH  11  12
ENDBRANCH   1  11
TORSDOF 15
ENDMDL
MODEL 6
REMARK VINA RESULT:    -4.418      3.513      6.736
REMARK INTER + INTRA:         -10.866
REMARK INTER:                  -8.852
REMARK INTRA:                  -2.013
REMARK UNBOUND:                -2.574
REMARK SMILES O=C([O-])CCCCCCCCCCCCCCC(=O)[O-]
REMARK SMILES IDX 10 1 9 2 8 3 7 4 6 5 5 6 4 7 2 8 1 9 3 10 11 11 12 12 13 13
REMARK SMILES IDX 14 14 15 15 16 16 17 17 18 18 19 19 20 20
REMARK H PARENT
REMARK Flexibility Score: inf
ROOT
ATOM      1  C   UNL     1       8.617  10.622  31.167  1.00  0.00     0.000 C 
ENDROOT
BRANCH   1   2
ATOM      2  C   UNL     1       7.426  10.093  31.992  1.00  0.00     0.000 C 
BRANCH   2   3
ATOM      3  C   UNL     1       6.318  11.125  32.266  1.00  0.00     0.000 C 
BRANCH   3   4
ATOM      4  C   UNL     1       4.916  10.606  31.908  1.00  0.00     0.000 C 
BRANCH   4   5
ATOM      5  C   UNL     1       5.005   9.359  31.016  1.00  0.00     0.000 C 
BRANCH   5   6
ATOM      6  C   UNL     1       4.607   9.643  29.559  1.00  0.00     0.006 C 
BRANCH   6   7
ATOM      7  C   UNL     1       5.354   8.752  28.559  1.00  0.00     0.053 C 
BRANCH   7   8
ATOM      8  C   UNL     1       5.694   9.526  27.323  1.00  0.00     0.041 C 
ATOM      9  O   UNL     1       6.771   9.303  26.712  1.00  0.00    -0.550 OA
ATOM     10  O   UNL     1       4.797  10.461  26.820  1.00  0.00    -0.550 OA
ENDBRANCH   7   8
ENDBRANCH   6   7
ENDBRANCH   5   6
ENDBRANCH   4   5
ENDBRANCH   3   4
ENDBRANCH   2   3
ENDBRANCH   1   2
BRANCH   1  11
ATOM     11  C   UNL     1       8.343  10.787  29.659  1.00  0.00     0.000 C 
BRANCH  11  12
ATOM     12  C   UNL     1       9.500  10.355  28.735  1.00  0.00     0.000 C 
BRANCH  12  13
ATOM     13  C   UNL     1      10.171   9.023  29.113  1.00  0.00     0.000 C 
BRANCH  13  14
ATOM     14  C   UNL     1       9.619   7.827  28.320  1.00  0.00     0.000 C 
BRANCH  14  15
ATOM     15  C   UNL     1       8.431   7.150  29.039  1.00  0.00     0.000 C 
BRANCH  15  16
ATOM     16  C   UNL     1       8.194   5.694  28.592  1.00  0.00     0.006 C 
BRANCH  16  17
ATOM     17  C   UNL     1       8.501   5.437  27.110  1.00  0.00     0.053 C 
BRANCH  17  18
ATOM     18  C   UNL     1       7.382   5.892  26.223  1.00  0.00     0.041 C 
ATOM     19  O   UNL     1       6.190   5.601  26.503  1.00  0.00    -0.550 OA
ATOM     20  O   UNL     1       7.660   6.624  25.076  1.00  0.00    -0.550 OA
ENDBRANCH  17  18
ENDBRANCH  16  17
ENDBRANCH  15  16
ENDBRANCH  14  15
ENDBRANCH  13  14
ENDBRANCH  12  13
ENDBRANCH  11  12
ENDBRANCH   1  11
TORSDOF 15
ENDMDL
MODEL 7
REMARK VINA RESULT:    -4.368      2.839      5.282
REMARK INTER + INTRA:         -10.773
REMARK INTER:                  -8.870
REMARK INTRA:                  -1.903
REMARK UNBOUND:                -2.574
REMARK SMILES O=C([O-])CCCCCCCCCCCCCCC(=O)[O-]
REMARK SMILES IDX 10 1 9 2 8 3 7 4 6 5 5 6 4 7 2 8 1 9 3 10 11 11 12 12 13 13
REMARK SMILES IDX 14 14 15 15 16 16 17 17 18 18 19 19 20 20
REMARK H PARENT
REMARK Flexibility Score: inf
ROOT
ATOM      1  C   UNL     1       8.570   9.795  31.115  1.00  0.00     0.000 C 
ENDROOT
BRANCH   1   2
ATOM      2  C   UNL     1       8.747  10.783  29.944  1.00  0.00     0.000 C 
BRANCH   2   3
ATOM      3  C   UNL     1       9.611  10.264  28.781  1.00  0.00     0.000 C 
BRANCH   3   4
ATOM      4  C   UNL     1       9.858   8.748  28.851  1.00  0.00     0.000 C 
BRANCH   4   5
ATOM      5  C   UNL     1      10.655   8.266  27.630  1.00  0.00     0.000 C 
BRANCH   5   6
ATOM      6  C   UNL     1      11.440   6.975  27.907  1.00  0.00     0.006 C 
BRANCH   6   7
ATOM      7  C   UNL     1      11.129   5.866  26.895  1.00  0.00     0.053 C 
BRANCH   7   8
ATOM      8  C   UNL     1      10.237   4.833  27.510  1.00  0.00     0.041 C 
ATOM      9  O   UNL     1      10.457   4.420  28.678  1.00  0.00    -0.550 OA
ATOM     10  O   UNL     1       9.133   4.362  26.809  1.00  0.00    -0.550 OA
ENDBRANCH   7   8
ENDBRANCH   6   7
ENDBRANCH   5   6
ENDBRANCH   4   5
ENDBRANCH   3   4
ENDBRANCH   2   3
ENDBRANCH   1   2
BRANCH   1  11
ATOM     11  C   UNL     1       7.473  10.174  32.128  1.00  0.00     0.000 C 
BRANCH  11  12
ATOM     12  C   UNL     1       6.321  11.024  31.554  1.00  0.00     0.000 C 
BRANCH  12  13
ATOM     13  C   UNL     1       4.921  10.403  31.696  1.00  0.00     0.000 C 
BRANCH  13  14
ATOM     14  C   UNL     1       4.667   9.261  30.697  1.00  0.00     0.000 C 
BRANCH  14  15
ATOM     15  C   UNL     1       5.238   9.576  29.297  1.00  0.00     0.000 C 
BRANCH  15  16
ATOM     16  C   UNL     1       5.647   8.318  28.505  1.00  0.00     0.006 C 
BRANCH  16  17
ATOM     17  C   UNL     1       6.539   8.608  27.289  1.00  0.00     0.053 C 
BRANCH  17  18
ATOM     18  C   UNL     1       6.951   7.350  26.589  1.00  0.00     0.041 C 
ATOM     19  O   UNL     1       6.443   6.245  26.914  1.00  0.00    -0.550 OA
ATOM     20  O   UNL     1       7.913   7.396  25.587  1.00  0.00    -0.550 OA
ENDBRANCH  17  18
ENDBRANCH  16  17
ENDBRANCH  15  16
ENDBRANCH  14  15
ENDBRANCH  13  14
ENDBRANCH  12  13
ENDBRANCH  11  12
ENDBRANCH   1  11
TORSDOF 15
ENDMDL
MODEL 8
REMARK VINA RESULT:    -4.340      3.124      6.022
REMARK INTER + INTRA:         -10.721
REMARK INTER:                  -8.834
REMARK INTRA:                  -1.887
REMARK UNBOUND:                -2.574
REMARK SMILES O=C([O-])CCCCCCCCCCCCCCC(=O)[O-]
REMARK SMILES IDX 10 1 9 2 8 3 7 4 6 5 5 6 4 7 2 8 1 9 3 10 11 11 12 12 13 13
REMARK SMILES IDX 14 14 15 15 16 16 17 17 18 18 19 19 20 20
REMARK H PARENT
REMARK Flexibility Score: inf
ROOT
ATOM      1  C   UNL     1       7.291  10.061  32.233  1.00  0.00     0.000 C 
ENDROOT
BRANCH   1   2
ATOM      2  C   UNL     1       6.102  11.037  32.127  1.00  0.00     0.000 C 
BRANCH   2   3
ATOM      3  C   UNL     1       4.761  10.386  31.744  1.00  0.00     0.000 C 
BRANCH   3   4
ATOM      4  C   UNL     1       4.917   9.262  30.708  1.00  0.00     0.000 C 
BRANCH   4   5
ATOM      5  C   UNL     1       4.946   9.831  29.281  1.00  0.00     0.000 C 
BRANCH   5   6
ATOM      6  C   UNL     1       5.946   9.099  28.373  1.00  0.00     0.006 C 
BRANCH   6   7
ATOM      7  C   UNL     1       6.195   7.652  28.814  1.00  0.00     0.053 C 
BRANCH   7   8
ATOM      8  C   UNL     1       7.155   6.980  27.882  1.00  0.00     0.041 C 
ATOM      9  O   UNL     1       7.995   6.154  28.325  1.00  0.00    -0.550 OA
ATOM     10  O   UNL     1       7.089   7.230  26.517  1.00  0.00    -0.550 OA
ENDBRANCH   7   8
ENDBRANCH   6   7
ENDBRANCH   5   6
ENDBRANCH   4   5
ENDBRANCH   3   4
ENDBRANCH   2   3
ENDBRANCH   1   2
BRANCH   1  11
ATOM     11  C   UNL     1       8.517  10.431  31.375  1.00  0.00     0.000 C 
BRANCH  11  12
ATOM     12  C   UNL     1       9.117   9.268  30.560  1.00  0.00     0.000 C 
BRANCH  12  13
ATOM     13  C   UNL     1       9.486   9.615  29.107  1.00  0.00     0.000 C 
BRANCH  13  14
ATOM     14  C   UNL     1      10.562   8.685  28.523  1.00  0.00     0.000 C 
BRANCH  14  15
ATOM     15  C   UNL     1      10.397   8.488  26.999  1.00  0.00     0.000 C 
BRANCH  15  16
ATOM     16  C   UNL     1      10.902   7.121  26.499  1.00  0.00     0.006 C 
BRANCH  16  17
ATOM     17  C   UNL     1      12.040   6.529  27.343  1.00  0.00     0.053 C 
BRANCH  17  18
ATOM     18  C   UNL     1      13.250   6.228  26.512  1.00  0.00     0.041 C 
ATOM     19  O   UNL     1      13.750   5.073  26.510  1.00  0.00    -0.550 OA
ATOM     20  O   UNL     1      13.837   7.232  25.751  1.00  0.00    -0.550 OA
ENDBRANCH  17  18
ENDBRANCH  16  17
ENDBRANCH  15  16
ENDBRANCH  14  15
ENDBRANCH  13  14
ENDBRANCH  12  13
ENDBRANCH  11  12
ENDBRANCH   1  11
TORSDOF 15
ENDMDL
MODEL 9
REMARK VINA RESULT:    -2.651      2.892      5.945
REMARK INTER + INTRA:          -7.551
REMARK INTER:                  -5.612
REMARK INTRA:                  -1.938
REMARK UNBOUND:                -2.574
REMARK SMILES O=C([O-])CCCCCCCCCCCCCCC(=O)[O-]
REMARK SMILES IDX 10 1 9 2 8 3 7 4 6 5 5 6 4 7 2 8 1 9 3 10 11 11 12 12 13 13
REMARK SMILES IDX 14 14 15 15 16 16 17 17 18 18 19 19 20 20
REMARK H PARENT
REMARK Flexibility Score: inf
ROOT
ATOM      1  C   UNL     1       7.597  10.418  32.095  1.00  0.00     0.000 C 
ENDROOT
BRANCH   1   2
ATOM      2  C   UNL     1       6.334  11.125  31.561  1.00  0.00     0.000 C 
BRANCH   2   3
ATOM      3  C   UNL     1       5.013  10.385  31.834  1.00  0.00     0.000 C 
BRANCH   3   4
ATOM      4  C   UNL     1       4.607   9.446  30.687  1.00  0.00     0.000 C 
BRANCH   4   5
ATOM      5  C   UNL     1       5.396   9.768  29.409  1.00  0.00     0.000 C 
BRANCH   5   6
ATOM      6  C   UNL     1       5.827   8.506  28.646  1.00  0.00     0.006 C 
BRANCH   6   7
ATOM      7  C   UNL     1       6.592   8.829  27.356  1.00  0.00     0.053 C 
BRANCH   7   8
ATOM      8  C   UNL     1       7.096   7.571  26.719  1.00  0.00     0.041 C 
ATOM      9  O   UNL     1       6.491   6.483  26.901  1.00  0.00    -0.550 OA
ATOM     10  O   UNL     1       8.207   7.611  25.886  1.00  0.00    -0.550 OA
ENDBRANCH   7   8
ENDBRANCH   6   7
ENDBRANCH   5   6
ENDBRANCH   4   5
ENDBRANCH   3   4
ENDBRANCH   2   3
ENDBRANCH   1   2
BRANCH   1  11
ATOM     11  C   UNL     1       8.723  10.225  31.060  1.00  0.00     0.000 C 
BRANCH  11  12
ATOM     12  C   UNL     1       9.435   8.859  31.119  1.00  0.00     0.000 C 
BRANCH  12  13
ATOM     13  C   UNL     1       9.334   8.017  29.834  1.00  0.00     0.000 C 
BRANCH  13  14
ATOM     14  C   UNL     1      10.276   8.506  28.722  1.00  0.00     0.000 C 
BRANCH  14  15
ATOM     15  C   UNL     1      11.306   7.429  28.316  1.00  0.00     0.000 C 
BRANCH  15  16
ATOM     16  C   UNL     1      11.144   6.104  29.086  1.00  0.00     0.006 C 
BRANCH  16  17
ATOM     17  C   UNL     1      10.970   4.874  28.184  1.00  0.00     0.053 C 
BRANCH  17  18
ATOM     18  C   UNL     1       9.540   4.671  27.789  1.00  0.00     0.041 C 
ATOM     19  O   UNL     1       8.640   4.603  28.667  1.00  0.00    -0.550 OA
ATOM     20  O   UNL     1       9.201   4.540  26.448  1.00  0.00    -0.550 OA
ENDBRANCH  17  18
ENDBRANCH  16  17
ENDBRANCH  15  16
ENDBRANCH  14  15
ENDBRANCH  13  14
ENDBRANCH  12  13
ENDBRANCH  11  12
ENDBRANCH   1  11
TORSDOF 15
ENDMDL
