MODEL 1
REMARK VINA RESULT:   -10.218      0.000      0.000
REMARK INTER + INTRA:         -12.085
REMARK INTER:                 -11.413
REMARK INTRA:                  -0.672
REMARK UNBOUND:                -0.672
REMARK SMILES C=C(C)[C@@H]1CC[C@@]2(C(=O)[O-])CC[C@@]3(C)[C@H](CC[C@H]4[C@@]5(C)CCC(=O)C(C)(C)[C@H]5CC[C@]43C)[C@@H]12
REMARK SMILES IDX 7 1 6 2 33 3 11 4 5 5 15 6 4 7 12 8 16 9 13 10 17 11 31 12
REMARK SMILES IDX 14 13 18 14 30 15 32 16 19 17 29 18 21 19 20 20 28 21 22 22
REMARK SMILES IDX 25 23 23 24 26 25 27 26 24 27 8 28 9 29 10 30 2 31 3 32 1 33
REMARK H PARENT
REMARK Flexibility Score: inf
ROOT
ATOM      1  C   UNL     1      26.298  54.002  12.301  1.00  0.00     0.014 C 
ATOM      2  C   UNL     1      26.277  53.986  10.761  1.00  0.00     0.014 C 
ATOM      3  C   UNL     1      27.716  54.536  12.629  1.00  0.00     0.012 C 
ATOM      4  C   UNL     1      26.081  52.553  12.823  1.00  0.00     0.014 C 
ATOM      5  C   UNL     1      27.703  53.678  10.314  1.00  0.00     0.009 C 
ATOM      6  C   UNL     1      28.267  54.203  14.066  1.00  0.00     0.000 C 
ATOM      7  C   UNL     1      28.636  54.145  11.444  1.00  0.00     0.018 C 
ATOM      8  C   UNL     1      26.525  52.352  14.283  1.00  0.00     0.008 C 
ATOM      9  C   UNL     1      27.706  55.261  15.038  1.00  0.00     0.005 C 
ATOM     10  C   UNL     1      28.008  52.732  14.589  1.00  0.00    -0.024 C 
ATOM     11  C   UNL     1      28.323  55.174  16.420  1.00  0.00     0.005 C 
ATOM     12  C   UNL     1      28.394  52.586  16.183  1.00  0.00    -0.024 C 
ATOM     13  C   UNL     1      28.893  51.733  13.760  1.00  0.00     0.012 C 
ATOM     14  C   UNL     1      28.035  53.832  17.130  1.00  0.00     0.002 C 
ATOM     15  C   UNL     1      27.826  51.282  16.816  1.00  0.00     0.008 C 
ATOM     16  C   UNL     1      29.963  52.425  16.285  1.00  0.00     0.012 C 
ATOM     17  C   UNL     1      26.761  53.843  18.125  1.00  0.00    -0.025 C 
ATOM     18  C   UNL     1      26.430  51.400  17.422  1.00  0.00     0.006 C 
ATOM     19  C   UNL     1      25.511  54.513  17.470  1.00  0.00     0.015 C 
ATOM     20  C   UNL     1      27.178  54.715  19.369  1.00  0.00     0.012 C 
ATOM     21  C   UNL     1      26.397  52.376  18.620  1.00  0.00     0.008 C 
ATOM     22  C   UNL     1      24.226  54.459  18.304  1.00  0.00     0.077 C 
ATOM     23  C   UNL     1      25.039  52.255  19.454  1.00  0.00     0.027 C 
ATOM     24  C   UNL     1      23.945  53.067  18.781  1.00  0.00     0.138 C 
ATOM     25  C   UNL     1      24.575  50.774  19.595  1.00  0.00     0.020 C 
ATOM     26  C   UNL     1      25.214  52.766  20.909  1.00  0.00     0.020 C 
ATOM     27  O   UNL     1      22.798  52.644  18.717  1.00  0.00    -0.299 OA
ENDROOT
BRANCH   1  28
ATOM     28  C   UNL     1      25.210  54.946  12.810  1.00  0.00     0.048 C 
ATOM     29  O   UNL     1      24.143  54.505  13.317  1.00  0.00    -0.550 OA
ATOM     30  O   UNL     1      25.371  56.324  12.692  1.00  0.00    -0.550 OA
ENDBRANCH   1  28
BRANCH   7  31
ATOM     31  C   UNL     1      29.548  55.292  11.011  1.00  0.00    -0.077 C 
ATOM     32  C   UNL     1      28.989  56.646  10.646  1.00  0.00     0.039 C 
ATOM     33  C   UNL     1      30.881  55.122  10.994  1.00  0.00     0.008 C 
ENDBRANCH   7  31
TORSDOF 2
ENDMDL
MODEL 2
REMARK VINA RESULT:    -9.911      2.610      4.572
REMARK INTER + INTRA:         -11.742
REMARK INTER:                 -11.179
REMARK INTRA:                  -0.563
REMARK UNBOUND:                -0.672
REMARK SMILES C=C(C)[C@@H]1CC[C@@]2(C(=O)[O-])CC[C@@]3(C)[C@H](CC[C@H]4[C@@]5(C)CCC(=O)C(C)(C)[C@H]5CC[C@]43C)[C@@H]12
REMARK SMILES IDX 7 1 6 2 33 3 11 4 5 5 15 6 4 7 12 8 16 9 13 10 17 11 31 12
REMARK SMILES IDX 14 13 18 14 30 15 32 16 19 17 29 18 21 19 20 20 28 21 22 22
REMARK SMILES IDX 25 23 23 24 26 25 27 26 24 27 8 28 9 29 10 30 2 31 3 32 1 33
REMARK H PARENT
REMARK Flexibility Score: inf
ROOT
ATOM      1  C   UNL     1      23.949  53.578   9.300  1.00  0.00     0.014 C 
ATOM      2  C   UNL     1      23.128  53.268   8.034  1.00  0.00     0.014 C 
ATOM      3  C   UNL     1      25.084  54.492   8.770  1.00  0.00     0.012 C 
ATOM      4  C   UNL     1      24.494  52.245   9.886  1.00  0.00     0.014 C 
ATOM      5  C   UNL     1      24.121  53.237   6.874  1.00  0.00     0.009 C 
ATOM      6  C   UNL     1      26.378  54.578   9.663  1.00  0.00     0.000 C 
ATOM      7  C   UNL     1      25.311  54.120   7.282  1.00  0.00     0.018 C 
ATOM      8  C   UNL     1      25.675  52.435  10.854  1.00  0.00     0.008 C 
ATOM      9  C   UNL     1      26.119  55.632  10.760  1.00  0.00     0.005 C 
ATOM     10  C   UNL     1      26.897  53.213  10.274  1.00  0.00    -0.024 C 
ATOM     11  C   UNL     1      27.362  55.958  11.565  1.00  0.00     0.005 C 
ATOM     12  C   UNL     1      28.085  53.468  11.385  1.00  0.00    -0.024 C 
ATOM     13  C   UNL     1      27.470  52.322   9.114  1.00  0.00     0.012 C 
ATOM     14  C   UNL     1      27.916  54.745  12.344  1.00  0.00     0.002 C 
ATOM     15  C   UNL     1      28.364  52.208  12.256  1.00  0.00     0.008 C 
ATOM     16  C   UNL     1      29.434  53.714  10.598  1.00  0.00     0.012 C 
ATOM     17  C   UNL     1      27.423  54.633  13.879  1.00  0.00    -0.025 C 
ATOM     18  C   UNL     1      27.538  52.095  13.534  1.00  0.00     0.006 C 
ATOM     19  C   UNL     1      25.882  54.845  14.018  1.00  0.00     0.015 C 
ATOM     20  C   UNL     1      28.141  55.797  14.661  1.00  0.00     0.012 C 
ATOM     21  C   UNL     1      27.843  53.242  14.525  1.00  0.00     0.008 C 
ATOM     22  C   UNL     1      25.315  54.638  15.427  1.00  0.00     0.077 C 
ATOM     23  C   UNL     1      27.239  52.954  15.977  1.00  0.00     0.027 C 
ATOM     24  C   UNL     1      25.768  53.335  16.010  1.00  0.00     0.138 C 
ATOM     25  C   UNL     1      27.397  51.458  16.385  1.00  0.00     0.020 C 
ATOM     26  C   UNL     1      27.986  53.756  17.077  1.00  0.00     0.020 C 
ATOM     27  O   UNL     1      24.953  52.642  16.606  1.00  0.00    -0.299 OA
ENDROOT
BRANCH   1  28
ATOM     28  C   UNL     1      23.063  54.309  10.308  1.00  0.00     0.048 C 
ATOM     29  O   UNL     1      23.044  53.977  11.525  1.00  0.00    -0.550 OA
ATOM     30  O   UNL     1      22.233  55.343   9.886  1.00  0.00    -0.550 OA
ENDBRANCH   1  28
BRANCH   7  31
ATOM     31  C   UNL     1      25.458  55.351   6.390  1.00  0.00    -0.077 C 
ATOM     32  C   UNL     1      25.067  56.725   6.877  1.00  0.00     0.039 C 
ATOM     33  C   UNL     1      25.987  55.233   5.160  1.00  0.00     0.008 C 
ENDBRANCH   7  31
TORSDOF 2
ENDMDL
MODEL 3
REMARK VINA RESULT:    -9.784      2.263      7.330
REMARK INTER + INTRA:         -11.600
REMARK INTER:                 -10.923
REMARK INTRA:                  -0.677
REMARK UNBOUND:                -0.672
REMARK SMILES C=C(C)[C@@H]1CC[C@@]2(C(=O)[O-])CC[C@@]3(C)[C@H](CC[C@H]4[C@@]5(C)CCC(=O)C(C)(C)[C@H]5CC[C@]43C)[C@@H]12
REMARK SMILES IDX 7 1 6 2 33 3 11 4 5 5 15 6 4 7 12 8 16 9 13 10 17 11 31 12
REMARK SMILES IDX 14 13 18 14 30 15 32 16 19 17 29 18 21 19 20 20 28 21 22 22
REMARK SMILES IDX 25 23 23 24 26 25 27 26 24 27 8 28 9 29 10 30 2 31 3 32 1 33
REMARK H PARENT
REMARK Flexibility Score: inf
ROOT
ATOM      1  C   UNL     1      26.562  53.828  15.359  1.00  0.00     0.014 C 
ATOM      2  C   UNL     1      26.619  54.025  16.885  1.00  0.00     0.014 C 
ATOM      3  C   UNL     1      28.034  53.509  14.990  1.00  0.00     0.012 C 
ATOM      4  C   UNL     1      26.065  55.146  14.699  1.00  0.00     0.014 C 
ATOM      5  C   UNL     1      27.989  54.623  17.192  1.00  0.00     0.009 C 
ATOM      6  C   UNL     1      28.441  53.756  13.489  1.00  0.00     0.000 C 
ATOM      7  C   UNL     1      28.929  54.190  16.056  1.00  0.00     0.018 C 
ATOM      8  C   UNL     1      26.389  55.244  13.198  1.00  0.00     0.008 C 
ATOM      9  C   UNL     1      28.027  52.510  12.681  1.00  0.00     0.005 C 
ATOM     10  C   UNL     1      27.898  55.089  12.829  1.00  0.00    -0.024 C 
ATOM     11  C   UNL     1      28.547  52.535  11.256  1.00  0.00     0.005 C 
ATOM     12  C   UNL     1      28.169  55.106  11.205  1.00  0.00    -0.024 C 
ATOM     13  C   UNL     1      28.634  56.316  13.479  1.00  0.00     0.012 C 
ATOM     14  C   UNL     1      27.989  53.714  10.427  1.00  0.00     0.002 C 
ATOM     15  C   UNL     1      27.346  56.209  10.477  1.00  0.00     0.008 C 
ATOM     16  C   UNL     1      29.677  55.520  10.974  1.00  0.00     0.012 C 
ATOM     17  C   UNL     1      26.687  53.367   9.534  1.00  0.00    -0.025 C 
ATOM     18  C   UNL     1      25.963  55.784   9.989  1.00  0.00     0.006 C 
ATOM     19  C   UNL     1      25.612  52.576  10.346  1.00  0.00     0.015 C 
ATOM     20  C   UNL     1      27.187  52.437   8.365  1.00  0.00     0.012 C 
ATOM     21  C   UNL     1      26.043  54.680   8.910  1.00  0.00     0.008 C 
ATOM     22  C   UNL     1      24.295  52.311   9.606  1.00  0.00     0.077 C 
ATOM     23  C   UNL     1      24.643  54.467   8.167  1.00  0.00     0.027 C 
ATOM     24  C   UNL     1      23.747  53.567   9.002  1.00  0.00     0.138 C 
ATOM     25  C   UNL     1      23.916  55.819   7.901  1.00  0.00     0.020 C 
ATOM     26  C   UNL     1      24.830  53.823   6.768  1.00  0.00     0.020 C 
ATOM     27  O   UNL     1      22.548  53.792   9.102  1.00  0.00    -0.299 OA
ENDROOT
BRANCH   1  28
ATOM     28  C   UNL     1      25.635  52.659  15.035  1.00  0.00     0.048 C 
ATOM     29  O   UNL     1      24.532  52.838  14.449  1.00  0.00    -0.550 OA
ATOM     30  O   UNL     1      25.984  51.366  15.414  1.00  0.00    -0.550 OA
ENDBRANCH   1  28
BRANCH   7  31
ATOM     31  C   UNL     1      30.053  53.276  16.544  1.00  0.00    -0.077 C 
ATOM     32  C   UNL     1      29.861  51.782  16.644  1.00  0.00     0.039 C 
ATOM     33  C   UNL     1      31.255  53.790  16.850  1.00  0.00     0.008 C 
ENDBRANCH   7  31
TORSDOF 2
ENDMDL
MODEL 4
REMARK VINA RESULT:    -8.891      1.322      7.261
REMARK INTER + INTRA:         -10.602
REMARK INTER:                  -9.977
REMARK INTRA:                  -0.625
REMARK UNBOUND:                -0.672
REMARK SMILES C=C(C)[C@@H]1CC[C@@]2(C(=O)[O-])CC[C@@]3(C)[C@H](CC[C@H]4[C@@]5(C)CCC(=O)C(C)(C)[C@H]5CC[C@]43C)[C@@H]12
REMARK SMILES IDX 7 1 6 2 33 3 11 4 5 5 15 6 4 7 12 8 16 9 13 10 17 11 31 12
REMARK SMILES IDX 14 13 18 14 30 15 32 16 19 17 29 18 21 19 20 20 28 21 22 22
REMARK SMILES IDX 25 23 23 24 26 25 27 26 24 27 8 28 9 29 10 30 2 31 3 32 1 33
REMARK H PARENT
REMARK Flexibility Score: inf
ROOT
ATOM      1  C   UNL     1      24.012  53.670  18.707  1.00  0.00     0.014 C 
ATOM      2  C   UNL     1      23.290  53.955  20.037  1.00  0.00     0.014 C 
ATOM      3  C   UNL     1      25.125  52.671  19.117  1.00  0.00     0.012 C 
ATOM      4  C   UNL     1      24.594  55.001  18.153  1.00  0.00     0.014 C 
ATOM      5  C   UNL     1      24.352  53.874  21.130  1.00  0.00     0.009 C 
ATOM      6  C   UNL     1      26.355  52.564  18.139  1.00  0.00     0.000 C 
ATOM      7  C   UNL     1      25.465  52.953  20.603  1.00  0.00     0.018 C 
ATOM      8  C   UNL     1      25.700  54.801  17.102  1.00  0.00     0.008 C 
ATOM      9  C   UNL     1      25.971  51.584  17.011  1.00  0.00     0.005 C 
ATOM     10  C   UNL     1      26.910  53.930  17.563  1.00  0.00    -0.024 C 
ATOM     11  C   UNL     1      27.142  51.236  16.113  1.00  0.00     0.005 C 
ATOM     12  C   UNL     1      28.012  53.672  16.367  1.00  0.00    -0.024 C 
ATOM     13  C   UNL     1      27.603  54.728  18.726  1.00  0.00     0.012 C 
ATOM     14  C   UNL     1      27.714  52.458  15.360  1.00  0.00     0.002 C 
ATOM     15  C   UNL     1      28.307  54.960  15.543  1.00  0.00     0.008 C 
ATOM     16  C   UNL     1      29.391  53.315  17.052  1.00  0.00     0.012 C 
ATOM     17  C   UNL     1      27.134  52.675  13.867  1.00  0.00    -0.025 C 
ATOM     18  C   UNL     1      27.411  55.182  14.327  1.00  0.00     0.006 C 
ATOM     19  C   UNL     1      25.577  52.552  13.818  1.00  0.00     0.015 C 
ATOM     20  C   UNL     1      27.736  51.517  12.985  1.00  0.00     0.012 C 
ATOM     21  C   UNL     1      27.589  54.075  13.264  1.00  0.00     0.008 C 
ATOM     22  C   UNL     1      24.937  52.862  12.459  1.00  0.00     0.077 C 
ATOM     23  C   UNL     1      26.914  54.469  11.870  1.00  0.00     0.027 C 
ATOM     24  C   UNL     1      25.425  54.168  11.913  1.00  0.00     0.138 C 
ATOM     25  C   UNL     1      27.129  55.974  11.526  1.00  0.00     0.020 C 
ATOM     26  C   UNL     1      27.546  53.688  10.687  1.00  0.00     0.020 C 
ATOM     27  O   UNL     1      24.614  54.932  11.406  1.00  0.00    -0.299 OA
ENDROOT
BRANCH   1  28
ATOM     28  C   UNL     1      23.027  53.040  17.723  1.00  0.00     0.048 C 
ATOM     29  O   UNL     1      22.773  53.581  16.613  1.00  0.00    -0.550 OA
ATOM     30  O   UNL     1      22.365  51.862  18.057  1.00  0.00    -0.550 OA
ENDBRANCH   1  28
BRANCH   7  31
ATOM     31  C   UNL     1      25.598  51.670  21.423  1.00  0.00    -0.077 C 
ATOM     32  C   UNL     1      25.106  50.345  20.894  1.00  0.00     0.039 C 
ATOM     33  C   UNL     1      26.203  51.697  22.622  1.00  0.00     0.008 C 
ENDBRANCH   7  31
TORSDOF 2
ENDMDL
MODEL 5
REMARK VINA RESULT:    -8.411      2.567      7.060
REMARK INTER + INTRA:         -10.066
REMARK INTER:                  -9.571
REMARK INTRA:                  -0.495
REMARK UNBOUND:                -0.672
REMARK SMILES C=C(C)[C@@H]1CC[C@@]2(C(=O)[O-])CC[C@@]3(C)[C@H](CC[C@H]4[C@@]5(C)CCC(=O)C(C)(C)[C@H]5CC[C@]43C)[C@@H]12
REMARK SMILES IDX 7 1 6 2 33 3 11 4 5 5 15 6 4 7 12 8 16 9 13 10 17 11 31 12
REMARK SMILES IDX 14 13 18 14 30 15 32 16 19 17 29 18 21 19 20 20 28 21 22 22
REMARK SMILES IDX 25 23 23 24 26 25 27 26 24 27 8 28 9 29 10 30 2 31 3 32 1 33
REMARK H PARENT
REMARK Flexibility Score: inf
ROOT
ATOM      1  C   UNL     1      26.811  51.089  15.731  1.00  0.00     0.014 C 
ATOM      2  C   UNL     1      26.819  50.487  17.149  1.00  0.00     0.014 C 
ATOM      3  C   UNL     1      28.271  50.883  15.252  1.00  0.00     0.012 C 
ATOM      4  C   UNL     1      26.431  52.594  15.825  1.00  0.00     0.014 C 
ATOM      5  C   UNL     1      28.213  50.740  17.716  1.00  0.00     0.009 C 
ATOM      6  C   UNL     1      28.754  51.817  14.081  1.00  0.00     0.000 C 
ATOM      7  C   UNL     1      29.167  50.864  16.517  1.00  0.00     0.018 C 
ATOM      8  C   UNL     1      26.821  53.407  14.578  1.00  0.00     0.008 C 
ATOM      9  C   UNL     1      28.290  51.182  12.754  1.00  0.00     0.005 C 
ATOM     10  C   UNL     1      28.330  53.339  14.181  1.00  0.00    -0.024 C 
ATOM     11  C   UNL     1      28.867  51.878  11.537  1.00  0.00     0.005 C 
ATOM     12  C   UNL     1      28.667  54.148  12.787  1.00  0.00    -0.024 C 
ATOM     13  C   UNL     1      29.120  54.012  15.361  1.00  0.00     0.012 C 
ATOM     14  C   UNL     1      28.424  53.353  11.414  1.00  0.00     0.002 C 
ATOM     15  C   UNL     1      27.950  55.528  12.713  1.00  0.00     0.008 C 
ATOM     16  C   UNL     1      30.207  54.501  12.797  1.00  0.00     0.012 C 
ATOM     17  C   UNL     1      27.138  53.605  10.467  1.00  0.00    -0.025 C 
ATOM     18  C   UNL     1      26.562  55.516  12.077  1.00  0.00     0.006 C 
ATOM     19  C   UNL     1      25.980  52.602  10.769  1.00  0.00     0.015 C 
ATOM     20  C   UNL     1      27.621  53.352   8.989  1.00  0.00     0.012 C 
ATOM     21  C   UNL     1      26.610  55.100  10.589  1.00  0.00     0.008 C 
ATOM     22  C   UNL     1      24.680  52.848   9.995  1.00  0.00     0.077 C 
ATOM     23  C   UNL     1      25.230  55.400   9.838  1.00  0.00     0.027 C 
ATOM     24  C   UNL     1      24.243  54.276  10.106  1.00  0.00     0.138 C 
ATOM     25  C   UNL     1      24.608  56.756  10.289  1.00  0.00     0.020 C 
ATOM     26  C   UNL     1      25.430  55.533   8.305  1.00  0.00     0.020 C 
ATOM     27  O   UNL     1      23.059  54.515  10.305  1.00  0.00    -0.299 OA
ENDROOT
BRANCH   1  28
ATOM     28  C   UNL     1      25.820  50.317  14.862  1.00  0.00     0.048 C 
ATOM     29  O   UNL     1      25.134  50.897  13.976  1.00  0.00    -0.550 OA
ATOM     30  O   UNL     1      25.637  48.951  15.058  1.00  0.00    -0.550 OA
ENDBRANCH   1  28
BRANCH   7  31
ATOM     31  C   UNL     1      30.205  49.743  16.479  1.00  0.00    -0.077 C 
ATOM     32  C   UNL     1      29.922  48.434  15.783  1.00  0.00     0.039 C 
ATOM     33  C   UNL     1      31.416  49.927  17.032  1.00  0.00     0.008 C 
ENDBRANCH   7  31
TORSDOF 2
ENDMDL
MODEL 6
REMARK VINA RESULT:    -8.280      3.150      7.072
REMARK INTER + INTRA:          -9.920
REMARK INTER:                  -9.302
REMARK INTRA:                  -0.618
REMARK UNBOUND:                -0.672
REMARK SMILES C=C(C)[C@@H]1CC[C@@]2(C(=O)[O-])CC[C@@]3(C)[C@H](CC[C@H]4[C@@]5(C)CCC(=O)C(C)(C)[C@H]5CC[C@]43C)[C@@H]12
REMARK SMILES IDX 7 1 6 2 33 3 11 4 5 5 15 6 4 7 12 8 16 9 13 10 17 11 31 12
REMARK SMILES IDX 14 13 18 14 30 15 32 16 19 17 29 18 21 19 20 20 28 21 22 22
REMARK SMILES IDX 25 23 23 24 26 25 27 26 24 27 8 28 9 29 10 30 2 31 3 32 1 33
REMARK H PARENT
REMARK Flexibility Score: inf
ROOT
ATOM      1  C   UNL     1      29.160  52.602  14.575  1.00  0.00     0.014 C 
ATOM      2  C   UNL     1      30.139  52.072  15.638  1.00  0.00     0.014 C 
ATOM      3  C   UNL     1      28.433  53.758  15.310  1.00  0.00     0.012 C 
ATOM      4  C   UNL     1      28.186  51.459  14.171  1.00  0.00     0.014 C 
ATOM      5  C   UNL     1      29.454  52.263  16.988  1.00  0.00     0.009 C 
ATOM      6  C   UNL     1      27.034  54.182  14.723  1.00  0.00     0.000 C 
ATOM      7  C   UNL     1      28.458  53.422  16.824  1.00  0.00     0.018 C 
ATOM      8  C   UNL     1      26.903  51.956  13.482  1.00  0.00     0.008 C 
ATOM      9  C   UNL     1      27.293  55.161  13.560  1.00  0.00     0.005 C 
ATOM     10  C   UNL     1      26.072  53.001  14.290  1.00  0.00    -0.024 C 
ATOM     11  C   UNL     1      26.022  55.803  13.040  1.00  0.00     0.005 C 
ATOM     12  C   UNL     1      24.766  53.566  13.462  1.00  0.00    -0.024 C 
ATOM     13  C   UNL     1      25.570  52.255  15.579  1.00  0.00     0.012 C 
ATOM     14  C   UNL     1      25.026  54.782  12.445  1.00  0.00     0.002 C 
ATOM     15  C   UNL     1      23.998  52.434  12.720  1.00  0.00     0.008 C 
ATOM     16  C   UNL     1      23.730  54.122  14.519  1.00  0.00     0.012 C 
ATOM     17  C   UNL     1      25.121  54.584  10.844  1.00  0.00    -0.025 C 
ATOM     18  C   UNL     1      24.464  52.147  11.295  1.00  0.00     0.006 C 
ATOM     19  C   UNL     1      26.596  54.410  10.360  1.00  0.00     0.015 C 
ATOM     20  C   UNL     1      24.556  55.906  10.200  1.00  0.00     0.012 C 
ATOM     21  C   UNL     1      24.238  53.354  10.356  1.00  0.00     0.008 C 
ATOM     22  C   UNL     1      26.765  54.100   8.868  1.00  0.00     0.077 C 
ATOM     23  C   UNL     1      24.413  52.958   8.817  1.00  0.00     0.027 C 
ATOM     24  C   UNL     1      25.886  52.962   8.447  1.00  0.00     0.138 C 
ATOM     25  C   UNL     1      23.804  51.557   8.508  1.00  0.00     0.020 C 
ATOM     26  C   UNL     1      23.661  53.943   7.883  1.00  0.00     0.020 C 
ATOM     27  O   UNL     1      26.351  52.102   7.710  1.00  0.00    -0.299 OA
ENDROOT
BRANCH   1  28
ATOM     28  C   UNL     1      29.950  53.112  13.371  1.00  0.00     0.048 C 
ATOM     29  O   UNL     1      29.849  52.563  12.240  1.00  0.00    -0.550 OA
ATOM     30  O   UNL     1      30.825  54.185  13.514  1.00  0.00    -0.550 OA
ENDBRANCH   1  28
BRANCH   7  31
ATOM     31  C   UNL     1      28.822  54.632  17.683  1.00  0.00    -0.077 C 
ATOM     32  C   UNL     1      28.001  55.013  18.890  1.00  0.00     0.039 C 
ATOM     33  C   UNL     1      29.919  55.354  17.399  1.00  0.00     0.008 C 
ENDBRANCH   7  31
TORSDOF 2
ENDMDL
MODEL 7
REMARK VINA RESULT:    -8.036      2.713      4.987
REMARK INTER + INTRA:          -9.648
REMARK INTER:                  -9.083
REMARK INTRA:                  -0.565
REMARK UNBOUND:                -0.672
REMARK SMILES C=C(C)[C@@H]1CC[C@@]2(C(=O)[O-])CC[C@@]3(C)[C@H](CC[C@H]4[C@@]5(C)CCC(=O)C(C)(C)[C@H]5CC[C@]43C)[C@@H]12
REMARK SMILES IDX 7 1 6 2 33 3 11 4 5 5 15 6 4 7 12 8 16 9 13 10 17 11 31 12
REMARK SMILES IDX 14 13 18 14 30 15 32 16 19 17 29 18 21 19 20 20 28 21 22 22
REMARK SMILES IDX 25 23 23 24 26 25 27 26 24 27 8 28 9 29 10 30 2 31 3 32 1 33
REMARK H PARENT
REMARK Flexibility Score: inf
ROOT
ATOM      1  C   UNL     1      24.477  55.502  10.605  1.00  0.00     0.014 C 
ATOM      2  C   UNL     1      23.180  55.724   9.806  1.00  0.00     0.014 C 
ATOM      3  C   UNL     1      25.562  55.420   9.501  1.00  0.00     0.012 C 
ATOM      4  C   UNL     1      24.354  54.176  11.407  1.00  0.00     0.014 C 
ATOM      5  C   UNL     1      23.355  54.980   8.484  1.00  0.00     0.009 C 
ATOM      6  C   UNL     1      26.903  54.697   9.900  1.00  0.00     0.000 C 
ATOM      7  C   UNL     1      24.867  54.897   8.217  1.00  0.00     0.018 C 
ATOM      8  C   UNL     1      25.707  53.610  11.874  1.00  0.00     0.008 C 
ATOM      9  C   UNL     1      27.794  55.731  10.618  1.00  0.00     0.005 C 
ATOM     10  C   UNL     1      26.755  53.365  10.743  1.00  0.00    -0.024 C 
ATOM     11  C   UNL     1      29.198  55.217  10.875  1.00  0.00     0.005 C 
ATOM     12  C   UNL     1      28.212  52.852  11.313  1.00  0.00    -0.024 C 
ATOM     13  C   UNL     1      26.148  52.245   9.823  1.00  0.00     0.012 C 
ATOM     14  C   UNL     1      29.233  53.987  11.809  1.00  0.00     0.002 C 
ATOM     15  C   UNL     1      28.067  51.772  12.425  1.00  0.00     0.008 C 
ATOM     16  C   UNL     1      28.956  52.110  10.133  1.00  0.00     0.012 C 
ATOM     17  C   UNL     1      29.488  54.320  13.370  1.00  0.00    -0.025 C 
ATOM     18  C   UNL     1      27.977  52.306  13.853  1.00  0.00     0.006 C 
ATOM     19  C   UNL     1      28.589  55.494  13.875  1.00  0.00     0.015 C 
ATOM     20  C   UNL     1      30.990  54.781  13.486  1.00  0.00     0.012 C 
ATOM     21  C   UNL     1      29.270  53.036  14.282  1.00  0.00     0.008 C 
ATOM     22  C   UNL     1      28.684  55.795  15.375  1.00  0.00     0.077 C 
ATOM     23  C   UNL     1      29.312  53.303  15.858  1.00  0.00     0.027 C 
ATOM     24  C   UNL     1      28.512  54.552  16.191  1.00  0.00     0.138 C 
ATOM     25  C   UNL     1      28.748  52.095  16.666  1.00  0.00     0.020 C 
ATOM     26  C   UNL     1      30.765  53.491  16.369  1.00  0.00     0.020 C 
ATOM     27  O   UNL     1      27.805  54.597  17.190  1.00  0.00    -0.299 OA
ENDROOT
BRANCH   1  28
ATOM     28  C   UNL     1      24.708  56.695  11.532  1.00  0.00     0.048 C 
ATOM     29  O   UNL     1      24.737  57.875  11.087  1.00  0.00    -0.550 OA
ATOM     30  O   UNL     1      24.922  56.490  12.891  1.00  0.00    -0.550 OA
ENDBRANCH   1  28
BRANCH   7  31
ATOM     31  C   UNL     1      25.284  55.676   6.970  1.00  0.00    -0.077 C 
ATOM     32  C   UNL     1      25.759  54.968   5.725  1.00  0.00     0.039 C 
ATOM     33  C   UNL     1      25.188  57.016   6.950  1.00  0.00     0.008 C 
ENDBRANCH   7  31
TORSDOF 2
ENDMDL
MODEL 8
REMARK VINA RESULT:    -7.840      2.180      3.872
REMARK INTER + INTRA:          -9.428
REMARK INTER:                  -8.898
REMARK INTRA:                  -0.530
REMARK UNBOUND:                -0.672
REMARK SMILES C=C(C)[C@@H]1CC[C@@]2(C(=O)[O-])CC[C@@]3(C)[C@H](CC[C@H]4[C@@]5(C)CCC(=O)C(C)(C)[C@H]5CC[C@]43C)[C@@H]12
REMARK SMILES IDX 7 1 6 2 33 3 11 4 5 5 15 6 4 7 12 8 16 9 13 10 17 11 31 12
REMARK SMILES IDX 14 13 18 14 30 15 32 16 19 17 29 18 21 19 20 20 28 21 22 22
REMARK SMILES IDX 25 23 23 24 26 25 27 26 24 27 8 28 9 29 10 30 2 31 3 32 1 33
REMARK H PARENT
REMARK Flexibility Score: inf
ROOT
ATOM      1  C   UNL     1      29.082  54.843  13.067  1.00  0.00     0.014 C 
ATOM      2  C   UNL     1      29.954  55.452  11.954  1.00  0.00     0.014 C 
ATOM      3  C   UNL     1      28.503  53.567  12.404  1.00  0.00     0.012 C 
ATOM      4  C   UNL     1      27.970  55.861  13.450  1.00  0.00     0.014 C 
ATOM      5  C   UNL     1      29.270  55.107  10.633  1.00  0.00     0.009 C 
ATOM      6  C   UNL     1      27.191  52.984  13.050  1.00  0.00     0.000 C 
ATOM      7  C   UNL     1      28.446  53.832  10.877  1.00  0.00     0.018 C 
ATOM      8  C   UNL     1      26.784  55.226  14.198  1.00  0.00     0.008 C 
ATOM      9  C   UNL     1      27.610  52.104  14.246  1.00  0.00     0.005 C 
ATOM     10  C   UNL     1      26.086  54.041  13.460  1.00  0.00    -0.024 C 
ATOM     11  C   UNL     1      26.451  51.320  14.831  1.00  0.00     0.005 C 
ATOM     12  C   UNL     1      24.890  53.342  14.351  1.00  0.00    -0.024 C 
ATOM     13  C   UNL     1      25.456  54.651  12.156  1.00  0.00     0.012 C 
ATOM     14  C   UNL     1      25.338  52.223  15.410  1.00  0.00     0.002 C 
ATOM     15  C   UNL     1      23.991  54.393  15.066  1.00  0.00     0.008 C 
ATOM     16  C   UNL     1      23.916  52.602  13.350  1.00  0.00     0.012 C 
ATOM     17  C   UNL     1      25.443  52.506  16.998  1.00  0.00    -0.025 C 
ATOM     18  C   UNL     1      24.447  54.807  16.463  1.00  0.00     0.006 C 
ATOM     19  C   UNL     1      26.892  52.901  17.430  1.00  0.00     0.015 C 
ATOM     20  C   UNL     1      25.082  51.150  17.715  1.00  0.00     0.012 C 
ATOM     21  C   UNL     1      24.412  53.625  17.459  1.00  0.00     0.008 C 
ATOM     22  C   UNL     1      27.051  53.301  18.901  1.00  0.00     0.077 C 
ATOM     23  C   UNL     1      24.567  54.113  18.974  1.00  0.00     0.027 C 
ATOM     24  C   UNL     1      26.035  54.327  19.300  1.00  0.00     0.138 C 
ATOM     25  C   UNL     1      23.779  55.431  19.241  1.00  0.00     0.020 C 
ATOM     26  C   UNL     1      23.980  53.080  19.971  1.00  0.00     0.020 C 
ATOM     27  O   UNL     1      26.395  55.275  19.985  1.00  0.00    -0.299 OA
ENDROOT
BRANCH   1  28
ATOM     28  C   UNL     1      29.963  54.502  14.268  1.00  0.00     0.048 C 
ATOM     29  O   UNL     1      31.094  53.964  14.119  1.00  0.00    -0.550 OA
ATOM     30  O   UNL     1      29.511  54.757  15.559  1.00  0.00    -0.550 OA
ENDBRANCH   1  28
BRANCH   7  31
ATOM     31  C   UNL     1      28.953  52.644  10.060  1.00  0.00    -0.077 C 
ATOM     32  C   UNL     1      30.235  51.933  10.420  1.00  0.00     0.039 C 
ATOM     33  C   UNL     1      28.231  52.182   9.026  1.00  0.00     0.008 C 
ENDBRANCH   7  31
TORSDOF 2
ENDMDL
MODEL 9
REMARK VINA RESULT:    -7.739      2.542      4.493
REMARK INTER + INTRA:          -9.316
REMARK INTER:                  -9.073
REMARK INTRA:                  -0.243
REMARK UNBOUND:                -0.672
REMARK SMILES C=C(C)[C@@H]1CC[C@@]2(C(=O)[O-])CC[C@@]3(C)[C@H](CC[C@H]4[C@@]5(C)CCC(=O)C(C)(C)[C@H]5CC[C@]43C)[C@@H]12
REMARK SMILES IDX 7 1 6 2 33 3 11 4 5 5 15 6 4 7 12 8 16 9 13 10 17 11 31 12
REMARK SMILES IDX 14 13 18 14 30 15 32 16 19 17 29 18 21 19 20 20 28 21 22 22
REMARK SMILES IDX 25 23 23 24 26 25 27 26 24 27 8 28 9 29 10 30 2 31 3 32 1 33
REMARK H PARENT
REMARK Flexibility Score: inf
ROOT
ATOM      1  C   UNL     1      25.556  53.126   9.401  1.00  0.00     0.014 C 
ATOM      2  C   UNL     1      25.415  52.983   7.874  1.00  0.00     0.014 C 
ATOM      3  C   UNL     1      25.240  54.624   9.644  1.00  0.00     0.012 C 
ATOM      4  C   UNL     1      27.011  52.760   9.809  1.00  0.00     0.014 C 
ATOM      5  C   UNL     1      25.854  54.316   7.273  1.00  0.00     0.009 C 
ATOM      6  C   UNL     1      25.781  55.237  10.990  1.00  0.00     0.000 C 
ATOM      7  C   UNL     1      25.623  55.388   8.351  1.00  0.00     0.018 C 
ATOM      8  C   UNL     1      27.412  53.286  11.199  1.00  0.00     0.008 C 
ATOM      9  C   UNL     1      24.764  54.900  12.100  1.00  0.00     0.005 C 
ATOM     10  C   UNL     1      27.253  54.826  11.402  1.00  0.00    -0.024 C 
ATOM     11  C   UNL     1      25.066  55.607  13.407  1.00  0.00     0.005 C 
ATOM     12  C   UNL     1      27.605  55.313  12.935  1.00  0.00    -0.024 C 
ATOM     13  C   UNL     1      28.267  55.502  10.410  1.00  0.00     0.012 C 
ATOM     14  C   UNL     1      26.425  55.199  14.018  1.00  0.00     0.002 C 
ATOM     15  C   UNL     1      28.884  54.627  13.498  1.00  0.00     0.008 C 
ATOM     16  C   UNL     1      27.971  56.850  12.879  1.00  0.00     0.012 C 
ATOM     17  C   UNL     1      26.354  54.020  15.121  1.00  0.00    -0.025 C 
ATOM     18  C   UNL     1      28.654  53.311  14.237  1.00  0.00     0.006 C 
ATOM     19  C   UNL     1      25.470  52.823  14.645  1.00  0.00     0.015 C 
ATOM     20  C   UNL     1      25.670  54.646  16.395  1.00  0.00     0.012 C 
ATOM     21  C   UNL     1      27.806  53.504  15.514  1.00  0.00     0.008 C 
ATOM     22  C   UNL     1      25.446  51.611  15.584  1.00  0.00     0.077 C 
ATOM     23  C   UNL     1      27.838  52.211  16.455  1.00  0.00     0.027 C 
ATOM     24  C   UNL     1      26.832  51.186  15.958  1.00  0.00     0.138 C 
ATOM     25  C   UNL     1      29.256  51.566  16.504  1.00  0.00     0.020 C 
ATOM     26  C   UNL     1      27.501  52.566  17.928  1.00  0.00     0.020 C 
ATOM     27  O   UNL     1      27.099  49.991  15.962  1.00  0.00    -0.299 OA
ENDROOT
BRANCH   1  28
ATOM     28  C   UNL     1      24.539  52.218  10.088  1.00  0.00     0.048 C 
ATOM     29  O   UNL     1      24.642  51.925  11.311  1.00  0.00    -0.550 OA
ATOM     30  O   UNL     1      23.488  51.670   9.359  1.00  0.00    -0.550 OA
ENDBRANCH   1  28
BRANCH   7  31
ATOM     31  C   UNL     1      24.562  56.409   7.941  1.00  0.00    -0.077 C 
ATOM     32  C   UNL     1      24.789  57.357   6.788  1.00  0.00     0.039 C 
ATOM     33  C   UNL     1      23.380  56.445   8.578  1.00  0.00     0.008 C 
ENDBRANCH   7  31
TORSDOF 2
ENDMDL
