MODEL 1
REMARK VINA RESULT:    -3.877      0.000      0.000
REMARK INTER + INTRA:          -4.236
REMARK INTER:                  -4.217
REMARK INTRA:                  -0.018
REMARK UNBOUND:                -0.018
REMARK SMILES OCc1ccco1
REMARK SMILES IDX 2 1 3 2 5 3 6 4 4 5 7 6 1 7
REMARK H PARENT 1 8
REMARK Flexibility Score: inf
ROOT
ATOM      1  C   UNL     1       5.875 -10.969  21.307  1.00  0.00     0.231 C 
ENDROOT
BRANCH   1   2
ATOM      2  C   UNL     1       6.530 -10.491  20.054  1.00  0.00     0.129 A 
ATOM      3  C   UNL     1       6.876  -9.769  18.009  1.00  0.00     0.042 A 
ATOM      4  C   UNL     1       8.056  -9.823  18.724  1.00  0.00     0.195 A 
ATOM      5  C   UNL     1       5.887 -10.197  18.869  1.00  0.00     0.048 A 
ATOM      6  O   UNL     1       7.816 -10.254  19.941  1.00  0.00    -0.467 OA
ENDBRANCH   1   2
BRANCH   1   7
ATOM      7  O   UNL     1       6.593 -12.055  21.820  1.00  0.00    -0.388 OA
ATOM      8  H   UNL     1       6.473 -12.024  22.804  1.00  0.00     0.211 HD
ENDBRANCH   1   7
TORSDOF 2
ENDMDL
MODEL 2
REMARK VINA RESULT:    -3.815      2.001      2.830
REMARK INTER + INTRA:          -4.168
REMARK INTER:                  -4.151
REMARK INTRA:                  -0.017
REMARK UNBOUND:                -0.018
REMARK SMILES OCc1ccco1
REMARK SMILES IDX 2 1 3 2 5 3 6 4 4 5 7 6 1 7
REMARK H PARENT 1 8
REMARK Flexibility Score: inf
ROOT
ATOM      1  C   UNL     1       9.218  -9.448  21.806  1.00  0.00     0.231 C 
ENDROOT
BRANCH   1   2
ATOM      2  C   UNL     1       8.087  -9.800  20.897  1.00  0.00     0.129 A 
ATOM      3  C   UNL     1       6.889 -10.246  19.112  1.00  0.00     0.042 A 
ATOM      4  C   UNL     1       6.146 -10.412  20.264  1.00  0.00     0.195 A 
ATOM      5  C   UNL     1       8.146  -9.853  19.520  1.00  0.00     0.048 A 
ATOM      6  O   UNL     1       6.889 -10.141  21.313  1.00  0.00    -0.467 OA
ENDBRANCH   1   2
BRANCH   1   7
ATOM      7  O   UNL     1      10.391  -9.314  21.056  1.00  0.00    -0.388 OA
ATOM      8  H   UNL     1      10.268  -8.503  20.497  1.00  0.00     0.211 HD
ENDBRANCH   1   7
TORSDOF 2
ENDMDL
MODEL 3
REMARK VINA RESULT:    -3.761      9.624     11.037
REMARK INTER + INTRA:          -4.109
REMARK INTER:                  -4.093
REMARK INTRA:                  -0.016
REMARK UNBOUND:                -0.018
REMARK SMILES OCc1ccco1
REMARK SMILES IDX 2 1 3 2 5 3 6 4 4 5 7 6 1 7
REMARK H PARENT 1 8
REMARK Flexibility Score: inf
ROOT
ATOM      1  C   UNL     1      14.768  -7.712  15.753  1.00  0.00     0.231 C 
ENDROOT
BRANCH   1   2
ATOM      2  C   UNL     1      15.489  -6.987  14.665  1.00  0.00     0.129 A 
ATOM      3  C   UNL     1      16.392  -6.458  12.734  1.00  0.00     0.042 A 
ATOM      4  C   UNL     1      16.504  -5.420  13.638  1.00  0.00     0.195 A 
ATOM      5  C   UNL     1      15.732  -7.471  13.396  1.00  0.00     0.048 A 
ATOM      6  O   UNL     1      15.954  -5.765  14.780  1.00  0.00    -0.467 OA
ENDBRANCH   1   2
BRANCH   1   7
ATOM      7  O   UNL     1      14.929  -9.090  15.576  1.00  0.00    -0.388 OA
ATOM      8  H   UNL     1      14.321  -9.345  14.835  1.00  0.00     0.211 HD
ENDBRANCH   1   7
TORSDOF 2
ENDMDL
MODEL 4
REMARK VINA RESULT:    -3.757     12.105     12.633
REMARK INTER + INTRA:          -4.104
REMARK INTER:                  -4.091
REMARK INTRA:                  -0.014
REMARK UNBOUND:                -0.018
REMARK SMILES OCc1ccco1
REMARK SMILES IDX 2 1 3 2 5 3 6 4 4 5 7 6 1 7
REMARK H PARENT 1 8
REMARK Flexibility Score: inf
ROOT
ATOM      1  C   UNL     1      17.654  -5.135  15.874  1.00  0.00     0.231 C 
ENDROOT
BRANCH   1   2
ATOM      2  C   UNL     1      17.145  -4.115  16.838  1.00  0.00     0.129 A 
ATOM      3  C   UNL     1      17.007  -2.659  18.477  1.00  0.00     0.042 A 
ATOM      4  C   UNL     1      15.832  -2.708  17.752  1.00  0.00     0.195 A 
ATOM      5  C   UNL     1      17.859  -3.566  17.885  1.00  0.00     0.048 A 
ATOM      6  O   UNL     1      15.947  -3.583  16.780  1.00  0.00    -0.467 OA
ENDBRANCH   1   2
BRANCH   1   7
ATOM      7  O   UNL     1      17.313  -6.413  16.330  1.00  0.00    -0.388 OA
ATOM      8  H   UNL     1      18.113  -6.981  16.179  1.00  0.00     0.211 HD
ENDBRANCH   1   7
TORSDOF 2
ENDMDL
MODEL 5
REMARK VINA RESULT:    -3.753     10.751     11.673
REMARK INTER + INTRA:          -4.101
REMARK INTER:                  -4.084
REMARK INTRA:                  -0.017
REMARK UNBOUND:                -0.018
REMARK SMILES OCc1ccco1
REMARK SMILES IDX 2 1 3 2 5 3 6 4 4 5 7 6 1 7
REMARK H PARENT 1 8
REMARK Flexibility Score: inf
ROOT
ATOM      1  C   UNL     1      16.498  -2.674  17.645  1.00  0.00     0.231 C 
ENDROOT
BRANCH   1   2
ATOM      2  C   UNL     1      15.567  -3.458  16.780  1.00  0.00     0.129 A 
ATOM      3  C   UNL     1      13.756  -4.260  15.831  1.00  0.00     0.042 A 
ATOM      4  C   UNL     1      14.896  -4.790  15.258  1.00  0.00     0.195 A 
ATOM      5  C   UNL     1      14.189  -3.396  16.814  1.00  0.00     0.048 A 
ATOM      6  O   UNL     1      15.960  -4.290  15.844  1.00  0.00    -0.467 OA
ENDBRANCH   1   2
BRANCH   1   7
ATOM      7  O   UNL     1      15.877  -1.481  18.031  1.00  0.00    -0.388 OA
ATOM      8  H   UNL     1      16.127  -1.337  18.981  1.00  0.00     0.211 HD
ENDBRANCH   1   7
TORSDOF 2
ENDMDL
MODEL 6
REMARK VINA RESULT:    -3.710     13.047     14.522
REMARK INTER + INTRA:          -4.054
REMARK INTER:                  -4.038
REMARK INTRA:                  -0.016
REMARK UNBOUND:                -0.018
REMARK SMILES OCc1ccco1
REMARK SMILES IDX 2 1 3 2 5 3 6 4 4 5 7 6 1 7
REMARK H PARENT 1 8
REMARK Flexibility Score: inf
ROOT
ATOM      1  C   UNL     1      20.054  -2.962  16.512  1.00  0.00     0.231 C 
ENDROOT
BRANCH   1   2
ATOM      2  C   UNL     1      18.739  -2.974  17.216  1.00  0.00     0.129 A 
ATOM      3  C   UNL     1      17.190  -3.007  18.773  1.00  0.00     0.042 A 
ATOM      4  C   UNL     1      16.630  -2.885  17.517  1.00  0.00     0.195 A 
ATOM      5  C   UNL     1      18.554  -3.062  18.581  1.00  0.00     0.048 A 
ATOM      6  O   UNL     1      17.580  -2.865  16.609  1.00  0.00    -0.467 OA
ENDBRANCH   1   2
BRANCH   1   7
ATOM      7  O   UNL     1      20.930  -2.099  17.181  1.00  0.00    -0.388 OA
ATOM      8  H   UNL     1      21.561  -1.761  16.494  1.00  0.00     0.211 HD
ENDBRANCH   1   7
TORSDOF 2
ENDMDL
MODEL 7
REMARK VINA RESULT:    -3.699      3.481      4.039
REMARK INTER + INTRA:          -4.041
REMARK INTER:                  -4.019
REMARK INTRA:                  -0.023
REMARK UNBOUND:                -0.018
REMARK SMILES OCc1ccco1
REMARK SMILES IDX 2 1 3 2 5 3 6 4 4 5 7 6 1 7
REMARK H PARENT 1 8
REMARK Flexibility Score: inf
ROOT
ATOM      1  C   UNL     1       7.471 -10.080  21.054  1.00  0.00     0.231 C 
ENDROOT
BRANCH   1   2
ATOM      2  C   UNL     1       8.516  -9.443  21.909  1.00  0.00     0.129 A 
ATOM      3  C   UNL     1      10.433  -8.686  22.668  1.00  0.00     0.042 A 
ATOM      4  C   UNL     1       9.395  -8.356  23.518  1.00  0.00     0.195 A 
ATOM      5  C   UNL     1       9.866  -9.386  21.625  1.00  0.00     0.048 A 
ATOM      6  O   UNL     1       8.264  -8.820  23.036  1.00  0.00    -0.467 OA
ENDBRANCH   1   2
BRANCH   1   7
ATOM      7  O   UNL     1       6.254 -10.096  21.745  1.00  0.00    -0.388 OA
ATOM      8  H   UNL     1       5.545 -10.049  21.054  1.00  0.00     0.211 HD
ENDBRANCH   1   7
TORSDOF 2
ENDMDL
MODEL 8
REMARK VINA RESULT:    -3.681     10.612     11.200
REMARK INTER + INTRA:          -4.022
REMARK INTER:                  -4.000
REMARK INTRA:                  -0.022
REMARK UNBOUND:                -0.018
REMARK SMILES OCc1ccco1
REMARK SMILES IDX 2 1 3 2 5 3 6 4 4 5 7 6 1 7
REMARK H PARENT 1 8
REMARK Flexibility Score: inf
ROOT
ATOM      1  C   UNL     1      15.967  -6.333  15.586  1.00  0.00     0.231 C 
ENDROOT
BRANCH   1   2
ATOM      2  C   UNL     1      15.475  -5.036  16.136  1.00  0.00     0.129 A 
ATOM      3  C   UNL     1      14.176  -3.396  16.805  1.00  0.00     0.042 A 
ATOM      4  C   UNL     1      15.503  -3.121  17.073  1.00  0.00     0.195 A 
ATOM      5  C   UNL     1      14.156  -4.635  16.202  1.00  0.00     0.048 A 
ATOM      6  O   UNL     1      16.253  -4.120  16.665  1.00  0.00    -0.467 OA
ENDBRANCH   1   2
BRANCH   1   7
ATOM      7  O   UNL     1      17.174  -6.672  16.208  1.00  0.00    -0.388 OA
ATOM      8  H   UNL     1      16.932  -7.237  16.987  1.00  0.00     0.211 HD
ENDBRANCH   1   7
TORSDOF 2
ENDMDL
MODEL 9
REMARK VINA RESULT:    -3.676     13.365     14.047
REMARK INTER + INTRA:          -4.017
REMARK INTER:                  -4.002
REMARK INTRA:                  -0.015
REMARK UNBOUND:                -0.018
REMARK SMILES OCc1ccco1
REMARK SMILES IDX 2 1 3 2 5 3 6 4 4 5 7 6 1 7
REMARK H PARENT 1 8
REMARK Flexibility Score: inf
ROOT
ATOM      1  C   UNL     1      14.937  -5.250  10.240  1.00  0.00     0.231 C 
ENDROOT
BRANCH   1   2
ATOM      2  C   UNL     1      15.967  -5.287  11.320  1.00  0.00     0.129 A 
ATOM      3  C   UNL     1      17.813  -5.662  12.449  1.00  0.00     0.042 A 
ATOM      4  C   UNL     1      16.929  -4.893  13.181  1.00  0.00     0.195 A 
ATOM      5  C   UNL     1      17.194  -5.915  11.244  1.00  0.00     0.048 A 
ATOM      6  O   UNL     1      15.838  -4.684  12.479  1.00  0.00    -0.467 OA
ENDBRANCH   1   2
BRANCH   1   7
ATOM      7  O   UNL     1      15.545  -4.889   9.033  1.00  0.00    -0.388 OA
ATOM      8  H   UNL     1      14.981  -4.170   8.645  1.00  0.00     0.211 HD
ENDBRANCH   1   7
TORSDOF 2
ENDMDL
