MODEL 1
REMARK VINA RESULT:    -2.900      0.000      0.000
REMARK INTER + INTRA:          -4.071
REMARK INTER:                  -3.917
REMARK INTRA:                  -0.154
REMARK UNBOUND:                -0.154
REMARK SMILES CCCCCCCC(C)=O
REMARK SMILES IDX 5 1 4 2 3 3 2 4 1 5 6 6 7 7 8 8 10 9 9 10
REMARK H PARENT
REMARK Flexibility Score: inf
ROOT
ATOM      1  C   UNL     1     142.924 144.394 144.047  1.00  0.00     0.000 C 
ENDROOT
BRANCH   1   2
ATOM      2  C   UNL     1     143.825 143.142 143.980  1.00  0.00     0.000 C 
BRANCH   2   3
ATOM      3  C   UNL     1     144.417 142.883 142.584  1.00  0.00    -0.000 C 
BRANCH   3   4
ATOM      4  C   UNL     1     145.516 141.813 142.590  1.00  0.00    -0.003 C 
ATOM      5  C   UNL     1     146.353 141.875 141.316  1.00  0.00     0.004 C 
ENDBRANCH   3   4
ENDBRANCH   2   3
ENDBRANCH   1   2
BRANCH   1   6
ATOM      6  C   UNL     1     141.447 144.059 143.793  1.00  0.00     0.008 C 
BRANCH   6   7
ATOM      7  C   UNL     1     140.578 145.320 143.859  1.00  0.00     0.075 C 
BRANCH   7   8
ATOM      8  C   UNL     1     139.581 145.340 142.730  1.00  0.00     0.129 C 
ATOM      9  O   UNL     1     138.605 144.607 142.776  1.00  0.00    -0.300 OA
ATOM     10  C   UNL     1     139.766 146.236 141.540  1.00  0.00     0.087 C 
ENDBRANCH   7   8
ENDBRANCH   6   7
ENDBRANCH   1   6
TORSDOF 6
ENDMDL
MODEL 2
REMARK VINA RESULT:    -2.897      5.073      6.360
REMARK INTER + INTRA:          -4.067
REMARK INTER:                  -3.645
REMARK INTRA:                  -0.422
REMARK UNBOUND:                -0.154
REMARK SMILES CCCCCCCC(C)=O
REMARK SMILES IDX 5 1 4 2 3 3 2 4 1 5 6 6 7 7 8 8 10 9 9 10
REMARK H PARENT
REMARK Flexibility Score: inf
ROOT
ATOM      1  C   UNL     1     143.924 139.934 143.972  1.00  0.00     0.000 C 
ENDROOT
BRANCH   1   2
ATOM      2  C   UNL     1     145.241 140.738 144.006  1.00  0.00     0.000 C 
BRANCH   2   3
ATOM      3  C   UNL     1     145.216 141.999 143.125  1.00  0.00    -0.000 C 
BRANCH   3   4
ATOM      4  C   UNL     1     146.038 141.844 141.838  1.00  0.00    -0.003 C 
ATOM      5  C   UNL     1     145.212 141.194 140.732  1.00  0.00     0.004 C 
ENDBRANCH   3   4
ENDBRANCH   2   3
ENDBRANCH   1   2
BRANCH   1   6
ATOM      6  C   UNL     1     144.158 138.453 143.635  1.00  0.00     0.008 C 
BRANCH   6   7
ATOM      7  C   UNL     1     143.339 138.032 142.410  1.00  0.00     0.075 C 
BRANCH   7   8
ATOM      8  C   UNL     1     142.472 136.843 142.732  1.00  0.00     0.129 C 
ATOM      9  O   UNL     1     142.604 135.811 142.091  1.00  0.00    -0.300 OA
ATOM     10  C   UNL     1     141.438 136.900 143.819  1.00  0.00     0.087 C 
ENDBRANCH   7   8
ENDBRANCH   6   7
ENDBRANCH   1   6
TORSDOF 6
ENDMDL
MODEL 3
REMARK VINA RESULT:    -2.840      4.582      6.339
REMARK INTER + INTRA:          -3.990
REMARK INTER:                  -3.690
REMARK INTRA:                  -0.301
REMARK UNBOUND:                -0.154
REMARK SMILES CCCCCCCC(C)=O
REMARK SMILES IDX 5 1 4 2 3 3 2 4 1 5 6 6 7 7 8 8 10 9 9 10
REMARK H PARENT
REMARK Flexibility Score: inf
ROOT
ATOM      1  C   UNL     1     143.600 139.484 142.882  1.00  0.00     0.000 C 
ENDROOT
BRANCH   1   2
ATOM      2  C   UNL     1     143.518 137.988 143.255  1.00  0.00     0.000 C 
BRANCH   2   3
ATOM      3  C   UNL     1     142.965 137.101 142.127  1.00  0.00    -0.000 C 
BRANCH   3   4
ATOM      4  C   UNL     1     141.912 136.099 142.618  1.00  0.00    -0.003 C 
ATOM      5  C   UNL     1     141.015 136.721 143.685  1.00  0.00     0.004 C 
ENDBRANCH   3   4
ENDBRANCH   2   3
ENDBRANCH   1   2
BRANCH   1   6
ATOM      6  C   UNL     1     144.056 140.353 144.064  1.00  0.00     0.008 C 
BRANCH   6   7
ATOM      7  C   UNL     1     145.438 140.960 143.799  1.00  0.00     0.075 C 
BRANCH   7   8
ATOM      8  C   UNL     1     145.362 142.005 142.717  1.00  0.00     0.129 C 
ATOM      9  O   UNL     1     144.580 142.935 142.832  1.00  0.00    -0.300 OA
ATOM     10  C   UNL     1     146.223 141.923 141.490  1.00  0.00     0.087 C 
ENDBRANCH   7   8
ENDBRANCH   6   7
ENDBRANCH   1   6
TORSDOF 6
ENDMDL
MODEL 4
REMARK VINA RESULT:    -2.811      4.141      6.277
REMARK INTER + INTRA:          -3.951
REMARK INTER:                  -3.710
REMARK INTRA:                  -0.241
REMARK UNBOUND:                -0.154
REMARK SMILES CCCCCCCC(C)=O
REMARK SMILES IDX 5 1 4 2 3 3 2 4 1 5 6 6 7 7 8 8 10 9 9 10
REMARK H PARENT
REMARK Flexibility Score: inf
ROOT
ATOM      1  C   UNL     1     140.212 146.996 139.672  1.00  0.00     0.000 C 
ENDROOT
BRANCH   1   2
ATOM      2  C   UNL     1     139.425 148.170 139.049  1.00  0.00     0.000 C 
BRANCH   2   3
ATOM      3  C   UNL     1     140.323 149.264 138.448  1.00  0.00    -0.000 C 
BRANCH   3   4
ATOM      4  C   UNL     1     141.729 149.287 139.063  1.00  0.00    -0.003 C 
ATOM      5  C   UNL     1     142.154 150.710 139.413  1.00  0.00     0.004 C 
ENDBRANCH   3   4
ENDBRANCH   2   3
ENDBRANCH   1   2
BRANCH   1   6
ATOM      6  C   UNL     1     139.782 146.713 141.119  1.00  0.00     0.008 C 
BRANCH   6   7
ATOM      7  C   UNL     1     140.078 145.260 141.506  1.00  0.00     0.075 C 
BRANCH   7   8
ATOM      8  C   UNL     1     139.311 144.871 142.743  1.00  0.00     0.129 C 
ATOM      9  O   UNL     1     139.540 145.443 143.797  1.00  0.00    -0.300 OA
ATOM     10  C   UNL     1     138.276 143.785 142.711  1.00  0.00     0.087 C 
ENDBRANCH   7   8
ENDBRANCH   6   7
ENDBRANCH   1   6
TORSDOF 6
ENDMDL
MODEL 5
REMARK VINA RESULT:    -2.806      6.803      9.143
REMARK INTER + INTRA:          -3.945
REMARK INTER:                  -3.594
REMARK INTRA:                  -0.351
REMARK UNBOUND:                -0.154
REMARK SMILES CCCCCCCC(C)=O
REMARK SMILES IDX 5 1 4 2 3 3 2 4 1 5 6 6 7 7 8 8 10 9 9 10
REMARK H PARENT
REMARK Flexibility Score: inf
ROOT
ATOM      1  C   UNL     1     135.031 139.836 141.104  1.00  0.00     0.000 C 
ENDROOT
BRANCH   1   2
ATOM      2  C   UNL     1     135.629 140.390 139.792  1.00  0.00     0.000 C 
BRANCH   2   3
ATOM      3  C   UNL     1     134.613 141.156 138.928  1.00  0.00    -0.000 C 
BRANCH   3   4
ATOM      4  C   UNL     1     133.185 140.613 139.063  1.00  0.00    -0.003 C 
ATOM      5  C   UNL     1     132.168 141.749 139.127  1.00  0.00     0.004 C 
ENDBRANCH   3   4
ENDBRANCH   2   3
ENDBRANCH   1   2
BRANCH   1   6
ATOM      6  C   UNL     1     136.114 139.304 142.055  1.00  0.00     0.008 C 
BRANCH   6   7
ATOM      7  C   UNL     1     136.169 140.131 143.344  1.00  0.00     0.075 C 
BRANCH   7   8
ATOM      8  C   UNL     1     137.481 140.863 143.451  1.00  0.00     0.129 C 
ATOM      9  O   UNL     1     138.382 140.387 144.125  1.00  0.00    -0.300 OA
ATOM     10  C   UNL     1     137.703 142.175 142.757  1.00  0.00     0.087 C 
ENDBRANCH   7   8
ENDBRANCH   6   7
ENDBRANCH   1   6
TORSDOF 6
ENDMDL
MODEL 6
REMARK VINA RESULT:    -2.777      1.890      2.694
REMARK INTER + INTRA:          -3.905
REMARK INTER:                  -3.189
REMARK INTRA:                  -0.717
REMARK UNBOUND:                -0.154
REMARK SMILES CCCCCCCC(C)=O
REMARK SMILES IDX 5 1 4 2 3 3 2 4 1 5 6 6 7 7 8 8 10 9 9 10
REMARK H PARENT
REMARK Flexibility Score: inf
ROOT
ATOM      1  C   UNL     1     142.749 144.184 143.627  1.00  0.00     0.000 C 
ENDROOT
BRANCH   1   2
ATOM      2  C   UNL     1     143.006 143.092 142.566  1.00  0.00     0.000 C 
BRANCH   2   3
ATOM      3  C   UNL     1     143.226 143.649 141.150  1.00  0.00    -0.000 C 
BRANCH   3   4
ATOM      4  C   UNL     1     141.940 143.679 140.314  1.00  0.00    -0.003 C 
ATOM      5  C   UNL     1     141.851 144.957 139.485  1.00  0.00     0.004 C 
ENDBRANCH   3   4
ENDBRANCH   2   3
ENDBRANCH   1   2
BRANCH   1   6
ATOM      6  C   UNL     1     141.276 144.238 144.058  1.00  0.00     0.008 C 
BRANCH   6   7
ATOM      7  C   UNL     1     140.657 145.602 143.732  1.00  0.00     0.075 C 
BRANCH   7   8
ATOM      8  C   UNL     1     139.674 145.483 142.597  1.00  0.00     0.129 C 
ATOM      9  O   UNL     1     139.589 146.384 141.777  1.00  0.00    -0.300 OA
ATOM     10  C   UNL     1     138.785 144.282 142.455  1.00  0.00     0.087 C 
ENDBRANCH   7   8
ENDBRANCH   6   7
ENDBRANCH   1   6
TORSDOF 6
ENDMDL
MODEL 7
REMARK VINA RESULT:    -2.775      3.288      4.950
REMARK INTER + INTRA:          -3.902
REMARK INTER:                  -3.167
REMARK INTRA:                  -0.735
REMARK UNBOUND:                -0.154
REMARK SMILES CCCCCCCC(C)=O
REMARK SMILES IDX 5 1 4 2 3 3 2 4 1 5 6 6 7 7 8 8 10 9 9 10
REMARK H PARENT
REMARK Flexibility Score: inf
ROOT
ATOM      1  C   UNL     1     139.480 143.897 140.557  1.00  0.00     0.000 C 
ENDROOT
BRANCH   1   2
ATOM      2  C   UNL     1     140.448 144.821 141.328  1.00  0.00     0.000 C 
BRANCH   2   3
ATOM      3  C   UNL     1     139.750 145.709 142.372  1.00  0.00    -0.000 C 
BRANCH   3   4
ATOM      4  C   UNL     1     140.338 145.549 143.780  1.00  0.00    -0.003 C 
ATOM      5  C   UNL     1     141.200 144.294 143.877  1.00  0.00     0.004 C 
ENDBRANCH   3   4
ENDBRANCH   2   3
ENDBRANCH   1   2
BRANCH   1   6
ATOM      6  C   UNL     1     138.211 143.585 141.364  1.00  0.00     0.008 C 
BRANCH   6   7
ATOM      7  C   UNL     1     138.203 142.126 141.834  1.00  0.00     0.075 C 
BRANCH   7   8
ATOM      8  C   UNL     1     137.640 142.019 143.227  1.00  0.00     0.129 C 
ATOM      9  O   UNL     1     137.367 140.919 143.683  1.00  0.00    -0.300 OA
ATOM     10  C   UNL     1     137.394 143.238 144.067  1.00  0.00     0.087 C 
ENDBRANCH   7   8
ENDBRANCH   6   7
ENDBRANCH   1   6
TORSDOF 6
ENDMDL
MODEL 8
REMARK VINA RESULT:    -2.735      6.723      8.692
REMARK INTER + INTRA:          -3.848
REMARK INTER:                  -3.476
REMARK INTRA:                  -0.372
REMARK UNBOUND:                -0.154
REMARK SMILES CCCCCCCC(C)=O
REMARK SMILES IDX 5 1 4 2 3 3 2 4 1 5 6 6 7 7 8 8 10 9 9 10
REMARK H PARENT
REMARK Flexibility Score: inf
ROOT
ATOM      1  C   UNL     1     138.501 138.006 142.142  1.00  0.00     0.000 C 
ENDROOT
BRANCH   1   2
ATOM      2  C   UNL     1     137.169 138.776 142.282  1.00  0.00     0.000 C 
BRANCH   2   3
ATOM      3  C   UNL     1     136.815 139.133 143.736  1.00  0.00    -0.000 C 
BRANCH   3   4
ATOM      4  C   UNL     1     136.206 140.535 143.874  1.00  0.00    -0.003 C 
ATOM      5  C   UNL     1     137.274 141.616 143.733  1.00  0.00     0.004 C 
ENDBRANCH   3   4
ENDBRANCH   2   3
ENDBRANCH   1   2
BRANCH   1   6
ATOM      6  C   UNL     1     139.255 137.904 143.476  1.00  0.00     0.008 C 
BRANCH   6   7
ATOM      7  C   UNL     1     140.771 137.941 143.256  1.00  0.00     0.075 C 
BRANCH   7   8
ATOM      8  C   UNL     1     141.344 136.548 143.261  1.00  0.00     0.129 C 
ATOM      9  O   UNL     1     140.996 135.757 144.125  1.00  0.00    -0.300 OA
ATOM     10  C   UNL     1     142.345 136.111 142.232  1.00  0.00     0.087 C 
ENDBRANCH   7   8
ENDBRANCH   6   7
ENDBRANCH   1   6
TORSDOF 6
ENDMDL
