MODEL 1
REMARK VINA RESULT:    -3.446      0.000      0.000
REMARK INTER + INTRA:          -4.093
REMARK INTER:                  -4.050
REMARK INTRA:                  -0.044
REMARK UNBOUND:                -0.044
REMARK SMILES O=C([O-])CCC(=O)[O-]
REMARK SMILES IDX 4 1 2 2 1 3 3 4 5 5 6 6 7 7 8 8
REMARK H PARENT
REMARK Flexibility Score: inf
ROOT
ATOM      1  C   UNL     1      26.604  21.108  62.961  1.00  0.00     0.059 C 
ENDROOT
BRANCH   1   2
ATOM      2  C   UNL     1      25.493  20.351  63.622  1.00  0.00     0.042 C 
ATOM      3  O   UNL     1      25.578  19.105  63.778  1.00  0.00    -0.550 OA
ATOM      4  O   UNL     1      24.346  21.019  64.032  1.00  0.00    -0.550 OA
ENDBRANCH   1   2
BRANCH   1   5
ATOM      5  C   UNL     1      26.223  21.542  61.541  1.00  0.00     0.059 C 
BRANCH   5   6
ATOM      6  C   UNL     1      27.306  21.223  60.557  1.00  0.00     0.042 C 
ATOM      7  O   UNL     1      28.094  22.125  60.167  1.00  0.00    -0.550 OA
ATOM      8  O   UNL     1      27.421  19.939  60.040  1.00  0.00    -0.550 OA
ENDBRANCH   5   6
ENDBRANCH   1   5
TORSDOF 3
ENDMDL
MODEL 2
REMARK VINA RESULT:    -3.392      0.247      4.145
REMARK INTER + INTRA:          -4.031
REMARK INTER:                  -3.941
REMARK INTRA:                  -0.089
REMARK UNBOUND:                -0.044
REMARK SMILES O=C([O-])CCC(=O)[O-]
REMARK SMILES IDX 4 1 2 2 1 3 3 4 5 5 6 6 7 7 8 8
REMARK H PARENT
REMARK Flexibility Score: inf
ROOT
ATOM      1  C   UNL     1      26.247  21.721  61.401  1.00  0.00     0.059 C 
ENDROOT
BRANCH   1   2
ATOM      2  C   UNL     1      27.335  21.245  60.486  1.00  0.00     0.042 C 
ATOM      3  O   UNL     1      28.190  22.055  60.041  1.00  0.00    -0.550 OA
ATOM      4  O   UNL     1      27.378  19.913  60.095  1.00  0.00    -0.550 OA
ENDBRANCH   1   2
BRANCH   1   5
ATOM      5  C   UNL     1      26.591  21.455  62.871  1.00  0.00     0.059 C 
BRANCH   5   6
ATOM      6  C   UNL     1      25.597  20.536  63.512  1.00  0.00     0.042 C 
ATOM      7  O   UNL     1      25.752  19.288  63.443  1.00  0.00    -0.550 OA
ATOM      8  O   UNL     1      24.479  21.057  64.150  1.00  0.00    -0.550 OA
ENDBRANCH   5   6
ENDBRANCH   1   5
TORSDOF 3
ENDMDL
MODEL 3
REMARK VINA RESULT:    -3.261      0.527      3.977
REMARK INTER + INTRA:          -3.877
REMARK INTER:                  -3.820
REMARK INTRA:                  -0.056
REMARK UNBOUND:                -0.044
REMARK SMILES O=C([O-])CCC(=O)[O-]
REMARK SMILES IDX 4 1 2 2 1 3 3 4 5 5 6 6 7 7 8 8
REMARK H PARENT
REMARK Flexibility Score: inf
ROOT
ATOM      1  C   UNL     1      26.121  21.923  61.802  1.00  0.00     0.059 C 
ENDROOT
BRANCH   1   2
ATOM      2  C   UNL     1      26.832  21.445  60.573  1.00  0.00     0.042 C 
ATOM      3  O   UNL     1      26.315  20.559  59.843  1.00  0.00    -0.550 OA
ATOM      4  O   UNL     1      28.087  21.951  60.256  1.00  0.00    -0.550 OA
ENDBRANCH   1   2
BRANCH   1   5
ATOM      5  C   UNL     1      26.572  21.154  63.049  1.00  0.00     0.059 C 
BRANCH   5   6
ATOM      6  C   UNL     1      25.448  20.365  63.647  1.00  0.00     0.042 C 
ATOM      7  O   UNL     1      24.413  20.951  64.062  1.00  0.00    -0.550 OA
ATOM      8  O   UNL     1      25.560  18.988  63.783  1.00  0.00    -0.550 OA
ENDBRANCH   5   6
ENDBRANCH   1   5
TORSDOF 3
ENDMDL
MODEL 4
REMARK VINA RESULT:    -2.961      2.549      4.871
REMARK INTER + INTRA:          -3.524
REMARK INTER:                  -3.444
REMARK INTRA:                  -0.080
REMARK UNBOUND:                -0.044
REMARK SMILES O=C([O-])CCC(=O)[O-]
REMARK SMILES IDX 4 1 2 2 1 3 3 4 5 5 6 6 7 7 8 8
REMARK H PARENT
REMARK Flexibility Score: inf
ROOT
ATOM      1  C   UNL     1      26.686  21.369  57.850  1.00  0.00     0.059 C 
ENDROOT
BRANCH   1   2
ATOM      2  C   UNL     1      26.703  20.030  57.179  1.00  0.00     0.042 C 
ATOM      3  O   UNL     1      26.347  18.999  57.809  1.00  0.00    -0.550 OA
ATOM      4  O   UNL     1      27.150  19.915  55.869  1.00  0.00    -0.550 OA
ENDBRANCH   1   2
BRANCH   1   5
ATOM      5  C   UNL     1      26.027  21.299  59.232  1.00  0.00     0.059 C 
BRANCH   5   6
ATOM      6  C   UNL     1      27.047  21.287  60.330  1.00  0.00     0.042 C 
ATOM      7  O   UNL     1      28.152  21.870  60.174  1.00  0.00    -0.550 OA
ATOM      8  O   UNL     1      26.792  20.598  61.508  1.00  0.00    -0.550 OA
ENDBRANCH   5   6
ENDBRANCH   1   5
TORSDOF 3
ENDMDL
MODEL 5
REMARK VINA RESULT:    -2.885      2.616      4.202
REMARK INTER + INTRA:          -3.434
REMARK INTER:                  -3.368
REMARK INTRA:                  -0.066
REMARK UNBOUND:                -0.044
REMARK SMILES O=C([O-])CCC(=O)[O-]
REMARK SMILES IDX 4 1 2 2 1 3 3 4 5 5 6 6 7 7 8 8
REMARK H PARENT
REMARK Flexibility Score: inf
ROOT
ATOM      1  C   UNL     1      26.125  21.382  59.102  1.00  0.00     0.059 C 
ENDROOT
BRANCH   1   2
ATOM      2  C   UNL     1      27.177  21.285  60.164  1.00  0.00     0.042 C 
ATOM      3  O   UNL     1      26.953  20.642  61.223  1.00  0.00    -0.550 OA
ATOM      4  O   UNL     1      28.391  21.940  60.000  1.00  0.00    -0.550 OA
ENDBRANCH   1   2
BRANCH   1   5
ATOM      5  C   UNL     1      26.741  21.400  57.699  1.00  0.00     0.059 C 
BRANCH   5   6
ATOM      6  C   UNL     1      26.701  20.045  57.061  1.00  0.00     0.042 C 
ATOM      7  O   UNL     1      26.359  19.038  57.734  1.00  0.00    -0.550 OA
ATOM      8  O   UNL     1      27.081  19.890  55.734  1.00  0.00    -0.550 OA
ENDBRANCH   5   6
ENDBRANCH   1   5
TORSDOF 3
ENDMDL
MODEL 6
REMARK VINA RESULT:    -2.841      1.696      4.073
REMARK INTER + INTRA:          -3.383
REMARK INTER:                  -3.340
REMARK INTRA:                  -0.044
REMARK UNBOUND:                -0.044
REMARK SMILES O=C([O-])CCC(=O)[O-]
REMARK SMILES IDX 4 1 2 2 1 3 3 4 5 5 6 6 7 7 8 8
REMARK H PARENT
REMARK Flexibility Score: inf
ROOT
ATOM      1  C   UNL     1      27.566  20.929  60.215  1.00  0.00     0.059 C 
ENDROOT
BRANCH   1   2
ATOM      2  C   UNL     1      26.979  20.749  58.848  1.00  0.00     0.042 C 
ATOM      3  O   UNL     1      26.592  19.613  58.467  1.00  0.00    -0.550 OA
ATOM      4  O   UNL     1      26.896  21.831  57.980  1.00  0.00    -0.550 OA
ENDBRANCH   1   2
BRANCH   1   5
ATOM      5  C   UNL     1      26.610  21.686  61.143  1.00  0.00     0.059 C 
BRANCH   5   6
ATOM      6  C   UNL     1      26.624  21.120  62.530  1.00  0.00     0.042 C 
ATOM      7  O   UNL     1      26.812  21.874  63.521  1.00  0.00    -0.550 OA
ATOM      8  O   UNL     1      26.468  19.753  62.725  1.00  0.00    -0.550 OA
ENDBRANCH   5   6
ENDBRANCH   1   5
TORSDOF 3
ENDMDL
MODEL 7
REMARK VINA RESULT:    -2.767      4.983      6.184
REMARK INTER + INTRA:          -3.296
REMARK INTER:                  -3.120
REMARK INTRA:                  -0.175
REMARK UNBOUND:                -0.044
REMARK SMILES O=C([O-])CCC(=O)[O-]
REMARK SMILES IDX 4 1 2 2 1 3 3 4 5 5 6 6 7 7 8 8
REMARK H PARENT
REMARK Flexibility Score: inf
ROOT
ATOM      1  C   UNL     1      24.114  19.968  56.057  1.00  0.00     0.059 C 
ENDROOT
BRANCH   1   2
ATOM      2  C   UNL     1      23.652  18.581  56.388  1.00  0.00     0.042 C 
ATOM      3  O   UNL     1      23.046  18.355  57.468  1.00  0.00    -0.550 OA
ATOM      4  O   UNL     1      23.928  17.532  55.521  1.00  0.00    -0.550 OA
ENDBRANCH   1   2
BRANCH   1   5
ATOM      5  C   UNL     1      24.991  20.551  57.171  1.00  0.00     0.059 C 
BRANCH   5   6
ATOM      6  C   UNL     1      26.307  19.843  57.265  1.00  0.00     0.042 C 
ATOM      7  O   UNL     1      27.104  19.855  56.289  1.00  0.00    -0.550 OA
ATOM      8  O   UNL     1      26.637  19.137  58.414  1.00  0.00    -0.550 OA
ENDBRANCH   5   6
ENDBRANCH   1   5
TORSDOF 3
ENDMDL
MODEL 8
REMARK VINA RESULT:    -2.734      3.046      4.610
REMARK INTER + INTRA:          -3.257
REMARK INTER:                  -3.136
REMARK INTRA:                  -0.121
REMARK UNBOUND:                -0.044
REMARK SMILES O=C([O-])CCC(=O)[O-]
REMARK SMILES IDX 4 1 2 2 1 3 3 4 5 5 6 6 7 7 8 8
REMARK H PARENT
REMARK Flexibility Score: inf
ROOT
ATOM      1  C   UNL     1      26.847  21.391  58.232  1.00  0.00     0.059 C 
ENDROOT
BRANCH   1   2
ATOM      2  C   UNL     1      27.502  21.282  59.576  1.00  0.00     0.042 C 
ATOM      3  O   UNL     1      28.612  21.836  59.789  1.00  0.00    -0.550 OA
ATOM      4  O   UNL     1      26.902  20.534  60.581  1.00  0.00    -0.550 OA
ENDBRANCH   1   2
BRANCH   1   5
ATOM      5  C   UNL     1      26.688  20.019  57.570  1.00  0.00     0.059 C 
BRANCH   5   6
ATOM      6  C   UNL     1      25.254  19.586  57.534  1.00  0.00     0.042 C 
ATOM      7  O   UNL     1      24.402  20.158  58.264  1.00  0.00    -0.550 OA
ATOM      8  O   UNL     1      24.867  18.526  56.724  1.00  0.00    -0.550 OA
ENDBRANCH   5   6
ENDBRANCH   1   5
TORSDOF 3
ENDMDL
MODEL 9
REMARK VINA RESULT:    -2.693     23.181     23.808
REMARK INTER + INTRA:          -3.209
REMARK INTER:                  -3.154
REMARK INTRA:                  -0.054
REMARK UNBOUND:                -0.044
REMARK SMILES O=C([O-])CCC(=O)[O-]
REMARK SMILES IDX 4 1 2 2 1 3 3 4 5 5 6 6 7 7 8 8
REMARK H PARENT
REMARK Flexibility Score: inf
ROOT
ATOM      1  C   UNL     1      43.124   3.677  67.381  1.00  0.00     0.059 C 
ENDROOT
BRANCH   1   2
ATOM      2  C   UNL     1      42.110   2.747  66.787  1.00  0.00     0.042 C 
ATOM      3  O   UNL     1      42.167   2.441  65.567  1.00  0.00    -0.550 OA
ATOM      4  O   UNL     1      41.080   2.249  67.574  1.00  0.00    -0.550 OA
ENDBRANCH   1   2
BRANCH   1   5
ATOM      5  C   UNL     1      42.818   5.138  67.036  1.00  0.00     0.059 C 
BRANCH   5   6
ATOM      6  C   UNL     1      42.801   6.003  68.259  1.00  0.00     0.042 C 
ATOM      7  O   UNL     1      43.124   5.523  69.378  1.00  0.00    -0.550 OA
ATOM      8  O   UNL     1      42.390   7.326  68.170  1.00  0.00    -0.550 OA
ENDBRANCH   5   6
ENDBRANCH   1   5
TORSDOF 3
ENDMDL
