MODEL 1
REMARK VINA RESULT:    -6.096      0.000      0.000
REMARK INTER + INTRA:         -12.649
REMARK INTER:                 -11.441
REMARK INTRA:                  -1.208
REMARK UNBOUND:                -1.208
REMARK SMILES O=C([O-])CCCCCCCCCCCCCCC(=O)[O-]
REMARK SMILES IDX 10 1 9 2 8 3 7 4 6 5 5 6 4 7 2 8 1 9 3 10 11 11 12 12 13 13
REMARK SMILES IDX 14 14 15 15 16 16 17 17 18 18 19 19 20 20
REMARK H PARENT
REMARK Flexibility Score: inf
ROOT
ATOM      1  C   UNL     1      -3.788  37.136 101.720  1.00  0.00     0.000 C 
ENDROOT
BRANCH   1   2
ATOM      2  C   UNL     1      -3.173  38.330 100.971  1.00  0.00     0.000 C 
BRANCH   2   3
ATOM      3  C   UNL     1      -1.824  38.767 101.569  1.00  0.00     0.000 C 
BRANCH   3   4
ATOM      4  C   UNL     1      -1.988  39.706 102.776  1.00  0.00     0.000 C 
BRANCH   4   5
ATOM      5  C   UNL     1      -0.804  40.668 102.949  1.00  0.00     0.000 C 
BRANCH   5   6
ATOM      6  C   UNL     1      -1.293  42.101 103.189  1.00  0.00     0.006 C 
BRANCH   6   7
ATOM      7  C   UNL     1      -2.823  42.169 103.175  1.00  0.00     0.053 C 
BRANCH   7   8
ATOM      8  C   UNL     1      -3.282  43.447 102.545  1.00  0.00     0.041 C 
ATOM      9  O   UNL     1      -2.592  44.495 102.661  1.00  0.00    -0.550 OA
ATOM     10  O   UNL     1      -4.496  43.492 101.867  1.00  0.00    -0.550 OA
ENDBRANCH   7   8
ENDBRANCH   6   7
ENDBRANCH   5   6
ENDBRANCH   4   5
ENDBRANCH   3   4
ENDBRANCH   2   3
ENDBRANCH   1   2
BRANCH   1  11
ATOM     11  C   UNL     1      -5.125  36.685 101.104  1.00  0.00     0.000 C 
BRANCH  11  12
ATOM     12  C   UNL     1      -5.090  35.228 100.616  1.00  0.00     0.000 C 
BRANCH  12  13
ATOM     13  C   UNL     1      -5.799  35.034  99.266  1.00  0.00     0.000 C 
BRANCH  13  14
ATOM     14  C   UNL     1      -4.790  34.673  98.165  1.00  0.00     0.000 C 
BRANCH  14  15
ATOM     15  C   UNL     1      -3.421  35.340  98.373  1.00  0.00     0.000 C 
BRANCH  15  16
ATOM     16  C   UNL     1      -3.266  36.638  97.561  1.00  0.00     0.006 C 
BRANCH  16  17
ATOM     17  C   UNL     1      -4.500  36.933  96.698  1.00  0.00     0.053 C 
BRANCH  17  18
ATOM     18  C   UNL     1      -5.313  38.062  97.253  1.00  0.00     0.041 C 
ATOM     19  O   UNL     1      -6.562  38.086  97.086  1.00  0.00    -0.550 OA
ATOM     20  O   UNL     1      -4.694  39.079  97.968  1.00  0.00    -0.550 OA
ENDBRANCH  17  18
ENDBRANCH  16  17
ENDBRANCH  15  16
ENDBRANCH  14  15
ENDBRANCH  13  14
ENDBRANCH  12  13
ENDBRANCH  11  12
ENDBRANCH   1  11
TORSDOF 15
ENDMDL
MODEL 2
REMARK VINA RESULT:    -5.885      1.270      1.729
REMARK INTER + INTRA:         -12.254
REMARK INTER:                 -11.108
REMARK INTRA:                  -1.146
REMARK UNBOUND:                -1.208
REMARK SMILES O=C([O-])CCCCCCCCCCCCCCC(=O)[O-]
REMARK SMILES IDX 10 1 9 2 8 3 7 4 6 5 5 6 4 7 2 8 1 9 3 10 11 11 12 12 13 13
REMARK SMILES IDX 14 14 15 15 16 16 17 17 18 18 19 19 20 20
REMARK H PARENT
REMARK Flexibility Score: inf
ROOT
ATOM      1  C   UNL     1      -3.193  37.695 102.451  1.00  0.00     0.000 C 
ENDROOT
BRANCH   1   2
ATOM      2  C   UNL     1      -2.198  38.500 101.599  1.00  0.00     0.000 C 
BRANCH   2   3
ATOM      3  C   UNL     1      -1.782  39.820 102.273  1.00  0.00     0.000 C 
BRANCH   3   4
ATOM      4  C   UNL     1      -2.795  40.288 103.331  1.00  0.00     0.000 C 
BRANCH   4   5
ATOM      5  C   UNL     1      -2.980  41.813 103.345  1.00  0.00     0.000 C 
BRANCH   5   6
ATOM      6  C   UNL     1      -1.633  42.526 103.512  1.00  0.00     0.006 C 
BRANCH   6   7
ATOM      7  C   UNL     1      -1.682  43.938 102.920  1.00  0.00     0.053 C 
BRANCH   7   8
ATOM      8  C   UNL     1      -2.286  44.894 103.901  1.00  0.00     0.041 C 
ATOM      9  O   UNL     1      -2.153  44.700 105.139  1.00  0.00    -0.550 OA
ATOM     10  O   UNL     1      -3.033  45.975 103.448  1.00  0.00    -0.550 OA
ENDBRANCH   7   8
ENDBRANCH   6   7
ENDBRANCH   5   6
ENDBRANCH   4   5
ENDBRANCH   3   4
ENDBRANCH   2   3
ENDBRANCH   1   2
BRANCH   1  11
ATOM     11  C   UNL     1      -4.017  36.705 101.607  1.00  0.00     0.000 C 
BRANCH  11  12
ATOM     12  C   UNL     1      -3.139  35.692 100.856  1.00  0.00     0.000 C 
BRANCH  12  13
ATOM     13  C   UNL     1      -3.952  34.552 100.223  1.00  0.00     0.000 C 
BRANCH  13  14
ATOM     14  C   UNL     1      -3.986  34.688  98.693  1.00  0.00     0.000 C 
BRANCH  14  15
ATOM     15  C   UNL     1      -2.749  35.409  98.134  1.00  0.00     0.000 C 
BRANCH  15  16
ATOM     16  C   UNL     1      -3.117  36.571  97.194  1.00  0.00     0.006 C 
BRANCH  16  17
ATOM     17  C   UNL     1      -4.634  36.705  97.004  1.00  0.00     0.053 C 
BRANCH  17  18
ATOM     18  C   UNL     1      -5.145  38.022  97.502  1.00  0.00     0.041 C 
ATOM     19  O   UNL     1      -4.769  38.466  98.620  1.00  0.00    -0.550 OA
ATOM     20  O   UNL     1      -6.023  38.766  96.725  1.00  0.00    -0.550 OA
ENDBRANCH  17  18
ENDBRANCH  16  17
ENDBRANCH  15  16
ENDBRANCH  14  15
ENDBRANCH  13  14
ENDBRANCH  12  13
ENDBRANCH  11  12
ENDBRANCH   1  11
TORSDOF 15
ENDMDL
MODEL 3
REMARK VINA RESULT:    -5.797      1.803      2.557
REMARK INTER + INTRA:         -12.088
REMARK INTER:                 -11.116
REMARK INTRA:                  -0.972
REMARK UNBOUND:                -1.208
REMARK SMILES O=C([O-])CCCCCCCCCCCCCCC(=O)[O-]
REMARK SMILES IDX 10 1 9 2 8 3 7 4 6 5 5 6 4 7 2 8 1 9 3 10 11 11 12 12 13 13
REMARK SMILES IDX 14 14 15 15 16 16 17 17 18 18 19 19 20 20
REMARK H PARENT
REMARK Flexibility Score: inf
ROOT
ATOM      1  C   UNL     1      -2.350  38.927 101.061  1.00  0.00     0.000 C 
ENDROOT
BRANCH   1   2
ATOM      2  C   UNL     1      -2.249  39.334 102.541  1.00  0.00     0.000 C 
BRANCH   2   3
ATOM      3  C   UNL     1      -1.119  40.346 102.797  1.00  0.00     0.000 C 
BRANCH   3   4
ATOM      4  C   UNL     1      -1.648  41.735 103.192  1.00  0.00     0.000 C 
BRANCH   4   5
ATOM      5  C   UNL     1      -3.159  41.741 103.467  1.00  0.00     0.000 C 
BRANCH   5   6
ATOM      6  C   UNL     1      -3.636  43.140 103.874  1.00  0.00     0.006 C 
BRANCH   6   7
ATOM      7  C   UNL     1      -4.936  43.065 104.680  1.00  0.00     0.053 C 
BRANCH   7   8
ATOM      8  C   UNL     1      -5.999  43.896 104.034  1.00  0.00     0.041 C 
ATOM      9  O   UNL     1      -5.695  44.968 103.442  1.00  0.00    -0.550 OA
ATOM     10  O   UNL     1      -7.333  43.513 104.121  1.00  0.00    -0.550 OA
ENDBRANCH   7   8
ENDBRANCH   6   7
ENDBRANCH   5   6
ENDBRANCH   4   5
ENDBRANCH   3   4
ENDBRANCH   2   3
ENDBRANCH   1   2
BRANCH   1  11
ATOM     11  C   UNL     1      -3.385  37.811 100.830  1.00  0.00     0.000 C 
BRANCH  11  12
ATOM     12  C   UNL     1      -2.876  36.430 101.274  1.00  0.00     0.000 C 
BRANCH  12  13
ATOM     13  C   UNL     1      -2.770  35.432 100.110  1.00  0.00     0.000 C 
BRANCH  13  14
ATOM     14  C   UNL     1      -3.835  34.331 100.233  1.00  0.00     0.000 C 
BRANCH  14  15
ATOM     15  C   UNL     1      -5.219  34.788  99.744  1.00  0.00     0.000 C 
BRANCH  15  16
ATOM     16  C   UNL     1      -5.254  35.042  98.225  1.00  0.00     0.006 C 
BRANCH  16  17
ATOM     17  C   UNL     1      -5.445  36.528  97.892  1.00  0.00     0.053 C 
BRANCH  17  18
ATOM     18  C   UNL     1      -4.538  36.972  96.785  1.00  0.00     0.041 C 
ATOM     19  O   UNL     1      -5.000  37.621  95.809  1.00  0.00    -0.550 OA
ATOM     20  O   UNL     1      -3.180  36.684  96.841  1.00  0.00    -0.550 OA
ENDBRANCH  17  18
ENDBRANCH  16  17
ENDBRANCH  15  16
ENDBRANCH  14  15
ENDBRANCH  13  14
ENDBRANCH  12  13
ENDBRANCH  11  12
ENDBRANCH   1  11
TORSDOF 15
ENDMDL
MODEL 4
REMARK VINA RESULT:    -5.783      1.320      6.184
REMARK INTER + INTRA:         -12.062
REMARK INTER:                 -10.484
REMARK INTRA:                  -1.577
REMARK UNBOUND:                -1.208
REMARK SMILES O=C([O-])CCCCCCCCCCCCCCC(=O)[O-]
REMARK SMILES IDX 10 1 9 2 8 3 7 4 6 5 5 6 4 7 2 8 1 9 3 10 11 11 12 12 13 13
REMARK SMILES IDX 14 14 15 15 16 16 17 17 18 18 19 19 20 20
REMARK H PARENT
REMARK Flexibility Score: inf
ROOT
ATOM      1  C   UNL     1      -3.309  34.796 100.512  1.00  0.00     0.000 C 
ENDROOT
BRANCH   1   2
ATOM      2  C   UNL     1      -2.453  35.353  99.362  1.00  0.00     0.000 C 
BRANCH   2   3
ATOM      3  C   UNL     1      -3.166  35.262  98.001  1.00  0.00     0.000 C 
BRANCH   3   4
ATOM      4  C   UNL     1      -3.359  36.639  97.343  1.00  0.00     0.000 C 
BRANCH   4   5
ATOM      5  C   UNL     1      -3.083  37.803  98.305  1.00  0.00     0.000 C 
BRANCH   5   6
ATOM      6  C   UNL     1      -4.349  38.638  98.531  1.00  0.00     0.006 C 
BRANCH   6   7
ATOM      7  C   UNL     1      -5.576  37.953  97.922  1.00  0.00     0.053 C 
BRANCH   7   8
ATOM      8  C   UNL     1      -6.273  38.878  96.975  1.00  0.00     0.041 C 
ATOM      9  O   UNL     1      -7.511  38.756  96.766  1.00  0.00    -0.550 OA
ATOM     10  O   UNL     1      -5.550  39.848  96.290  1.00  0.00    -0.550 OA
ENDBRANCH   7   8
ENDBRANCH   6   7
ENDBRANCH   5   6
ENDBRANCH   4   5
ENDBRANCH   3   4
ENDBRANCH   2   3
ENDBRANCH   1   2
BRANCH   1  11
ATOM     11  C   UNL     1      -4.685  35.482 100.601  1.00  0.00     0.000 C 
BRANCH  11  12
ATOM     12  C   UNL     1      -4.662  36.745 101.476  1.00  0.00     0.000 C 
BRANCH  12  13
ATOM     13  C   UNL     1      -3.259  37.075 102.009  1.00  0.00     0.000 C 
BRANCH  13  14
ATOM     14  C   UNL     1      -3.315  37.464 103.495  1.00  0.00     0.000 C 
BRANCH  14  15
ATOM     15  C   UNL     1      -2.839  38.903 103.749  1.00  0.00     0.000 C 
BRANCH  15  16
ATOM     16  C   UNL     1      -1.977  39.453 102.598  1.00  0.00     0.006 C 
BRANCH  16  17
ATOM     17  C   UNL     1      -1.559  40.911 102.833  1.00  0.00     0.053 C 
BRANCH  17  18
ATOM     18  C   UNL     1      -2.732  41.842 102.791  1.00  0.00     0.041 C 
ATOM     19  O   UNL     1      -3.441  41.920 101.752  1.00  0.00    -0.550 OA
ATOM     20  O   UNL     1      -3.050  42.610 103.903  1.00  0.00    -0.550 OA
ENDBRANCH  17  18
ENDBRANCH  16  17
ENDBRANCH  15  16
ENDBRANCH  14  15
ENDBRANCH  13  14
ENDBRANCH  12  13
ENDBRANCH  11  12
ENDBRANCH   1  11
TORSDOF 15
ENDMDL
MODEL 5
REMARK VINA RESULT:    -5.771      1.875      7.648
REMARK INTER + INTRA:         -12.040
REMARK INTER:                 -11.065
REMARK INTRA:                  -0.976
REMARK UNBOUND:                -1.208
REMARK SMILES O=C([O-])CCCCCCCCCCCCCCC(=O)[O-]
REMARK SMILES IDX 10 1 9 2 8 3 7 4 6 5 5 6 4 7 2 8 1 9 3 10 11 11 12 12 13 13
REMARK SMILES IDX 14 14 15 15 16 16 17 17 18 18 19 19 20 20
REMARK H PARENT
REMARK Flexibility Score: inf
ROOT
ATOM      1  C   UNL     1      -2.152  38.027 101.234  1.00  0.00     0.000 C 
ENDROOT
BRANCH   1   2
ATOM      2  C   UNL     1      -2.899  36.776 101.723  1.00  0.00     0.000 C 
BRANCH   2   3
ATOM      3  C   UNL     1      -4.420  36.877 101.508  1.00  0.00     0.000 C 
BRANCH   3   4
ATOM      4  C   UNL     1      -4.980  35.705 100.686  1.00  0.00     0.000 C 
BRANCH   4   5
ATOM      5  C   UNL     1      -3.886  34.744 100.197  1.00  0.00     0.000 C 
BRANCH   5   6
ATOM      6  C   UNL     1      -3.836  34.706  98.665  1.00  0.00     0.006 C 
BRANCH   6   7
ATOM      7  C   UNL     1      -3.129  35.945  98.107  1.00  0.00     0.053 C 
BRANCH   7   8
ATOM      8  C   UNL     1      -4.128  36.905  97.542  1.00  0.00     0.041 C 
ATOM      9  O   UNL     1      -4.113  38.116  97.894  1.00  0.00    -0.550 OA
ATOM     10  O   UNL     1      -5.104  36.455  96.660  1.00  0.00    -0.550 OA
ENDBRANCH   7   8
ENDBRANCH   6   7
ENDBRANCH   5   6
ENDBRANCH   4   5
ENDBRANCH   3   4
ENDBRANCH   2   3
ENDBRANCH   1   2
BRANCH   1  11
ATOM     11  C   UNL     1      -2.564  39.294 102.006  1.00  0.00     0.000 C 
BRANCH  11  12
ATOM     12  C   UNL     1      -1.368  40.008 102.655  1.00  0.00     0.000 C 
BRANCH  12  13
ATOM     13  C   UNL     1      -1.705  41.434 103.118  1.00  0.00     0.000 C 
BRANCH  13  14
ATOM     14  C   UNL     1      -3.219  41.687 103.057  1.00  0.00     0.000 C 
BRANCH  14  15
ATOM     15  C   UNL     1      -3.648  42.916 103.874  1.00  0.00     0.000 C 
BRANCH  15  16
ATOM     16  C   UNL     1      -4.947  42.677 104.664  1.00  0.00     0.006 C 
BRANCH  16  17
ATOM     17  C   UNL     1      -5.773  43.961 104.824  1.00  0.00     0.053 C 
BRANCH  17  18
ATOM     18  C   UNL     1      -6.748  44.141 103.702  1.00  0.00     0.041 C 
ATOM     19  O   UNL     1      -7.983  44.211 103.941  1.00  0.00    -0.550 OA
ATOM     20  O   UNL     1      -6.291  44.249 102.395  1.00  0.00    -0.550 OA
ENDBRANCH  17  18
ENDBRANCH  16  17
ENDBRANCH  15  16
ENDBRANCH  14  15
ENDBRANCH  13  14
ENDBRANCH  12  13
ENDBRANCH  11  12
ENDBRANCH   1  11
TORSDOF 15
ENDMDL
MODEL 6
REMARK VINA RESULT:    -5.630      1.470      7.867
REMARK INTER + INTRA:         -11.774
REMARK INTER:                 -10.673
REMARK INTRA:                  -1.102
REMARK UNBOUND:                -1.208
REMARK SMILES O=C([O-])CCCCCCCCCCCCCCC(=O)[O-]
REMARK SMILES IDX 10 1 9 2 8 3 7 4 6 5 5 6 4 7 2 8 1 9 3 10 11 11 12 12 13 13
REMARK SMILES IDX 14 14 15 15 16 16 17 17 18 18 19 19 20 20
REMARK H PARENT
REMARK Flexibility Score: inf
ROOT
ATOM      1  C   UNL     1      -3.202  38.181 101.397  1.00  0.00     0.000 C 
ENDROOT
BRANCH   1   2
ATOM      2  C   UNL     1      -3.319  36.672 101.672  1.00  0.00     0.000 C 
BRANCH   2   3
ATOM      3  C   UNL     1      -2.739  35.820 100.530  1.00  0.00     0.000 C 
BRANCH   3   4
ATOM      4  C   UNL     1      -3.688  34.690 100.096  1.00  0.00     0.000 C 
BRANCH   4   5
ATOM      5  C   UNL     1      -5.149  35.149  99.981  1.00  0.00     0.000 C 
BRANCH   5   6
ATOM      6  C   UNL     1      -5.633  35.075  98.528  1.00  0.00     0.006 C 
BRANCH   6   7
ATOM      7  C   UNL     1      -4.908  36.103  97.654  1.00  0.00     0.053 C 
BRANCH   7   8
ATOM      8  C   UNL     1      -5.559  37.445  97.778  1.00  0.00     0.041 C 
ATOM      9  O   UNL     1      -5.070  38.319  98.545  1.00  0.00    -0.550 OA
ATOM     10  O   UNL     1      -6.731  37.717  97.082  1.00  0.00    -0.550 OA
ENDBRANCH   7   8
ENDBRANCH   6   7
ENDBRANCH   5   6
ENDBRANCH   4   5
ENDBRANCH   3   4
ENDBRANCH   2   3
ENDBRANCH   1   2
BRANCH   1  11
ATOM     11  C   UNL     1      -1.738  38.658 101.369  1.00  0.00     0.000 C 
BRANCH  11  12
ATOM     12  C   UNL     1      -1.463  39.783 102.380  1.00  0.00     0.000 C 
BRANCH  12  13
ATOM     13  C   UNL     1      -2.734  40.261 103.100  1.00  0.00     0.000 C 
BRANCH  13  14
ATOM     14  C   UNL     1      -2.772  41.795 103.183  1.00  0.00     0.000 C 
BRANCH  14  15
ATOM     15  C   UNL     1      -1.393  42.407 103.474  1.00  0.00     0.000 C 
BRANCH  15  16
ATOM     16  C   UNL     1      -1.318  43.900 103.104  1.00  0.00     0.006 C 
BRANCH  16  17
ATOM     17  C   UNL     1      -2.710  44.536 102.983  1.00  0.00     0.053 C 
BRANCH  17  18
ATOM     18  C   UNL     1      -3.048  45.372 104.180  1.00  0.00     0.041 C 
ATOM     19  O   UNL     1      -3.138  44.840 105.318  1.00  0.00    -0.550 OA
ATOM     20  O   UNL     1      -3.248  46.739 104.039  1.00  0.00    -0.550 OA
ENDBRANCH  17  18
ENDBRANCH  16  17
ENDBRANCH  15  16
ENDBRANCH  14  15
ENDBRANCH  13  14
ENDBRANCH  12  13
ENDBRANCH  11  12
ENDBRANCH   1  11
TORSDOF 15
ENDMDL
MODEL 7
REMARK VINA RESULT:    -5.618      1.775      2.954
REMARK INTER + INTRA:         -11.753
REMARK INTER:                 -10.262
REMARK INTRA:                  -1.491
REMARK UNBOUND:                -1.208
REMARK SMILES O=C([O-])CCCCCCCCCCCCCCC(=O)[O-]
REMARK SMILES IDX 10 1 9 2 8 3 7 4 6 5 5 6 4 7 2 8 1 9 3 10 11 11 12 12 13 13
REMARK SMILES IDX 14 14 15 15 16 16 17 17 18 18 19 19 20 20
REMARK H PARENT
REMARK Flexibility Score: inf
ROOT
ATOM      1  C   UNL     1      -3.253  39.301 100.715  1.00  0.00     0.000 C 
ENDROOT
BRANCH   1   2
ATOM      2  C   UNL     1      -2.048  38.951 101.603  1.00  0.00     0.000 C 
BRANCH   2   3
ATOM      3  C   UNL     1      -2.063  39.711 102.941  1.00  0.00     0.000 C 
BRANCH   3   4
ATOM      4  C   UNL     1      -1.062  40.878 102.970  1.00  0.00     0.000 C 
BRANCH   4   5
ATOM      5  C   UNL     1      -1.729  42.229 103.266  1.00  0.00     0.000 C 
BRANCH   5   6
ATOM      6  C   UNL     1      -3.257  42.107 103.216  1.00  0.00     0.006 C 
BRANCH   6   7
ATOM      7  C   UNL     1      -3.834  42.901 102.040  1.00  0.00     0.053 C 
BRANCH   7   8
ATOM      8  C   UNL     1      -4.674  44.035 102.539  1.00  0.00     0.041 C 
ATOM      9  O   UNL     1      -5.814  44.245 102.043  1.00  0.00    -0.550 OA
ATOM     10  O   UNL     1      -4.182  44.886 103.521  1.00  0.00    -0.550 OA
ENDBRANCH   7   8
ENDBRANCH   6   7
ENDBRANCH   5   6
ENDBRANCH   4   5
ENDBRANCH   3   4
ENDBRANCH   2   3
ENDBRANCH   1   2
BRANCH   1  11
ATOM     11  C   UNL     1      -3.176  38.627  99.333  1.00  0.00     0.000 C 
BRANCH  11  12
ATOM     12  C   UNL     1      -4.526  38.627  98.598  1.00  0.00     0.000 C 
BRANCH  12  13
ATOM     13  C   UNL     1      -4.646  37.489  97.572  1.00  0.00     0.000 C 
BRANCH  13  14
ATOM     14  C   UNL     1      -3.284  36.818  97.336  1.00  0.00     0.000 C 
BRANCH  14  15
ATOM     15  C   UNL     1      -3.238  35.372  97.854  1.00  0.00     0.000 C 
BRANCH  15  16
ATOM     16  C   UNL     1      -4.600  34.892  98.389  1.00  0.00     0.006 C 
BRANCH  16  17
ATOM     17  C   UNL     1      -4.515  34.419  99.846  1.00  0.00     0.053 C 
BRANCH  17  18
ATOM     18  C   UNL     1      -4.210  35.547 100.783  1.00  0.00     0.041 C 
ATOM     19  O   UNL     1      -5.134  36.305 101.184  1.00  0.00    -0.550 OA
ATOM     20  O   UNL     1      -2.910  35.751 101.226  1.00  0.00    -0.550 OA
ENDBRANCH  17  18
ENDBRANCH  16  17
ENDBRANCH  15  16
ENDBRANCH  14  15
ENDBRANCH  13  14
ENDBRANCH  12  13
ENDBRANCH  11  12
ENDBRANCH   1  11
TORSDOF 15
ENDMDL
MODEL 8
REMARK VINA RESULT:    -5.605      2.280      7.598
REMARK INTER + INTRA:         -11.729
REMARK INTER:                 -10.525
REMARK INTRA:                  -1.204
REMARK UNBOUND:                -1.208
REMARK SMILES O=C([O-])CCCCCCCCCCCCCCC(=O)[O-]
REMARK SMILES IDX 10 1 9 2 8 3 7 4 6 5 5 6 4 7 2 8 1 9 3 10 11 11 12 12 13 13
REMARK SMILES IDX 14 14 15 15 16 16 17 17 18 18 19 19 20 20
REMARK H PARENT
REMARK Flexibility Score: inf
ROOT
ATOM      1  C   UNL     1      -3.239  39.005 100.834  1.00  0.00     0.000 C 
ENDROOT
BRANCH   1   2
ATOM      2  C   UNL     1      -3.235  38.400  99.420  1.00  0.00     0.000 C 
BRANCH   2   3
ATOM      3  C   UNL     1      -4.351  38.978  98.531  1.00  0.00     0.000 C 
BRANCH   3   4
ATOM      4  C   UNL     1      -4.933  37.935  97.562  1.00  0.00     0.000 C 
BRANCH   4   5
ATOM      5  C   UNL     1      -4.137  36.622  97.552  1.00  0.00     0.000 C 
BRANCH   5   6
ATOM      6  C   UNL     1      -5.052  35.425  97.841  1.00  0.00     0.006 C 
BRANCH   6   7
ATOM      7  C   UNL     1      -4.387  34.448  98.816  1.00  0.00     0.053 C 
BRANCH   7   8
ATOM      8  C   UNL     1      -4.199  35.093 100.153  1.00  0.00     0.041 C 
ATOM      9  O   UNL     1      -3.080  35.040 100.731  1.00  0.00    -0.550 OA
ATOM     10  O   UNL     1      -5.270  35.717 100.782  1.00  0.00    -0.550 OA
ENDBRANCH   7   8
ENDBRANCH   6   7
ENDBRANCH   5   6
ENDBRANCH   4   5
ENDBRANCH   3   4
ENDBRANCH   2   3
ENDBRANCH   1   2
BRANCH   1  11
ATOM     11  C   UNL     1      -1.917  38.753 101.582  1.00  0.00     0.000 C 
BRANCH  11  12
ATOM     12  C   UNL     1      -1.632  39.815 102.656  1.00  0.00     0.000 C 
BRANCH  12  13
ATOM     13  C   UNL     1      -2.903  40.535 103.134  1.00  0.00     0.000 C 
BRANCH  13  14
ATOM     14  C   UNL     1      -2.752  42.058 103.003  1.00  0.00     0.000 C 
BRANCH  14  15
ATOM     15  C   UNL     1      -3.732  42.665 101.986  1.00  0.00     0.000 C 
BRANCH  15  16
ATOM     16  C   UNL     1      -4.446  43.917 102.527  1.00  0.00     0.006 C 
BRANCH  16  17
ATOM     17  C   UNL     1      -5.553  43.565 103.529  1.00  0.00     0.053 C 
BRANCH  17  18
ATOM     18  C   UNL     1      -6.878  44.131 103.119  1.00  0.00     0.041 C 
ATOM     19  O   UNL     1      -7.836  44.159 103.938  1.00  0.00    -0.550 OA
ATOM     20  O   UNL     1      -7.050  44.642 101.839  1.00  0.00    -0.550 OA
ENDBRANCH  17  18
ENDBRANCH  16  17
ENDBRANCH  15  16
ENDBRANCH  14  15
ENDBRANCH  13  14
ENDBRANCH  12  13
ENDBRANCH  11  12
ENDBRANCH   1  11
TORSDOF 15
ENDMDL
MODEL 9
REMARK VINA RESULT:    -5.583      2.228      3.645
REMARK INTER + INTRA:         -11.688
REMARK INTER:                 -10.782
REMARK INTRA:                  -0.906
REMARK UNBOUND:                -1.208
REMARK SMILES O=C([O-])CCCCCCCCCCCCCCC(=O)[O-]
REMARK SMILES IDX 10 1 9 2 8 3 7 4 6 5 5 6 4 7 2 8 1 9 3 10 11 11 12 12 13 13
REMARK SMILES IDX 14 14 15 15 16 16 17 17 18 18 19 19 20 20
REMARK H PARENT
REMARK Flexibility Score: inf
ROOT
ATOM      1  C   UNL     1      -2.191  39.995 102.408  1.00  0.00     0.000 C 
ENDROOT
BRANCH   1   2
ATOM      2  C   UNL     1      -3.017  40.956 103.280  1.00  0.00     0.000 C 
BRANCH   2   3
ATOM      3  C   UNL     1      -3.169  42.347 102.638  1.00  0.00     0.000 C 
BRANCH   3   4
ATOM      4  C   UNL     1      -3.771  43.380 103.605  1.00  0.00     0.000 C 
BRANCH   4   5
ATOM      5  C   UNL     1      -4.718  42.750 104.637  1.00  0.00     0.000 C 
BRANCH   5   6
ATOM      6  C   UNL     1      -5.854  43.715 104.998  1.00  0.00     0.006 C 
BRANCH   6   7
ATOM      7  C   UNL     1      -7.043  43.544 104.048  1.00  0.00     0.053 C 
BRANCH   7   8
ATOM      8  C   UNL     1      -7.227  44.775 103.216  1.00  0.00     0.041 C 
ATOM      9  O   UNL     1      -7.438  45.888 103.769  1.00  0.00    -0.550 OA
ATOM     10  O   UNL     1      -7.209  44.687 101.829  1.00  0.00    -0.550 OA
ENDBRANCH   7   8
ENDBRANCH   6   7
ENDBRANCH   5   6
ENDBRANCH   4   5
ENDBRANCH   3   4
ENDBRANCH   2   3
ENDBRANCH   1   2
BRANCH   1  11
ATOM     11  C   UNL     1      -2.682  38.539 102.516  1.00  0.00     0.000 C 
BRANCH  11  12
ATOM     12  C   UNL     1      -2.648  37.802 101.168  1.00  0.00     0.000 C 
BRANCH  12  13
ATOM     13  C   UNL     1      -3.287  36.405 101.237  1.00  0.00     0.000 C 
BRANCH  13  14
ATOM     14  C   UNL     1      -4.820  36.503 101.243  1.00  0.00     0.000 C 
BRANCH  14  15
ATOM     15  C   UNL     1      -5.492  35.332 100.508  1.00  0.00     0.000 C 
BRANCH  15  16
ATOM     16  C   UNL     1      -4.582  34.710  99.433  1.00  0.00     0.006 C 
BRANCH  16  17
ATOM     17  C   UNL     1      -5.128  34.931  98.015  1.00  0.00     0.053 C 
BRANCH  17  18
ATOM     18  C   UNL     1      -4.722  36.263  97.462  1.00  0.00     0.041 C 
ATOM     19  O   UNL     1      -5.538  36.943  96.785  1.00  0.00    -0.550 OA
ATOM     20  O   UNL     1      -3.448  36.759  97.709  1.00  0.00    -0.550 OA
ENDBRANCH  17  18
ENDBRANCH  16  17
ENDBRANCH  15  16
ENDBRANCH  14  15
ENDBRANCH  13  14
ENDBRANCH  12  13
ENDBRANCH  11  12
ENDBRANCH   1  11
TORSDOF 15
ENDMDL
