MODEL 1
REMARK VINA RESULT:    -2.942      0.000      0.000
REMARK INTER + INTRA:          -5.808
REMARK INTER:                  -5.349
REMARK INTRA:                  -0.459
REMARK UNBOUND:                -0.459
REMARK SMILES CCCCCCCCCCCCCC[C@@H](C)C(=O)[O-]
REMARK SMILES IDX 9 1 10 2 11 3 12 4 13 5 14 6 15 7 16 8 17 9 18 10 19 11 8 12
REMARK SMILES IDX 7 13 6 14 5 15 4 16 3 17 2 18 1 19
REMARK H PARENT
REMARK Flexibility Score: inf
ROOT
ATOM      1  C   UNL     1       1.999 -38.133  19.106  1.00  0.00     0.000 C 
ENDROOT
BRANCH   1   2
ATOM      2  C   UNL     1       3.481 -37.767  19.251  1.00  0.00     0.000 C 
BRANCH   2   3
ATOM      3  C   UNL     1       3.662 -36.554  20.172  1.00  0.00     0.000 C 
BRANCH   3   4
ATOM      4  C   UNL     1       4.746 -35.609  19.630  1.00  0.00     0.000 C 
BRANCH   4   5
ATOM      5  C   UNL     1       5.950 -35.482  20.576  1.00  0.00     0.001 C 
BRANCH   5   6
ATOM      6  C   UNL     1       5.785 -36.313  21.862  1.00  0.00     0.009 C 
BRANCH   6   7
ATOM      7  C   UNL     1       6.125 -35.498  23.127  1.00  0.00     0.032 C 
ATOM      8  C   UNL     1       5.398 -34.149  23.113  1.00  0.00     0.014 C 
BRANCH   7   9
ATOM      9  C   UNL     1       5.764 -36.253  24.379  1.00  0.00     0.044 C 
ATOM     10  O   UNL     1       6.000 -35.751  25.509  1.00  0.00    -0.550 OA
ATOM     11  O   UNL     1       5.168 -37.506  24.296  1.00  0.00    -0.550 OA
ENDBRANCH   7   9
ENDBRANCH   6   7
ENDBRANCH   5   6
ENDBRANCH   4   5
ENDBRANCH   3   4
ENDBRANCH   2   3
ENDBRANCH   1   2
BRANCH   1  12
ATOM     12  C   UNL     1       1.325 -37.278  18.022  1.00  0.00     0.000 C 
BRANCH  12  13
ATOM     13  C   UNL     1       1.978 -37.444  16.637  1.00  0.00    -0.000 C 
BRANCH  13  14
ATOM     14  C   UNL     1       1.695 -36.300  15.645  1.00  0.00    -0.000 C 
BRANCH  14  15
ATOM     15  C   UNL     1       2.405 -36.428  14.283  1.00  0.00    -0.000 C 
BRANCH  15  16
ATOM     16  C   UNL     1       3.840 -36.991  14.379  1.00  0.00    -0.000 C 
BRANCH  16  17
ATOM     17  C   UNL     1       3.861 -38.516  14.579  1.00  0.00    -0.000 C 
BRANCH  17  18
ATOM     18  C   UNL     1       5.072 -39.182  13.907  1.00  0.00    -0.003 C 
ATOM     19  C   UNL     1       4.968 -40.707  13.883  1.00  0.00     0.004 C 
ENDBRANCH  17  18
ENDBRANCH  16  17
ENDBRANCH  15  16
ENDBRANCH  14  15
ENDBRANCH  13  14
ENDBRANCH  12  13
ENDBRANCH   1  12
TORSDOF 14
ENDMDL
MODEL 2
REMARK VINA RESULT:    -2.712      4.038      8.133
REMARK INTER + INTRA:          -5.390
REMARK INTER:                  -4.491
REMARK INTRA:                  -0.899
REMARK UNBOUND:                -0.459
REMARK SMILES CCCCCCCCCCCCCC[C@@H](C)C(=O)[O-]
REMARK SMILES IDX 9 1 10 2 11 3 12 4 13 5 14 6 15 7 16 8 17 9 18 10 19 11 8 12
REMARK SMILES IDX 7 13 6 14 5 15 4 16 3 17 2 18 1 19
REMARK H PARENT
REMARK Flexibility Score: inf
ROOT
ATOM      1  C   UNL     1       4.963 -34.773  22.901  1.00  0.00     0.000 C 
ENDROOT
BRANCH   1   2
ATOM      2  C   UNL     1       4.966 -35.950  21.918  1.00  0.00     0.000 C 
BRANCH   2   3
ATOM      3  C   UNL     1       6.120 -35.827  20.916  1.00  0.00     0.000 C 
BRANCH   3   4
ATOM      4  C   UNL     1       5.609 -35.372  19.540  1.00  0.00     0.000 C 
BRANCH   4   5
ATOM      5  C   UNL     1       4.259 -36.005  19.169  1.00  0.00     0.001 C 
BRANCH   5   6
ATOM      6  C   UNL     1       3.938 -35.882  17.669  1.00  0.00     0.009 C 
BRANCH   6   7
ATOM      7  C   UNL     1       3.122 -37.084  17.150  1.00  0.00     0.032 C 
ATOM      8  C   UNL     1       2.059 -37.498  18.173  1.00  0.00     0.014 C 
BRANCH   7   9
ATOM      9  C   UNL     1       2.460 -36.769  15.834  1.00  0.00     0.044 C 
ATOM     10  O   UNL     1       1.258 -36.396  15.806  1.00  0.00    -0.550 OA
ATOM     11  O   UNL     1       3.169 -36.888  14.645  1.00  0.00    -0.550 OA
ENDBRANCH   7   9
ENDBRANCH   6   7
ENDBRANCH   5   6
ENDBRANCH   4   5
ENDBRANCH   3   4
ENDBRANCH   2   3
ENDBRANCH   1   2
BRANCH   1  12
ATOM     12  C   UNL     1       6.003 -34.983  24.012  1.00  0.00     0.000 C 
BRANCH  12  13
ATOM     13  C   UNL     1       6.125 -36.454  24.449  1.00  0.00    -0.000 C 
BRANCH  13  14
ATOM     14  C   UNL     1       5.070 -36.918  25.471  1.00  0.00    -0.000 C 
BRANCH  14  15
ATOM     15  C   UNL     1       4.837 -38.441  25.523  1.00  0.00    -0.000 C 
BRANCH  15  16
ATOM     16  C   UNL     1       5.327 -39.189  24.265  1.00  0.00    -0.000 C 
BRANCH  16  17
ATOM     17  C   UNL     1       5.168 -40.714  24.388  1.00  0.00    -0.000 C 
BRANCH  17  18
ATOM     18  C   UNL     1       5.670 -41.461  23.143  1.00  0.00    -0.003 C 
ATOM     19  C   UNL     1       6.047 -42.913  23.439  1.00  0.00     0.004 C 
ENDBRANCH  17  18
ENDBRANCH  16  17
ENDBRANCH  15  16
ENDBRANCH  14  15
ENDBRANCH  13  14
ENDBRANCH  12  13
ENDBRANCH   1  12
TORSDOF 14
ENDMDL
MODEL 3
REMARK VINA RESULT:    -2.474      1.097      2.054
REMARK INTER + INTRA:          -4.957
REMARK INTER:                  -5.089
REMARK INTRA:                   0.131
REMARK UNBOUND:                -0.459
REMARK SMILES CCCCCCCCCCCCCC[C@@H](C)C(=O)[O-]
REMARK SMILES IDX 9 1 10 2 11 3 12 4 13 5 14 6 15 7 16 8 17 9 18 10 19 11 8 12
REMARK SMILES IDX 7 13 6 14 5 15 4 16 3 17 2 18 1 19
REMARK H PARENT
REMARK Flexibility Score: inf
ROOT
ATOM      1  C   UNL     1       3.645 -37.880  18.929  1.00  0.00     0.000 C 
ENDROOT
BRANCH   1   2
ATOM      2  C   UNL     1       5.099 -37.655  19.362  1.00  0.00     0.000 C 
BRANCH   2   3
ATOM      3  C   UNL     1       5.167 -36.854  20.667  1.00  0.00     0.000 C 
BRANCH   3   4
ATOM      4  C   UNL     1       6.072 -35.621  20.509  1.00  0.00     0.000 C 
BRANCH   4   5
ATOM      5  C   UNL     1       6.048 -34.705  21.742  1.00  0.00     0.001 C 
BRANCH   5   6
ATOM      6  C   UNL     1       5.176 -35.264  22.880  1.00  0.00     0.009 C 
BRANCH   6   7
ATOM      7  C   UNL     1       6.009 -35.629  24.126  1.00  0.00     0.032 C 
ATOM      8  C   UNL     1       6.041 -34.460  25.117  1.00  0.00     0.014 C 
BRANCH   7   9
ATOM      9  C   UNL     1       5.465 -36.855  24.810  1.00  0.00     0.044 C 
ATOM     10  O   UNL     1       4.863 -36.749  25.910  1.00  0.00    -0.550 OA
ATOM     11  O   UNL     1       5.623 -38.110  24.233  1.00  0.00    -0.550 OA
ENDBRANCH   7   9
ENDBRANCH   6   7
ENDBRANCH   5   6
ENDBRANCH   4   5
ENDBRANCH   3   4
ENDBRANCH   2   3
ENDBRANCH   1   2
BRANCH   1  12
ATOM     12  C   UNL     1       2.668 -37.398  20.012  1.00  0.00     0.000 C 
BRANCH  12  13
ATOM     13  C   UNL     1       1.194 -37.494  19.576  1.00  0.00    -0.000 C 
BRANCH  13  14
ATOM     14  C   UNL     1       0.972 -37.591  18.055  1.00  0.00    -0.000 C 
BRANCH  14  15
ATOM     15  C   UNL     1       2.087 -36.970  17.192  1.00  0.00    -0.000 C 
BRANCH  15  16
ATOM     16  C   UNL     1       1.588 -36.391  15.850  1.00  0.00    -0.000 C 
BRANCH  16  17
ATOM     17  C   UNL     1       2.574 -36.644  14.697  1.00  0.00    -0.000 C 
BRANCH  17  18
ATOM     18  C   UNL     1       3.727 -37.576  15.102  1.00  0.00    -0.003 C 
ATOM     19  C   UNL     1       4.139 -38.527  13.977  1.00  0.00     0.004 C 
ENDBRANCH  17  18
ENDBRANCH  16  17
ENDBRANCH  15  16
ENDBRANCH  14  15
ENDBRANCH  13  14
ENDBRANCH  12  13
ENDBRANCH   1  12
TORSDOF 14
ENDMDL
MODEL 4
REMARK VINA RESULT:    -2.228      2.642      5.286
REMARK INTER + INTRA:          -4.511
REMARK INTER:                  -3.436
REMARK INTRA:                  -1.075
REMARK UNBOUND:                -0.459
REMARK SMILES CCCCCCCCCCCCCC[C@@H](C)C(=O)[O-]
REMARK SMILES IDX 9 1 10 2 11 3 12 4 13 5 14 6 15 7 16 8 17 9 18 10 19 11 8 12
REMARK SMILES IDX 7 13 6 14 5 15 4 16 3 17 2 18 1 19
REMARK H PARENT
REMARK Flexibility Score: inf
ROOT
ATOM      1  C   UNL     1       6.037 -35.461  22.464  1.00  0.00     0.000 C 
ENDROOT
BRANCH   1   2
ATOM      2  C   UNL     1       5.492 -35.098  23.850  1.00  0.00     0.000 C 
BRANCH   2   3
ATOM      3  C   UNL     1       6.083 -36.010  24.931  1.00  0.00     0.000 C 
BRANCH   3   4
ATOM      4  C   UNL     1       6.050 -37.481  24.488  1.00  0.00     0.000 C 
BRANCH   4   5
ATOM      5  C   UNL     1       5.108 -38.339  25.347  1.00  0.00     0.001 C 
BRANCH   5   6
ATOM      6  C   UNL     1       4.594 -39.583  24.601  1.00  0.00     0.009 C 
BRANCH   6   7
ATOM      7  C   UNL     1       5.746 -40.485  24.112  1.00  0.00     0.032 C 
ATOM      8  C   UNL     1       5.694 -41.851  24.805  1.00  0.00     0.014 C 
BRANCH   7   9
ATOM      9  C   UNL     1       5.699 -40.675  22.620  1.00  0.00     0.044 C 
ATOM     10  O   UNL     1       5.916 -41.810  22.120  1.00  0.00    -0.550 OA
ATOM     11  O   UNL     1       5.415 -39.602  21.783  1.00  0.00    -0.550 OA
ENDBRANCH   7   9
ENDBRANCH   6   7
ENDBRANCH   5   6
ENDBRANCH   4   5
ENDBRANCH   3   4
ENDBRANCH   2   3
ENDBRANCH   1   2
BRANCH   1  12
ATOM     12  C   UNL     1       4.892 -35.691  21.466  1.00  0.00     0.000 C 
BRANCH  12  13
ATOM     13  C   UNL     1       5.391 -36.020  20.046  1.00  0.00    -0.000 C 
BRANCH  13  14
ATOM     14  C   UNL     1       4.609 -37.134  19.325  1.00  0.00    -0.000 C 
BRANCH  14  15
ATOM     15  C   UNL     1       3.184 -37.382  19.859  1.00  0.00    -0.000 C 
BRANCH  15  16
ATOM     16  C   UNL     1       2.118 -37.511  18.750  1.00  0.00    -0.000 C 
BRANCH  16  17
ATOM     17  C   UNL     1       2.735 -37.551  17.342  1.00  0.00    -0.000 C 
BRANCH  17  18
ATOM     18  C   UNL     1       1.869 -36.828  16.299  1.00  0.00    -0.003 C 
ATOM     19  C   UNL     1       2.609 -36.590  14.982  1.00  0.00     0.004 C 
ENDBRANCH  17  18
ENDBRANCH  16  17
ENDBRANCH  15  16
ENDBRANCH  14  15
ENDBRANCH  13  14
ENDBRANCH  12  13
ENDBRANCH   1  12
TORSDOF 14
ENDMDL
MODEL 5
REMARK VINA RESULT:    -2.075      3.631      7.628
REMARK INTER + INTRA:          -4.232
REMARK INTER:                  -2.940
REMARK INTRA:                  -1.292
REMARK UNBOUND:                -0.459
REMARK SMILES CCCCCCCCCCCCCC[C@@H](C)C(=O)[O-]
REMARK SMILES IDX 9 1 10 2 11 3 12 4 13 5 14 6 15 7 16 8 17 9 18 10 19 11 8 12
REMARK SMILES IDX 7 13 6 14 5 15 4 16 3 17 2 18 1 19
REMARK H PARENT
REMARK Flexibility Score: inf
ROOT
ATOM      1  C   UNL     1       5.507 -35.751  22.868  1.00  0.00     0.000 C 
ENDROOT
BRANCH   1   2
ATOM      2  C   UNL     1       5.960 -36.377  21.543  1.00  0.00     0.000 C 
BRANCH   2   3
ATOM      3  C   UNL     1       6.075 -35.315  20.443  1.00  0.00     0.000 C 
BRANCH   3   4
ATOM      4  C   UNL     1       4.868 -35.374  19.494  1.00  0.00     0.000 C 
BRANCH   4   5
ATOM      5  C   UNL     1       4.474 -36.812  19.122  1.00  0.00     0.001 C 
BRANCH   5   6
ATOM      6  C   UNL     1       3.063 -37.185  19.610  1.00  0.00     0.009 C 
BRANCH   6   7
ATOM      7  C   UNL     1       2.235 -37.882  18.510  1.00  0.00     0.032 C 
ATOM      8  C   UNL     1       0.739 -37.820  18.840  1.00  0.00     0.014 C 
BRANCH   7   9
ATOM      9  C   UNL     1       2.480 -37.260  17.161  1.00  0.00     0.044 C 
ATOM     10  O   UNL     1       3.292 -37.792  16.359  1.00  0.00    -0.550 OA
ATOM     11  O   UNL     1       1.813 -36.099  16.791  1.00  0.00    -0.550 OA
ENDBRANCH   7   9
ENDBRANCH   6   7
ENDBRANCH   5   6
ENDBRANCH   4   5
ENDBRANCH   3   4
ENDBRANCH   2   3
ENDBRANCH   1   2
BRANCH   1  12
ATOM     12  C   UNL     1       6.125 -36.491  24.064  1.00  0.00     0.000 C 
BRANCH  12  13
ATOM     13  C   UNL     1       5.184 -36.553  25.281  1.00  0.00    -0.000 C 
BRANCH  13  14
ATOM     14  C   UNL     1       4.816 -37.975  25.746  1.00  0.00    -0.000 C 
BRANCH  14  15
ATOM     15  C   UNL     1       4.551 -38.984  24.612  1.00  0.00    -0.000 C 
BRANCH  15  16
ATOM     16  C   UNL     1       5.305 -40.321  24.777  1.00  0.00    -0.000 C 
BRANCH  16  17
ATOM     17  C   UNL     1       5.674 -40.959  23.427  1.00  0.00    -0.000 C 
BRANCH  17  18
ATOM     18  C   UNL     1       5.342 -40.049  22.235  1.00  0.00    -0.003 C 
ATOM     19  C   UNL     1       6.119 -40.424  20.973  1.00  0.00     0.004 C 
ENDBRANCH  17  18
ENDBRANCH  16  17
ENDBRANCH  15  16
ENDBRANCH  14  15
ENDBRANCH  13  14
ENDBRANCH  12  13
ENDBRANCH   1  12
TORSDOF 14
ENDMDL
MODEL 6
REMARK VINA RESULT:    -1.493      3.889      6.870
REMARK INTER + INTRA:          -3.175
REMARK INTER:                  -2.389
REMARK INTRA:                  -0.785
REMARK UNBOUND:                -0.459
REMARK SMILES CCCCCCCCCCCCCC[C@@H](C)C(=O)[O-]
REMARK SMILES IDX 9 1 10 2 11 3 12 4 13 5 14 6 15 7 16 8 17 9 18 10 19 11 8 12
REMARK SMILES IDX 7 13 6 14 5 15 4 16 3 17 2 18 1 19
REMARK H PARENT
REMARK Flexibility Score: inf
ROOT
ATOM      1  C   UNL     1       6.125 -35.604  21.619  1.00  0.00     0.000 C 
ENDROOT
BRANCH   1   2
ATOM      2  C   UNL     1       5.986 -34.612  20.457  1.00  0.00     0.000 C 
BRANCH   2   3
ATOM      3  C   UNL     1       5.863 -35.347  19.117  1.00  0.00     0.000 C 
BRANCH   3   4
ATOM      4  C   UNL     1       5.089 -34.500  18.095  1.00  0.00     0.000 C 
BRANCH   4   5
ATOM      5  C   UNL     1       3.852 -35.223  17.540  1.00  0.00     0.001 C 
BRANCH   5   6
ATOM      6  C   UNL     1       4.078 -36.736  17.365  1.00  0.00     0.009 C 
BRANCH   6   7
ATOM      7  C   UNL     1       2.958 -37.398  16.536  1.00  0.00     0.032 C 
ATOM      8  C   UNL     1       1.613 -36.714  16.800  1.00  0.00     0.014 C 
BRANCH   7   9
ATOM      9  C   UNL     1       3.266 -37.353  15.063  1.00  0.00     0.044 C 
ATOM     10  O   UNL     1       4.166 -38.091  14.583  1.00  0.00    -0.550 OA
ATOM     11  O   UNL     1       2.560 -36.500  14.223  1.00  0.00    -0.550 OA
ENDBRANCH   7   9
ENDBRANCH   6   7
ENDBRANCH   5   6
ENDBRANCH   4   5
ENDBRANCH   3   4
ENDBRANCH   2   3
ENDBRANCH   1   2
BRANCH   1  12
ATOM     12  C   UNL     1       4.754 -35.925  22.234  1.00  0.00     0.000 C 
BRANCH  12  13
ATOM     13  C   UNL     1       3.588 -35.683  21.258  1.00  0.00    -0.000 C 
BRANCH  13  14
ATOM     14  C   UNL     1       3.183 -36.906  20.414  1.00  0.00    -0.000 C 
BRANCH  14  15
ATOM     15  C   UNL     1       3.876 -38.226  20.803  1.00  0.00    -0.000 C 
BRANCH  15  16
ATOM     16  C   UNL     1       5.202 -38.478  20.054  1.00  0.00    -0.000 C 
BRANCH  16  17
ATOM     17  C   UNL     1       5.948 -39.717  20.579  1.00  0.00    -0.000 C 
BRANCH  17  18
ATOM     18  C   UNL     1       5.663 -39.991  22.064  1.00  0.00    -0.003 C 
ATOM     19  C   UNL     1       5.850 -41.462  22.439  1.00  0.00     0.004 C 
ENDBRANCH  17  18
ENDBRANCH  16  17
ENDBRANCH  15  16
ENDBRANCH  14  15
ENDBRANCH  13  14
ENDBRANCH  12  13
ENDBRANCH   1  12
TORSDOF 14
ENDMDL
MODEL 7
REMARK VINA RESULT:    -1.318      3.762      7.055
REMARK INTER + INTRA:          -2.855
REMARK INTER:                  -1.230
REMARK INTRA:                  -1.625
REMARK UNBOUND:                -0.459
REMARK SMILES CCCCCCCCCCCCCC[C@@H](C)C(=O)[O-]
REMARK SMILES IDX 9 1 10 2 11 3 12 4 13 5 14 6 15 7 16 8 17 9 18 10 19 11 8 12
REMARK SMILES IDX 7 13 6 14 5 15 4 16 3 17 2 18 1 19
REMARK H PARENT
REMARK Flexibility Score: inf
ROOT
ATOM      1  C   UNL     1       4.526 -35.272  22.103  1.00  0.00     0.000 C 
ENDROOT
BRANCH   1   2
ATOM      2  C   UNL     1       4.212 -34.915  20.645  1.00  0.00     0.000 C 
BRANCH   2   3
ATOM      3  C   UNL     1       5.499 -34.777  19.822  1.00  0.00     0.000 C 
BRANCH   3   4
ATOM      4  C   UNL     1       5.183 -34.672  18.322  1.00  0.00     0.000 C 
BRANCH   4   5
ATOM      5  C   UNL     1       4.509 -35.936  17.767  1.00  0.00     0.001 C 
BRANCH   5   6
ATOM      6  C   UNL     1       3.390 -35.618  16.760  1.00  0.00     0.009 C 
BRANCH   6   7
ATOM      7  C   UNL     1       2.733 -36.896  16.199  1.00  0.00     0.032 C 
ATOM      8  C   UNL     1       1.216 -36.715  16.075  1.00  0.00     0.014 C 
BRANCH   7   9
ATOM      9  C   UNL     1       3.308 -37.265  14.858  1.00  0.00     0.044 C 
ATOM     10  O   UNL     1       3.165 -36.491  13.875  1.00  0.00    -0.550 OA
ATOM     11  O   UNL     1       4.000 -38.459  14.694  1.00  0.00    -0.550 OA
ENDBRANCH   7   9
ENDBRANCH   6   7
ENDBRANCH   5   6
ENDBRANCH   4   5
ENDBRANCH   3   4
ENDBRANCH   2   3
ENDBRANCH   1   2
BRANCH   1  12
ATOM     12  C   UNL     1       5.965 -35.790  22.245  1.00  0.00     0.000 C 
BRANCH  12  13
ATOM     13  C   UNL     1       6.046 -37.133  22.995  1.00  0.00    -0.000 C 
BRANCH  13  14
ATOM     14  C   UNL     1       5.242 -38.282  22.359  1.00  0.00    -0.000 C 
BRANCH  14  15
ATOM     15  C   UNL     1       5.692 -38.687  20.941  1.00  0.00    -0.000 C 
BRANCH  15  16
ATOM     16  C   UNL     1       4.669 -38.338  19.839  1.00  0.00    -0.000 C 
BRANCH  16  17
ATOM     17  C   UNL     1       3.247 -38.148  20.395  1.00  0.00    -0.000 C 
BRANCH  17  18
ATOM     18  C   UNL     1       2.206 -37.935  19.286  1.00  0.00    -0.003 C 
ATOM     19  C   UNL     1       0.839 -37.521  19.833  1.00  0.00     0.004 C 
ENDBRANCH  17  18
ENDBRANCH  16  17
ENDBRANCH  15  16
ENDBRANCH  14  15
ENDBRANCH  13  14
ENDBRANCH  12  13
ENDBRANCH   1  12
TORSDOF 14
ENDMDL
