MODEL 1
REMARK VINA RESULT:    -5.587      0.000      0.000
REMARK INTER + INTRA:         -13.573
REMARK INTER:                 -12.119
REMARK INTRA:                  -1.454
REMARK UNBOUND:                -1.454
REMARK SMILES CCCCCCCCCCCCCCCCCCCCCC(=O)[O-]
REMARK SMILES IDX 12 1 11 2 10 3 9 4 8 5 7 6 6 7 5 8 4 9 3 10 2 11 1 12 13 13
REMARK SMILES IDX 14 14 15 15 16 16 17 17 18 18 19 19 20 20 21 21 22 22 23 23
REMARK SMILES IDX 24 24
REMARK H PARENT
REMARK Flexibility Score: inf
ROOT
ATOM      1  C   UNL     1      44.013   6.757 128.120  1.00  0.00     0.000 C 
ENDROOT
BRANCH   1   2
ATOM      2  C   UNL     1      45.145   7.693 127.672  1.00  0.00     0.000 C 
BRANCH   2   3
ATOM      3  C   UNL     1      45.851   7.200 126.398  1.00  0.00     0.000 C 
BRANCH   3   4
ATOM      4  C   UNL     1      47.379   7.366 126.468  1.00  0.00    -0.000 C 
BRANCH   4   5
ATOM      5  C   UNL     1      47.926   8.259 125.343  1.00  0.00    -0.000 C 
BRANCH   5   6
ATOM      6  C   UNL     1      46.855   8.625 124.300  1.00  0.00    -0.000 C 
BRANCH   6   7
ATOM      7  C   UNL     1      47.365   9.639 123.266  1.00  0.00    -0.000 C 
BRANCH   7   8
ATOM      8  C   UNL     1      47.011  11.089 123.639  1.00  0.00    -0.000 C 
BRANCH   8   9
ATOM      9  C   UNL     1      45.547  11.249 124.081  1.00  0.00    -0.000 C 
BRANCH   9  10
ATOM     10  C   UNL     1      44.531  11.349 122.927  1.00  0.00    -0.000 C 
BRANCH  10  11
ATOM     11  C   UNL     1      45.060  12.123 121.700  1.00  0.00    -0.003 C 
ATOM     12  C   UNL     1      43.936  12.748 120.875  1.00  0.00     0.004 C 
ENDBRANCH  10  11
ENDBRANCH   9  10
ENDBRANCH   8   9
ENDBRANCH   7   8
ENDBRANCH   6   7
ENDBRANCH   5   6
ENDBRANCH   4   5
ENDBRANCH   3   4
ENDBRANCH   2   3
ENDBRANCH   1   2
BRANCH   1  13
ATOM     13  C   UNL     1      44.195   5.352 127.525  1.00  0.00     0.000 C 
BRANCH  13  14
ATOM     14  C   UNL     1      45.184   4.492 128.328  1.00  0.00     0.000 C 
BRANCH  14  15
ATOM     15  C   UNL     1      45.321   4.951 129.787  1.00  0.00     0.000 C 
BRANCH  15  16
ATOM     16  C   UNL     1      46.779   5.288 130.121  1.00  0.00     0.000 C 
BRANCH  16  17
ATOM     17  C   UNL     1      47.261   4.496 131.347  1.00  0.00     0.000 C 
BRANCH  17  18
ATOM     18  C   UNL     1      46.114   4.138 132.305  1.00  0.00     0.000 C 
BRANCH  18  19
ATOM     19  C   UNL     1      46.389   2.850 133.101  1.00  0.00     0.000 C 
BRANCH  19  20
ATOM     20  C   UNL     1      45.119   2.269 133.749  1.00  0.00     0.006 C 
BRANCH  20  21
ATOM     21  C   UNL     1      43.940   2.093 132.780  1.00  0.00     0.053 C 
BRANCH  21  22
ATOM     22  C   UNL     1      43.890   0.711 132.201  1.00  0.00     0.041 C 
ATOM     23  O   UNL     1      44.860  -0.077 132.358  1.00  0.00    -0.550 OA
ATOM     24  O   UNL     1      42.757   0.282 131.522  1.00  0.00    -0.550 OA
ENDBRANCH  21  22
ENDBRANCH  20  21
ENDBRANCH  19  20
ENDBRANCH  18  19
ENDBRANCH  17  18
ENDBRANCH  16  17
ENDBRANCH  15  16
ENDBRANCH  14  15
ENDBRANCH  13  14
ENDBRANCH   1  13
TORSDOF 20
ENDMDL
MODEL 2
REMARK VINA RESULT:    -5.559      1.094      2.219
REMARK INTER + INTRA:         -13.513
REMARK INTER:                 -11.618
REMARK INTRA:                  -1.895
REMARK UNBOUND:                -1.454
REMARK SMILES CCCCCCCCCCCCCCCCCCCCCC(=O)[O-]
REMARK SMILES IDX 12 1 11 2 10 3 9 4 8 5 7 6 6 7 5 8 4 9 3 10 2 11 1 12 13 13
REMARK SMILES IDX 14 14 15 15 16 16 17 17 18 18 19 19 20 20 21 21 22 22 23 23
REMARK SMILES IDX 24 24
REMARK H PARENT
REMARK Flexibility Score: inf
ROOT
ATOM      1  C   UNL     1      42.879   5.962 129.029  1.00  0.00     0.000 C 
ENDROOT
BRANCH   1   2
ATOM      2  C   UNL     1      42.986   6.509 127.597  1.00  0.00     0.000 C 
BRANCH   2   3
ATOM      3  C   UNL     1      43.509   5.461 126.601  1.00  0.00     0.000 C 
BRANCH   3   4
ATOM      4  C   UNL     1      45.030   5.555 126.390  1.00  0.00    -0.000 C 
BRANCH   4   5
ATOM      5  C   UNL     1      45.562   6.984 126.572  1.00  0.00    -0.000 C 
BRANCH   5   6
ATOM      6  C   UNL     1      47.098   7.039 126.662  1.00  0.00    -0.000 C 
BRANCH   6   7
ATOM      7  C   UNL     1      47.716   7.948 125.589  1.00  0.00    -0.000 C 
BRANCH   7   8
ATOM      8  C   UNL     1      46.746   8.234 124.429  1.00  0.00    -0.000 C 
BRANCH   8   9
ATOM      9  C   UNL     1      47.223   9.380 123.523  1.00  0.00    -0.000 C 
BRANCH   9  10
ATOM     10  C   UNL     1      47.185  10.776 124.175  1.00  0.00    -0.000 C 
BRANCH  10  11
ATOM     11  C   UNL     1      46.290  11.786 123.426  1.00  0.00    -0.003 C 
ATOM     12  C   UNL     1      44.830  11.718 123.875  1.00  0.00     0.004 C 
ENDBRANCH  10  11
ENDBRANCH   9  10
ENDBRANCH   8   9
ENDBRANCH   7   8
ENDBRANCH   6   7
ENDBRANCH   5   6
ENDBRANCH   4   5
ENDBRANCH   3   4
ENDBRANCH   2   3
ENDBRANCH   1   2
BRANCH   1  13
ATOM     13  C   UNL     1      44.160   6.255 129.825  1.00  0.00     0.000 C 
BRANCH  13  14
ATOM     14  C   UNL     1      44.982   4.989 130.113  1.00  0.00     0.000 C 
BRANCH  14  15
ATOM     15  C   UNL     1      46.459   5.137 129.719  1.00  0.00     0.000 C 
BRANCH  15  16
ATOM     16  C   UNL     1      47.379   4.657 130.847  1.00  0.00     0.000 C 
BRANCH  16  17
ATOM     17  C   UNL     1      46.587   4.427 132.143  1.00  0.00     0.000 C 
BRANCH  17  18
ATOM     18  C   UNL     1      46.696   2.981 132.651  1.00  0.00     0.000 C 
BRANCH  18  19
ATOM     19  C   UNL     1      46.099   2.802 134.058  1.00  0.00     0.000 C 
BRANCH  19  20
ATOM     20  C   UNL     1      44.652   2.276 134.028  1.00  0.00     0.006 C 
BRANCH  20  21
ATOM     21  C   UNL     1      44.059   2.142 132.617  1.00  0.00     0.053 C 
BRANCH  21  22
ATOM     22  C   UNL     1      43.832   0.710 132.237  1.00  0.00     0.041 C 
ATOM     23  O   UNL     1      42.698   0.331 131.844  1.00  0.00    -0.550 OA
ATOM     24  O   UNL     1      44.884  -0.196 132.283  1.00  0.00    -0.550 OA
ENDBRANCH  21  22
ENDBRANCH  20  21
ENDBRANCH  19  20
ENDBRANCH  18  19
ENDBRANCH  17  18
ENDBRANCH  16  17
ENDBRANCH  15  16
ENDBRANCH  14  15
ENDBRANCH  13  14
ENDBRANCH   1  13
TORSDOF 20
ENDMDL
MODEL 3
REMARK VINA RESULT:    -5.504      3.694      5.238
REMARK INTER + INTRA:         -13.393
REMARK INTER:                 -10.828
REMARK INTRA:                  -2.565
REMARK UNBOUND:                -1.454
REMARK SMILES CCCCCCCCCCCCCCCCCCCCCC(=O)[O-]
REMARK SMILES IDX 12 1 11 2 10 3 9 4 8 5 7 6 6 7 5 8 4 9 3 10 2 11 1 12 13 13
REMARK SMILES IDX 14 14 15 15 16 16 17 17 18 18 19 19 20 20 21 21 22 22 23 23
REMARK SMILES IDX 24 24
REMARK H PARENT
REMARK Flexibility Score: inf
ROOT
ATOM      1  C   UNL     1      47.144   4.861 130.587  1.00  0.00     0.000 C 
ENDROOT
BRANCH   1   2
ATOM      2  C   UNL     1      48.073   5.617 129.624  1.00  0.00     0.000 C 
BRANCH   2   3
ATOM      3  C   UNL     1      47.400   6.850 129.000  1.00  0.00     0.000 C 
BRANCH   3   4
ATOM      4  C   UNL     1      47.329   6.771 127.465  1.00  0.00    -0.000 C 
BRANCH   4   5
ATOM      5  C   UNL     1      45.932   6.378 126.960  1.00  0.00    -0.000 C 
BRANCH   5   6
ATOM      6  C   UNL     1      45.681   4.861 127.030  1.00  0.00    -0.000 C 
BRANCH   6   7
ATOM      7  C   UNL     1      44.205   4.499 126.806  1.00  0.00    -0.000 C 
BRANCH   7   8
ATOM      8  C   UNL     1      43.326   5.739 126.564  1.00  0.00    -0.000 C 
BRANCH   8   9
ATOM      9  C   UNL     1      42.338   6.001 127.712  1.00  0.00    -0.000 C 
BRANCH   9  10
ATOM     10  C   UNL     1      42.636   7.263 128.544  1.00  0.00    -0.000 C 
BRANCH  10  11
ATOM     11  C   UNL     1      43.750   7.066 129.594  1.00  0.00    -0.003 C 
ATOM     12  C   UNL     1      43.711   5.679 130.234  1.00  0.00     0.004 C 
ENDBRANCH  10  11
ENDBRANCH   9  10
ENDBRANCH   8   9
ENDBRANCH   7   8
ENDBRANCH   6   7
ENDBRANCH   5   6
ENDBRANCH   4   5
ENDBRANCH   3   4
ENDBRANCH   2   3
ENDBRANCH   1   2
BRANCH   1  13
ATOM     13  C   UNL     1      47.941   3.874 131.454  1.00  0.00     0.000 C 
BRANCH  13  14
ATOM     14  C   UNL     1      47.042   3.036 132.377  1.00  0.00     0.000 C 
BRANCH  14  15
ATOM     15  C   UNL     1      45.750   3.767 132.771  1.00  0.00     0.000 C 
BRANCH  15  16
ATOM     16  C   UNL     1      45.673   3.963 134.290  1.00  0.00     0.000 C 
BRANCH  16  17
ATOM     17  C   UNL     1      46.594   2.974 135.020  1.00  0.00     0.000 C 
BRANCH  17  18
ATOM     18  C   UNL     1      45.815   1.972 135.887  1.00  0.00     0.000 C 
BRANCH  18  19
ATOM     19  C   UNL     1      44.313   1.945 135.554  1.00  0.00     0.000 C 
BRANCH  19  20
ATOM     20  C   UNL     1      43.956   0.873 134.507  1.00  0.00     0.006 C 
BRANCH  20  21
ATOM     21  C   UNL     1      43.058   1.379 133.368  1.00  0.00     0.053 C 
BRANCH  21  22
ATOM     22  C   UNL     1      42.456   0.252 132.584  1.00  0.00     0.041 C 
ATOM     23  O   UNL     1      41.627  -0.524 133.126  1.00  0.00    -0.550 OA
ATOM     24  O   UNL     1      42.784   0.084 131.245  1.00  0.00    -0.550 OA
ENDBRANCH  21  22
ENDBRANCH  20  21
ENDBRANCH  19  20
ENDBRANCH  18  19
ENDBRANCH  17  18
ENDBRANCH  16  17
ENDBRANCH  15  16
ENDBRANCH  14  15
ENDBRANCH  13  14
ENDBRANCH   1  13
TORSDOF 20
ENDMDL
MODEL 4
REMARK VINA RESULT:    -5.413      4.419     10.789
REMARK INTER + INTRA:         -13.196
REMARK INTER:                 -11.424
REMARK INTRA:                  -1.771
REMARK UNBOUND:                -1.454
REMARK SMILES CCCCCCCCCCCCCCCCCCCCCC(=O)[O-]
REMARK SMILES IDX 12 1 11 2 10 3 9 4 8 5 7 6 6 7 5 8 4 9 3 10 2 11 1 12 13 13
REMARK SMILES IDX 14 14 15 15 16 16 17 17 18 18 19 19 20 20 21 21 22 22 23 23
REMARK SMILES IDX 24 24
REMARK H PARENT
REMARK Flexibility Score: inf
ROOT
ATOM      1  C   UNL     1      44.093   6.533 129.192  1.00  0.00     0.000 C 
ENDROOT
BRANCH   1   2
ATOM      2  C   UNL     1      44.029   5.567 130.385  1.00  0.00     0.000 C 
BRANCH   2   3
ATOM      3  C   UNL     1      45.117   4.482 130.327  1.00  0.00     0.000 C 
BRANCH   3   4
ATOM      4  C   UNL     1      46.532   5.054 130.522  1.00  0.00    -0.000 C 
BRANCH   4   5
ATOM      5  C   UNL     1      47.231   4.484 131.766  1.00  0.00    -0.000 C 
BRANCH   5   6
ATOM      6  C   UNL     1      46.541   3.218 132.307  1.00  0.00    -0.000 C 
BRANCH   6   7
ATOM      7  C   UNL     1      45.831   3.463 133.647  1.00  0.00    -0.000 C 
BRANCH   7   8
ATOM      8  C   UNL     1      44.798   2.371 133.974  1.00  0.00    -0.000 C 
BRANCH   8   9
ATOM      9  C   UNL     1      43.626   2.343 132.980  1.00  0.00    -0.000 C 
BRANCH   9  10
ATOM     10  C   UNL     1      43.636   1.151 132.003  1.00  0.00    -0.000 C 
BRANCH  10  11
ATOM     11  C   UNL     1      42.405   0.229 132.137  1.00  0.00    -0.003 C 
ATOM     12  C   UNL     1      42.267  -0.360 133.540  1.00  0.00     0.004 C 
ENDBRANCH  10  11
ENDBRANCH   9  10
ENDBRANCH   8   9
ENDBRANCH   7   8
ENDBRANCH   6   7
ENDBRANCH   5   6
ENDBRANCH   4   5
ENDBRANCH   3   4
ENDBRANCH   2   3
ENDBRANCH   1   2
BRANCH   1  13
ATOM     13  C   UNL     1      43.766   5.805 127.879  1.00  0.00     0.000 C 
BRANCH  13  14
ATOM     14  C   UNL     1      44.983   5.680 126.950  1.00  0.00     0.000 C 
BRANCH  14  15
ATOM     15  C   UNL     1      46.073   6.718 127.257  1.00  0.00     0.000 C 
BRANCH  15  16
ATOM     16  C   UNL     1      46.252   7.689 126.084  1.00  0.00     0.000 C 
BRANCH  16  17
ATOM     17  C   UNL     1      47.722   7.753 125.642  1.00  0.00     0.000 C 
BRANCH  17  18
ATOM     18  C   UNL     1      47.879   8.196 124.178  1.00  0.00     0.000 C 
BRANCH  18  19
ATOM     19  C   UNL     1      46.772   9.167 123.733  1.00  0.00     0.000 C 
BRANCH  19  20
ATOM     20  C   UNL     1      47.156  10.643 123.942  1.00  0.00     0.006 C 
BRANCH  20  21
ATOM     21  C   UNL     1      45.963  11.573 124.214  1.00  0.00     0.053 C 
BRANCH  21  22
ATOM     22  C   UNL     1      45.170  11.846 122.973  1.00  0.00     0.041 C 
ATOM     23  O   UNL     1      45.688  12.482 122.017  1.00  0.00    -0.550 OA
ATOM     24  O   UNL     1      43.872  11.365 122.857  1.00  0.00    -0.550 OA
ENDBRANCH  21  22
ENDBRANCH  20  21
ENDBRANCH  19  20
ENDBRANCH  18  19
ENDBRANCH  17  18
ENDBRANCH  16  17
ENDBRANCH  15  16
ENDBRANCH  14  15
ENDBRANCH  13  14
ENDBRANCH   1  13
TORSDOF 20
ENDMDL
MODEL 5
REMARK VINA RESULT:    -5.357      5.827     11.538
REMARK INTER + INTRA:         -13.074
REMARK INTER:                 -11.254
REMARK INTRA:                  -1.820
REMARK UNBOUND:                -1.454
REMARK SMILES CCCCCCCCCCCCCCCCCCCCCC(=O)[O-]
REMARK SMILES IDX 12 1 11 2 10 3 9 4 8 5 7 6 6 7 5 8 4 9 3 10 2 11 1 12 13 13
REMARK SMILES IDX 14 14 15 15 16 16 17 17 18 18 19 19 20 20 21 21 22 22 23 23
REMARK SMILES IDX 24 24
REMARK H PARENT
REMARK Flexibility Score: inf
ROOT
ATOM      1  C   UNL     1      46.077  10.226 124.161  1.00  0.00     0.000 C 
ENDROOT
BRANCH   1   2
ATOM      2  C   UNL     1      47.191   9.657 123.270  1.00  0.00     0.000 C 
BRANCH   2   3
ATOM      3  C   UNL     1      47.769   8.340 123.812  1.00  0.00     0.000 C 
BRANCH   3   4
ATOM      4  C   UNL     1      47.998   8.377 125.333  1.00  0.00    -0.000 C 
BRANCH   4   5
ATOM      5  C   UNL     1      47.163   7.326 126.080  1.00  0.00    -0.000 C 
BRANCH   5   6
ATOM      6  C   UNL     1      47.617   7.133 127.538  1.00  0.00    -0.000 C 
BRANCH   6   7
ATOM      7  C   UNL     1      46.434   6.970 128.505  1.00  0.00    -0.000 C 
BRANCH   7   8
ATOM      8  C   UNL     1      46.332   5.545 129.075  1.00  0.00    -0.000 C 
BRANCH   8   9
ATOM      9  C   UNL     1      45.021   4.842 128.688  1.00  0.00    -0.000 C 
BRANCH   9  10
ATOM     10  C   UNL     1      44.712   4.839 127.178  1.00  0.00    -0.000 C 
BRANCH  10  11
ATOM     11  C   UNL     1      43.311   5.387 126.830  1.00  0.00    -0.003 C 
ATOM     12  C   UNL     1      42.744   6.283 127.930  1.00  0.00     0.004 C 
ENDBRANCH  10  11
ENDBRANCH   9  10
ENDBRANCH   8   9
ENDBRANCH   7   8
ENDBRANCH   6   7
ENDBRANCH   5   6
ENDBRANCH   4   5
ENDBRANCH   3   4
ENDBRANCH   2   3
ENDBRANCH   1   2
BRANCH   1  13
ATOM     13  C   UNL     1      45.708  11.655 123.733  1.00  0.00     0.000 C 
BRANCH  13  14
ATOM     14  C   UNL     1      44.389  11.717 122.947  1.00  0.00     0.000 C 
BRANCH  14  15
ATOM     15  C   UNL     1      44.585  12.179 121.495  1.00  0.00     0.000 C 
BRANCH  15  16
ATOM     16  C   UNL     1      46.057  12.507 121.217  1.00  0.00     0.000 C 
BRANCH  16  17
ATOM     17  C   UNL     1      46.597  11.667 120.050  1.00  0.00     0.000 C 
BRANCH  17  18
ATOM     18  C   UNL     1      45.604  10.587 119.592  1.00  0.00     0.000 C 
BRANCH  18  19
ATOM     19  C   UNL     1      45.959  10.005 118.213  1.00  0.00     0.000 C 
BRANCH  19  20
ATOM     20  C   UNL     1      44.806   9.190 117.597  1.00  0.00     0.006 C 
BRANCH  20  21
ATOM     21  C   UNL     1      44.105   9.882 116.417  1.00  0.00     0.053 C 
BRANCH  21  22
ATOM     22  C   UNL     1      42.973  10.753 116.870  1.00  0.00     0.041 C 
ATOM     23  O   UNL     1      41.805  10.289 116.940  1.00  0.00    -0.550 OA
ATOM     24  O   UNL     1      43.216  12.067 117.250  1.00  0.00    -0.550 OA
ENDBRANCH  21  22
ENDBRANCH  20  21
ENDBRANCH  19  20
ENDBRANCH  18  19
ENDBRANCH  17  18
ENDBRANCH  16  17
ENDBRANCH  15  16
ENDBRANCH  14  15
ENDBRANCH  13  14
ENDBRANCH   1  13
TORSDOF 20
ENDMDL
MODEL 6
REMARK VINA RESULT:    -5.308      4.992     10.552
REMARK INTER + INTRA:         -12.969
REMARK INTER:                 -10.507
REMARK INTRA:                  -2.462
REMARK UNBOUND:                -1.454
REMARK SMILES CCCCCCCCCCCCCCCCCCCCCC(=O)[O-]
REMARK SMILES IDX 12 1 11 2 10 3 9 4 8 5 7 6 6 7 5 8 4 9 3 10 2 11 1 12 13 13
REMARK SMILES IDX 14 14 15 15 16 16 17 17 18 18 19 19 20 20 21 21 22 22 23 23
REMARK SMILES IDX 24 24
REMARK H PARENT
REMARK Flexibility Score: inf
ROOT
ATOM      1  C   UNL     1      44.883   6.416 125.661  1.00  0.00     0.000 C 
ENDROOT
BRANCH   1   2
ATOM      2  C   UNL     1      44.769   4.981 126.198  1.00  0.00     0.000 C 
BRANCH   2   3
ATOM      3  C   UNL     1      43.588   4.804 127.166  1.00  0.00     0.000 C 
BRANCH   3   4
ATOM      4  C   UNL     1      42.646   6.021 127.178  1.00  0.00    -0.000 C 
BRANCH   4   5
ATOM      5  C   UNL     1      42.590   6.708 128.551  1.00  0.00    -0.000 C 
BRANCH   5   6
ATOM      6  C   UNL     1      43.849   6.448 129.398  1.00  0.00    -0.000 C 
BRANCH   6   7
ATOM      7  C   UNL     1      44.889   7.570 129.263  1.00  0.00    -0.000 C 
BRANCH   7   8
ATOM      8  C   UNL     1      46.334   7.043 129.317  1.00  0.00    -0.000 C 
BRANCH   8   9
ATOM      9  C   UNL     1      46.405   5.520 129.514  1.00  0.00    -0.000 C 
BRANCH   9  10
ATOM     10  C   UNL     1      47.802   4.980 129.872  1.00  0.00    -0.000 C 
BRANCH  10  11
ATOM     11  C   UNL     1      47.848   4.217 131.213  1.00  0.00    -0.003 C 
ATOM     12  C   UNL     1      46.490   4.184 131.913  1.00  0.00     0.004 C 
ENDBRANCH  10  11
ENDBRANCH   9  10
ENDBRANCH   8   9
ENDBRANCH   7   8
ENDBRANCH   6   7
ENDBRANCH   5   6
ENDBRANCH   4   5
ENDBRANCH   3   4
ENDBRANCH   2   3
ENDBRANCH   1   2
BRANCH   1  13
ATOM     13  C   UNL     1      46.262   7.013 125.981  1.00  0.00     0.000 C 
BRANCH  13  14
ATOM     14  C   UNL     1      46.548   8.302 125.193  1.00  0.00     0.000 C 
BRANCH  14  15
ATOM     15  C   UNL     1      45.991   8.258 123.762  1.00  0.00     0.000 C 
BRANCH  15  16
ATOM     16  C   UNL     1      46.197   9.602 123.053  1.00  0.00     0.000 C 
BRANCH  16  17
ATOM     17  C   UNL     1      46.300  10.751 124.068  1.00  0.00     0.000 C 
BRANCH  17  18
ATOM     18  C   UNL     1      45.033  11.619 124.106  1.00  0.00     0.000 C 
BRANCH  18  19
ATOM     19  C   UNL     1      44.257  11.591 122.777  1.00  0.00     0.000 C 
BRANCH  19  20
ATOM     20  C   UNL     1      44.660  12.737 121.830  1.00  0.00     0.006 C 
BRANCH  20  21
ATOM     21  C   UNL     1      44.713  12.339 120.347  1.00  0.00     0.053 C 
BRANCH  21  22
ATOM     22  C   UNL     1      46.047  11.773 119.965  1.00  0.00     0.041 C 
ATOM     23  O   UNL     1      47.083  12.484 120.043  1.00  0.00    -0.550 OA
ATOM     24  O   UNL     1      46.150  10.449 119.559  1.00  0.00    -0.550 OA
ENDBRANCH  21  22
ENDBRANCH  20  21
ENDBRANCH  19  20
ENDBRANCH  18  19
ENDBRANCH  17  18
ENDBRANCH  16  17
ENDBRANCH  15  16
ENDBRANCH  14  15
ENDBRANCH  13  14
ENDBRANCH   1  13
TORSDOF 20
ENDMDL
MODEL 7
REMARK VINA RESULT:    -5.282      3.618      6.921
REMARK INTER + INTRA:         -12.912
REMARK INTER:                 -10.771
REMARK INTRA:                  -2.141
REMARK UNBOUND:                -1.454
REMARK SMILES CCCCCCCCCCCCCCCCCCCCCC(=O)[O-]
REMARK SMILES IDX 12 1 11 2 10 3 9 4 8 5 7 6 6 7 5 8 4 9 3 10 2 11 1 12 13 13
REMARK SMILES IDX 14 14 15 15 16 16 17 17 18 18 19 19 20 20 21 21 22 22 23 23
REMARK SMILES IDX 24 24
REMARK H PARENT
REMARK Flexibility Score: inf
ROOT
ATOM      1  C   UNL     1      44.712  11.235 123.018  1.00  0.00     0.000 C 
ENDROOT
BRANCH   1   2
ATOM      2  C   UNL     1      44.380  12.484 122.187  1.00  0.00     0.000 C 
BRANCH   2   3
ATOM      3  C   UNL     1      44.500  12.237 120.674  1.00  0.00     0.000 C 
BRANCH   3   4
ATOM      4  C   UNL     1      45.961  12.232 120.191  1.00  0.00    -0.000 C 
BRANCH   4   5
ATOM      5  C   UNL     1      46.465  10.820 119.855  1.00  0.00    -0.000 C 
BRANCH   5   6
ATOM      6  C   UNL     1      47.382  10.795 118.618  1.00  0.00    -0.000 C 
BRANCH   6   7
ATOM      7  C   UNL     1      46.659  10.286 117.362  1.00  0.00    -0.000 C 
BRANCH   7   8
ATOM      8  C   UNL     1      45.347   9.555 117.694  1.00  0.00    -0.000 C 
BRANCH   8   9
ATOM      9  C   UNL     1      44.495   9.266 116.447  1.00  0.00    -0.000 C 
BRANCH   9  10
ATOM     10  C   UNL     1      43.355  10.273 116.197  1.00  0.00    -0.000 C 
BRANCH  10  11
ATOM     11  C   UNL     1      43.048  11.177 117.410  1.00  0.00    -0.003 C 
ATOM     12  C   UNL     1      43.382  12.645 117.144  1.00  0.00     0.004 C 
ENDBRANCH  10  11
ENDBRANCH   9  10
ENDBRANCH   8   9
ENDBRANCH   7   8
ENDBRANCH   6   7
ENDBRANCH   5   6
ENDBRANCH   4   5
ENDBRANCH   3   4
ENDBRANCH   2   3
ENDBRANCH   1   2
BRANCH   1  13
ATOM     13  C   UNL     1      45.732  11.565 124.119  1.00  0.00     0.000 C 
BRANCH  13  14
ATOM     14  C   UNL     1      46.989  10.684 124.046  1.00  0.00     0.000 C 
BRANCH  14  15
ATOM     15  C   UNL     1      46.752   9.373 123.281  1.00  0.00     0.000 C 
BRANCH  15  16
ATOM     16  C   UNL     1      47.680   8.264 123.792  1.00  0.00     0.000 C 
BRANCH  16  17
ATOM     17  C   UNL     1      47.840   8.340 125.318  1.00  0.00     0.000 C 
BRANCH  17  18
ATOM     18  C   UNL     1      46.761   7.540 126.065  1.00  0.00     0.000 C 
BRANCH  18  19
ATOM     19  C   UNL     1      47.250   7.017 127.427  1.00  0.00     0.000 C 
BRANCH  19  20
ATOM     20  C   UNL     1      46.095   6.563 128.339  1.00  0.00     0.006 C 
BRANCH  20  21
ATOM     21  C   UNL     1      44.795   7.361 128.154  1.00  0.00     0.053 C 
BRANCH  21  22
ATOM     22  C   UNL     1      43.602   6.619 128.676  1.00  0.00     0.041 C 
ATOM     23  O   UNL     1      43.611   6.146 129.843  1.00  0.00    -0.550 OA
ATOM     24  O   UNL     1      42.467   6.484 127.887  1.00  0.00    -0.550 OA
ENDBRANCH  21  22
ENDBRANCH  20  21
ENDBRANCH  19  20
ENDBRANCH  18  19
ENDBRANCH  17  18
ENDBRANCH  16  17
ENDBRANCH  15  16
ENDBRANCH  14  15
ENDBRANCH  13  14
ENDBRANCH   1  13
TORSDOF 20
ENDMDL
MODEL 8
REMARK VINA RESULT:    -5.271      4.573     11.714
REMARK INTER + INTRA:         -12.889
REMARK INTER:                 -11.464
REMARK INTRA:                  -1.425
REMARK UNBOUND:                -1.454
REMARK SMILES CCCCCCCCCCCCCCCCCCCCCC(=O)[O-]
REMARK SMILES IDX 12 1 11 2 10 3 9 4 8 5 7 6 6 7 5 8 4 9 3 10 2 11 1 12 13 13
REMARK SMILES IDX 14 14 15 15 16 16 17 17 18 18 19 19 20 20 21 21 22 22 23 23
REMARK SMILES IDX 24 24
REMARK H PARENT
REMARK Flexibility Score: inf
ROOT
ATOM      1  C   UNL     1      44.422   1.741 133.365  1.00  0.00     0.000 C 
ENDROOT
BRANCH   1   2
ATOM      2  C   UNL     1      44.285   0.409 132.614  1.00  0.00     0.000 C 
BRANCH   2   3
ATOM      3  C   UNL     1      43.005   0.336 131.766  1.00  0.00     0.000 C 
BRANCH   3   4
ATOM      4  C   UNL     1      41.769  -0.054 132.596  1.00  0.00    -0.000 C 
BRANCH   4   5
ATOM      5  C   UNL     1      42.123  -0.952 133.792  1.00  0.00    -0.000 C 
BRANCH   5   6
ATOM      6  C   UNL     1      40.950  -1.845 134.232  1.00  0.00    -0.000 C 
BRANCH   6   7
ATOM      7  C   UNL     1      39.642  -1.057 134.402  1.00  0.00    -0.000 C 
BRANCH   7   8
ATOM      8  C   UNL     1      38.395  -1.948 134.263  1.00  0.00    -0.000 C 
BRANCH   8   9
ATOM      9  C   UNL     1      37.083  -1.160 134.406  1.00  0.00    -0.000 C 
BRANCH   9  10
ATOM     10  C   UNL     1      36.135  -1.261 133.195  1.00  0.00    -0.000 C 
BRANCH  10  11
ATOM     11  C   UNL     1      34.732  -0.671 133.453  1.00  0.00    -0.003 C 
ATOM     12  C   UNL     1      34.668   0.136 134.750  1.00  0.00     0.004 C 
ENDBRANCH  10  11
ENDBRANCH   9  10
ENDBRANCH   8   9
ENDBRANCH   7   8
ENDBRANCH   6   7
ENDBRANCH   5   6
ENDBRANCH   4   5
ENDBRANCH   3   4
ENDBRANCH   2   3
ENDBRANCH   1   2
BRANCH   1  13
ATOM     13  C   UNL     1      44.171   2.930 132.425  1.00  0.00     0.000 C 
BRANCH  13  14
ATOM     14  C   UNL     1      45.189   4.065 132.619  1.00  0.00     0.000 C 
BRANCH  14  15
ATOM     15  C   UNL     1      46.614   3.550 132.868  1.00  0.00     0.000 C 
BRANCH  15  16
ATOM     16  C   UNL     1      47.472   3.679 131.604  1.00  0.00     0.000 C 
BRANCH  16  17
ATOM     17  C   UNL     1      47.098   4.941 130.811  1.00  0.00     0.000 C 
BRANCH  17  18
ATOM     18  C   UNL     1      47.464   4.832 129.322  1.00  0.00     0.000 C 
BRANCH  18  19
ATOM     19  C   UNL     1      47.253   6.154 128.564  1.00  0.00     0.000 C 
BRANCH  19  20
ATOM     20  C   UNL     1      46.263   7.096 129.274  1.00  0.00     0.006 C 
BRANCH  20  21
ATOM     21  C   UNL     1      45.041   7.482 128.426  1.00  0.00     0.053 C 
BRANCH  21  22
ATOM     22  C   UNL     1      43.877   6.570 128.670  1.00  0.00     0.041 C 
ATOM     23  O   UNL     1      43.103   6.263 127.725  1.00  0.00    -0.550 OA
ATOM     24  O   UNL     1      43.670   6.030 129.933  1.00  0.00    -0.550 OA
ENDBRANCH  21  22
ENDBRANCH  20  21
ENDBRANCH  19  20
ENDBRANCH  18  19
ENDBRANCH  17  18
ENDBRANCH  16  17
ENDBRANCH  15  16
ENDBRANCH  14  15
ENDBRANCH  13  14
ENDBRANCH   1  13
TORSDOF 20
ENDMDL
MODEL 9
REMARK VINA RESULT:    -4.920      4.722     11.310
REMARK INTER + INTRA:         -12.127
REMARK INTER:                 -10.698
REMARK INTRA:                  -1.429
REMARK UNBOUND:                -1.454
REMARK SMILES CCCCCCCCCCCCCCCCCCCCCC(=O)[O-]
REMARK SMILES IDX 12 1 11 2 10 3 9 4 8 5 7 6 6 7 5 8 4 9 3 10 2 11 1 12 13 13
REMARK SMILES IDX 14 14 15 15 16 16 17 17 18 18 19 19 20 20 21 21 22 22 23 23
REMARK SMILES IDX 24 24
REMARK H PARENT
REMARK Flexibility Score: inf
ROOT
ATOM      1  C   UNL     1      46.342   7.096 127.050  1.00  0.00     0.000 C 
ENDROOT
BRANCH   1   2
ATOM      2  C   UNL     1      46.072   7.150 128.562  1.00  0.00     0.000 C 
BRANCH   2   3
ATOM      3  C   UNL     1      44.869   6.288 128.978  1.00  0.00     0.000 C 
BRANCH   3   4
ATOM      4  C   UNL     1      45.284   5.042 129.779  1.00  0.00    -0.000 C 
BRANCH   4   5
ATOM      5  C   UNL     1      46.797   4.988 130.042  1.00  0.00    -0.000 C 
BRANCH   5   6
ATOM      6  C   UNL     1      47.137   4.519 131.468  1.00  0.00    -0.000 C 
BRANCH   6   7
ATOM      7  C   UNL     1      45.888   4.111 132.265  1.00  0.00    -0.000 C 
BRANCH   7   8
ATOM      8  C   UNL     1      46.212   3.131 133.405  1.00  0.00    -0.000 C 
BRANCH   8   9
ATOM      9  C   UNL     1      45.126   2.059 133.594  1.00  0.00    -0.000 C 
BRANCH   9  10
ATOM     10  C   UNL     1      44.144   1.920 132.415  1.00  0.00    -0.000 C 
BRANCH  10  11
ATOM     11  C   UNL     1      43.715   0.465 132.132  1.00  0.00    -0.003 C 
ATOM     12  C   UNL     1      42.198   0.315 132.018  1.00  0.00     0.004 C 
ENDBRANCH  10  11
ENDBRANCH   9  10
ENDBRANCH   8   9
ENDBRANCH   7   8
ENDBRANCH   6   7
ENDBRANCH   5   6
ENDBRANCH   4   5
ENDBRANCH   3   4
ENDBRANCH   2   3
ENDBRANCH   1   2
BRANCH   1  13
ATOM     13  C   UNL     1      47.842   7.251 126.756  1.00  0.00     0.000 C 
BRANCH  13  14
ATOM     14  C   UNL     1      48.125   8.261 125.632  1.00  0.00     0.000 C 
BRANCH  14  15
ATOM     15  C   UNL     1      47.296   7.990 124.368  1.00  0.00     0.000 C 
BRANCH  15  16
ATOM     16  C   UNL     1      46.481   9.227 123.971  1.00  0.00     0.000 C 
BRANCH  16  17
ATOM     17  C   UNL     1      47.352  10.492 123.999  1.00  0.00     0.000 C 
BRANCH  17  18
ATOM     18  C   UNL     1      46.522  11.776 124.159  1.00  0.00     0.000 C 
BRANCH  18  19
ATOM     19  C   UNL     1      45.040  11.570 123.802  1.00  0.00     0.000 C 
BRANCH  19  20
ATOM     20  C   UNL     1      44.689  12.093 122.397  1.00  0.00     0.006 C 
BRANCH  20  21
ATOM     21  C   UNL     1      45.902  12.555 121.574  1.00  0.00     0.053 C 
BRANCH  21  22
ATOM     22  C   UNL     1      46.354  11.505 120.605  1.00  0.00     0.041 C 
ATOM     23  O   UNL     1      47.580  11.357 120.359  1.00  0.00    -0.550 OA
ATOM     24  O   UNL     1      45.424  10.668 120.002  1.00  0.00    -0.550 OA
ENDBRANCH  21  22
ENDBRANCH  20  21
ENDBRANCH  19  20
ENDBRANCH  18  19
ENDBRANCH  17  18
ENDBRANCH  16  17
ENDBRANCH  15  16
ENDBRANCH  14  15
ENDBRANCH  13  14
ENDBRANCH   1  13
TORSDOF 20
ENDMDL
