MODEL 1
REMARK VINA RESULT:    -5.200      0.000      0.000
REMARK INTER + INTRA:          -5.713
REMARK INTER:                  -5.656
REMARK INTRA:                  -0.057
REMARK UNBOUND:                -0.057
REMARK SMILES COc1cc2ccc(=O)oc2cc1O
REMARK SMILES IDX 3 1 13 2 12 3 11 4 5 5 4 6 6 7 7 8 8 9 9 10 10 11 2 12 1 13
REMARK SMILES IDX 14 14
REMARK H PARENT 14 15
REMARK Flexibility Score: inf
ROOT
ATOM      1  C   UNL     1     -20.638 -14.845  21.020  1.00  0.00     0.161 A 
ATOM      2  C   UNL     1     -20.544 -14.953  22.418  1.00  0.00     0.161 A 
ATOM      3  C   UNL     1     -19.932 -13.936  23.166  1.00  0.00     0.098 A 
ATOM      4  C   UNL     1     -19.412 -12.807  22.527  1.00  0.00     0.142 A 
ATOM      5  C   UNL     1     -19.503 -12.692  21.124  1.00  0.00     0.022 A 
ATOM      6  C   UNL     1     -20.114 -13.707  20.375  1.00  0.00     0.062 A 
ATOM      7  C   UNL     1     -18.972 -11.550  20.514  1.00  0.00     0.019 A 
ATOM      8  C   UNL     1     -18.375 -10.567  21.302  1.00  0.00     0.094 A 
ATOM      9  C   UNL     1     -18.321 -10.750  22.688  1.00  0.00     0.336 A 
ATOM     10  O   UNL     1     -17.786  -9.875  23.417  1.00  0.00    -0.246 OA
ATOM     11  O   UNL     1     -18.833 -11.846  23.242  1.00  0.00    -0.423 OA
ENDROOT
BRANCH   1  12
ATOM     12  O   UNL     1     -21.259 -15.887  20.312  1.00  0.00    -0.493 OA
ATOM     13  C   UNL     1     -22.629 -15.893  19.923  1.00  0.00     0.278 C 
ENDBRANCH   1  12
BRANCH   2  14
ATOM     14  O   UNL     1     -21.062 -16.077  23.057  1.00  0.00    -0.504 OA
ATOM     15  H   UNL     1     -20.597 -16.976  23.010  1.00  0.00     0.293 HD
ENDBRANCH   2  14
TORSDOF 2
ENDMDL
MODEL 2
REMARK VINA RESULT:    -5.075      5.290      6.488
REMARK INTER + INTRA:          -5.576
REMARK INTER:                  -5.514
REMARK INTRA:                  -0.062
REMARK UNBOUND:                -0.057
REMARK SMILES COc1cc2ccc(=O)oc2cc1O
REMARK SMILES IDX 3 1 13 2 12 3 11 4 5 5 4 6 6 7 7 8 8 9 9 10 10 11 2 12 1 13
REMARK SMILES IDX 14 14
REMARK H PARENT 14 15
REMARK Flexibility Score: inf
ROOT
ATOM      1  C   UNL     1     -16.432 -20.018  23.644  1.00  0.00     0.161 A 
ATOM      2  C   UNL     1     -17.237 -19.578  24.707  1.00  0.00     0.161 A 
ATOM      3  C   UNL     1     -18.036 -18.434  24.563  1.00  0.00     0.098 A 
ATOM      4  C   UNL     1     -18.038 -17.723  23.360  1.00  0.00     0.142 A 
ATOM      5  C   UNL     1     -17.232 -18.158  22.288  1.00  0.00     0.022 A 
ATOM      6  C   UNL     1     -16.433 -19.302  22.430  1.00  0.00     0.062 A 
ATOM      7  C   UNL     1     -17.255 -17.425  21.097  1.00  0.00     0.019 A 
ATOM      8  C   UNL     1     -18.066 -16.295  21.003  1.00  0.00     0.094 A 
ATOM      9  C   UNL     1     -18.839 -15.923  22.109  1.00  0.00     0.336 A 
ATOM     10  O   UNL     1     -19.578 -14.906  22.046  1.00  0.00    -0.246 OA
ATOM     11  O   UNL     1     -18.798 -16.638  23.230  1.00  0.00    -0.423 OA
ENDROOT
BRANCH   1  12
ATOM     12  O   UNL     1     -15.648 -21.168  23.832  1.00  0.00    -0.493 OA
ATOM     13  C   UNL     1     -15.811 -22.382  23.106  1.00  0.00     0.278 C 
ENDBRANCH   1  12
BRANCH   2  14
ATOM     14  O   UNL     1     -17.237 -20.285  25.907  1.00  0.00    -0.504 OA
ATOM     15  H   UNL     1     -18.100 -20.573  26.354  1.00  0.00     0.293 HD
ENDBRANCH   2  14
TORSDOF 2
ENDMDL
MODEL 3
REMARK VINA RESULT:    -5.035      3.997      6.148
REMARK INTER + INTRA:          -5.533
REMARK INTER:                  -5.487
REMARK INTRA:                  -0.046
REMARK UNBOUND:                -0.057
REMARK SMILES COc1cc2ccc(=O)oc2cc1O
REMARK SMILES IDX 3 1 13 2 12 3 11 4 5 5 4 6 6 7 7 8 8 9 9 10 10 11 2 12 1 13
REMARK SMILES IDX 14 14
REMARK H PARENT 14 15
REMARK Flexibility Score: inf
ROOT
ATOM      1  C   UNL     1     -18.536 -15.790  21.329  1.00  0.00     0.161 A 
ATOM      2  C   UNL     1     -17.475 -16.608  20.907  1.00  0.00     0.161 A 
ATOM      3  C   UNL     1     -17.029 -17.663  21.717  1.00  0.00     0.098 A 
ATOM      4  C   UNL     1     -17.637 -17.909  22.951  1.00  0.00     0.142 A 
ATOM      5  C   UNL     1     -18.702 -17.092  23.382  1.00  0.00     0.022 A 
ATOM      6  C   UNL     1     -19.150 -16.038  22.573  1.00  0.00     0.062 A 
ATOM      7  C   UNL     1     -19.290 -17.363  24.622  1.00  0.00     0.019 A 
ATOM      8  C   UNL     1     -18.810 -18.423  25.390  1.00  0.00     0.094 A 
ATOM      9  C   UNL     1     -17.749 -19.191  24.898  1.00  0.00     0.336 A 
ATOM     10  O   UNL     1     -17.301 -20.152  25.575  1.00  0.00    -0.246 OA
ATOM     11  O   UNL     1     -17.208 -18.910  23.715  1.00  0.00    -0.423 OA
ENDROOT
BRANCH   1  12
ATOM     12  O   UNL     1     -18.950 -14.746  20.486  1.00  0.00    -0.493 OA
ATOM     13  C   UNL     1     -19.741 -13.638  20.903  1.00  0.00     0.278 C 
ENDBRANCH   1  12
BRANCH   2  14
ATOM     14  O   UNL     1     -16.868 -16.365  19.677  1.00  0.00    -0.504 OA
ATOM     15  H   UNL     1     -17.293 -15.758  18.985  1.00  0.00     0.293 HD
ENDBRANCH   2  14
TORSDOF 2
ENDMDL
MODEL 4
REMARK VINA RESULT:    -4.997      5.088      6.552
REMARK INTER + INTRA:          -5.492
REMARK INTER:                  -5.426
REMARK INTRA:                  -0.065
REMARK UNBOUND:                -0.057
REMARK SMILES COc1cc2ccc(=O)oc2cc1O
REMARK SMILES IDX 3 1 13 2 12 3 11 4 5 5 4 6 6 7 7 8 8 9 9 10 10 11 2 12 1 13
REMARK SMILES IDX 14 14
REMARK H PARENT 14 15
REMARK Flexibility Score: inf
ROOT
ATOM      1  C   UNL     1     -15.718 -18.975  21.866  1.00  0.00     0.161 A 
ATOM      2  C   UNL     1     -15.881 -18.117  20.765  1.00  0.00     0.161 A 
ATOM      3  C   UNL     1     -16.883 -17.136  20.775  1.00  0.00     0.098 A 
ATOM      4  C   UNL     1     -17.728 -17.003  21.880  1.00  0.00     0.142 A 
ATOM      5  C   UNL     1     -17.571 -17.861  22.989  1.00  0.00     0.022 A 
ATOM      6  C   UNL     1     -16.569 -18.842  22.981  1.00  0.00     0.062 A 
ATOM      7  C   UNL     1     -18.433 -17.704  24.080  1.00  0.00     0.019 A 
ATOM      8  C   UNL     1     -19.413 -16.713  24.041  1.00  0.00     0.094 A 
ATOM      9  C   UNL     1     -19.510 -15.899  22.907  1.00  0.00     0.336 A 
ATOM     10  O   UNL     1     -20.388 -15.000  22.852  1.00  0.00    -0.246 OA
ATOM     11  O   UNL     1     -18.677 -16.071  21.883  1.00  0.00    -0.423 OA
ENDROOT
BRANCH   1  12
ATOM     12  O   UNL     1     -14.701 -19.942  21.812  1.00  0.00    -0.493 OA
ATOM     13  C   UNL     1     -13.442 -19.824  22.466  1.00  0.00     0.278 C 
ENDBRANCH   1  12
BRANCH   2  14
ATOM     14  O   UNL     1     -15.040 -18.247  19.663  1.00  0.00    -0.504 OA
ATOM     15  H   UNL     1     -14.795 -19.156  19.285  1.00  0.00     0.293 HD
ENDBRANCH   2  14
TORSDOF 2
ENDMDL
MODEL 5
REMARK VINA RESULT:    -4.992      3.568      5.417
REMARK INTER + INTRA:          -5.487
REMARK INTER:                  -5.424
REMARK INTRA:                  -0.063
REMARK UNBOUND:                -0.057
REMARK SMILES COc1cc2ccc(=O)oc2cc1O
REMARK SMILES IDX 3 1 13 2 12 3 11 4 5 5 4 6 6 7 7 8 8 9 9 10 10 11 2 12 1 13
REMARK SMILES IDX 14 14
REMARK H PARENT 14 15
REMARK Flexibility Score: inf
ROOT
ATOM      1  C   UNL     1     -19.842 -14.888  22.611  1.00  0.00     0.161 A 
ATOM      2  C   UNL     1     -19.380 -14.277  21.434  1.00  0.00     0.161 A 
ATOM      3  C   UNL     1     -18.342 -14.862  20.693  1.00  0.00     0.098 A 
ATOM      4  C   UNL     1     -17.759 -16.057  21.120  1.00  0.00     0.142 A 
ATOM      5  C   UNL     1     -18.217 -16.677  22.302  1.00  0.00     0.022 A 
ATOM      6  C   UNL     1     -19.254 -16.094  23.043  1.00  0.00     0.062 A 
ATOM      7  C   UNL     1     -17.612 -17.873  22.704  1.00  0.00     0.019 A 
ATOM      8  C   UNL     1     -16.584 -18.414  21.933  1.00  0.00     0.094 A 
ATOM      9  C   UNL     1     -16.182 -17.743  20.773  1.00  0.00     0.336 A 
ATOM     10  O   UNL     1     -15.256 -18.214  20.063  1.00  0.00    -0.246 OA
ATOM     11  O   UNL     1     -16.774 -16.606  20.414  1.00  0.00    -0.423 OA
ENDROOT
BRANCH   1  12
ATOM     12  O   UNL     1     -20.883 -14.268  23.320  1.00  0.00    -0.493 OA
ATOM     13  C   UNL     1     -20.744 -13.689  24.614  1.00  0.00     0.278 C 
ENDBRANCH   1  12
BRANCH   2  14
ATOM     14  O   UNL     1     -19.960 -13.085  21.006  1.00  0.00    -0.504 OA
ATOM     15  H   UNL     1     -20.955 -12.914  21.101  1.00  0.00     0.293 HD
ENDBRANCH   2  14
TORSDOF 2
ENDMDL
MODEL 6
REMARK VINA RESULT:    -4.972      4.205      5.540
REMARK INTER + INTRA:          -5.465
REMARK INTER:                  -5.400
REMARK INTRA:                  -0.065
REMARK UNBOUND:                -0.057
REMARK SMILES COc1cc2ccc(=O)oc2cc1O
REMARK SMILES IDX 3 1 13 2 12 3 11 4 5 5 4 6 6 7 7 8 8 9 9 10 10 11 2 12 1 13
REMARK SMILES IDX 14 14
REMARK H PARENT 14 15
REMARK Flexibility Score: inf
ROOT
ATOM      1  C   UNL     1     -19.576 -16.542  24.076  1.00  0.00     0.161 A 
ATOM      2  C   UNL     1     -18.893 -17.658  24.588  1.00  0.00     0.161 A 
ATOM      3  C   UNL     1     -17.848 -18.244  23.858  1.00  0.00     0.098 A 
ATOM      4  C   UNL     1     -17.478 -17.723  22.616  1.00  0.00     0.142 A 
ATOM      5  C   UNL     1     -18.159 -16.603  22.095  1.00  0.00     0.022 A 
ATOM      6  C   UNL     1     -19.202 -16.015  22.823  1.00  0.00     0.062 A 
ATOM      7  C   UNL     1     -17.765 -16.105  20.848  1.00  0.00     0.019 A 
ATOM      8  C   UNL     1     -16.720 -16.723  20.162  1.00  0.00     0.094 A 
ATOM      9  C   UNL     1     -16.091 -17.831  20.741  1.00  0.00     0.336 A 
ATOM     10  O   UNL     1     -15.147 -18.403  20.139  1.00  0.00    -0.246 OA
ATOM     11  O   UNL     1     -16.487 -18.284  21.928  1.00  0.00    -0.423 OA
ENDROOT
BRANCH   1  12
ATOM     12  O   UNL     1     -20.614 -15.987  24.841  1.00  0.00    -0.493 OA
ATOM     13  C   UNL     1     -21.998 -16.092  24.518  1.00  0.00     0.278 C 
ENDBRANCH   1  12
BRANCH   2  14
ATOM     14  O   UNL     1     -19.260 -18.179  25.826  1.00  0.00    -0.504 OA
ATOM     15  H   UNL     1     -20.231 -18.342  26.067  1.00  0.00     0.293 HD
ENDBRANCH   2  14
TORSDOF 2
ENDMDL
MODEL 7
REMARK VINA RESULT:    -4.929      5.759      7.314
REMARK INTER + INTRA:          -5.418
REMARK INTER:                  -5.381
REMARK INTRA:                  -0.037
REMARK UNBOUND:                -0.057
REMARK SMILES COc1cc2ccc(=O)oc2cc1O
REMARK SMILES IDX 3 1 13 2 12 3 11 4 5 5 4 6 6 7 7 8 8 9 9 10 10 11 2 12 1 13
REMARK SMILES IDX 14 14
REMARK H PARENT 14 15
REMARK Flexibility Score: inf
ROOT
ATOM      1  C   UNL     1     -17.924 -18.439  24.877  1.00  0.00     0.161 A 
ATOM      2  C   UNL     1     -17.133 -19.599  24.862  1.00  0.00     0.161 A 
ATOM      3  C   UNL     1     -16.434 -19.965  23.702  1.00  0.00     0.098 A 
ATOM      4  C   UNL     1     -16.519 -19.177  22.551  1.00  0.00     0.142 A 
ATOM      5  C   UNL     1     -17.312 -18.011  22.558  1.00  0.00     0.022 A 
ATOM      6  C   UNL     1     -18.010 -17.644  23.717  1.00  0.00     0.062 A 
ATOM      7  C   UNL     1     -17.378 -17.244  21.390  1.00  0.00     0.019 A 
ATOM      8  C   UNL     1     -16.664 -17.650  20.263  1.00  0.00     0.094 A 
ATOM      9  C   UNL     1     -15.899 -18.819  20.330  1.00  0.00     0.336 A 
ATOM     10  O   UNL     1     -15.248 -19.203  19.324  1.00  0.00    -0.246 OA
ATOM     11  O   UNL     1     -15.855 -19.530  21.454  1.00  0.00    -0.423 OA
ENDROOT
BRANCH   1  12
ATOM     12  O   UNL     1     -18.605 -18.111  26.060  1.00  0.00    -0.493 OA
ATOM     13  C   UNL     1     -18.068 -17.301  27.102  1.00  0.00     0.278 C 
ENDBRANCH   1  12
BRANCH   2  14
ATOM     14  O   UNL     1     -17.046 -20.386  26.009  1.00  0.00    -0.504 OA
ATOM     15  H   UNL     1     -16.327 -20.231  26.706  1.00  0.00     0.293 HD
ENDBRANCH   2  14
TORSDOF 2
ENDMDL
MODEL 8
REMARK VINA RESULT:    -4.837      4.817      6.441
REMARK INTER + INTRA:          -5.318
REMARK INTER:                  -5.253
REMARK INTRA:                  -0.065
REMARK UNBOUND:                -0.057
REMARK SMILES COc1cc2ccc(=O)oc2cc1O
REMARK SMILES IDX 3 1 13 2 12 3 11 4 5 5 4 6 6 7 7 8 8 9 9 10 10 11 2 12 1 13
REMARK SMILES IDX 14 14
REMARK H PARENT 14 15
REMARK Flexibility Score: inf
ROOT
ATOM      1  C   UNL     1     -17.236 -19.039  24.933  1.00  0.00     0.161 A 
ATOM      2  C   UNL     1     -18.234 -18.126  25.310  1.00  0.00     0.161 A 
ATOM      3  C   UNL     1     -18.744 -17.210  24.378  1.00  0.00     0.098 A 
ATOM      4  C   UNL     1     -18.263 -17.199  23.066  1.00  0.00     0.142 A 
ATOM      5  C   UNL     1     -17.261 -18.112  22.680  1.00  0.00     0.022 A 
ATOM      6  C   UNL     1     -16.751 -19.029  23.610  1.00  0.00     0.062 A 
ATOM      7  C   UNL     1     -16.800 -18.075  21.360  1.00  0.00     0.019 A 
ATOM      8  C   UNL     1     -17.339 -17.146  20.471  1.00  0.00     0.094 A 
ATOM      9  C   UNL     1     -18.331 -16.270  20.926  1.00  0.00     0.336 A 
ATOM     10  O   UNL     1     -18.830 -15.424  20.140  1.00  0.00    -0.246 OA
ATOM     11  O   UNL     1     -18.750 -16.327  22.187  1.00  0.00    -0.423 OA
ENDROOT
BRANCH   1  12
ATOM     12  O   UNL     1     -16.755 -19.938  25.898  1.00  0.00    -0.493 OA
ATOM     13  C   UNL     1     -15.481 -19.841  26.527  1.00  0.00     0.278 C 
ENDBRANCH   1  12
BRANCH   2  14
ATOM     14  O   UNL     1     -18.716 -18.136  26.617  1.00  0.00    -0.504 OA
ATOM     15  H   UNL     1     -18.096 -18.253  27.411  1.00  0.00     0.293 HD
ENDBRANCH   2  14
TORSDOF 2
ENDMDL
MODEL 9
REMARK VINA RESULT:    -4.802      5.467      7.086
REMARK INTER + INTRA:          -5.280
REMARK INTER:                  -5.223
REMARK INTRA:                  -0.057
REMARK UNBOUND:                -0.057
REMARK SMILES COc1cc2ccc(=O)oc2cc1O
REMARK SMILES IDX 3 1 13 2 12 3 11 4 5 5 4 6 6 7 7 8 8 9 9 10 10 11 2 12 1 13
REMARK SMILES IDX 14 14
REMARK H PARENT 14 15
REMARK Flexibility Score: inf
ROOT
ATOM      1  C   UNL     1     -16.948 -17.431  20.669  1.00  0.00     0.161 A 
ATOM      2  C   UNL     1     -15.799 -18.236  20.741  1.00  0.00     0.161 A 
ATOM      3  C   UNL     1     -15.497 -18.934  21.919  1.00  0.00     0.098 A 
ATOM      4  C   UNL     1     -16.337 -18.835  23.032  1.00  0.00     0.142 A 
ATOM      5  C   UNL     1     -17.492 -18.028  22.967  1.00  0.00     0.022 A 
ATOM      6  C   UNL     1     -17.795 -17.330  21.790  1.00  0.00     0.062 A 
ATOM      7  C   UNL     1     -18.312 -17.948  24.098  1.00  0.00     0.019 A 
ATOM      8  C   UNL     1     -17.968 -18.661  25.245  1.00  0.00     0.094 A 
ATOM      9  C   UNL     1     -16.807 -19.442  25.236  1.00  0.00     0.336 A 
ATOM     10  O   UNL     1     -16.479 -20.093  26.261  1.00  0.00    -0.246 OA
ATOM     11  O   UNL     1     -16.044 -19.499  24.147  1.00  0.00    -0.423 OA
ENDROOT
BRANCH   1  12
ATOM     12  O   UNL     1     -17.211 -16.751  19.469  1.00  0.00    -0.493 OA
ATOM     13  C   UNL     1     -18.074 -17.231  18.443  1.00  0.00     0.278 C 
ENDBRANCH   1  12
BRANCH   2  14
ATOM     14  O   UNL     1     -14.961 -18.337  19.633  1.00  0.00    -0.504 OA
ATOM     15  H   UNL     1     -15.278 -18.090  18.702  1.00  0.00     0.293 HD
ENDBRANCH   2  14
TORSDOF 2
ENDMDL
