MODEL 1
REMARK VINA RESULT:    -5.442      0.000      0.000
REMARK INTER + INTRA:          -6.165
REMARK INTER:                  -6.078
REMARK INTRA:                  -0.087
REMARK UNBOUND:                -0.087
REMARK SMILES CCc1ccc(O)cc1O
REMARK SMILES IDX 3 1 9 2 8 3 6 4 5 5 4 6 2 7 1 8 10 9 7 11
REMARK H PARENT 10 10 7 12
REMARK Flexibility Score: inf
ROOT
ATOM      1  C   UNL     1       1.321  32.972  77.416  1.00  0.00    -0.006 A 
ATOM      2  C   UNL     1       0.674  32.422  76.291  1.00  0.00     0.122 A 
ATOM      3  C   UNL     1       0.738  31.040  76.054  1.00  0.00     0.092 A 
ATOM      4  C   UNL     1       1.452  30.205  76.923  1.00  0.00     0.119 A 
ATOM      5  C   UNL     1       2.106  30.752  78.030  1.00  0.00     0.047 A 
ATOM      6  C   UNL     1       2.046  32.128  78.274  1.00  0.00     0.011 A 
ENDROOT
BRANCH   1   7
ATOM      7  C   UNL     1       1.293  34.457  77.677  1.00  0.00     0.036 C 
ATOM      8  C   UNL     1       2.545  34.897  78.429  1.00  0.00     0.009 C 
ENDBRANCH   1   7
BRANCH   2   9
ATOM      9  O   UNL     1      -0.028  33.246  75.412  1.00  0.00    -0.508 OA
ATOM     10  H   UNL     1      -0.151  33.001  74.437  1.00  0.00     0.293 HD
ENDBRANCH   2   9
BRANCH   4  11
ATOM     11  O   UNL     1       1.520  28.833  76.693  1.00  0.00    -0.508 OA
ATOM     12  H   UNL     1       0.690  28.253  76.701  1.00  0.00     0.293 HD
ENDBRANCH   4  11
TORSDOF 3
ENDMDL
MODEL 2
REMARK VINA RESULT:    -5.405      2.155      3.993
REMARK INTER + INTRA:          -6.124
REMARK INTER:                  -6.038
REMARK INTRA:                  -0.086
REMARK UNBOUND:                -0.087
REMARK SMILES CCc1ccc(O)cc1O
REMARK SMILES IDX 3 1 9 2 8 3 6 4 5 5 4 6 2 7 1 8 10 9 7 11
REMARK H PARENT 10 10 7 12
REMARK Flexibility Score: inf
ROOT
ATOM      1  C   UNL     1       1.102  30.718  79.093  1.00  0.00    -0.006 A 
ATOM      2  C   UNL     1       1.842  31.281  78.034  1.00  0.00     0.122 A 
ATOM      3  C   UNL     1       1.276  32.296  77.248  1.00  0.00     0.092 A 
ATOM      4  C   UNL     1      -0.026  32.747  77.502  1.00  0.00     0.119 A 
ATOM      5  C   UNL     1      -0.765  32.179  78.544  1.00  0.00     0.047 A 
ATOM      6  C   UNL     1      -0.208  31.167  79.332  1.00  0.00     0.011 A 
ENDROOT
BRANCH   1   7
ATOM      7  C   UNL     1       1.674  29.604  79.933  1.00  0.00     0.036 C 
ATOM      8  C   UNL     1       1.238  29.746  81.388  1.00  0.00     0.009 C 
ENDBRANCH   1   7
BRANCH   2   9
ATOM      9  O   UNL     1       3.134  30.829  77.762  1.00  0.00    -0.508 OA
ATOM     10  H   UNL     1       3.801  30.651  78.503  1.00  0.00     0.293 HD
ENDBRANCH   2   9
BRANCH   4  11
ATOM     11  O   UNL     1      -0.593  33.754  76.726  1.00  0.00    -0.508 OA
ATOM     12  H   UNL     1      -0.922  34.618  77.139  1.00  0.00     0.293 HD
ENDBRANCH   4  11
TORSDOF 3
ENDMDL
MODEL 3
REMARK VINA RESULT:    -5.181      1.746      4.330
REMARK INTER + INTRA:          -5.874
REMARK INTER:                  -5.787
REMARK INTRA:                  -0.087
REMARK UNBOUND:                -0.087
REMARK SMILES CCc1ccc(O)cc1O
REMARK SMILES IDX 3 1 9 2 8 3 6 4 5 5 4 6 2 7 1 8 10 9 7 11
REMARK H PARENT 10 10 7 12
REMARK Flexibility Score: inf
ROOT
ATOM      1  C   UNL     1       1.369  31.212  77.190  1.00  0.00    -0.006 A 
ATOM      2  C   UNL     1       2.092  31.918  78.172  1.00  0.00     0.122 A 
ATOM      3  C   UNL     1       1.939  33.308  78.290  1.00  0.00     0.092 A 
ATOM      4  C   UNL     1       1.080  34.001  77.427  1.00  0.00     0.119 A 
ATOM      5  C   UNL     1       0.373  33.303  76.444  1.00  0.00     0.047 A 
ATOM      6  C   UNL     1       0.520  31.918  76.321  1.00  0.00     0.011 A 
ENDROOT
BRANCH   1   7
ATOM      7  C   UNL     1       1.537  29.723  77.022  1.00  0.00     0.036 C 
ATOM      8  C   UNL     1       1.231  29.302  75.589  1.00  0.00     0.009 C 
ENDBRANCH   1   7
BRANCH   2   9
ATOM      9  O   UNL     1       2.962  31.239  79.026  1.00  0.00    -0.508 OA
ATOM     10  H   UNL     1       3.800  31.678  79.389  1.00  0.00     0.293 HD
ENDBRANCH   2   9
BRANCH   4  11
ATOM     11  O   UNL     1       0.923  35.381  77.537  1.00  0.00    -0.508 OA
ATOM     12  H   UNL     1       0.282  35.890  76.941  1.00  0.00     0.293 HD
ENDBRANCH   4  11
TORSDOF 3
ENDMDL
MODEL 4
REMARK VINA RESULT:    -5.062      1.533      3.684
REMARK INTER + INTRA:          -5.741
REMARK INTER:                  -5.655
REMARK INTRA:                  -0.086
REMARK UNBOUND:                -0.087
REMARK SMILES CCc1ccc(O)cc1O
REMARK SMILES IDX 3 1 9 2 8 3 6 4 5 5 4 6 2 7 1 8 10 9 7 11
REMARK H PARENT 10 10 7 12
REMARK Flexibility Score: inf
ROOT
ATOM      1  C   UNL     1       1.343  31.017  76.951  1.00  0.00    -0.006 A 
ATOM      2  C   UNL     1       0.635  31.823  76.038  1.00  0.00     0.122 A 
ATOM      3  C   UNL     1       0.544  33.207  76.251  1.00  0.00     0.092 A 
ATOM      4  C   UNL     1       1.142  33.792  77.374  1.00  0.00     0.119 A 
ATOM      5  C   UNL     1       1.833  32.990  78.288  1.00  0.00     0.047 A 
ATOM      6  C   UNL     1       1.929  31.611  78.082  1.00  0.00     0.011 A 
ENDROOT
BRANCH   1   7
ATOM      7  C   UNL     1       1.430  29.524  76.763  1.00  0.00     0.036 C 
ATOM      8  C   UNL     1       1.850  28.838  78.059  1.00  0.00     0.009 C 
ENDBRANCH   1   7
BRANCH   2   9
ATOM      9  O   UNL     1       0.022  31.249  74.924  1.00  0.00    -0.508 OA
ATOM     10  H   UNL     1      -0.714  30.559  75.018  1.00  0.00     0.293 HD
ENDBRANCH   2   9
BRANCH   4  11
ATOM     11  O   UNL     1       1.056  35.165  77.592  1.00  0.00    -0.508 OA
ATOM     12  H   UNL     1       1.791  35.672  78.070  1.00  0.00     0.293 HD
ENDBRANCH   4  11
TORSDOF 3
ENDMDL
MODEL 5
REMARK VINA RESULT:    -5.056      3.287      5.596
REMARK INTER + INTRA:          -5.735
REMARK INTER:                  -5.646
REMARK INTRA:                  -0.089
REMARK UNBOUND:                -0.087
REMARK SMILES CCc1ccc(O)cc1O
REMARK SMILES IDX 3 1 9 2 8 3 6 4 5 5 4 6 2 7 1 8 10 9 7 11
REMARK H PARENT 10 10 7 12
REMARK Flexibility Score: inf
ROOT
ATOM      1  C   UNL     1       2.472  27.979  79.418  1.00  0.00    -0.006 A 
ATOM      2  C   UNL     1       3.252  28.487  78.359  1.00  0.00     0.122 A 
ATOM      3  C   UNL     1       3.297  29.869  78.125  1.00  0.00     0.092 A 
ATOM      4  C   UNL     1       2.560  30.749  78.930  1.00  0.00     0.119 A 
ATOM      5  C   UNL     1       1.777  30.244  79.971  1.00  0.00     0.047 A 
ATOM      6  C   UNL     1       1.727  28.868  80.211  1.00  0.00     0.011 A 
ENDROOT
BRANCH   1   7
ATOM      7  C   UNL     1       2.382  26.496  79.673  1.00  0.00     0.036 C 
ATOM      8  C   UNL     1       2.562  26.190  81.156  1.00  0.00     0.009 C 
ENDBRANCH   1   7
BRANCH   2   9
ATOM      9  O   UNL     1       3.977  27.619  77.542  1.00  0.00    -0.508 OA
ATOM     10  H   UNL     1       3.749  26.634  77.479  1.00  0.00     0.293 HD
ENDBRANCH   2   9
BRANCH   4  11
ATOM     11  O   UNL     1       2.600  32.122  78.702  1.00  0.00    -0.508 OA
ATOM     12  H   UNL     1       2.774  32.501  77.779  1.00  0.00     0.293 HD
ENDBRANCH   4  11
TORSDOF 3
ENDMDL
MODEL 6
REMARK VINA RESULT:    -5.033     15.212     16.689
REMARK INTER + INTRA:          -5.708
REMARK INTER:                  -5.623
REMARK INTRA:                  -0.085
REMARK UNBOUND:                -0.087
REMARK SMILES CCc1ccc(O)cc1O
REMARK SMILES IDX 3 1 9 2 8 3 6 4 5 5 4 6 2 7 1 8 10 9 7 11
REMARK H PARENT 10 10 7 12
REMARK Flexibility Score: inf
ROOT
ATOM      1  C   UNL     1      13.579  37.227  88.435  1.00  0.00    -0.006 A 
ATOM      2  C   UNL     1      13.080  37.758  87.229  1.00  0.00     0.122 A 
ATOM      3  C   UNL     1      12.716  36.896  86.183  1.00  0.00     0.092 A 
ATOM      4  C   UNL     1      12.857  35.510  86.326  1.00  0.00     0.119 A 
ATOM      5  C   UNL     1      13.365  34.984  87.517  1.00  0.00     0.047 A 
ATOM      6  C   UNL     1      13.729  35.836  88.564  1.00  0.00     0.011 A 
ENDROOT
BRANCH   1   7
ATOM      7  C   UNL     1      14.006  38.132  89.563  1.00  0.00     0.036 C 
ATOM      8  C   UNL     1      13.961  37.393  90.896  1.00  0.00     0.009 C 
ENDBRANCH   1   7
BRANCH   2   9
ATOM      9  O   UNL     1      12.949  39.138  87.070  1.00  0.00    -0.508 OA
ATOM     10  H   UNL     1      13.671  39.693  86.625  1.00  0.00     0.293 HD
ENDBRANCH   2   9
BRANCH   4  11
ATOM     11  O   UNL     1      12.498  34.648  85.293  1.00  0.00    -0.508 OA
ATOM     12  H   UNL     1      12.833  34.788  84.347  1.00  0.00     0.293 HD
ENDBRANCH   4  11
TORSDOF 3
ENDMDL
MODEL 7
REMARK VINA RESULT:    -5.024      3.796      4.574
REMARK INTER + INTRA:          -5.699
REMARK INTER:                  -5.601
REMARK INTRA:                  -0.097
REMARK UNBOUND:                -0.087
REMARK SMILES CCc1ccc(O)cc1O
REMARK SMILES IDX 3 1 9 2 8 3 6 4 5 5 4 6 2 7 1 8 10 9 7 11
REMARK H PARENT 10 10 7 12
REMARK Flexibility Score: inf
ROOT
ATOM      1  C   UNL     1       2.018  29.235  79.703  1.00  0.00    -0.006 A 
ATOM      2  C   UNL     1       2.887  29.931  78.839  1.00  0.00     0.122 A 
ATOM      3  C   UNL     1       3.760  29.218  78.003  1.00  0.00     0.092 A 
ATOM      4  C   UNL     1       3.783  27.818  78.032  1.00  0.00     0.119 A 
ATOM      5  C   UNL     1       2.931  27.128  78.900  1.00  0.00     0.047 A 
ATOM      6  C   UNL     1       2.058  27.831  79.734  1.00  0.00     0.011 A 
ENDROOT
BRANCH   1   7
ATOM      7  C   UNL     1       1.091  29.977  80.633  1.00  0.00     0.036 C 
ATOM      8  C   UNL     1       1.386  29.622  82.087  1.00  0.00     0.009 C 
ENDBRANCH   1   7
BRANCH   2   9
ATOM      9  O   UNL     1       2.883  31.326  78.813  1.00  0.00    -0.508 OA
ATOM     10  H   UNL     1       2.197  31.865  79.328  1.00  0.00     0.293 HD
ENDBRANCH   2   9
BRANCH   4  11
ATOM     11  O   UNL     1       4.648  27.104  77.206  1.00  0.00    -0.508 OA
ATOM     12  H   UNL     1       4.453  26.977  76.220  1.00  0.00     0.293 HD
ENDBRANCH   4  11
TORSDOF 3
ENDMDL
MODEL 8
REMARK VINA RESULT:    -5.016      1.682      2.412
REMARK INTER + INTRA:          -5.690
REMARK INTER:                  -5.604
REMARK INTRA:                  -0.086
REMARK UNBOUND:                -0.087
REMARK SMILES CCc1ccc(O)cc1O
REMARK SMILES IDX 3 1 9 2 8 3 6 4 5 5 4 6 2 7 1 8 10 9 7 11
REMARK H PARENT 10 10 7 12
REMARK Flexibility Score: inf
ROOT
ATOM      1  C   UNL     1       1.553  32.415  77.392  1.00  0.00    -0.006 A 
ATOM      2  C   UNL     1       2.157  31.257  77.920  1.00  0.00     0.122 A 
ATOM      3  C   UNL     1       1.989  30.024  77.272  1.00  0.00     0.092 A 
ATOM      4  C   UNL     1       1.212  29.934  76.110  1.00  0.00     0.119 A 
ATOM      5  C   UNL     1       0.601  31.081  75.594  1.00  0.00     0.047 A 
ATOM      6  C   UNL     1       0.765  32.313  76.233  1.00  0.00     0.011 A 
ENDROOT
BRANCH   1   7
ATOM      7  C   UNL     1       1.692  33.747  78.085  1.00  0.00     0.036 C 
ATOM      8  C   UNL     1       0.768  34.784  77.455  1.00  0.00     0.009 C 
ENDBRANCH   1   7
BRANCH   2   9
ATOM      9  O   UNL     1       2.920  31.332  79.085  1.00  0.00    -0.508 OA
ATOM     10  H   UNL     1       2.500  31.244  80.002  1.00  0.00     0.293 HD
ENDBRANCH   2   9
BRANCH   4  11
ATOM     11  O   UNL     1       1.041  28.713  75.462  1.00  0.00    -0.508 OA
ATOM     12  H   UNL     1       1.630  28.439  74.685  1.00  0.00     0.293 HD
ENDBRANCH   4  11
TORSDOF 3
ENDMDL
MODEL 9
REMARK VINA RESULT:    -4.847     14.792     16.379
REMARK INTER + INTRA:          -5.501
REMARK INTER:                  -5.416
REMARK INTRA:                  -0.085
REMARK UNBOUND:                -0.087
REMARK SMILES CCc1ccc(O)cc1O
REMARK SMILES IDX 3 1 9 2 8 3 6 4 5 5 4 6 2 7 1 8 10 9 7 11
REMARK H PARENT 10 10 7 12
REMARK Flexibility Score: inf
ROOT
ATOM      1  C   UNL     1      13.347  37.167  87.741  1.00  0.00    -0.006 A 
ATOM      2  C   UNL     1      13.365  35.923  88.403  1.00  0.00     0.122 A 
ATOM      3  C   UNL     1      13.058  34.751  87.696  1.00  0.00     0.092 A 
ATOM      4  C   UNL     1      12.721  34.811  86.337  1.00  0.00     0.119 A 
ATOM      5  C   UNL     1      12.688  36.046  85.685  1.00  0.00     0.047 A 
ATOM      6  C   UNL     1      12.994  37.219  86.382  1.00  0.00     0.011 A 
ENDROOT
BRANCH   1   7
ATOM      7  C   UNL     1      13.643  38.445  88.485  1.00  0.00     0.036 C 
ATOM      8  C   UNL     1      14.125  39.529  87.526  1.00  0.00     0.009 C 
ENDBRANCH   1   7
BRANCH   2   9
ATOM      9  O   UNL     1      13.685  35.853  89.759  1.00  0.00    -0.508 OA
ATOM     10  H   UNL     1      13.616  34.986  90.277  1.00  0.00     0.293 HD
ENDBRANCH   2   9
BRANCH   4  11
ATOM     11  O   UNL     1      12.414  33.651  85.629  1.00  0.00    -0.508 OA
ATOM     12  H   UNL     1      13.060  32.873  85.584  1.00  0.00     0.293 HD
ENDBRANCH   4  11
TORSDOF 3
ENDMDL
