MODEL 1
REMARK VINA RESULT:    -8.035      0.000      0.000
REMARK INTER + INTRA:          -9.730
REMARK INTER:                  -9.445
REMARK INTRA:                  -0.285
REMARK UNBOUND:                -0.285
REMARK SMILES O=c1cc(-c2ccc(O)c(O)c2)oc2cc(O)cc(O)c12
REMARK SMILES IDX 4 1 3 2 2 3 1 4 21 5 19 6 18 7 16 8 15 9 14 10 13 11 5 12
REMARK SMILES IDX 6 13 7 14 8 15 12 16 10 17 9 18 11 20 20 22 17 24
REMARK H PARENT 9 19 11 21 20 23 17 25
REMARK Flexibility Score: inf
ROOT
ATOM      1  C   UNL     1      51.295  60.688   7.167  1.00  0.00     0.138 A 
ATOM      2  C   UNL     1      51.955  61.500   8.099  1.00  0.00     0.100 A 
ATOM      3  C   UNL     1      53.224  61.139   8.553  1.00  0.00     0.197 A 
ATOM      4  O   UNL     1      53.764  61.854   9.437  1.00  0.00    -0.289 OA
ATOM      5  C   UNL     1      53.848  59.975   8.045  1.00  0.00     0.107 A 
ATOM      6  C   UNL     1      55.155  59.531   8.405  1.00  0.00     0.134 A 
ATOM      7  C   UNL     1      55.622  58.301   7.925  1.00  0.00     0.093 A 
ATOM      8  C   UNL     1      54.852  57.528   7.052  1.00  0.00     0.123 A 
ATOM      9  C   UNL     1      53.596  57.978   6.653  1.00  0.00     0.094 A 
ATOM     10  C   UNL     1      53.088  59.185   7.140  1.00  0.00     0.146 A 
ATOM     11  O   UNL     1      51.880  59.571   6.747  1.00  0.00    -0.456 OA
ENDROOT
BRANCH   1  12
ATOM     12  C   UNL     1      49.944  61.026   6.649  1.00  0.00     0.021 A 
ATOM     13  C   UNL     1      49.671  62.271   6.052  1.00  0.00     0.016 A 
ATOM     14  C   UNL     1      48.393  62.559   5.565  1.00  0.00     0.051 A 
ATOM     15  C   UNL     1      47.370  61.606   5.658  1.00  0.00     0.157 A 
ATOM     16  C   UNL     1      48.915  60.071   6.726  1.00  0.00     0.062 A 
ATOM     17  C   UNL     1      47.634  60.356   6.239  1.00  0.00     0.158 A 
BRANCH  15  18
ATOM     18  O   UNL     1      46.096  61.898   5.171  1.00  0.00    -0.504 OA
ATOM     19  H   UNL     1      45.791  61.580   4.258  1.00  0.00     0.293 HD
ENDBRANCH  15  18
BRANCH  17  20
ATOM     20  O   UNL     1      46.638  59.386   6.344  1.00  0.00    -0.504 OA
ATOM     21  H   UNL     1      45.904  59.441   7.039  1.00  0.00     0.293 HD
ENDBRANCH  17  20
ENDBRANCH   1  12
BRANCH   6  22
ATOM     22  O   UNL     1      56.038  60.266   9.202  1.00  0.00    -0.507 OA
ATOM     23  H   UNL     1      56.884  59.902   9.612  1.00  0.00     0.293 HD
ENDBRANCH   6  22
BRANCH   8  24
ATOM     24  O   UNL     1      55.333  56.313   6.568  1.00  0.00    -0.508 OA
ATOM     25  H   UNL     1      55.016  55.428   6.947  1.00  0.00     0.293 HD
ENDBRANCH   8  24
TORSDOF 5
ENDMDL
MODEL 2
REMARK VINA RESULT:    -7.880      5.138      6.901
REMARK INTER + INTRA:          -9.547
REMARK INTER:                  -9.229
REMARK INTRA:                  -0.318
REMARK UNBOUND:                -0.285
REMARK SMILES O=c1cc(-c2ccc(O)c(O)c2)oc2cc(O)cc(O)c12
REMARK SMILES IDX 4 1 3 2 2 3 1 4 21 5 19 6 18 7 16 8 15 9 14 10 13 11 5 12
REMARK SMILES IDX 6 13 7 14 8 15 12 16 10 17 9 18 11 20 20 22 17 24
REMARK H PARENT 9 19 11 21 20 23 17 25
REMARK Flexibility Score: inf
ROOT
ATOM      1  C   UNL     1      52.170  59.729   3.204  1.00  0.00     0.138 A 
ATOM      2  C   UNL     1      51.020  59.621   2.410  1.00  0.00     0.100 A 
ATOM      3  C   UNL     1      51.120  59.107   1.117  1.00  0.00     0.197 A 
ATOM      4  O   UNL     1      50.082  59.080   0.406  1.00  0.00    -0.289 OA
ATOM      5  C   UNL     1      52.374  58.668   0.629  1.00  0.00     0.107 A 
ATOM      6  C   UNL     1      52.589  58.090  -0.658  1.00  0.00     0.134 A 
ATOM      7  C   UNL     1      53.894  57.800  -1.075  1.00  0.00     0.093 A 
ATOM      8  C   UNL     1      54.985  58.014  -0.229  1.00  0.00     0.123 A 
ATOM      9  C   UNL     1      54.780  58.529   1.049  1.00  0.00     0.094 A 
ATOM     10  C   UNL     1      53.494  58.859   1.482  1.00  0.00     0.146 A 
ATOM     11  O   UNL     1      53.343  59.361   2.703  1.00  0.00    -0.456 OA
ENDROOT
BRANCH   1  12
ATOM     12  C   UNL     1      52.119  60.267   4.587  1.00  0.00     0.021 A 
ATOM     13  C   UNL     1      50.927  60.766   5.144  1.00  0.00     0.016 A 
ATOM     14  C   UNL     1      50.907  61.258   6.452  1.00  0.00     0.051 A 
ATOM     15  C   UNL     1      52.073  61.253   7.228  1.00  0.00     0.157 A 
ATOM     16  C   UNL     1      53.283  60.254   5.378  1.00  0.00     0.062 A 
ATOM     17  C   UNL     1      53.265  60.747   6.688  1.00  0.00     0.158 A 
BRANCH  15  18
ATOM     18  O   UNL     1      52.048  61.746   8.532  1.00  0.00    -0.504 OA
ATOM     19  H   UNL     1      52.049  62.741   8.724  1.00  0.00     0.293 HD
ENDBRANCH  15  18
BRANCH  17  20
ATOM     20  O   UNL     1      54.442  60.725   7.435  1.00  0.00    -0.504 OA
ATOM     21  H   UNL     1      55.065  59.927   7.436  1.00  0.00     0.293 HD
ENDBRANCH  17  20
ENDBRANCH   1  12
BRANCH   6  22
ATOM     22  O   UNL     1      51.561  57.758  -1.546  1.00  0.00    -0.507 OA
ATOM     23  H   UNL     1      51.680  57.610  -2.536  1.00  0.00     0.293 HD
ENDBRANCH   6  22
BRANCH   8  24
ATOM     24  O   UNL     1      56.278  57.708  -0.648  1.00  0.00    -0.508 OA
ATOM     25  H   UNL     1      56.687  56.795  -0.485  1.00  0.00     0.293 HD
ENDBRANCH   8  24
TORSDOF 5
ENDMDL
MODEL 3
REMARK VINA RESULT:    -7.757      4.083      4.451
REMARK INTER + INTRA:          -9.402
REMARK INTER:                  -9.085
REMARK INTRA:                  -0.318
REMARK UNBOUND:                -0.285
REMARK SMILES O=c1cc(-c2ccc(O)c(O)c2)oc2cc(O)cc(O)c12
REMARK SMILES IDX 4 1 3 2 2 3 1 4 21 5 19 6 18 7 16 8 15 9 14 10 13 11 5 12
REMARK SMILES IDX 6 13 7 14 8 15 12 16 10 17 9 18 11 20 20 22 17 24
REMARK H PARENT 9 19 11 21 20 23 17 25
REMARK Flexibility Score: inf
ROOT
ATOM      1  C   UNL     1      52.379  60.175   3.954  1.00  0.00     0.138 A 
ATOM      2  C   UNL     1      52.119  61.312   4.732  1.00  0.00     0.100 A 
ATOM      3  C   UNL     1      52.663  61.411   6.013  1.00  0.00     0.197 A 
ATOM      4  O   UNL     1      52.361  62.414   6.711  1.00  0.00    -0.289 OA
ATOM      5  C   UNL     1      53.498  60.380   6.505  1.00  0.00     0.107 A 
ATOM      6  C   UNL     1      54.140  60.391   7.779  1.00  0.00     0.134 A 
ATOM      7  C   UNL     1      54.850  59.261   8.205  1.00  0.00     0.093 A 
ATOM      8  C   UNL     1      54.990  58.144   7.377  1.00  0.00     0.123 A 
ATOM      9  C   UNL     1      54.411  58.144   6.110  1.00  0.00     0.094 A 
ATOM     10  C   UNL     1      53.669  59.243   5.670  1.00  0.00     0.146 A 
ATOM     11  O   UNL     1      53.122  59.196   4.460  1.00  0.00    -0.456 OA
ENDROOT
BRANCH   1  12
ATOM     12  C   UNL     1      51.827  60.019   2.584  1.00  0.00     0.021 A 
ATOM     13  C   UNL     1      50.915  60.945   2.044  1.00  0.00     0.016 A 
ATOM     14  C   UNL     1      50.419  60.778   0.749  1.00  0.00     0.051 A 
ATOM     15  C   UNL     1      50.831  59.691  -0.032  1.00  0.00     0.157 A 
ATOM     16  C   UNL     1      52.246  58.937   1.789  1.00  0.00     0.062 A 
ATOM     17  C   UNL     1      51.750  58.768   0.491  1.00  0.00     0.158 A 
BRANCH  15  18
ATOM     18  O   UNL     1      50.333  59.528  -1.324  1.00  0.00    -0.504 OA
ATOM     19  H   UNL     1      50.903  59.142  -2.068  1.00  0.00     0.293 HD
ENDBRANCH  15  18
BRANCH  17  20
ATOM     20  O   UNL     1      52.182  57.677  -0.262  1.00  0.00    -0.504 OA
ATOM     21  H   UNL     1      51.975  57.587  -1.249  1.00  0.00     0.293 HD
ENDBRANCH  17  20
ENDBRANCH   1  12
BRANCH   6  22
ATOM     22  O   UNL     1      54.134  61.488   8.647  1.00  0.00    -0.507 OA
ATOM     23  H   UNL     1      53.628  62.345   8.488  1.00  0.00     0.293 HD
ENDBRANCH   6  22
BRANCH   8  24
ATOM     24  O   UNL     1      55.711  57.031   7.804  1.00  0.00    -0.508 OA
ATOM     25  H   UNL     1      56.167  57.009   8.708  1.00  0.00     0.293 HD
ENDBRANCH   8  24
TORSDOF 5
ENDMDL
MODEL 4
REMARK VINA RESULT:    -7.753      3.788      5.250
REMARK INTER + INTRA:          -9.398
REMARK INTER:                  -9.080
REMARK INTRA:                  -0.318
REMARK UNBOUND:                -0.285
REMARK SMILES O=c1cc(-c2ccc(O)c(O)c2)oc2cc(O)cc(O)c12
REMARK SMILES IDX 4 1 3 2 2 3 1 4 21 5 19 6 18 7 16 8 15 9 14 10 13 11 5 12
REMARK SMILES IDX 6 13 7 14 8 15 12 16 10 17 9 18 11 20 20 22 17 24
REMARK H PARENT 9 19 11 21 20 23 17 25
REMARK Flexibility Score: inf
ROOT
ATOM      1  C   UNL     1      52.158  60.063   4.505  1.00  0.00     0.138 A 
ATOM      2  C   UNL     1      51.012  60.642   5.069  1.00  0.00     0.100 A 
ATOM      3  C   UNL     1      51.038  61.073   6.395  1.00  0.00     0.197 A 
ATOM      4  O   UNL     1      49.976  61.530   6.892  1.00  0.00    -0.289 OA
ATOM      5  C   UNL     1      52.229  60.953   7.151  1.00  0.00     0.107 A 
ATOM      6  C   UNL     1      52.384  61.394   8.499  1.00  0.00     0.134 A 
ATOM      7  C   UNL     1      53.575  61.118   9.183  1.00  0.00     0.093 A 
ATOM      8  C   UNL     1      54.636  60.467   8.548  1.00  0.00     0.123 A 
ATOM      9  C   UNL     1      54.514  60.079   7.216  1.00  0.00     0.094 A 
ATOM     10  C   UNL     1      53.327  60.311   6.517  1.00  0.00     0.146 A 
ATOM     11  O   UNL     1      53.246  59.912   5.252  1.00  0.00    -0.456 OA
ENDROOT
BRANCH   1  12
ATOM     12  C   UNL     1      52.186  59.589   3.098  1.00  0.00     0.021 A 
ATOM     13  C   UNL     1      51.029  59.585   2.295  1.00  0.00     0.016 A 
ATOM     14  C   UNL     1      51.086  59.143   0.971  1.00  0.00     0.051 A 
ATOM     15  C   UNL     1      52.298  58.705   0.424  1.00  0.00     0.157 A 
ATOM     16  C   UNL     1      53.401  59.160   2.536  1.00  0.00     0.062 A 
ATOM     17  C   UNL     1      53.461  58.715   1.210  1.00  0.00     0.158 A 
BRANCH  15  18
ATOM     18  O   UNL     1      52.351  58.262  -0.898  1.00  0.00    -0.504 OA
ATOM     19  H   UNL     1      51.508  58.059  -1.424  1.00  0.00     0.293 HD
ENDBRANCH  15  18
BRANCH  17  20
ATOM     20  O   UNL     1      54.684  58.288   0.693  1.00  0.00    -0.504 OA
ATOM     21  H   UNL     1      55.563  58.489   1.154  1.00  0.00     0.293 HD
ENDBRANCH  17  20
ENDBRANCH   1  12
BRANCH   6  22
ATOM     22  O   UNL     1      51.419  62.127   9.197  1.00  0.00    -0.507 OA
ATOM     23  H   UNL     1      50.989  61.837  10.062  1.00  0.00     0.293 HD
ENDBRANCH   6  22
BRANCH   8  24
ATOM     24  O   UNL     1      55.822  60.210   9.233  1.00  0.00    -0.508 OA
ATOM     25  H   UNL     1      56.103  59.266   9.471  1.00  0.00     0.293 HD
ENDBRANCH   8  24
TORSDOF 5
ENDMDL
MODEL 5
REMARK VINA RESULT:    -7.738      4.417      5.121
REMARK INTER + INTRA:          -9.380
REMARK INTER:                  -9.108
REMARK INTRA:                  -0.271
REMARK UNBOUND:                -0.285
REMARK SMILES O=c1cc(-c2ccc(O)c(O)c2)oc2cc(O)cc(O)c12
REMARK SMILES IDX 4 1 3 2 2 3 1 4 21 5 19 6 18 7 16 8 15 9 14 10 13 11 5 12
REMARK SMILES IDX 6 13 7 14 8 15 12 16 10 17 9 18 11 20 20 22 17 24
REMARK H PARENT 9 19 11 21 20 23 17 25
REMARK Flexibility Score: inf
ROOT
ATOM      1  C   UNL     1      52.922  59.633   3.579  1.00  0.00     0.138 A 
ATOM      2  C   UNL     1      52.399  60.809   4.133  1.00  0.00     0.100 A 
ATOM      3  C   UNL     1      52.657  61.118   5.469  1.00  0.00     0.197 A 
ATOM      4  O   UNL     1      52.123  62.148   5.955  1.00  0.00    -0.289 OA
ATOM      5  C   UNL     1      53.472  60.259   6.244  1.00  0.00     0.107 A 
ATOM      6  C   UNL     1      53.837  60.493   7.604  1.00  0.00     0.134 A 
ATOM      7  C   UNL     1      54.553  59.514   8.304  1.00  0.00     0.093 A 
ATOM      8  C   UNL     1      54.967  58.337   7.677  1.00  0.00     0.123 A 
ATOM      9  C   UNL     1      54.662  58.123   6.335  1.00  0.00     0.094 A 
ATOM     10  C   UNL     1      53.921  59.065   5.618  1.00  0.00     0.146 A 
ATOM     11  O   UNL     1      53.638  58.816   4.344  1.00  0.00    -0.456 OA
ENDROOT
BRANCH   1  12
ATOM     12  C   UNL     1      52.679  59.257   2.163  1.00  0.00     0.021 A 
ATOM     13  C   UNL     1      53.728  58.868   1.310  1.00  0.00     0.016 A 
ATOM     14  C   UNL     1      53.469  58.510  -0.016  1.00  0.00     0.051 A 
ATOM     15  C   UNL     1      52.159  58.526  -0.509  1.00  0.00     0.157 A 
ATOM     16  C   UNL     1      51.364  59.258   1.663  1.00  0.00     0.062 A 
ATOM     17  C   UNL     1      51.101  58.900   0.335  1.00  0.00     0.158 A 
BRANCH  15  18
ATOM     18  O   UNL     1      51.904  58.169  -1.833  1.00  0.00    -0.504 OA
ATOM     19  H   UNL     1      51.035  58.415  -2.292  1.00  0.00     0.293 HD
ENDBRANCH  15  18
BRANCH  17  20
ATOM     20  O   UNL     1      49.786  58.924  -0.125  1.00  0.00    -0.504 OA
ATOM     21  H   UNL     1      49.449  59.640  -0.756  1.00  0.00     0.293 HD
ENDBRANCH  17  20
ENDBRANCH   1  12
BRANCH   6  22
ATOM     22  O   UNL     1      53.546  61.671   8.298  1.00  0.00    -0.507 OA
ATOM     23  H   UNL     1      52.941  62.404   7.963  1.00  0.00     0.293 HD
ENDBRANCH   6  22
BRANCH   8  24
ATOM     24  O   UNL     1      55.692  57.376   8.379  1.00  0.00    -0.508 OA
ATOM     25  H   UNL     1      55.308  56.459   8.574  1.00  0.00     0.293 HD
ENDBRANCH   8  24
TORSDOF 5
ENDMDL
MODEL 6
REMARK VINA RESULT:    -7.703      6.671      7.880
REMARK INTER + INTRA:          -9.339
REMARK INTER:                  -9.075
REMARK INTRA:                  -0.264
REMARK UNBOUND:                -0.285
REMARK SMILES O=c1cc(-c2ccc(O)c(O)c2)oc2cc(O)cc(O)c12
REMARK SMILES IDX 4 1 3 2 2 3 1 4 21 5 19 6 18 7 16 8 15 9 14 10 13 11 5 12
REMARK SMILES IDX 6 13 7 14 8 15 12 16 10 17 9 18 11 20 20 22 17 24
REMARK H PARENT 9 19 11 21 20 23 17 25
REMARK Flexibility Score: inf
ROOT
ATOM      1  C   UNL     1      51.278  60.567  -0.129  1.00  0.00     0.138 A 
ATOM      2  C   UNL     1      50.764  59.645  -1.052  1.00  0.00     0.100 A 
ATOM      3  C   UNL     1      51.568  58.597  -1.500  1.00  0.00     0.197 A 
ATOM      4  O   UNL     1      51.100  57.822  -2.375  1.00  0.00    -0.289 OA
ATOM      5  C   UNL     1      52.882  58.453  -0.996  1.00  0.00     0.107 A 
ATOM      6  C   UNL     1      53.778  57.400  -1.350  1.00  0.00     0.134 A 
ATOM      7  C   UNL     1      55.096  57.426  -0.876  1.00  0.00     0.093 A 
ATOM      8  C   UNL     1      55.531  58.435  -0.014  1.00  0.00     0.123 A 
ATOM      9  C   UNL     1      54.649  59.438   0.380  1.00  0.00     0.094 A 
ATOM     10  C   UNL     1      53.338  59.458  -0.102  1.00  0.00     0.146 A 
ATOM     11  O   UNL     1      52.533  60.441   0.286  1.00  0.00    -0.456 OA
ENDROOT
BRANCH   1  12
ATOM     12  C   UNL     1      50.466  61.701   0.382  1.00  0.00     0.021 A 
ATOM     13  C   UNL     1      50.757  63.034   0.037  1.00  0.00     0.016 A 
ATOM     14  C   UNL     1      49.969  64.081   0.525  1.00  0.00     0.051 A 
ATOM     15  C   UNL     1      48.875  63.814   1.357  1.00  0.00     0.157 A 
ATOM     16  C   UNL     1      49.357  61.441   1.208  1.00  0.00     0.062 A 
ATOM     17  C   UNL     1      48.567  62.488   1.698  1.00  0.00     0.158 A 
BRANCH  15  18
ATOM     18  O   UNL     1      48.093  64.861   1.843  1.00  0.00    -0.504 OA
ATOM     19  H   UNL     1      48.463  65.542   2.495  1.00  0.00     0.293 HD
ENDBRANCH  15  18
BRANCH  17  20
ATOM     20  O   UNL     1      47.484  62.189   2.523  1.00  0.00    -0.504 OA
ATOM     21  H   UNL     1      47.552  62.214   3.532  1.00  0.00     0.293 HD
ENDBRANCH  17  20
ENDBRANCH   1  12
BRANCH   6  22
ATOM     22  O   UNL     1      53.419  56.300  -2.136  1.00  0.00    -0.507 OA
ATOM     23  H   UNL     1      53.359  55.350  -1.805  1.00  0.00     0.293 HD
ENDBRANCH   6  22
BRANCH   8  24
ATOM     24  O   UNL     1      56.840  58.443   0.464  1.00  0.00    -0.508 OA
ATOM     25  H   UNL     1      57.401  59.287   0.460  1.00  0.00     0.293 HD
ENDBRANCH   8  24
TORSDOF 5
ENDMDL
MODEL 7
REMARK VINA RESULT:    -7.575      1.892      3.348
REMARK INTER + INTRA:          -9.188
REMARK INTER:                  -8.926
REMARK INTRA:                  -0.262
REMARK UNBOUND:                -0.285
REMARK SMILES O=c1cc(-c2ccc(O)c(O)c2)oc2cc(O)cc(O)c12
REMARK SMILES IDX 4 1 3 2 2 3 1 4 21 5 19 6 18 7 16 8 15 9 14 10 13 11 5 12
REMARK SMILES IDX 6 13 7 14 8 15 12 16 10 17 9 18 11 20 20 22 17 24
REMARK H PARENT 9 19 11 21 20 23 17 25
REMARK Flexibility Score: inf
ROOT
ATOM      1  C   UNL     1      49.917  61.488   5.560  1.00  0.00     0.138 A 
ATOM      2  C   UNL     1      50.804  60.872   4.666  1.00  0.00     0.100 A 
ATOM      3  C   UNL     1      52.050  60.439   5.118  1.00  0.00     0.197 A 
ATOM      4  O   UNL     1      52.848  59.947   4.278  1.00  0.00    -0.289 OA
ATOM      5  C   UNL     1      52.398  60.596   6.481  1.00  0.00     0.107 A 
ATOM      6  C   UNL     1      53.624  60.156   7.063  1.00  0.00     0.134 A 
ATOM      7  C   UNL     1      53.905  60.470   8.398  1.00  0.00     0.093 A 
ATOM      8  C   UNL     1      52.979  61.155   9.188  1.00  0.00     0.123 A 
ATOM      9  C   UNL     1      51.757  61.542   8.644  1.00  0.00     0.094 A 
ATOM     10  C   UNL     1      51.460  61.273   7.306  1.00  0.00     0.146 A 
ATOM     11  O   UNL     1      50.289  61.672   6.822  1.00  0.00    -0.456 OA
ENDROOT
BRANCH   1  12
ATOM     12  C   UNL     1      48.578  61.966   5.132  1.00  0.00     0.021 A 
ATOM     13  C   UNL     1      48.351  63.308   4.772  1.00  0.00     0.016 A 
ATOM     14  C   UNL     1      47.082  63.728   4.364  1.00  0.00     0.051 A 
ATOM     15  C   UNL     1      46.022  62.815   4.301  1.00  0.00     0.157 A 
ATOM     16  C   UNL     1      47.510  61.054   5.053  1.00  0.00     0.062 A 
ATOM     17  C   UNL     1      46.238  61.472   4.646  1.00  0.00     0.158 A 
BRANCH  15  18
ATOM     18  O   UNL     1      44.757  63.239   3.894  1.00  0.00    -0.504 OA
ATOM     19  H   UNL     1      44.577  63.538   2.942  1.00  0.00     0.293 HD
ENDBRANCH  15  18
BRANCH  17  20
ATOM     20  O   UNL     1      45.203  60.539   4.591  1.00  0.00    -0.504 OA
ATOM     21  H   UNL     1      44.877  60.048   5.414  1.00  0.00     0.293 HD
ENDBRANCH  17  20
ENDBRANCH   1  12
BRANCH   6  22
ATOM     22  O   UNL     1      54.580  59.392   6.386  1.00  0.00    -0.507 OA
ATOM     23  H   UNL     1      55.447  59.067   6.786  1.00  0.00     0.293 HD
ENDBRANCH   6  22
BRANCH   8  24
ATOM     24  O   UNL     1      53.263  61.449  10.521  1.00  0.00    -0.508 OA
ATOM     25  H   UNL     1      52.830  62.233  10.995  1.00  0.00     0.293 HD
ENDBRANCH   8  24
TORSDOF 5
ENDMDL
MODEL 8
REMARK VINA RESULT:    -7.504      4.862      5.888
REMARK INTER + INTRA:          -9.105
REMARK INTER:                  -8.812
REMARK INTRA:                  -0.293
REMARK UNBOUND:                -0.285
REMARK SMILES O=c1cc(-c2ccc(O)c(O)c2)oc2cc(O)cc(O)c12
REMARK SMILES IDX 4 1 3 2 2 3 1 4 21 5 19 6 18 7 16 8 15 9 14 10 13 11 5 12
REMARK SMILES IDX 6 13 7 14 8 15 12 16 10 17 9 18 11 20 20 22 17 24
REMARK H PARENT 9 19 11 21 20 23 17 25
REMARK Flexibility Score: inf
ROOT
ATOM      1  C   UNL     1      50.034  60.759   2.787  1.00  0.00     0.138 A 
ATOM      2  C   UNL     1      51.164  60.492   3.573  1.00  0.00     0.100 A 
ATOM      3  C   UNL     1      52.237  59.790   3.022  1.00  0.00     0.197 A 
ATOM      4  O   UNL     1      53.210  59.511   3.770  1.00  0.00    -0.289 OA
ATOM      5  C   UNL     1      52.190  59.382   1.668  1.00  0.00     0.107 A 
ATOM      6  C   UNL     1      53.241  58.696   0.989  1.00  0.00     0.134 A 
ATOM      7  C   UNL     1      53.035  58.240  -0.319  1.00  0.00     0.093 A 
ATOM      8  C   UNL     1      51.838  58.497  -0.992  1.00  0.00     0.123 A 
ATOM      9  C   UNL     1      50.826  59.212  -0.356  1.00  0.00     0.094 A 
ATOM     10  C   UNL     1      50.988  59.651   0.960  1.00  0.00     0.146 A 
ATOM     11  O   UNL     1      49.992  60.317   1.535  1.00  0.00    -0.456 OA
ENDROOT
BRANCH   1  12
ATOM     12  C   UNL     1      48.865  61.503   3.322  1.00  0.00     0.021 A 
ATOM     13  C   UNL     1      47.818  61.935   2.487  1.00  0.00     0.016 A 
ATOM     14  C   UNL     1      46.725  62.625   3.018  1.00  0.00     0.051 A 
ATOM     15  C   UNL     1      46.655  62.888   4.392  1.00  0.00     0.157 A 
ATOM     16  C   UNL     1      48.781  61.760   4.702  1.00  0.00     0.062 A 
ATOM     17  C   UNL     1      47.687  62.451   5.238  1.00  0.00     0.158 A 
BRANCH  15  18
ATOM     18  O   UNL     1      45.564  63.577   4.919  1.00  0.00    -0.504 OA
ATOM     19  H   UNL     1      44.746  63.091   5.268  1.00  0.00     0.293 HD
ENDBRANCH  15  18
BRANCH  17  20
ATOM     20  O   UNL     1      47.646  62.695   6.610  1.00  0.00    -0.504 OA
ATOM     21  H   UNL     1      46.854  63.143   7.053  1.00  0.00     0.293 HD
ENDBRANCH  17  20
ENDBRANCH   1  12
BRANCH   6  22
ATOM     22  O   UNL     1      54.505  58.463   1.540  1.00  0.00    -0.507 OA
ATOM     23  H   UNL     1      55.345  58.298   1.007  1.00  0.00     0.293 HD
ENDBRANCH   6  22
BRANCH   8  24
ATOM     24  O   UNL     1      51.649  58.052  -2.299  1.00  0.00    -0.508 OA
ATOM     25  H   UNL     1      50.740  57.753  -2.631  1.00  0.00     0.293 HD
ENDBRANCH   8  24
TORSDOF 5
ENDMDL
MODEL 9
REMARK VINA RESULT:    -7.500      5.389      6.887
REMARK INTER + INTRA:          -9.100
REMARK INTER:                  -8.810
REMARK INTRA:                  -0.290
REMARK UNBOUND:                -0.285
REMARK SMILES O=c1cc(-c2ccc(O)c(O)c2)oc2cc(O)cc(O)c12
REMARK SMILES IDX 4 1 3 2 2 3 1 4 21 5 19 6 18 7 16 8 15 9 14 10 13 11 5 12
REMARK SMILES IDX 6 13 7 14 8 15 12 16 10 17 9 18 11 20 20 22 17 24
REMARK H PARENT 9 19 11 21 20 23 17 25
REMARK Flexibility Score: inf
ROOT
ATOM      1  C   UNL     1      51.615  59.721   2.175  1.00  0.00     0.138 A 
ATOM      2  C   UNL     1      52.697  59.314   2.968  1.00  0.00     0.100 A 
ATOM      3  C   UNL     1      52.712  59.627   4.327  1.00  0.00     0.197 A 
ATOM      4  O   UNL     1      53.725  59.304   5.000  1.00  0.00    -0.289 OA
ATOM      5  C   UNL     1      51.622  60.324   4.901  1.00  0.00     0.107 A 
ATOM      6  C   UNL     1      51.510  60.662   6.283  1.00  0.00     0.134 A 
ATOM      7  C   UNL     1      50.439  61.455   6.715  1.00  0.00     0.093 A 
ATOM      8  C   UNL     1      49.446  61.871   5.825  1.00  0.00     0.123 A 
ATOM      9  C   UNL     1      49.518  61.502   4.484  1.00  0.00     0.094 A 
ATOM     10  C   UNL     1      50.591  60.740   4.016  1.00  0.00     0.146 A 
ATOM     11  O   UNL     1      50.630  60.421   2.727  1.00  0.00    -0.456 OA
ENDROOT
BRANCH   1  12
ATOM     12  C   UNL     1      51.547  59.412   0.723  1.00  0.00     0.021 A 
ATOM     13  C   UNL     1      50.749  60.167  -0.157  1.00  0.00     0.016 A 
ATOM     14  C   UNL     1      50.711  59.861  -1.519  1.00  0.00     0.051 A 
ATOM     15  C   UNL     1      51.476  58.803  -2.028  1.00  0.00     0.157 A 
ATOM     16  C   UNL     1      52.321  58.360   0.203  1.00  0.00     0.062 A 
ATOM     17  C   UNL     1      52.286  58.051  -1.162  1.00  0.00     0.158 A 
BRANCH  15  18
ATOM     18  O   UNL     1      51.435  58.500  -3.388  1.00  0.00    -0.504 OA
ATOM     19  H   UNL     1      51.825  57.638  -3.752  1.00  0.00     0.293 HD
ENDBRANCH  15  18
BRANCH  17  20
ATOM     20  O   UNL     1      53.060  56.993  -1.638  1.00  0.00    -0.504 OA
ATOM     21  H   UNL     1      52.808  56.472  -2.468  1.00  0.00     0.293 HD
ENDBRANCH  17  20
ENDBRANCH   1  12
BRANCH   6  22
ATOM     22  O   UNL     1      52.401  60.226   7.268  1.00  0.00    -0.507 OA
ATOM     23  H   UNL     1      52.513  59.268   7.560  1.00  0.00     0.293 HD
ENDBRANCH   6  22
BRANCH   8  24
ATOM     24  O   UNL     1      48.376  62.647   6.267  1.00  0.00    -0.508 OA
ATOM     25  H   UNL     1      48.447  63.224   7.097  1.00  0.00     0.293 HD
ENDBRANCH   8  24
TORSDOF 5
ENDMDL
