MODEL 1
REMARK VINA RESULT:    -4.236      0.000      0.000
REMARK INTER + INTRA:          -6.617
REMARK INTER:                  -6.465
REMARK INTRA:                  -0.152
REMARK UNBOUND:                -0.152
REMARK SMILES CC1=CCC[C@H](C)C(=O)C[C@H](C(C)C)C(=O)C1
REMARK SMILES IDX 8 1 9 2 6 3 7 4 5 5 4 6 3 7 2 8 1 9 10 11 11 12 15 13 16 14
REMARK SMILES IDX 17 15 12 17 13 18 14 19
REMARK H PARENT
REMARK Flexibility Score: 70.00
ROOT
ATOM      1  C   UNL     1     -65.491 -77.729 223.184  1.00  0.00     0.136 C 
ATOM      2  O   UNL     1     -66.208 -76.751 223.031  1.00  0.00    -0.299 OA
ENDROOT
BRANCH   1   3
ATOM      3  C   UNL     1     -65.724 -78.666 224.348  1.00  0.00     0.053 C 
ATOM      4  C   UNL     1     -65.677 -80.116 223.852  1.00  0.00     0.016 C 
BRANCH   3   5
ATOM      5  C   UNL     1     -64.707 -78.459 225.493  1.00  0.00     0.015 C 
BRANCH   5   6
ATOM      6  C   UNL     1     -63.862 -79.711 225.800  1.00  0.00     0.028 C 
BRANCH   6   7
ATOM      7  C   UNL     1     -62.390 -79.376 225.893  1.00  0.00    -0.028 C 
ATOM      8  C   UNL     1     -61.538 -79.211 224.854  1.00  0.00    -0.070 CG0
ATOM      9  C   UNL     1     -60.106 -78.856 225.163  1.00  0.00     0.039 C 
ATOM     10  G   UNL     1     -61.929 -79.424 223.407  1.00  0.00     0.000 G0
ENDBRANCH   6   7
ENDBRANCH   5   6
ENDBRANCH   3   5
ENDBRANCH   1   3
BRANCH   1  11
ATOM     11  C   UNL     1     -64.348 -77.969 222.226  1.00  0.00     0.087 C 
BRANCH  11  12
ATOM     12  C   UNL     1     -63.068 -77.192 222.623  1.00  0.00     0.066 C 
BRANCH  12  13
ATOM     13  C   UNL     1     -61.884 -78.142 222.653  1.00  0.00     0.140 C 
ATOM     14  O   UNL     1     -60.859 -77.847 222.054  1.00  0.00    -0.299 OA
BRANCH  13  15
ATOM     15  C   UNL     1     -61.936 -79.436 223.419  1.00  0.00     0.106 CG0
ATOM     16  G   UNL     1     -61.546 -79.207 224.864  1.00  0.00     0.000 G0
ENDBRANCH  13  15
ENDBRANCH  12  13
BRANCH  12  17
ATOM     17  C   UNL     1     -62.777 -75.997 221.661  1.00  0.00    -0.006 C 
ATOM     18  C   UNL     1     -63.217 -76.290 220.215  1.00  0.00     0.008 C 
ATOM     19  C   UNL     1     -63.477 -74.713 222.142  1.00  0.00     0.008 C 
ENDBRANCH  12  17
ENDBRANCH  11  12
ENDBRANCH   1  11
TORSDOF 1
ENDMDL
MODEL 2
REMARK VINA RESULT:    -3.774      1.675      4.110
REMARK INTER + INTRA:          -5.911
REMARK INTER:                  -5.768
REMARK INTRA:                  -0.143
REMARK UNBOUND:                -0.152
REMARK SMILES CC1=CCC[C@H](C)C(=O)C[C@H](C(C)C)C(=O)C1
REMARK SMILES IDX 8 1 9 2 6 3 7 4 5 5 4 6 3 7 2 8 1 9 10 11 11 12 15 13 16 14
REMARK SMILES IDX 17 15 12 17 13 18 14 19
REMARK H PARENT
REMARK Flexibility Score: 70.00
ROOT
ATOM      1  C   UNL     1     -64.313 -77.666 222.143  1.00  0.00     0.136 C 
ATOM      2  O   UNL     1     -64.873 -78.591 221.574  1.00  0.00    -0.299 OA
ENDROOT
BRANCH   1   3
ATOM      3  C   UNL     1     -63.835 -76.467 221.354  1.00  0.00     0.053 C 
ATOM      4  C   UNL     1     -63.558 -75.304 222.313  1.00  0.00     0.016 C 
BRANCH   3   5
ATOM      5  C   UNL     1     -62.579 -76.773 220.507  1.00  0.00     0.015 C 
BRANCH   5   6
ATOM      6  C   UNL     1     -61.283 -76.853 221.335  1.00  0.00     0.028 C 
BRANCH   6   7
ATOM      7  C   UNL     1     -60.807 -78.282 221.481  1.00  0.00    -0.028 C 
ATOM      8  C   UNL     1     -60.837 -79.025 222.612  1.00  0.00    -0.070 CG0
ATOM      9  C   UNL     1     -60.332 -80.444 222.538  1.00  0.00     0.039 C 
ATOM     10  G   UNL     1     -61.291 -78.492 223.954  1.00  0.00     0.000 G0
ENDBRANCH   6   7
ENDBRANCH   5   6
ENDBRANCH   3   5
ENDBRANCH   1   3
BRANCH   1  11
ATOM     11  C   UNL     1     -64.066 -77.749 223.631  1.00  0.00     0.087 C 
BRANCH  11  12
ATOM     12  C   UNL     1     -63.823 -79.201 224.112  1.00  0.00     0.066 C 
BRANCH  12  13
ATOM     13  C   UNL     1     -62.373 -79.361 224.532  1.00  0.00     0.140 C 
ATOM     14  O   UNL     1     -62.071 -80.229 225.340  1.00  0.00    -0.299 OA
BRANCH  13  15
ATOM     15  C   UNL     1     -61.289 -78.487 223.962  1.00  0.00     0.106 CG0
ATOM     16  G   UNL     1     -60.843 -79.014 222.615  1.00  0.00     0.000 G0
ENDBRANCH  13  15
ENDBRANCH  12  13
BRANCH  12  17
ATOM     17  C   UNL     1     -64.772 -79.605 225.284  1.00  0.00    -0.006 C 
ATOM     18  C   UNL     1     -65.067 -78.427 226.230  1.00  0.00     0.008 C 
ATOM     19  C   UNL     1     -66.106 -80.160 224.752  1.00  0.00     0.008 C 
ENDBRANCH  12  17
ENDBRANCH  11  12
ENDBRANCH   1  11
TORSDOF 1
ENDMDL
MODEL 3
REMARK VINA RESULT:    -3.671      1.893      4.693
REMARK INTER + INTRA:          -5.754
REMARK INTER:                  -5.390
REMARK INTRA:                  -0.364
REMARK UNBOUND:                -0.152
REMARK SMILES CC1=CCC[C@H](C)C(=O)C[C@H](C(C)C)C(=O)C1
REMARK SMILES IDX 8 1 9 2 6 3 7 4 5 5 4 6 3 7 2 8 1 9 10 11 11 12 15 13 16 14
REMARK SMILES IDX 17 15 12 17 13 18 14 19
REMARK H PARENT
REMARK Flexibility Score: 70.00
ROOT
ATOM      1  C   UNL     1     -62.821 -80.210 224.381  1.00  0.00     0.136 C 
ATOM      2  O   UNL     1     -62.545 -81.305 224.846  1.00  0.00    -0.299 OA
ENDROOT
BRANCH   1   3
ATOM      3  C   UNL     1     -61.783 -79.109 224.364  1.00  0.00     0.053 C 
ATOM      4  C   UNL     1     -61.046 -79.084 225.707  1.00  0.00     0.016 C 
BRANCH   3   5
ATOM      5  C   UNL     1     -60.774 -79.259 223.202  1.00  0.00     0.015 C 
BRANCH   5   6
ATOM      6  C   UNL     1     -61.343 -78.832 221.835  1.00  0.00     0.028 C 
BRANCH   6   7
ATOM      7  C   UNL     1     -61.795 -77.388 221.850  1.00  0.00    -0.028 C 
ATOM      8  C   UNL     1     -63.075 -76.948 221.852  1.00  0.00    -0.070 CG0
ATOM      9  C   UNL     1     -63.311 -75.460 221.891  1.00  0.00     0.039 C 
ATOM     10  G   UNL     1     -64.277 -77.865 221.753  1.00  0.00     0.000 G0
ENDBRANCH   6   7
ENDBRANCH   5   6
ENDBRANCH   3   5
ENDBRANCH   1   3
BRANCH   1  11
ATOM     11  C   UNL     1     -64.216 -79.952 223.862  1.00  0.00     0.087 C 
BRANCH  11  12
ATOM     12  C   UNL     1     -64.750 -78.555 224.264  1.00  0.00     0.066 C 
BRANCH  12  13
ATOM     13  C   UNL     1     -65.121 -77.773 223.017  1.00  0.00     0.140 C 
ATOM     14  O   UNL     1     -66.105 -77.046 223.031  1.00  0.00    -0.299 OA
BRANCH  13  15
ATOM     15  C   UNL     1     -64.294 -77.858 221.763  1.00  0.00     0.106 CG0
ATOM     16  G   UNL     1     -63.089 -76.946 221.866  1.00  0.00     0.000 G0
ENDBRANCH  13  15
ENDBRANCH  12  13
BRANCH  12  17
ATOM     17  C   UNL     1     -65.974 -78.644 225.229  1.00  0.00    -0.006 C 
ATOM     18  C   UNL     1     -66.761 -79.957 225.057  1.00  0.00     0.008 C 
ATOM     19  C   UNL     1     -65.534 -78.520 226.699  1.00  0.00     0.008 C 
ENDBRANCH  12  17
ENDBRANCH  11  12
ENDBRANCH   1  11
TORSDOF 1
ENDMDL
MODEL 4
REMARK VINA RESULT:    -3.652      1.851      4.592
REMARK INTER + INTRA:          -5.726
REMARK INTER:                  -5.735
REMARK INTRA:                   0.009
REMARK UNBOUND:                -0.152
REMARK SMILES CC1=CCC[C@H](C)C(=O)C[C@H](C(C)C)C(=O)C1
REMARK SMILES IDX 8 1 9 2 6 3 7 4 5 5 4 6 3 7 2 8 1 9 10 11 11 12 15 13 16 14
REMARK SMILES IDX 17 15 12 17 13 18 14 19
REMARK H PARENT
REMARK Flexibility Score: 70.00
ROOT
ATOM      1  C   UNL     1     -62.098 -77.765 222.329  1.00  0.00     0.136 C 
ATOM      2  O   UNL     1     -61.048 -77.346 221.866  1.00  0.00    -0.299 OA
ENDROOT
BRANCH   1   3
ATOM      3  C   UNL     1     -63.349 -76.916 222.264  1.00  0.00     0.053 C 
ATOM      4  C   UNL     1     -63.234 -75.929 221.097  1.00  0.00     0.016 C 
BRANCH   3   5
ATOM      5  C   UNL     1     -64.636 -77.760 222.126  1.00  0.00     0.015 C 
BRANCH   5   6
ATOM      6  C   UNL     1     -65.715 -77.410 223.170  1.00  0.00     0.028 C 
BRANCH   6   7
ATOM      7  C   UNL     1     -66.304 -78.656 223.795  1.00  0.00    -0.028 C 
ATOM      8  C   UNL     1     -65.830 -79.308 224.882  1.00  0.00    -0.070 CG0
ATOM      9  C   UNL     1     -66.582 -80.524 225.360  1.00  0.00     0.039 C 
ATOM     10  G   UNL     1     -64.556 -78.921 225.603  1.00  0.00     0.000 G0
ENDBRANCH   6   7
ENDBRANCH   5   6
ENDBRANCH   3   5
ENDBRANCH   1   3
BRANCH   1  11
ATOM     11  C   UNL     1     -62.127 -79.116 223.002  1.00  0.00     0.087 C 
BRANCH  11  12
ATOM     12  C   UNL     1     -62.148 -79.010 224.548  1.00  0.00     0.066 C 
BRANCH  12  13
ATOM     13  C   UNL     1     -63.379 -79.714 225.090  1.00  0.00     0.140 C 
ATOM     14  O   UNL     1     -63.420 -80.937 225.098  1.00  0.00    -0.299 OA
BRANCH  13  15
ATOM     15  C   UNL     1     -64.548 -78.941 225.637  1.00  0.00     0.106 CG0
ATOM     16  G   UNL     1     -65.813 -79.299 224.887  1.00  0.00     0.000 G0
ENDBRANCH  13  15
ENDBRANCH  12  13
BRANCH  12  17
ATOM     17  C   UNL     1     -60.858 -79.598 225.200  1.00  0.00    -0.006 C 
ATOM     18  C   UNL     1     -59.993 -80.374 224.190  1.00  0.00     0.008 C 
ATOM     19  C   UNL     1     -60.001 -78.489 225.837  1.00  0.00     0.008 C 
ENDBRANCH  12  17
ENDBRANCH  11  12
ENDBRANCH   1  11
TORSDOF 1
ENDMDL
MODEL 5
REMARK VINA RESULT:    -3.650      1.633      3.736
REMARK INTER + INTRA:          -5.723
REMARK INTER:                  -5.896
REMARK INTRA:                   0.173
REMARK UNBOUND:                -0.152
REMARK SMILES CC1=CCC[C@H](C)C(=O)C[C@H](C(C)C)C(=O)C1
REMARK SMILES IDX 8 1 9 2 6 3 7 4 5 5 4 6 3 7 2 8 1 9 10 11 11 12 15 13 16 14
REMARK SMILES IDX 17 15 12 17 13 18 14 19
REMARK H PARENT
REMARK Flexibility Score: 70.00
ROOT
ATOM      1  C   UNL     1     -63.702 -75.791 221.898  1.00  0.00     0.136 C 
ATOM      2  O   UNL     1     -63.506 -74.592 221.765  1.00  0.00    -0.299 OA
ENDROOT
BRANCH   1   3
ATOM      3  C   UNL     1     -62.951 -76.783 221.037  1.00  0.00     0.053 C 
ATOM      4  C   UNL     1     -62.974 -76.312 219.579  1.00  0.00     0.016 C 
BRANCH   3   5
ATOM      5  C   UNL     1     -61.495 -76.998 221.507  1.00  0.00     0.015 C 
BRANCH   5   6
ATOM      6  C   UNL     1     -61.180 -78.458 221.886  1.00  0.00     0.028 C 
BRANCH   6   7
ATOM      7  C   UNL     1     -60.902 -78.598 223.367  1.00  0.00    -0.028 C 
ATOM      8  C   UNL     1     -61.748 -79.097 224.297  1.00  0.00    -0.070 CG0
ATOM      9  C   UNL     1     -61.266 -79.171 225.724  1.00  0.00     0.039 C 
ATOM     10  G   UNL     1     -63.169 -79.525 223.996  1.00  0.00     0.000 G0
ENDBRANCH   6   7
ENDBRANCH   5   6
ENDBRANCH   3   5
ENDBRANCH   1   3
BRANCH   1  11
ATOM     11  C   UNL     1     -64.727 -76.270 222.898  1.00  0.00     0.087 C 
BRANCH  11  12
ATOM     12  C   UNL     1     -64.866 -77.813 222.913  1.00  0.00     0.066 C 
BRANCH  12  13
ATOM     13  C   UNL     1     -64.140 -78.377 224.121  1.00  0.00     0.140 C 
ATOM     14  O   UNL     1     -64.347 -77.898 225.227  1.00  0.00    -0.299 OA
BRANCH  13  15
ATOM     15  C   UNL     1     -63.183 -79.530 223.992  1.00  0.00     0.106 CG0
ATOM     16  G   UNL     1     -61.771 -79.078 224.303  1.00  0.00     0.000 G0
ENDBRANCH  13  15
ENDBRANCH  12  13
BRANCH  12  17
ATOM     17  C   UNL     1     -66.358 -78.274 222.915  1.00  0.00    -0.006 C 
ATOM     18  C   UNL     1     -66.499 -79.794 223.120  1.00  0.00     0.008 C 
ATOM     19  C   UNL     1     -67.162 -77.550 224.011  1.00  0.00     0.008 C 
ENDBRANCH  12  17
ENDBRANCH  11  12
ENDBRANCH   1  11
TORSDOF 1
ENDMDL
MODEL 6
REMARK VINA RESULT:    -3.649      1.585      3.932
REMARK INTER + INTRA:          -5.721
REMARK INTER:                  -5.758
REMARK INTRA:                   0.037
REMARK UNBOUND:                -0.152
REMARK SMILES CC1=CCC[C@H](C)C(=O)C[C@H](C(C)C)C(=O)C1
REMARK SMILES IDX 8 1 9 2 6 3 7 4 5 5 4 6 3 7 2 8 1 9 10 11 11 12 15 13 16 14
REMARK SMILES IDX 17 15 12 17 13 18 14 19
REMARK H PARENT
REMARK Flexibility Score: 70.00
ROOT
ATOM      1  C   UNL     1     -61.599 -78.250 223.195  1.00  0.00     0.136 C 
ATOM      2  O   UNL     1     -60.753 -78.026 222.343  1.00  0.00    -0.299 OA
ENDROOT
BRANCH   1   3
ATOM      3  C   UNL     1     -61.479 -79.471 224.081  1.00  0.00     0.053 C 
ATOM      4  C   UNL     1     -60.102 -79.478 224.754  1.00  0.00     0.016 C 
BRANCH   3   5
ATOM      5  C   UNL     1     -62.597 -79.547 225.146  1.00  0.00     0.015 C 
BRANCH   5   6
ATOM      6  C   UNL     1     -63.648 -80.636 224.858  1.00  0.00     0.028 C 
BRANCH   6   7
ATOM      7  C   UNL     1     -65.031 -80.197 225.285  1.00  0.00    -0.028 C 
ATOM      8  C   UNL     1     -65.971 -79.628 224.494  1.00  0.00    -0.070 CG0
ATOM      9  C   UNL     1     -67.302 -79.283 225.114  1.00  0.00     0.039 C 
ATOM     10  G   UNL     1     -65.738 -79.262 223.044  1.00  0.00     0.000 G0
ENDBRANCH   6   7
ENDBRANCH   5   6
ENDBRANCH   3   5
ENDBRANCH   1   3
BRANCH   1  11
ATOM     11  C   UNL     1     -62.784 -77.324 223.329  1.00  0.00     0.087 C 
BRANCH  11  12
ATOM     12  C   UNL     1     -63.869 -77.588 222.255  1.00  0.00     0.066 C 
BRANCH  12  13
ATOM     13  C   UNL     1     -65.199 -77.863 222.932  1.00  0.00     0.140 C 
ATOM     14  O   UNL     1     -65.842 -76.932 223.398  1.00  0.00    -0.299 OA
BRANCH  13  15
ATOM     15  C   UNL     1     -65.758 -79.257 223.028  1.00  0.00     0.106 CG0
ATOM     16  G   UNL     1     -65.986 -79.633 224.476  1.00  0.00     0.000 G0
ENDBRANCH  13  15
ENDBRANCH  12  13
BRANCH  12  17
ATOM     17  C   UNL     1     -64.010 -76.403 221.249  1.00  0.00    -0.006 C 
ATOM     18  C   UNL     1     -63.524 -75.069 221.846  1.00  0.00     0.008 C 
ATOM     19  C   UNL     1     -63.228 -76.679 219.951  1.00  0.00     0.008 C 
ENDBRANCH  12  17
ENDBRANCH  11  12
ENDBRANCH   1  11
TORSDOF 1
ENDMDL
MODEL 7
REMARK VINA RESULT:    -3.600      9.539     11.878
REMARK INTER + INTRA:          -5.646
REMARK INTER:                  -5.603
REMARK INTRA:                  -0.043
REMARK UNBOUND:                -0.152
REMARK SMILES CC1=CCC[C@H](C)C(=O)C[C@H](C(C)C)C(=O)C1
REMARK SMILES IDX 8 1 9 2 6 3 7 4 5 5 4 6 3 7 2 8 1 9 10 11 11 12 15 13 16 14
REMARK SMILES IDX 17 15 12 17 13 18 14 19
REMARK H PARENT
REMARK Flexibility Score: 70.00
ROOT
ATOM      1  C   UNL     1     -68.980 -75.613 216.085  1.00  0.00     0.136 C 
ATOM      2  O   UNL     1     -69.187 -74.814 216.986  1.00  0.00    -0.299 OA
ENDROOT
BRANCH   1   3
ATOM      3  C   UNL     1     -67.632 -75.648 215.398  1.00  0.00     0.053 C 
ATOM      4  C   UNL     1     -66.856 -74.370 215.733  1.00  0.00     0.016 C 
BRANCH   3   5
ATOM      5  C   UNL     1     -66.801 -76.895 215.777  1.00  0.00     0.015 C 
BRANCH   5   6
ATOM      6  C   UNL     1     -67.027 -78.094 214.837  1.00  0.00     0.028 C 
BRANCH   6   7
ATOM      7  C   UNL     1     -67.213 -77.647 213.404  1.00  0.00    -0.028 C 
ATOM      8  C   UNL     1     -68.380 -77.620 212.718  1.00  0.00    -0.070 CG0
ATOM      9  C   UNL     1     -68.353 -77.115 211.297  1.00  0.00     0.039 C 
ATOM     10  G   UNL     1     -69.693 -78.127 213.275  1.00  0.00     0.000 G0
ENDBRANCH   6   7
ENDBRANCH   5   6
ENDBRANCH   3   5
ENDBRANCH   1   3
BRANCH   1  11
ATOM     11  C   UNL     1     -70.089 -76.535 215.638  1.00  0.00     0.087 C 
BRANCH  11  12
ATOM     12  C   UNL     1     -70.820 -76.015 214.376  1.00  0.00     0.066 C 
BRANCH  12  13
ATOM     13  C   UNL     1     -70.746 -77.061 213.278  1.00  0.00     0.140 C 
ATOM     14  O   UNL     1     -71.549 -77.026 212.356  1.00  0.00    -0.299 OA
BRANCH  13  15
ATOM     15  C   UNL     1     -69.691 -78.134 213.287  1.00  0.00     0.106 CG0
ATOM     16  G   UNL     1     -68.396 -77.603 212.710  1.00  0.00     0.000 G0
ENDBRANCH  13  15
ENDBRANCH  12  13
BRANCH  12  17
ATOM     17  C   UNL     1     -72.308 -75.640 214.663  1.00  0.00    -0.006 C 
ATOM     18  C   UNL     1     -72.983 -76.627 215.634  1.00  0.00     0.008 C 
ATOM     19  C   UNL     1     -72.421 -74.218 215.244  1.00  0.00     0.008 C 
ENDBRANCH  12  17
ENDBRANCH  11  12
ENDBRANCH   1  11
TORSDOF 1
ENDMDL
MODEL 8
REMARK VINA RESULT:    -3.462      1.957      4.311
REMARK INTER + INTRA:          -5.435
REMARK INTER:                  -5.242
REMARK INTRA:                  -0.193
REMARK UNBOUND:                -0.152
REMARK SMILES CC1=CCC[C@H](C)C(=O)C[C@H](C(C)C)C(=O)C1
REMARK SMILES IDX 8 1 9 2 6 3 7 4 5 5 4 6 3 7 2 8 1 9 10 11 11 12 15 13 16 14
REMARK SMILES IDX 17 15 12 17 13 18 14 19
REMARK H PARENT
REMARK Flexibility Score: 70.00
ROOT
ATOM      1  C   UNL     1     -63.754 -78.067 223.983  1.00  0.00     0.136 C 
ATOM      2  O   UNL     1     -64.367 -77.980 225.037  1.00  0.00    -0.299 OA
ENDROOT
BRANCH   1   3
ATOM      3  C   UNL     1     -64.424 -77.682 222.682  1.00  0.00     0.053 C 
ATOM      4  C   UNL     1     -65.706 -78.502 222.507  1.00  0.00     0.016 C 
BRANCH   3   5
ATOM      5  C   UNL     1     -64.738 -76.171 222.598  1.00  0.00     0.015 C 
BRANCH   5   6
ATOM      6  C   UNL     1     -63.584 -75.334 222.012  1.00  0.00     0.028 C 
BRANCH   6   7
ATOM      7  C   UNL     1     -63.046 -75.948 220.739  1.00  0.00    -0.028 C 
ATOM      8  C   UNL     1     -61.925 -76.697 220.622  1.00  0.00    -0.070 CG0
ATOM      9  C   UNL     1     -61.575 -77.237 219.258  1.00  0.00     0.039 C 
ATOM     10  G   UNL     1     -60.974 -76.969 221.768  1.00  0.00     0.000 G0
ENDBRANCH   6   7
ENDBRANCH   5   6
ENDBRANCH   3   5
ENDBRANCH   1   3
BRANCH   1  11
ATOM     11  C   UNL     1     -62.341 -78.600 223.986  1.00  0.00     0.087 C 
BRANCH  11  12
ATOM     12  C   UNL     1     -61.957 -79.273 222.645  1.00  0.00     0.066 C 
BRANCH  12  13
ATOM     13  C   UNL     1     -60.853 -78.476 221.974  1.00  0.00     0.140 C 
ATOM     14  O   UNL     1     -59.847 -79.052 221.581  1.00  0.00    -0.299 OA
BRANCH  13  15
ATOM     15  C   UNL     1     -60.973 -76.992 221.762  1.00  0.00     0.106 CG0
ATOM     16  G   UNL     1     -61.916 -76.700 220.613  1.00  0.00     0.000 G0
ENDBRANCH  13  15
ENDBRANCH  12  13
BRANCH  12  17
ATOM     17  C   UNL     1     -61.514 -80.758 222.831  1.00  0.00    -0.006 C 
ATOM     18  C   UNL     1     -60.921 -81.020 224.228  1.00  0.00     0.008 C 
ATOM     19  C   UNL     1     -62.694 -81.722 222.605  1.00  0.00     0.008 C 
ENDBRANCH  12  17
ENDBRANCH  11  12
ENDBRANCH   1  11
TORSDOF 1
ENDMDL
MODEL 9
REMARK VINA RESULT:    -3.461      2.194      4.533
REMARK INTER + INTRA:          -5.434
REMARK INTER:                  -5.352
REMARK INTRA:                  -0.082
REMARK UNBOUND:                -0.152
REMARK SMILES CC1=CCC[C@H](C)C(=O)C[C@H](C(C)C)C(=O)C1
REMARK SMILES IDX 8 1 9 2 6 3 7 4 5 5 4 6 3 7 2 8 1 9 10 11 11 12 15 13 16 14
REMARK SMILES IDX 17 15 12 17 13 18 14 19
REMARK H PARENT
REMARK Flexibility Score: 70.00
ROOT
ATOM      1  C   UNL     1     -62.529 -79.177 225.438  1.00  0.00     0.136 C 
ATOM      2  O   UNL     1     -62.426 -79.635 226.566  1.00  0.00    -0.299 OA
ENDROOT
BRANCH   1   3
ATOM      3  C   UNL     1     -63.893 -78.842 224.875  1.00  0.00     0.053 C 
ATOM      4  C   UNL     1     -64.848 -78.501 226.024  1.00  0.00     0.016 C 
BRANCH   3   5
ATOM      5  C   UNL     1     -63.848 -77.684 223.853  1.00  0.00     0.015 C 
BRANCH   5   6
ATOM      6  C   UNL     1     -64.319 -78.089 222.443  1.00  0.00     0.028 C 
BRANCH   6   7
ATOM      7  C   UNL     1     -63.512 -77.394 221.369  1.00  0.00    -0.028 C 
ATOM      8  C   UNL     1     -62.459 -77.913 220.695  1.00  0.00    -0.070 CG0
ATOM      9  C   UNL     1     -61.803 -77.058 219.641  1.00  0.00     0.039 C 
ATOM     10  G   UNL     1     -61.868 -79.277 220.985  1.00  0.00     0.000 G0
ENDBRANCH   6   7
ENDBRANCH   5   6
ENDBRANCH   3   5
ENDBRANCH   1   3
BRANCH   1  11
ATOM     11  C   UNL     1     -61.288 -78.987 224.598  1.00  0.00     0.087 C 
BRANCH  11  12
ATOM     12  C   UNL     1     -61.208 -79.991 223.422  1.00  0.00     0.066 C 
BRANCH  12  13
ATOM     13  C   UNL     1     -60.916 -79.244 222.133  1.00  0.00     0.140 C 
ATOM     14  O   UNL     1     -59.881 -78.598 222.032  1.00  0.00    -0.299 OA
BRANCH  13  15
ATOM     15  C   UNL     1     -61.863 -79.293 220.966  1.00  0.00     0.106 CG0
ATOM     16  G   UNL     1     -62.457 -77.923 220.713  1.00  0.00     0.000 G0
ENDBRANCH  13  15
ENDBRANCH  12  13
BRANCH  12  17
ATOM     17  C   UNL     1     -60.133 -81.098 223.659  1.00  0.00    -0.006 C 
ATOM     18  C   UNL     1     -59.065 -80.667 224.682  1.00  0.00     0.008 C 
ATOM     19  C   UNL     1     -60.781 -82.409 224.142  1.00  0.00     0.008 C 
ENDBRANCH  12  17
ENDBRANCH  11  12
ENDBRANCH   1  11
TORSDOF 1
ENDMDL
