MODEL 1
REMARK VINA RESULT:    -2.846      0.000      0.000
REMARK INTER + INTRA:          -2.846
REMARK INTER:                  -2.846
REMARK INTRA:                   0.000
REMARK UNBOUND:                 0.000
REMARK SMILES CC(=O)[O-]
REMARK SMILES IDX 1 1 2 2 3 3 4 4
REMARK H PARENT
REMARK Flexibility Score: inf
ROOT
ATOM      1  C   UNL     1     112.229 178.166 115.160  1.00  0.00     0.063 C 
ATOM      2  C   UNL     1     113.086 177.065 115.683  1.00  0.00     0.038 C 
ATOM      3  O   UNL     1     112.573 175.958 115.996  1.00  0.00    -0.550 OA
ATOM      4  O   UNL     1     114.445 177.275 115.880  1.00  0.00    -0.550 OA
ENDROOT
TORSDOF 0
ENDMDL
MODEL 2
REMARK VINA RESULT:    -2.821      1.438      1.769
REMARK INTER + INTRA:          -2.821
REMARK INTER:                  -2.821
REMARK INTRA:                   0.000
REMARK UNBOUND:                 0.000
REMARK SMILES CC(=O)[O-]
REMARK SMILES IDX 1 1 2 2 3 3 4 4
REMARK H PARENT
REMARK Flexibility Score: inf
ROOT
ATOM      1  C   UNL     1     114.443 177.187 116.033  1.00  0.00     0.063 C 
ATOM      2  C   UNL     1     112.998 176.965 115.740  1.00  0.00     0.038 C 
ATOM      3  O   UNL     1     112.463 175.856 116.002  1.00  0.00    -0.550 OA
ATOM      4  O   UNL     1     112.251 177.963 115.127  1.00  0.00    -0.550 OA
ENDROOT
TORSDOF 0
ENDMDL
MODEL 3
REMARK VINA RESULT:    -2.514     10.955     11.527
REMARK INTER + INTRA:          -2.514
REMARK INTER:                  -2.514
REMARK INTRA:                   0.000
REMARK UNBOUND:                 0.000
REMARK SMILES CC(=O)[O-]
REMARK SMILES IDX 1 1 2 2 3 3 4 4
REMARK H PARENT
REMARK Flexibility Score: inf
ROOT
ATOM      1  C   UNL     1     116.709 165.385 115.848  1.00  0.00     0.063 C 
ATOM      2  C   UNL     1     115.817 166.106 116.801  1.00  0.00     0.038 C 
ATOM      3  O   UNL     1     115.366 165.514 117.816  1.00  0.00    -0.550 OA
ATOM      4  O   UNL     1     115.438 167.417 116.542  1.00  0.00    -0.550 OA
ENDROOT
TORSDOF 0
ENDMDL
MODEL 4
REMARK VINA RESULT:    -2.482      9.260      9.906
REMARK INTER + INTRA:          -2.482
REMARK INTER:                  -2.482
REMARK INTRA:                   0.000
REMARK UNBOUND:                 0.000
REMARK SMILES CC(=O)[O-]
REMARK SMILES IDX 1 1 2 2 3 3 4 4
REMARK H PARENT
REMARK Flexibility Score: inf
ROOT
ATOM      1  C   UNL     1     122.363 179.396 115.115  1.00  0.00     0.063 C 
ATOM      2  C   UNL     1     122.796 178.342 116.075  1.00  0.00     0.038 C 
ATOM      3  O   UNL     1     123.930 178.408 116.618  1.00  0.00    -0.550 OA
ATOM      4  O   UNL     1     121.971 177.255 116.333  1.00  0.00    -0.550 OA
ENDROOT
TORSDOF 0
ENDMDL
MODEL 5
REMARK VINA RESULT:    -2.404     11.556     11.919
REMARK INTER + INTRA:          -2.404
REMARK INTER:                  -2.404
REMARK INTRA:                   0.000
REMARK UNBOUND:                 0.000
REMARK SMILES CC(=O)[O-]
REMARK SMILES IDX 1 1 2 2 3 3 4 4
REMARK H PARENT
REMARK Flexibility Score: inf
ROOT
ATOM      1  C   UNL     1     115.558 166.943 116.527  1.00  0.00     0.063 C 
ATOM      2  C   UNL     1     116.382 165.704 116.440  1.00  0.00     0.038 C 
ATOM      3  O   UNL     1     116.818 165.159 117.488  1.00  0.00    -0.550 OA
ATOM      4  O   UNL     1     116.717 165.177 115.199  1.00  0.00    -0.550 OA
ENDROOT
TORSDOF 0
ENDMDL
MODEL 6
REMARK VINA RESULT:    -2.341      9.211      9.845
REMARK INTER + INTRA:          -2.341
REMARK INTER:                  -2.341
REMARK INTRA:                   0.000
REMARK UNBOUND:                 0.000
REMARK SMILES CC(=O)[O-]
REMARK SMILES IDX 1 1 2 2 3 3 4 4
REMARK H PARENT
REMARK Flexibility Score: inf
ROOT
ATOM      1  C   UNL     1     122.202 176.930 116.621  1.00  0.00     0.063 C 
ATOM      2  C   UNL     1     122.660 178.251 116.105  1.00  0.00     0.038 C 
ATOM      3  O   UNL     1     123.821 178.664 116.364  1.00  0.00    -0.550 OA
ATOM      4  O   UNL     1     121.788 179.056 115.383  1.00  0.00    -0.550 OA
ENDROOT
TORSDOF 0
ENDMDL
MODEL 7
REMARK VINA RESULT:    -2.334     13.150     13.593
REMARK INTER + INTRA:          -2.334
REMARK INTER:                  -2.334
REMARK INTRA:                   0.000
REMARK UNBOUND:                 0.000
REMARK SMILES CC(=O)[O-]
REMARK SMILES IDX 1 1 2 2 3 3 4 4
REMARK H PARENT
REMARK Flexibility Score: inf
ROOT
ATOM      1  C   UNL     1     113.372 166.024 121.335  1.00  0.00     0.063 C 
ATOM      2  C   UNL     1     114.298 165.392 122.317  1.00  0.00     0.038 C 
ATOM      3  O   UNL     1     115.452 165.035 121.959  1.00  0.00    -0.550 OA
ATOM      4  O   UNL     1     113.871 165.143 123.615  1.00  0.00    -0.550 OA
ENDROOT
TORSDOF 0
ENDMDL
MODEL 8
REMARK VINA RESULT:    -2.322     13.760     14.344
REMARK INTER + INTRA:          -2.322
REMARK INTER:                  -2.322
REMARK INTRA:                   0.000
REMARK UNBOUND:                 0.000
REMARK SMILES CC(=O)[O-]
REMARK SMILES IDX 1 1 2 2 3 3 4 4
REMARK H PARENT
REMARK Flexibility Score: inf
ROOT
ATOM      1  C   UNL     1     115.319 164.637 119.269  1.00  0.00     0.063 C 
ATOM      2  C   UNL     1     116.067 163.975 120.376  1.00  0.00     0.038 C 
ATOM      3  O   UNL     1     116.743 164.666 121.184  1.00  0.00    -0.550 OA
ATOM      4  O   UNL     1     116.065 162.591 120.487  1.00  0.00    -0.550 OA
ENDROOT
TORSDOF 0
ENDMDL
MODEL 9
REMARK VINA RESULT:    -2.314     13.306     13.816
REMARK INTER + INTRA:          -2.314
REMARK INTER:                  -2.314
REMARK INTRA:                   0.000
REMARK UNBOUND:                 0.000
REMARK SMILES CC(=O)[O-]
REMARK SMILES IDX 1 1 2 2 3 3 4 4
REMARK H PARENT
REMARK Flexibility Score: inf
ROOT
ATOM      1  C   UNL     1     116.024 163.089 120.268  1.00  0.00     0.063 C 
ATOM      2  C   UNL     1     115.669 164.333 119.528  1.00  0.00     0.038 C 
ATOM      3  O   UNL     1     116.388 164.728 118.572  1.00  0.00    -0.550 OA
ATOM      4  O   UNL     1     114.575 165.091 119.925  1.00  0.00    -0.550 OA
ENDROOT
TORSDOF 0
ENDMDL
