MODEL 1
REMARK VINA RESULT:    -5.756      0.000      0.000
REMARK INTER + INTRA:          -5.756
REMARK INTER:                  -5.756
REMARK INTRA:                   0.000
REMARK UNBOUND:                 0.000
REMARK SMILES CC(C)=C1CC[C@H](C)CC1=O
REMARK SMILES IDX 8 1 7 2 6 3 5 4 4 5 2 6 1 7 3 8 10 9 11 10 9 11
REMARK H PARENT
REMARK Flexibility Score: inf
ROOT
ATOM      1  C   UNL     1      15.206 -32.802  21.113  1.00  0.00     0.008 C 
ATOM      2  C   UNL     1      14.157 -32.074  21.962  1.00  0.00    -0.006 C 
ATOM      3  C   UNL     1      14.832 -31.070  22.911  1.00  0.00     0.008 C 
ATOM      4  C   UNL     1      13.807 -30.406  23.839  1.00  0.00     0.039 C 
ATOM      5  C   UNL     1      12.638 -29.795  23.077  1.00  0.00    -0.006 C 
ATOM      6  C   UNL     1      11.999 -28.679  23.535  1.00  0.00    -0.070 C 
ATOM      7  C   UNL     1      12.411 -28.014  24.827  1.00  0.00     0.039 C 
ATOM      8  C   UNL     1      10.875 -28.031  22.759  1.00  0.00     0.039 C 
ATOM      9  C   UNL     1      12.171 -30.552  21.878  1.00  0.00     0.159 C 
ATOM     10  O   UNL     1      10.959 -30.546  21.531  1.00  0.00    -0.295 OA
ATOM     11  C   UNL     1      13.148 -31.346  21.061  1.00  0.00     0.084 C 
ENDROOT
TORSDOF 0
ENDMDL
MODEL 2
REMARK VINA RESULT:    -5.336      1.372      4.113
REMARK INTER + INTRA:          -5.336
REMARK INTER:                  -5.336
REMARK INTRA:                   0.000
REMARK UNBOUND:                 0.000
REMARK SMILES CC(C)=C1CC[C@H](C)CC1=O
REMARK SMILES IDX 8 1 7 2 6 3 5 4 4 5 2 6 1 7 3 8 10 9 11 10 9 11
REMARK H PARENT
REMARK Flexibility Score: inf
ROOT
ATOM      1  C   UNL     1      10.875 -28.552  22.792  1.00  0.00     0.008 C 
ATOM      2  C   UNL     1      12.203 -29.276  22.539  1.00  0.00    -0.006 C 
ATOM      3  C   UNL     1      12.947 -29.520  23.862  1.00  0.00     0.008 C 
ATOM      4  C   UNL     1      14.323 -30.151  23.618  1.00  0.00     0.039 C 
ATOM      5  C   UNL     1      14.248 -31.400  22.751  1.00  0.00    -0.006 C 
ATOM      6  C   UNL     1      15.127 -32.432  22.915  1.00  0.00    -0.070 C 
ATOM      7  C   UNL     1      16.224 -32.370  23.952  1.00  0.00     0.039 C 
ATOM      8  C   UNL     1      15.027 -33.701  22.099  1.00  0.00     0.039 C 
ATOM      9  C   UNL     1      13.240 -31.374  21.650  1.00  0.00     0.159 C 
ATOM     10  O   UNL     1      13.442 -31.979  20.562  1.00  0.00    -0.295 OA
ATOM     11  C   UNL     1      11.958 -30.611  21.820  1.00  0.00     0.084 C 
ENDROOT
TORSDOF 0
ENDMDL
MODEL 3
REMARK VINA RESULT:    -5.324      1.741      4.435
REMARK INTER + INTRA:          -5.324
REMARK INTER:                  -5.324
REMARK INTRA:                   0.000
REMARK UNBOUND:                 0.000
REMARK SMILES CC(C)=C1CC[C@H](C)CC1=O
REMARK SMILES IDX 8 1 7 2 6 3 5 4 4 5 2 6 1 7 3 8 10 9 11 10 9 11
REMARK H PARENT
REMARK Flexibility Score: inf
ROOT
ATOM      1  C   UNL     1      13.502 -26.117  24.997  1.00  0.00     0.008 C 
ATOM      2  C   UNL     1      13.111 -27.519  24.513  1.00  0.00    -0.006 C 
ATOM      3  C   UNL     1      11.873 -27.451  23.604  1.00  0.00     0.008 C 
ATOM      4  C   UNL     1      11.407 -28.854  23.194  1.00  0.00     0.039 C 
ATOM      5  C   UNL     1      12.528 -29.691  22.594  1.00  0.00    -0.006 C 
ATOM      6  C   UNL     1      12.278 -30.625  21.629  1.00  0.00    -0.070 C 
ATOM      7  C   UNL     1      10.875 -30.880  21.131  1.00  0.00     0.039 C 
ATOM      8  C   UNL     1      13.390 -31.421  20.986  1.00  0.00     0.039 C 
ATOM      9  C   UNL     1      13.880 -29.508  23.201  1.00  0.00     0.159 C 
ATOM     10  O   UNL     1      14.704 -30.460  23.264  1.00  0.00    -0.295 OA
ATOM     11  C   UNL     1      14.279 -28.174  23.761  1.00  0.00     0.084 C 
ENDROOT
TORSDOF 0
ENDMDL
MODEL 4
REMARK VINA RESULT:    -5.231      2.120      5.326
REMARK INTER + INTRA:          -5.231
REMARK INTER:                  -5.231
REMARK INTRA:                   0.000
REMARK UNBOUND:                 0.000
REMARK SMILES CC(C)=C1CC[C@H](C)CC1=O
REMARK SMILES IDX 8 1 7 2 6 3 5 4 4 5 2 6 1 7 3 8 10 9 11 10 9 11
REMARK H PARENT
REMARK Flexibility Score: inf
ROOT
ATOM      1  C   UNL     1      12.518 -29.503  22.929  1.00  0.00     0.008 C 
ATOM      2  C   UNL     1      12.915 -30.930  22.530  1.00  0.00    -0.006 C 
ATOM      3  C   UNL     1      13.437 -30.961  21.084  1.00  0.00     0.008 C 
ATOM      4  C   UNL     1      13.742 -32.396  20.634  1.00  0.00     0.039 C 
ATOM      5  C   UNL     1      14.660 -33.129  21.603  1.00  0.00    -0.006 C 
ATOM      6  C   UNL     1      15.543 -34.074  21.165  1.00  0.00    -0.070 C 
ATOM      7  C   UNL     1      15.635 -34.445  19.703  1.00  0.00     0.039 C 
ATOM      8  C   UNL     1      16.498 -34.768  22.109  1.00  0.00     0.039 C 
ATOM      9  C   UNL     1      14.451 -32.837  23.052  1.00  0.00     0.159 C 
ATOM     10  O   UNL     1      14.653 -33.715  23.933  1.00  0.00    -0.295 OA
ATOM     11  C   UNL     1      13.986 -31.477  23.486  1.00  0.00     0.084 C 
ENDROOT
TORSDOF 0
ENDMDL
MODEL 5
REMARK VINA RESULT:    -5.180      8.659      9.981
REMARK INTER + INTRA:          -5.180
REMARK INTER:                  -5.180
REMARK INTRA:                   0.000
REMARK UNBOUND:                 0.000
REMARK SMILES CC(C)=C1CC[C@H](C)CC1=O
REMARK SMILES IDX 8 1 7 2 6 3 5 4 4 5 2 6 1 7 3 8 10 9 11 10 9 11
REMARK H PARENT
REMARK Flexibility Score: inf
ROOT
ATOM      1  C   UNL     1      23.585 -24.396  19.892  1.00  0.00     0.008 C 
ATOM      2  C   UNL     1      22.620 -25.328  20.634  1.00  0.00    -0.006 C 
ATOM      3  C   UNL     1      21.314 -25.497  19.841  1.00  0.00     0.008 C 
ATOM      4  C   UNL     1      20.297 -26.344  20.617  1.00  0.00     0.039 C 
ATOM      5  C   UNL     1      20.876 -27.674  21.080  1.00  0.00    -0.006 C 
ATOM      6  C   UNL     1      20.095 -28.789  21.188  1.00  0.00    -0.070 C 
ATOM      7  C   UNL     1      18.618 -28.745  20.870  1.00  0.00     0.039 C 
ATOM      8  C   UNL     1      20.670 -30.127  21.591  1.00  0.00     0.039 C 
ATOM      9  C   UNL     1      22.305 -27.651  21.513  1.00  0.00     0.159 C 
ATOM     10  O   UNL     1      22.726 -28.418  22.421  1.00  0.00    -0.295 OA
ATOM     11  C   UNL     1      23.271 -26.699  20.871  1.00  0.00     0.084 C 
ENDROOT
TORSDOF 0
ENDMDL
MODEL 6
REMARK VINA RESULT:    -5.071      1.688      2.775
REMARK INTER + INTRA:          -5.071
REMARK INTER:                  -5.071
REMARK INTRA:                   0.000
REMARK UNBOUND:                 0.000
REMARK SMILES CC(C)=C1CC[C@H](C)CC1=O
REMARK SMILES IDX 8 1 7 2 6 3 5 4 4 5 2 6 1 7 3 8 10 9 11 10 9 11
REMARK H PARENT
REMARK Flexibility Score: inf
ROOT
ATOM      1  C   UNL     1      16.923 -33.159  21.785  1.00  0.00     0.008 C 
ATOM      2  C   UNL     1      15.846 -32.089  21.567  1.00  0.00    -0.006 C 
ATOM      3  C   UNL     1      14.486 -32.742  21.271  1.00  0.00     0.008 C 
ATOM      4  C   UNL     1      13.421 -31.686  20.950  1.00  0.00     0.039 C 
ATOM      5  C   UNL     1      13.329 -30.605  22.017  1.00  0.00    -0.006 C 
ATOM      6  C   UNL     1      12.145 -29.987  22.302  1.00  0.00    -0.070 C 
ATOM      7  C   UNL     1      10.879 -30.339  21.557  1.00  0.00     0.039 C 
ATOM      8  C   UNL     1      12.030 -28.953  23.398  1.00  0.00     0.039 C 
ATOM      9  C   UNL     1      14.621 -30.187  22.639  1.00  0.00     0.159 C 
ATOM     10  O   UNL     1      14.806 -29.004  23.033  1.00  0.00    -0.295 OA
ATOM     11  C   UNL     1      15.734 -31.181  22.801  1.00  0.00     0.084 C 
ENDROOT
TORSDOF 0
ENDMDL
MODEL 7
REMARK VINA RESULT:    -5.057      2.780      4.356
REMARK INTER + INTRA:          -5.057
REMARK INTER:                  -5.057
REMARK INTRA:                   0.000
REMARK UNBOUND:                 0.000
REMARK SMILES CC(C)=C1CC[C@H](C)CC1=O
REMARK SMILES IDX 8 1 7 2 6 3 5 4 4 5 2 6 1 7 3 8 10 9 11 10 9 11
REMARK H PARENT
REMARK Flexibility Score: inf
ROOT
ATOM      1  C   UNL     1      17.794 -36.182  20.392  1.00  0.00     0.008 C 
ATOM      2  C   UNL     1      16.509 -35.473  20.835  1.00  0.00    -0.006 C 
ATOM      3  C   UNL     1      16.738 -34.711  22.150  1.00  0.00     0.008 C 
ATOM      4  C   UNL     1      15.437 -34.080  22.662  1.00  0.00     0.039 C 
ATOM      5  C   UNL     1      14.745 -33.229  21.606  1.00  0.00    -0.006 C 
ATOM      6  C   UNL     1      14.014 -32.128  21.950  1.00  0.00    -0.070 C 
ATOM      7  C   UNL     1      13.844 -31.719  23.394  1.00  0.00     0.039 C 
ATOM      8  C   UNL     1      13.370 -31.243  20.907  1.00  0.00     0.039 C 
ATOM      9  C   UNL     1      14.821 -33.735  20.204  1.00  0.00     0.159 C 
ATOM     10  O   UNL     1      13.884 -33.536  19.384  1.00  0.00    -0.295 OA
ATOM     11  C   UNL     1      16.026 -34.505  19.745  1.00  0.00     0.084 C 
ENDROOT
TORSDOF 0
ENDMDL
MODEL 8
REMARK VINA RESULT:    -5.026      1.850      4.448
REMARK INTER + INTRA:          -5.026
REMARK INTER:                  -5.026
REMARK INTRA:                   0.000
REMARK UNBOUND:                 0.000
REMARK SMILES CC(C)=C1CC[C@H](C)CC1=O
REMARK SMILES IDX 8 1 7 2 6 3 5 4 4 5 2 6 1 7 3 8 10 9 11 10 9 11
REMARK H PARENT
REMARK Flexibility Score: inf
ROOT
ATOM      1  C   UNL     1      11.863 -28.682  23.843  1.00  0.00     0.008 C 
ATOM      2  C   UNL     1      12.864 -29.187  22.796  1.00  0.00    -0.006 C 
ATOM      3  C   UNL     1      14.289 -28.725  23.143  1.00  0.00     0.008 C 
ATOM      4  C   UNL     1      15.287 -29.135  22.053  1.00  0.00     0.039 C 
ATOM      5  C   UNL     1      15.217 -30.620  21.725  1.00  0.00    -0.006 C 
ATOM      6  C   UNL     1      16.326 -31.312  21.329  1.00  0.00    -0.070 C 
ATOM      7  C   UNL     1      17.666 -30.628  21.182  1.00  0.00     0.039 C 
ATOM      8  C   UNL     1      16.282 -32.798  21.055  1.00  0.00     0.039 C 
ATOM      9  C   UNL     1      13.857 -31.234  21.751  1.00  0.00     0.159 C 
ATOM     10  O   UNL     1      13.551 -32.182  20.979  1.00  0.00    -0.295 OA
ATOM     11  C   UNL     1      12.817 -30.719  22.703  1.00  0.00     0.084 C 
ENDROOT
TORSDOF 0
ENDMDL
MODEL 9
REMARK VINA RESULT:    -5.019      2.035      4.731
REMARK INTER + INTRA:          -5.019
REMARK INTER:                  -5.019
REMARK INTRA:                   0.000
REMARK UNBOUND:                 0.000
REMARK SMILES CC(C)=C1CC[C@H](C)CC1=O
REMARK SMILES IDX 8 1 7 2 6 3 5 4 4 5 2 6 1 7 3 8 10 9 11 10 9 11
REMARK H PARENT
REMARK Flexibility Score: inf
ROOT
ATOM      1  C   UNL     1      11.967 -27.489  24.103  1.00  0.00     0.008 C 
ATOM      2  C   UNL     1      12.735 -28.788  23.834  1.00  0.00    -0.006 C 
ATOM      3  C   UNL     1      12.046 -29.606  22.730  1.00  0.00     0.008 C 
ATOM      4  C   UNL     1      12.743 -30.956  22.520  1.00  0.00     0.039 C 
ATOM      5  C   UNL     1      14.241 -30.811  22.290  1.00  0.00    -0.006 C 
ATOM      6  C   UNL     1      14.924 -31.683  21.492  1.00  0.00    -0.070 C 
ATOM      7  C   UNL     1      14.226 -32.841  20.818  1.00  0.00     0.039 C 
ATOM      8  C   UNL     1      16.400 -31.516  21.210  1.00  0.00     0.039 C 
ATOM      9  C   UNL     1      14.924 -29.740  23.074  1.00  0.00     0.159 C 
ATOM     10  O   UNL     1      16.118 -29.867  23.456  1.00  0.00    -0.295 OA
ATOM     11  C   UNL     1      14.186 -28.482  23.431  1.00  0.00     0.084 C 
ENDROOT
TORSDOF 0
ENDMDL
