MODEL 1
REMARK VINA RESULT:    -4.318      0.000      0.000
REMARK INTER + INTRA:          -6.939
REMARK INTER:                  -6.591
REMARK INTRA:                  -0.349
REMARK UNBOUND:                -0.349
REMARK SMILES CC1=CCC[C@H](C)C(=O)C[C@H](C(C)C)C(=O)C1
REMARK SMILES IDX 8 1 9 2 6 3 7 4 5 5 4 6 3 7 2 8 1 9 10 11 11 12 15 13 16 14
REMARK SMILES IDX 17 15 12 17 13 18 14 19
REMARK H PARENT
REMARK Flexibility Score: 70.00
ROOT
ATOM      1  C   UNL     1      49.245   2.681  16.778  1.00  0.00     0.136 C 
ATOM      2  O   UNL     1      49.108   3.246  15.702  1.00  0.00    -0.299 OA
ENDROOT
BRANCH   1   3
ATOM      3  C   UNL     1      48.225   1.658  17.243  1.00  0.00     0.053 C 
ATOM      4  C   UNL     1      48.674   0.901  18.504  1.00  0.00     0.016 C 
BRANCH   3   5
ATOM      5  C   UNL     1      46.830   2.294  17.404  1.00  0.00     0.015 C 
BRANCH   5   6
ATOM      6  C   UNL     1      46.508   2.743  18.843  1.00  0.00     0.028 C 
BRANCH   6   7
ATOM      7  C   UNL     1      46.573   4.242  18.974  1.00  0.00    -0.028 C 
ATOM      8  C   UNL     1      47.622   4.926  19.491  1.00  0.00    -0.070 CG0
ATOM      9  C   UNL     1      47.550   6.431  19.505  1.00  0.00     0.039 C 
ATOM     10  G   UNL     1      48.860   4.251  20.058  1.00  0.00     0.000 G0
ENDBRANCH   6   7
ENDBRANCH   5   6
ENDBRANCH   3   5
ENDBRANCH   1   3
BRANCH   1  11
ATOM     11  C   UNL     1      50.420   3.025  17.664  1.00  0.00     0.087 C 
BRANCH  11  12
ATOM     12  C   UNL     1      50.561   4.531  18.014  1.00  0.00     0.066 C 
BRANCH  12  13
ATOM     13  C   UNL     1      50.159   4.785  19.464  1.00  0.00     0.140 C 
ATOM     14  O   UNL     1      50.927   5.415  20.177  1.00  0.00    -0.299 OA
BRANCH  13  15
ATOM     15  C   UNL     1      48.874   4.248  20.060  1.00  0.00     0.106 CG0
ATOM     16  G   UNL     1      47.633   4.909  19.481  1.00  0.00     0.000 G0
ENDBRANCH  13  15
ENDBRANCH  12  13
BRANCH  12  17
ATOM     17  C   UNL     1      51.926   5.191  17.618  1.00  0.00    -0.006 C 
ATOM     18  C   UNL     1      51.802   5.931  16.272  1.00  0.00     0.008 C 
ATOM     19  C   UNL     1      53.068   4.166  17.504  1.00  0.00     0.008 C 
ENDBRANCH  12  17
ENDBRANCH  11  12
ENDBRANCH   1  11
TORSDOF 1
ENDMDL
MODEL 2
REMARK VINA RESULT:    -4.240      2.133      4.862
REMARK INTER + INTRA:          -6.820
REMARK INTER:                  -6.686
REMARK INTRA:                  -0.134
REMARK UNBOUND:                -0.349
REMARK SMILES CC1=CCC[C@H](C)C(=O)C[C@H](C(C)C)C(=O)C1
REMARK SMILES IDX 8 1 9 2 6 3 7 4 5 5 4 6 3 7 2 8 1 9 10 11 11 12 15 13 16 14
REMARK SMILES IDX 17 15 12 17 13 18 14 19
REMARK H PARENT
REMARK Flexibility Score: 70.00
ROOT
ATOM      1  C   UNL     1      48.363   5.514  19.825  1.00  0.00     0.136 C 
ATOM      2  O   UNL     1      47.274   5.804  19.350  1.00  0.00    -0.299 OA
ENDROOT
BRANCH   1   3
ATOM      3  C   UNL     1      49.373   6.600  20.146  1.00  0.00     0.053 C 
ATOM      4  C   UNL     1      50.563   6.079  20.971  1.00  0.00     0.016 C 
BRANCH   3   5
ATOM      5  C   UNL     1      49.821   7.340  18.871  1.00  0.00     0.015 C 
BRANCH   5   6
ATOM      6  C   UNL     1      51.193   6.889  18.332  1.00  0.00     0.028 C 
BRANCH   6   7
ATOM      7  C   UNL     1      51.042   6.054  17.087  1.00  0.00    -0.028 C 
ATOM      8  C   UNL     1      51.127   4.704  17.050  1.00  0.00    -0.070 CG0
ATOM      9  C   UNL     1      50.902   4.014  15.729  1.00  0.00     0.039 C 
ATOM     10  G   UNL     1      51.443   3.853  18.270  1.00  0.00     0.000 G0
ENDBRANCH   6   7
ENDBRANCH   5   6
ENDBRANCH   3   5
ENDBRANCH   1   3
BRANCH   1  11
ATOM     11  C   UNL     1      48.716   4.064  20.064  1.00  0.00     0.087 C 
BRANCH  11  12
ATOM     12  C   UNL     1      48.911   3.214  18.780  1.00  0.00     0.066 C 
BRANCH  12  13
ATOM     13  C   UNL     1      50.377   2.827  18.609  1.00  0.00     0.140 C 
ATOM     14  O   UNL     1      50.693   1.659  18.788  1.00  0.00    -0.299 OA
BRANCH  13  15
ATOM     15  C   UNL     1      51.455   3.838  18.275  1.00  0.00     0.106 CG0
ATOM     16  G   UNL     1      51.103   4.701  17.074  1.00  0.00     0.000 G0
ENDBRANCH  13  15
ENDBRANCH  12  13
BRANCH  12  17
ATOM     17  C   UNL     1      47.921   2.012  18.610  1.00  0.00    -0.006 C 
ATOM     18  C   UNL     1      47.970   1.466  17.170  1.00  0.00     0.008 C 
ATOM     19  C   UNL     1      46.467   2.393  18.935  1.00  0.00     0.008 C 
ENDBRANCH  12  17
ENDBRANCH  11  12
ENDBRANCH   1  11
TORSDOF 1
ENDMDL
MODEL 3
REMARK VINA RESULT:    -3.977      2.087      3.296
REMARK INTER + INTRA:          -6.418
REMARK INTER:                  -6.180
REMARK INTRA:                  -0.238
REMARK UNBOUND:                -0.349
REMARK SMILES CC1=CCC[C@H](C)C(=O)C[C@H](C(C)C)C(=O)C1
REMARK SMILES IDX 8 1 9 2 6 3 7 4 5 5 4 6 3 7 2 8 1 9 10 11 11 12 15 13 16 14
REMARK SMILES IDX 17 15 12 17 13 18 14 19
REMARK H PARENT
REMARK Flexibility Score: 70.00
ROOT
ATOM      1  C   UNL     1      49.076   2.051  18.482  1.00  0.00     0.136 C 
ATOM      2  O   UNL     1      48.917   0.874  18.775  1.00  0.00    -0.299 OA
ENDROOT
BRANCH   1   3
ATOM      3  C   UNL     1      47.941   3.044  18.651  1.00  0.00     0.053 C 
ATOM      4  C   UNL     1      46.556   2.379  18.593  1.00  0.00     0.016 C 
BRANCH   3   5
ATOM      5  C   UNL     1      48.132   3.897  19.921  1.00  0.00     0.015 C 
BRANCH   5   6
ATOM      6  C   UNL     1      48.576   5.347  19.642  1.00  0.00     0.028 C 
BRANCH   6   7
ATOM      7  C   UNL     1      49.955   5.609  20.188  1.00  0.00    -0.028 C 
ATOM      8  C   UNL     1      51.031   5.943  19.437  1.00  0.00    -0.070 CG0
ATOM      9  C   UNL     1      52.332   6.221  20.145  1.00  0.00     0.039 C 
ATOM     10  G   UNL     1      50.991   6.045  17.921  1.00  0.00     0.000 G0
ENDBRANCH   6   7
ENDBRANCH   5   6
ENDBRANCH   3   5
ENDBRANCH   1   3
BRANCH   1  11
ATOM     11  C   UNL     1      50.401   2.512  17.919  1.00  0.00     0.087 C 
BRANCH  11  12
ATOM     12  C   UNL     1      50.313   3.682  16.903  1.00  0.00     0.066 C 
BRANCH  12  13
ATOM     13  C   UNL     1      51.363   4.744  17.214  1.00  0.00     0.140 C 
ATOM     14  O   UNL     1      52.528   4.510  16.927  1.00  0.00    -0.299 OA
BRANCH  13  15
ATOM     15  C   UNL     1      51.023   6.050  17.904  1.00  0.00     0.106 CG0
ATOM     16  G   UNL     1      51.019   5.933  19.420  1.00  0.00     0.000 G0
ENDBRANCH  13  15
ENDBRANCH  12  13
BRANCH  12  17
ATOM     17  C   UNL     1      50.274   3.263  15.393  1.00  0.00    -0.006 C 
ATOM     18  C   UNL     1      50.520   4.482  14.484  1.00  0.00     0.008 C 
ATOM     19  C   UNL     1      48.934   2.622  14.992  1.00  0.00     0.008 C 
ENDBRANCH  12  17
ENDBRANCH  11  12
ENDBRANCH   1  11
TORSDOF 1
ENDMDL
MODEL 4
REMARK VINA RESULT:    -3.766      2.773      5.530
REMARK INTER + INTRA:          -6.096
REMARK INTER:                  -6.021
REMARK INTRA:                  -0.075
REMARK UNBOUND:                -0.349
REMARK SMILES CC1=CCC[C@H](C)C(=O)C[C@H](C(C)C)C(=O)C1
REMARK SMILES IDX 8 1 9 2 6 3 7 4 5 5 4 6 3 7 2 8 1 9 10 11 11 12 15 13 16 14
REMARK SMILES IDX 17 15 12 17 13 18 14 19
REMARK H PARENT
REMARK Flexibility Score: 70.00
ROOT
ATOM      1  C   UNL     1      49.766   3.449  15.157  1.00  0.00     0.136 C 
ATOM      2  O   UNL     1      48.887   2.633  14.922  1.00  0.00    -0.299 OA
ENDROOT
BRANCH   1   3
ATOM      3  C   UNL     1      50.503   4.131  14.020  1.00  0.00     0.053 C 
ATOM      4  C   UNL     1      50.557   5.660  14.179  1.00  0.00     0.016 C 
BRANCH   3   5
ATOM      5  C   UNL     1      51.899   3.513  13.809  1.00  0.00     0.015 C 
BRANCH   5   6
ATOM      6  C   UNL     1      53.039   4.285  14.503  1.00  0.00     0.028 C 
BRANCH   6   7
ATOM      7  C   UNL     1      53.989   3.346  15.200  1.00  0.00    -0.028 C 
ATOM      8  C   UNL     1      53.933   3.028  16.514  1.00  0.00    -0.070 CG0
ATOM      9  C   UNL     1      54.930   2.031  17.047  1.00  0.00     0.039 C 
ATOM     10  G   UNL     1      52.921   3.630  17.476  1.00  0.00     0.000 G0
ENDBRANCH   6   7
ENDBRANCH   5   6
ENDBRANCH   3   5
ENDBRANCH   1   3
BRANCH   1  11
ATOM     11  C   UNL     1      50.142   3.757  16.589  1.00  0.00     0.087 C 
BRANCH  11  12
ATOM     12  C   UNL     1      50.465   2.518  17.465  1.00  0.00     0.066 C 
BRANCH  12  13
ATOM     13  C   UNL     1      51.896   2.590  17.991  1.00  0.00     0.140 C 
ATOM     14  O   UNL     1      52.230   1.811  18.873  1.00  0.00    -0.299 OA
BRANCH  13  15
ATOM     15  C   UNL     1      52.897   3.615  17.497  1.00  0.00     0.106 CG0
ATOM     16  G   UNL     1      53.913   3.028  16.530  1.00  0.00     0.000 G0
ENDBRANCH  13  15
ENDBRANCH  12  13
BRANCH  12  17
ATOM     17  C   UNL     1      49.408   2.179  18.571  1.00  0.00    -0.006 C 
ATOM     18  C   UNL     1      48.168   1.507  17.950  1.00  0.00     0.008 C 
ATOM     19  C   UNL     1      48.946   3.424  19.348  1.00  0.00     0.008 C 
ENDBRANCH  12  17
ENDBRANCH  11  12
ENDBRANCH   1  11
TORSDOF 1
ENDMDL
MODEL 5
REMARK VINA RESULT:    -3.739      1.999      2.812
REMARK INTER + INTRA:          -6.055
REMARK INTER:                  -6.145
REMARK INTRA:                   0.090
REMARK UNBOUND:                -0.349
REMARK SMILES CC1=CCC[C@H](C)C(=O)C[C@H](C(C)C)C(=O)C1
REMARK SMILES IDX 8 1 9 2 6 3 7 4 5 5 4 6 3 7 2 8 1 9 10 11 11 12 15 13 16 14
REMARK SMILES IDX 17 15 12 17 13 18 14 19
REMARK H PARENT
REMARK Flexibility Score: 70.00
ROOT
ATOM      1  C   UNL     1      48.438   2.855  15.408  1.00  0.00     0.136 C 
ATOM      2  O   UNL     1      47.810   3.117  14.392  1.00  0.00    -0.299 OA
ENDROOT
BRANCH   1   3
ATOM      3  C   UNL     1      47.714   2.639  16.724  1.00  0.00     0.053 C 
ATOM      4  C   UNL     1      46.212   2.958  16.635  1.00  0.00     0.016 C 
BRANCH   3   5
ATOM      5  C   UNL     1      47.983   1.229  17.285  1.00  0.00     0.015 C 
BRANCH   5   6
ATOM      6  C   UNL     1      48.748   1.222  18.623  1.00  0.00     0.028 C 
BRANCH   6   7
ATOM      7  C   UNL     1      48.869   2.613  19.190  1.00  0.00    -0.028 C 
ATOM      8  C   UNL     1      49.883   3.469  18.922  1.00  0.00    -0.070 CG0
ATOM      9  C   UNL     1      49.829   4.846  19.532  1.00  0.00     0.039 C 
ATOM     10  G   UNL     1      51.071   3.107  18.046  1.00  0.00     0.000 G0
ENDBRANCH   6   7
ENDBRANCH   5   6
ENDBRANCH   3   5
ENDBRANCH   1   3
BRANCH   1  11
ATOM     11  C   UNL     1      49.947   2.775  15.359  1.00  0.00     0.087 C 
BRANCH  11  12
ATOM     12  C   UNL     1      50.684   4.121  15.589  1.00  0.00     0.066 C 
BRANCH  12  13
ATOM     13  C   UNL     1      51.373   4.131  16.951  1.00  0.00     0.140 C 
ATOM     14  O   UNL     1      52.219   4.987  17.167  1.00  0.00    -0.299 OA
BRANCH  13  15
ATOM     15  C   UNL     1      51.082   3.097  18.020  1.00  0.00     0.106 CG0
ATOM     16  G   UNL     1      49.893   3.468  18.892  1.00  0.00     0.000 G0
ENDBRANCH  13  15
ENDBRANCH  12  13
BRANCH  12  17
ATOM     17  C   UNL     1      51.609   4.594  14.416  1.00  0.00    -0.006 C 
ATOM     18  C   UNL     1      50.976   5.783  13.669  1.00  0.00     0.008 C 
ATOM     19  C   UNL     1      51.890   3.475  13.398  1.00  0.00     0.008 C 
ENDBRANCH  12  17
ENDBRANCH  11  12
ENDBRANCH   1  11
TORSDOF 1
ENDMDL
MODEL 6
REMARK VINA RESULT:    -3.722      2.951      4.344
REMARK INTER + INTRA:          -6.028
REMARK INTER:                  -5.647
REMARK INTRA:                  -0.381
REMARK UNBOUND:                -0.349
REMARK SMILES CC1=CCC[C@H](C)C(=O)C[C@H](C(C)C)C(=O)C1
REMARK SMILES IDX 8 1 9 2 6 3 7 4 5 5 4 6 3 7 2 8 1 9 10 11 11 12 15 13 16 14
REMARK SMILES IDX 17 15 12 17 13 18 14 19
REMARK H PARENT
REMARK Flexibility Score: 70.00
ROOT
ATOM      1  C   UNL     1      49.677   3.628  18.114  1.00  0.00     0.136 C 
ATOM      2  O   UNL     1      48.815   4.238  18.732  1.00  0.00    -0.299 OA
ENDROOT
BRANCH   1   3
ATOM      3  C   UNL     1      49.372   2.271  17.508  1.00  0.00     0.053 C 
ATOM      4  C   UNL     1      48.811   1.274  18.537  1.00  0.00     0.016 C 
BRANCH   3   5
ATOM      5  C   UNL     1      48.469   2.405  16.267  1.00  0.00     0.015 C 
BRANCH   5   6
ATOM      6  C   UNL     1      49.236   2.398  14.929  1.00  0.00     0.028 C 
BRANCH   6   7
ATOM      7  C   UNL     1      49.496   3.800  14.443  1.00  0.00    -0.028 C 
ATOM      8  C   UNL     1      50.725   4.338  14.262  1.00  0.00    -0.070 CG0
ATOM      9  C   UNL     1      50.813   5.741  13.720  1.00  0.00     0.039 C 
ATOM     10  G   UNL     1      52.015   3.599  14.582  1.00  0.00     0.000 G0
ENDBRANCH   6   7
ENDBRANCH   5   6
ENDBRANCH   3   5
ENDBRANCH   1   3
BRANCH   1  11
ATOM     11  C   UNL     1      51.063   4.217  17.979  1.00  0.00     0.087 C 
BRANCH  11  12
ATOM     12  C   UNL     1      52.089   3.320  17.238  1.00  0.00     0.066 C 
BRANCH  12  13
ATOM     13  C   UNL     1      52.558   3.991  15.950  1.00  0.00     0.140 C 
ATOM     14  O   UNL     1      53.372   4.901  16.033  1.00  0.00    -0.299 OA
BRANCH  13  15
ATOM     15  C   UNL     1      52.022   3.607  14.586  1.00  0.00     0.106 CG0
ATOM     16  G   UNL     1      50.731   4.331  14.235  1.00  0.00     0.000 G0
ENDBRANCH  13  15
ENDBRANCH  12  13
BRANCH  12  17
ATOM     17  C   UNL     1      53.261   2.766  18.118  1.00  0.00    -0.006 C 
ATOM     18  C   UNL     1      54.307   2.048  17.243  1.00  0.00     0.008 C 
ATOM     19  C   UNL     1      52.775   1.783  19.198  1.00  0.00     0.008 C 
ENDBRANCH  12  17
ENDBRANCH  11  12
ENDBRANCH   1  11
TORSDOF 1
ENDMDL
MODEL 7
REMARK VINA RESULT:    -3.682      2.365      5.447
REMARK INTER + INTRA:          -5.968
REMARK INTER:                  -5.592
REMARK INTRA:                  -0.375
REMARK UNBOUND:                -0.349
REMARK SMILES CC1=CCC[C@H](C)C(=O)C[C@H](C(C)C)C(=O)C1
REMARK SMILES IDX 8 1 9 2 6 3 7 4 5 5 4 6 3 7 2 8 1 9 10 11 11 12 15 13 16 14
REMARK SMILES IDX 17 15 12 17 13 18 14 19
REMARK H PARENT
REMARK Flexibility Score: 70.00
ROOT
ATOM      1  C   UNL     1      51.076   3.848  18.504  1.00  0.00     0.136 C 
ATOM      2  O   UNL     1      51.805   3.647  19.465  1.00  0.00    -0.299 OA
ENDROOT
BRANCH   1   3
ATOM      3  C   UNL     1      50.521   5.234  18.238  1.00  0.00     0.053 C 
ATOM      4  C   UNL     1      50.004   5.922  19.512  1.00  0.00     0.016 C 
BRANCH   3   5
ATOM      5  C   UNL     1      51.536   6.104  17.471  1.00  0.00     0.015 C 
BRANCH   5   6
ATOM      6  C   UNL     1      51.177   6.328  15.988  1.00  0.00     0.028 C 
BRANCH   6   7
ATOM      7  C   UNL     1      51.818   5.285  15.109  1.00  0.00    -0.028 C 
ATOM      8  C   UNL     1      51.154   4.270  14.508  1.00  0.00    -0.070 CG0
ATOM      9  C   UNL     1      51.936   3.339  13.618  1.00  0.00     0.039 C 
ATOM     10  G   UNL     1      49.664   4.023  14.690  1.00  0.00     0.000 G0
ENDBRANCH   6   7
ENDBRANCH   5   6
ENDBRANCH   3   5
ENDBRANCH   1   3
BRANCH   1  11
ATOM     11  C   UNL     1      50.702   2.701  17.593  1.00  0.00     0.087 C 
BRANCH  11  12
ATOM     12  C   UNL     1      49.267   2.769  17.005  1.00  0.00     0.066 C 
BRANCH  12  13
ATOM     13  C   UNL     1      49.311   2.775  15.480  1.00  0.00     0.140 C 
ATOM     14  O   UNL     1      49.102   1.724  14.889  1.00  0.00    -0.299 OA
BRANCH  13  15
ATOM     15  C   UNL     1      49.647   4.016  14.678  1.00  0.00     0.106 CG0
ATOM     16  G   UNL     1      51.144   4.235  14.530  1.00  0.00     0.000 G0
ENDBRANCH  13  15
ENDBRANCH  12  13
BRANCH  12  17
ATOM     17  C   UNL     1      48.245   1.739  17.598  1.00  0.00    -0.006 C 
ATOM     18  C   UNL     1      46.835   2.355  17.675  1.00  0.00     0.008 C 
ATOM     19  C   UNL     1      48.641   1.257  19.005  1.00  0.00     0.008 C 
ENDBRANCH  12  17
ENDBRANCH  11  12
ENDBRANCH   1  11
TORSDOF 1
ENDMDL
MODEL 8
REMARK VINA RESULT:    -3.659      2.255      4.650
REMARK INTER + INTRA:          -5.933
REMARK INTER:                  -6.068
REMARK INTRA:                   0.134
REMARK UNBOUND:                -0.349
REMARK SMILES CC1=CCC[C@H](C)C(=O)C[C@H](C(C)C)C(=O)C1
REMARK SMILES IDX 8 1 9 2 6 3 7 4 5 5 4 6 3 7 2 8 1 9 10 11 11 12 15 13 16 14
REMARK SMILES IDX 17 15 12 17 13 18 14 19
REMARK H PARENT
REMARK Flexibility Score: 70.00
ROOT
ATOM      1  C   UNL     1      47.729   4.479  19.206  1.00  0.00     0.136 C 
ATOM      2  O   UNL     1      46.534   4.486  18.946  1.00  0.00    -0.299 OA
ENDROOT
BRANCH   1   3
ATOM      3  C   UNL     1      48.460   5.778  19.494  1.00  0.00     0.053 C 
ATOM      4  C   UNL     1      47.503   6.957  19.736  1.00  0.00     0.016 C 
BRANCH   3   5
ATOM      5  C   UNL     1      49.480   5.603  20.636  1.00  0.00     0.015 C 
BRANCH   5   6
ATOM      6  C   UNL     1      50.851   6.249  20.357  1.00  0.00     0.028 C 
BRANCH   6   7
ATOM      7  C   UNL     1      51.977   5.317  20.721  1.00  0.00    -0.028 C 
ATOM      8  C   UNL     1      52.451   4.332  19.922  1.00  0.00    -0.070 CG0
ATOM      9  C   UNL     1      53.618   3.517  20.416  1.00  0.00     0.039 C 
ATOM     10  G   UNL     1      51.861   4.006  18.559  1.00  0.00     0.000 G0
ENDBRANCH   6   7
ENDBRANCH   5   6
ENDBRANCH   3   5
ENDBRANCH   1   3
BRANCH   1  11
ATOM     11  C   UNL     1      48.489   3.172  19.211  1.00  0.00     0.087 C 
BRANCH  11  12
ATOM     12  C   UNL     1      49.477   2.981  18.030  1.00  0.00     0.066 C 
BRANCH  12  13
ATOM     13  C   UNL     1      50.910   2.861  18.542  1.00  0.00     0.140 C 
ATOM     14  O   UNL     1      51.275   1.787  18.999  1.00  0.00    -0.299 OA
BRANCH  13  15
ATOM     15  C   UNL     1      51.875   4.030  18.549  1.00  0.00     0.106 CG0
ATOM     16  G   UNL     1      52.458   4.305  19.926  1.00  0.00     0.000 G0
ENDBRANCH  13  15
ENDBRANCH  12  13
BRANCH  12  17
ATOM     17  C   UNL     1      49.086   1.871  16.996  1.00  0.00    -0.006 C 
ATOM     18  C   UNL     1      48.748   2.495  15.629  1.00  0.00     0.008 C 
ATOM     19  C   UNL     1      47.883   1.031  17.458  1.00  0.00     0.008 C 
ENDBRANCH  12  17
ENDBRANCH  11  12
ENDBRANCH   1  11
TORSDOF 1
ENDMDL
MODEL 9
REMARK VINA RESULT:    -3.233      1.865      4.233
REMARK INTER + INTRA:          -5.282
REMARK INTER:                  -5.443
REMARK INTRA:                   0.161
REMARK UNBOUND:                -0.349
REMARK SMILES CC1=CCC[C@H](C)C(=O)C[C@H](C(C)C)C(=O)C1
REMARK SMILES IDX 8 1 9 2 6 3 7 4 5 5 4 6 3 7 2 8 1 9 10 11 11 12 15 13 16 14
REMARK SMILES IDX 17 15 12 17 13 18 14 19
REMARK H PARENT
REMARK Flexibility Score: 70.00
ROOT
ATOM      1  C   UNL     1      51.126   3.562  17.189  1.00  0.00     0.136 C 
ATOM      2  O   UNL     1      51.878   2.899  17.890  1.00  0.00    -0.299 OA
ENDROOT
BRANCH   1   3
ATOM      3  C   UNL     1      51.661   4.307  15.980  1.00  0.00     0.053 C 
ATOM      4  C   UNL     1      50.675   4.310  14.800  1.00  0.00     0.016 C 
BRANCH   3   5
ATOM      5  C   UNL     1      52.128   5.725  16.361  1.00  0.00     0.015 C 
BRANCH   5   6
ATOM      6  C   UNL     1      51.014   6.616  16.947  1.00  0.00     0.028 C 
BRANCH   6   7
ATOM      7  C   UNL     1      51.297   6.968  18.385  1.00  0.00    -0.028 C 
ATOM      8  C   UNL     1      50.488   6.661  19.426  1.00  0.00    -0.070 CG0
ATOM      9  C   UNL     1      50.941   7.042  20.812  1.00  0.00     0.039 C 
ATOM     10  G   UNL     1      49.148   5.961  19.265  1.00  0.00     0.000 G0
ENDBRANCH   6   7
ENDBRANCH   5   6
ENDBRANCH   3   5
ENDBRANCH   1   3
BRANCH   1  11
ATOM     11  C   UNL     1      49.661   3.664  17.547  1.00  0.00     0.087 C 
BRANCH  11  12
ATOM     12  C   UNL     1      49.316   3.304  19.017  1.00  0.00     0.066 C 
BRANCH  12  13
ATOM     13  C   UNL     1      49.113   4.569  19.846  1.00  0.00     0.140 C 
ATOM     14  O   UNL     1      48.869   4.447  21.039  1.00  0.00    -0.299 OA
BRANCH  13  15
ATOM     15  C   UNL     1      49.157   5.957  19.242  1.00  0.00     0.106 CG0
ATOM     16  G   UNL     1      50.494   6.650  19.450  1.00  0.00     0.000 G0
ENDBRANCH  13  15
ENDBRANCH  12  13
BRANCH  12  17
ATOM     17  C   UNL     1      48.177   2.244  19.202  1.00  0.00    -0.006 C 
ATOM     18  C   UNL     1      48.380   1.054  18.245  1.00  0.00     0.008 C 
ATOM     19  C   UNL     1      46.776   2.831  18.955  1.00  0.00     0.008 C 
ENDBRANCH  12  17
ENDBRANCH  11  12
ENDBRANCH   1  11
TORSDOF 1
ENDMDL
