MODEL 1
REMARK VINA RESULT:    -3.320      0.000      0.000
REMARK INTER + INTRA:          -4.470
REMARK INTER:                  -4.096
REMARK INTRA:                  -0.374
REMARK UNBOUND:                -0.374
REMARK SMILES Oc1cc(O)c2cc(O)c(-c3cc(O)c(O)c(O)c3)[o+]c2c1
REMARK SMILES IDX 10 1 20 2 21 3 22 4 2 5 3 6 4 7 6 8 7 9 8 10 11 11 12 12
REMARK SMILES IDX 13 13 19 14 15 15 17 16 14 17 16 19 18 21 9 23 1 25 5 27
REMARK H PARENT 14 18 16 20 18 22 9 24 1 26 5 28
REMARK Flexibility Score: inf
ROOT
ATOM      1  C   UNL     1      -4.494  13.186 -32.351  1.00  0.00     0.402 A 
ATOM      2  O   UNL     1      -4.668  12.148 -33.166  1.00  0.00    -0.202 OA
ATOM      3  C   UNL     1      -5.502  12.165 -34.201  1.00  0.00     0.368 A 
ATOM      4  C   UNL     1      -5.620  11.024 -34.998  1.00  0.00     0.162 A 
ATOM      5  C   UNL     1      -6.492  11.014 -36.090  1.00  0.00     0.128 A 
ATOM      6  C   UNL     1      -7.251  12.148 -36.386  1.00  0.00     0.093 A 
ATOM      7  C   UNL     1      -7.151  13.304 -35.601  1.00  0.00     0.136 A 
ATOM      8  C   UNL     1      -6.266  13.321 -34.493  1.00  0.00     0.125 A 
ATOM      9  C   UNL     1      -6.092  14.439 -33.661  1.00  0.00     0.078 A 
ATOM     10  C   UNL     1      -5.196  14.382 -32.589  1.00  0.00     0.223 A 
ENDROOT
BRANCH   1  11
ATOM     11  C   UNL     1      -3.541  13.041 -31.226  1.00  0.00     0.091 A 
ATOM     12  C   UNL     1      -4.023  12.699 -29.955  1.00  0.00     0.068 A 
ATOM     13  C   UNL     1      -3.149  12.574 -28.870  1.00  0.00     0.162 A 
ATOM     14  C   UNL     1      -2.169  13.295 -31.392  1.00  0.00     0.068 A 
ATOM     15  C   UNL     1      -1.775  12.808 -29.045  1.00  0.00     0.200 A 
ATOM     16  C   UNL     1      -1.286  13.175 -30.310  1.00  0.00     0.162 A 
BRANCH  13  17
ATOM     17  O   UNL     1      -3.666  12.218 -27.624  1.00  0.00    -0.504 OA
ATOM     18  H   UNL     1      -4.638  12.366 -27.381  1.00  0.00     0.293 HD
ENDBRANCH  13  17
BRANCH  15  19
ATOM     19  O   UNL     1      -0.909  12.679 -27.957  1.00  0.00    -0.502 OA
ATOM     20  H   UNL     1      -1.160  12.992 -27.028  1.00  0.00     0.293 HD
ENDBRANCH  15  19
BRANCH  16  21
ATOM     21  O   UNL     1       0.074  13.422 -30.488  1.00  0.00    -0.504 OA
ATOM     22  H   UNL     1       0.404  14.195 -31.054  1.00  0.00     0.293 HD
ENDBRANCH  16  21
ENDBRANCH   1  11
BRANCH  10  23
ATOM     23  O   UNL     1      -4.986  15.508 -31.792  1.00  0.00    -0.500 OA
ATOM     24  H   UNL     1      -5.203  15.509 -30.803  1.00  0.00     0.294 HD
ENDBRANCH  10  23
BRANCH   5  25
ATOM     25  O   UNL     1      -6.614   9.879 -36.890  1.00  0.00    -0.507 OA
ATOM     26  H   UNL     1      -6.129   9.803 -37.777  1.00  0.00     0.293 HD
ENDBRANCH   5  25
BRANCH   7  27
ATOM     27  O   UNL     1      -7.947  14.396 -35.962  1.00  0.00    -0.507 OA
ATOM     28  H   UNL     1      -8.105  15.204 -35.377  1.00  0.00     0.293 HD
ENDBRANCH   7  27
TORSDOF 7
ENDMDL
MODEL 2
REMARK VINA RESULT:    -3.273      0.072      1.795
REMARK INTER + INTRA:          -4.413
REMARK INTER:                  -4.029
REMARK INTRA:                  -0.384
REMARK UNBOUND:                -0.374
REMARK SMILES Oc1cc(O)c2cc(O)c(-c3cc(O)c(O)c(O)c3)[o+]c2c1
REMARK SMILES IDX 10 1 20 2 21 3 22 4 2 5 3 6 4 7 6 8 7 9 8 10 11 11 12 12
REMARK SMILES IDX 13 13 19 14 15 15 17 16 14 17 16 19 18 21 9 23 1 25 5 27
REMARK H PARENT 14 18 16 20 18 22 9 24 1 26 5 28
REMARK Flexibility Score: inf
ROOT
ATOM      1  C   UNL     1      -4.518  13.189 -32.321  1.00  0.00     0.402 A 
ATOM      2  O   UNL     1      -4.673  12.150 -33.138  1.00  0.00    -0.202 OA
ATOM      3  C   UNL     1      -5.483  12.165 -34.192  1.00  0.00     0.368 A 
ATOM      4  C   UNL     1      -5.582  11.023 -34.990  1.00  0.00     0.162 A 
ATOM      5  C   UNL     1      -6.429  11.011 -36.102  1.00  0.00     0.128 A 
ATOM      6  C   UNL     1      -7.181  12.144 -36.417  1.00  0.00     0.093 A 
ATOM      7  C   UNL     1      -7.100  13.302 -35.632  1.00  0.00     0.136 A 
ATOM      8  C   UNL     1      -6.240  13.321 -34.504  1.00  0.00     0.125 A 
ATOM      9  C   UNL     1      -6.085  14.440 -33.669  1.00  0.00     0.078 A 
ATOM     10  C   UNL     1      -5.214  14.384 -32.577  1.00  0.00     0.223 A 
ENDROOT
BRANCH   1  11
ATOM     11  C   UNL     1      -3.591  13.045 -31.175  1.00  0.00     0.091 A 
ATOM     12  C   UNL     1      -2.221  13.281 -31.361  1.00  0.00     0.068 A 
ATOM     13  C   UNL     1      -1.321  13.134 -30.301  1.00  0.00     0.162 A 
ATOM     14  C   UNL     1      -4.047  12.622 -29.915  1.00  0.00     0.068 A 
ATOM     15  C   UNL     1      -1.784  12.731 -29.037  1.00  0.00     0.200 A 
ATOM     16  C   UNL     1      -3.151  12.469 -28.847  1.00  0.00     0.162 A 
BRANCH  13  17
ATOM     17  O   UNL     1       0.032  13.392 -30.523  1.00  0.00    -0.504 OA
ATOM     18  H   UNL     1       0.411  13.520 -31.454  1.00  0.00     0.293 HD
ENDBRANCH  13  17
BRANCH  15  19
ATOM     19  O   UNL     1      -0.879  12.589 -27.984  1.00  0.00    -0.502 OA
ATOM     20  H   UNL     1      -1.028  11.930 -27.230  1.00  0.00     0.293 HD
ENDBRANCH  15  19
BRANCH  16  21
ATOM     21  O   UNL     1      -3.616  12.056 -27.600  1.00  0.00    -0.504 OA
ATOM     22  H   UNL     1      -4.550  12.283 -27.279  1.00  0.00     0.293 HD
ENDBRANCH  16  21
ENDBRANCH   1  11
BRANCH  10  23
ATOM     23  O   UNL     1      -5.022  15.512 -31.778  1.00  0.00    -0.500 OA
ATOM     24  H   UNL     1      -5.245  15.509 -30.790  1.00  0.00     0.294 HD
ENDBRANCH  10  23
BRANCH   5  25
ATOM     25  O   UNL     1      -6.533   9.875 -36.903  1.00  0.00    -0.507 OA
ATOM     26  H   UNL     1      -7.389   9.334 -36.947  1.00  0.00     0.293 HD
ENDBRANCH   5  25
BRANCH   7  27
ATOM     27  O   UNL     1      -7.886  14.393 -36.012  1.00  0.00    -0.507 OA
ATOM     28  H   UNL     1      -7.613  15.359 -35.904  1.00  0.00     0.293 HD
ENDBRANCH   7  27
TORSDOF 7
ENDMDL
MODEL 3
REMARK VINA RESULT:    -1.916      1.289      6.983
REMARK INTER + INTRA:          -2.739
REMARK INTER:                  -2.849
REMARK INTRA:                   0.110
REMARK UNBOUND:                -0.374
REMARK SMILES Oc1cc(O)c2cc(O)c(-c3cc(O)c(O)c(O)c3)[o+]c2c1
REMARK SMILES IDX 10 1 20 2 21 3 22 4 2 5 3 6 4 7 6 8 7 9 8 10 11 11 12 12
REMARK SMILES IDX 13 13 19 14 15 15 17 16 14 17 16 19 18 21 9 23 1 25 5 27
REMARK H PARENT 14 18 16 20 18 22 9 24 1 26 5 28
REMARK Flexibility Score: inf
ROOT
ATOM      1  C   UNL     1      -4.632  12.827 -32.595  1.00  0.00     0.402 A 
ATOM      2  O   UNL     1      -4.488  11.840 -31.714  1.00  0.00    -0.202 OA
ATOM      3  C   UNL     1      -3.785  11.960 -30.593  1.00  0.00     0.368 A 
ATOM      4  C   UNL     1      -3.689  10.865 -29.729  1.00  0.00     0.162 A 
ATOM      5  C   UNL     1      -2.953  10.963 -28.545  1.00  0.00     0.128 A 
ATOM      6  C   UNL     1      -2.309  12.159 -28.223  1.00  0.00     0.093 A 
ATOM      7  C   UNL     1      -2.390  13.271 -29.072  1.00  0.00     0.136 A 
ATOM      8  C   UNL     1      -3.137  13.178 -30.274  1.00  0.00     0.125 A 
ATOM      9  C   UNL     1      -3.284  14.244 -31.177  1.00  0.00     0.078 A 
ATOM     10  C   UNL     1      -4.042  14.078 -32.340  1.00  0.00     0.223 A 
ENDROOT
BRANCH   1  11
ATOM     11  C   UNL     1      -5.434  12.566 -33.813  1.00  0.00     0.091 A 
ATOM     12  C   UNL     1      -6.325  13.546 -34.275  1.00  0.00     0.068 A 
ATOM     13  C   UNL     1      -7.109  13.320 -35.411  1.00  0.00     0.162 A 
ATOM     14  C   UNL     1      -5.364  11.335 -34.485  1.00  0.00     0.068 A 
ATOM     15  C   UNL     1      -7.020  12.095 -36.092  1.00  0.00     0.200 A 
ATOM     16  C   UNL     1      -6.148  11.098 -35.623  1.00  0.00     0.162 A 
BRANCH  13  17
ATOM     17  O   UNL     1      -7.972  14.326 -35.846  1.00  0.00    -0.504 OA
ATOM     18  H   UNL     1      -7.967  15.254 -35.441  1.00  0.00     0.293 HD
ENDBRANCH  13  17
BRANCH  15  19
ATOM     19  O   UNL     1      -7.804  11.879 -37.227  1.00  0.00    -0.502 OA
ATOM     20  H   UNL     1      -8.814  11.951 -37.207  1.00  0.00     0.293 HD
ENDBRANCH  15  19
BRANCH  16  21
ATOM     21  O   UNL     1      -6.065   9.875 -36.287  1.00  0.00    -0.504 OA
ATOM     22  H   UNL     1      -6.303   9.004 -35.827  1.00  0.00     0.293 HD
ENDBRANCH  16  21
ENDBRANCH   1  11
BRANCH  10  23
ATOM     23  O   UNL     1      -4.228  15.151 -33.212  1.00  0.00    -0.500 OA
ATOM     24  H   UNL     1      -4.450  16.079 -32.875  1.00  0.00     0.294 HD
ENDBRANCH  10  23
BRANCH   5  25
ATOM     25  O   UNL     1      -2.854   9.876 -27.679  1.00  0.00    -0.507 OA
ATOM     26  H   UNL     1      -2.511   8.976 -27.997  1.00  0.00     0.293 HD
ENDBRANCH   5  25
BRANCH   7  27
ATOM     27  O   UNL     1      -1.714  14.430 -28.679  1.00  0.00    -0.507 OA
ATOM     28  H   UNL     1      -1.762  14.833 -27.754  1.00  0.00     0.293 HD
ENDBRANCH   7  27
TORSDOF 7
ENDMDL
MODEL 4
REMARK VINA RESULT:    -1.875      1.275      7.015
REMARK INTER + INTRA:          -2.688
REMARK INTER:                  -2.776
REMARK INTRA:                   0.088
REMARK UNBOUND:                -0.374
REMARK SMILES Oc1cc(O)c2cc(O)c(-c3cc(O)c(O)c(O)c3)[o+]c2c1
REMARK SMILES IDX 10 1 20 2 21 3 22 4 2 5 3 6 4 7 6 8 7 9 8 10 11 11 12 12
REMARK SMILES IDX 13 13 19 14 15 15 17 16 14 17 16 19 18 21 9 23 1 25 5 27
REMARK H PARENT 14 18 16 20 18 22 9 24 1 26 5 28
REMARK Flexibility Score: inf
ROOT
ATOM      1  C   UNL     1      -4.640  12.836 -32.589  1.00  0.00     0.402 A 
ATOM      2  O   UNL     1      -4.492  11.851 -31.707  1.00  0.00    -0.202 OA
ATOM      3  C   UNL     1      -3.754  11.962 -30.606  1.00  0.00     0.368 A 
ATOM      4  C   UNL     1      -3.656  10.871 -29.740  1.00  0.00     0.162 A 
ATOM      5  C   UNL     1      -2.884  10.960 -28.578  1.00  0.00     0.128 A 
ATOM      6  C   UNL     1      -2.207  12.144 -28.282  1.00  0.00     0.093 A 
ATOM      7  C   UNL     1      -2.288  13.252 -29.135  1.00  0.00     0.136 A 
ATOM      8  C   UNL     1      -3.072  13.168 -30.314  1.00  0.00     0.125 A 
ATOM      9  C   UNL     1      -3.222  14.232 -31.219  1.00  0.00     0.078 A 
ATOM     10  C   UNL     1      -4.016  14.075 -32.358  1.00  0.00     0.223 A 
ENDROOT
BRANCH   1  11
ATOM     11  C   UNL     1      -5.482  12.586 -33.782  1.00  0.00     0.091 A 
ATOM     12  C   UNL     1      -5.370  11.364 -34.462  1.00  0.00     0.068 A 
ATOM     13  C   UNL     1      -6.138  11.109 -35.602  1.00  0.00     0.162 A 
ATOM     14  C   UNL     1      -6.351  13.570 -34.283  1.00  0.00     0.068 A 
ATOM     15  C   UNL     1      -7.022  12.087 -36.087  1.00  0.00     0.200 A 
ATOM     16  C   UNL     1      -7.123  13.323 -35.427  1.00  0.00     0.162 A 
BRANCH  13  17
ATOM     17  O   UNL     1      -6.008   9.875 -36.241  1.00  0.00    -0.504 OA
ATOM     18  H   UNL     1      -5.784   9.027 -35.736  1.00  0.00     0.293 HD
ENDBRANCH  13  17
BRANCH  15  19
ATOM     19  O   UNL     1      -7.787  11.823 -37.225  1.00  0.00    -0.502 OA
ATOM     20  H   UNL     1      -8.020  12.543 -37.897  1.00  0.00     0.293 HD
ENDBRANCH  15  19
BRANCH  16  21
ATOM     21  O   UNL     1      -7.988  14.304 -35.910  1.00  0.00    -0.504 OA
ATOM     22  H   UNL     1      -8.725  14.084 -36.570  1.00  0.00     0.293 HD
ENDBRANCH  16  21
ENDBRANCH   1  11
BRANCH  10  23
ATOM     23  O   UNL     1      -4.206  15.147 -33.232  1.00  0.00    -0.500 OA
ATOM     24  H   UNL     1      -5.000  15.769 -33.148  1.00  0.00     0.294 HD
ENDBRANCH  10  23
BRANCH   5  25
ATOM     25  O   UNL     1      -2.783   9.875 -27.709  1.00  0.00    -0.507 OA
ATOM     26  H   UNL     1      -2.985   8.930 -28.015  1.00  0.00     0.293 HD
ENDBRANCH   5  25
BRANCH   7  27
ATOM     27  O   UNL     1      -1.577  14.399 -28.769  1.00  0.00    -0.507 OA
ATOM     28  H   UNL     1      -1.641  14.845 -27.866  1.00  0.00     0.293 HD
ENDBRANCH   7  27
TORSDOF 7
ENDMDL
MODEL 5
REMARK VINA RESULT:    -1.410      4.095      5.481
REMARK INTER + INTRA:          -2.114
REMARK INTER:                  -1.730
REMARK INTRA:                  -0.384
REMARK UNBOUND:                -0.374
REMARK SMILES Oc1cc(O)c2cc(O)c(-c3cc(O)c(O)c(O)c3)[o+]c2c1
REMARK SMILES IDX 10 1 20 2 21 3 22 4 2 5 3 6 4 7 6 8 7 9 8 10 11 11 12 12
REMARK SMILES IDX 13 13 19 14 15 15 17 16 14 17 16 19 18 21 9 23 1 25 5 27
REMARK H PARENT 14 18 16 20 18 22 9 24 1 26 5 28
REMARK Flexibility Score: inf
ROOT
ATOM      1  C   UNL     1      -3.930  13.364 -29.534  1.00  0.00     0.402 A 
ATOM      2  O   UNL     1      -4.294  14.539 -30.039  1.00  0.00    -0.202 OA
ATOM      3  C   UNL     1      -5.465  15.113 -29.782  1.00  0.00     0.368 A 
ATOM      4  C   UNL     1      -5.759  16.350 -30.362  1.00  0.00     0.162 A 
ATOM      5  C   UNL     1      -6.984  16.973 -30.111  1.00  0.00     0.128 A 
ATOM      6  C   UNL     1      -7.920  16.358 -29.277  1.00  0.00     0.093 A 
ATOM      7  C   UNL     1      -7.650  15.118 -28.684  1.00  0.00     0.136 A 
ATOM      8  C   UNL     1      -6.407  14.482 -28.933  1.00  0.00     0.125 A 
ATOM      9  C   UNL     1      -6.045  13.246 -28.371  1.00  0.00     0.078 A 
ATOM     10  C   UNL     1      -4.798  12.684 -28.661  1.00  0.00     0.223 A 
ENDROOT
BRANCH   1  11
ATOM     11  C   UNL     1      -2.600  12.824 -29.903  1.00  0.00     0.091 A 
ATOM     12  C   UNL     1      -1.470  13.215 -29.172  1.00  0.00     0.068 A 
ATOM     13  C   UNL     1      -0.200  12.737 -29.510  1.00  0.00     0.162 A 
ATOM     14  C   UNL     1      -2.438  11.972 -31.009  1.00  0.00     0.068 A 
ATOM     15  C   UNL     1      -0.045  11.869 -30.603  1.00  0.00     0.200 A 
ATOM     16  C   UNL     1      -1.169  11.490 -31.357  1.00  0.00     0.162 A 
BRANCH  13  17
ATOM     17  O   UNL     1       0.898  13.138 -28.748  1.00  0.00    -0.504 OA
ATOM     18  H   UNL     1       1.666  12.513 -28.537  1.00  0.00     0.293 HD
ENDBRANCH  13  17
BRANCH  15  19
ATOM     19  O   UNL     1       1.226  11.394 -30.933  1.00  0.00    -0.502 OA
ATOM     20  H   UNL     1       1.685  10.666 -30.399  1.00  0.00     0.293 HD
ENDBRANCH  15  19
BRANCH  16  21
ATOM     21  O   UNL     1      -1.021  10.640 -32.452  1.00  0.00    -0.504 OA
ATOM     22  H   UNL     1      -0.631  10.965 -33.328  1.00  0.00     0.293 HD
ENDBRANCH  16  21
ENDBRANCH   1  11
BRANCH  10  23
ATOM     23  O   UNL     1      -4.418  11.481 -28.064  1.00  0.00    -0.500 OA
ATOM     24  H   UNL     1      -3.805  11.456 -27.258  1.00  0.00     0.294 HD
ENDBRANCH  10  23
BRANCH   5  25
ATOM     25  O   UNL     1      -7.284  18.207 -30.685  1.00  0.00    -0.507 OA
ATOM     26  H   UNL     1      -8.063  18.318 -31.324  1.00  0.00     0.293 HD
ENDBRANCH   5  25
BRANCH   7  27
ATOM     27  O   UNL     1      -8.640  14.567 -27.865  1.00  0.00    -0.507 OA
ATOM     28  H   UNL     1      -9.203  15.097 -27.216  1.00  0.00     0.293 HD
ENDBRANCH   7  27
TORSDOF 7
ENDMDL
MODEL 6
REMARK VINA RESULT:    -1.378      1.161      2.562
REMARK INTER + INTRA:          -2.074
REMARK INTER:                  -1.747
REMARK INTRA:                  -0.327
REMARK UNBOUND:                -0.374
REMARK SMILES Oc1cc(O)c2cc(O)c(-c3cc(O)c(O)c(O)c3)[o+]c2c1
REMARK SMILES IDX 10 1 20 2 21 3 22 4 2 5 3 6 4 7 6 8 7 9 8 10 11 11 12 12
REMARK SMILES IDX 13 13 19 14 15 15 17 16 14 17 16 19 18 21 9 23 1 25 5 27
REMARK H PARENT 14 18 16 20 18 22 9 24 1 26 5 28
REMARK Flexibility Score: inf
ROOT
ATOM      1  C   UNL     1      -4.267  12.244 -32.154  1.00  0.00     0.402 A 
ATOM      2  O   UNL     1      -5.005  13.121 -32.829  1.00  0.00    -0.202 OA
ATOM      3  C   UNL     1      -5.727  12.799 -33.898  1.00  0.00     0.368 A 
ATOM      4  C   UNL     1      -6.469  13.792 -34.543  1.00  0.00     0.162 A 
ATOM      5  C   UNL     1      -7.233  13.481 -35.671  1.00  0.00     0.128 A 
ATOM      6  C   UNL     1      -7.256  12.172 -36.156  1.00  0.00     0.093 A 
ATOM      7  C   UNL     1      -6.521  11.158 -35.528  1.00  0.00     0.136 A 
ATOM      8  C   UNL     1      -5.745  11.468 -34.382  1.00  0.00     0.125 A 
ATOM      9  C   UNL     1      -4.988  10.515 -33.680  1.00  0.00     0.078 A 
ATOM     10  C   UNL     1      -4.252  10.895 -32.555  1.00  0.00     0.223 A 
ENDROOT
BRANCH   1  11
ATOM     11  C   UNL     1      -3.499  12.728 -30.984  1.00  0.00     0.091 A 
ATOM     12  C   UNL     1      -4.183  13.111 -29.821  1.00  0.00     0.068 A 
ATOM     13  C   UNL     1      -3.485  13.591 -28.708  1.00  0.00     0.162 A 
ATOM     14  C   UNL     1      -2.102  12.867 -31.033  1.00  0.00     0.068 A 
ATOM     15  C   UNL     1      -2.086  13.708 -28.753  1.00  0.00     0.200 A 
ATOM     16  C   UNL     1      -1.395  13.349 -29.923  1.00  0.00     0.162 A 
BRANCH  13  17
ATOM     17  O   UNL     1      -4.201  13.948 -27.565  1.00  0.00    -0.504 OA
ATOM     18  H   UNL     1      -4.108  13.445 -26.691  1.00  0.00     0.293 HD
ENDBRANCH  13  17
BRANCH  15  19
ATOM     19  O   UNL     1      -1.397  14.185 -27.637  1.00  0.00    -0.502 OA
ATOM     20  H   UNL     1      -1.873  14.609 -26.850  1.00  0.00     0.293 HD
ENDBRANCH  15  19
BRANCH  16  21
ATOM     21  O   UNL     1      -0.008  13.475 -29.980  1.00  0.00    -0.504 OA
ATOM     22  H   UNL     1       0.603  12.671 -29.897  1.00  0.00     0.293 HD
ENDBRANCH  16  21
ENDBRANCH   1  11
BRANCH  10  23
ATOM     23  O   UNL     1      -3.540   9.939 -31.829  1.00  0.00    -0.500 OA
ATOM     24  H   UNL     1      -3.817   9.665 -30.895  1.00  0.00     0.294 HD
ENDBRANCH  10  23
BRANCH   5  25
ATOM     25  O   UNL     1      -7.976  14.466 -36.319  1.00  0.00    -0.507 OA
ATOM     26  H   UNL     1      -7.792  14.720 -37.282  1.00  0.00     0.293 HD
ENDBRANCH   5  25
BRANCH   7  27
ATOM     27  O   UNL     1      -6.595   9.875 -36.078  1.00  0.00    -0.507 OA
ATOM     28  H   UNL     1      -6.560   9.022 -35.540  1.00  0.00     0.293 HD
ENDBRANCH   7  27
TORSDOF 7
ENDMDL
MODEL 7
REMARK VINA RESULT:    -1.235      2.196      7.564
REMARK INTER + INTRA:          -1.898
REMARK INTER:                  -2.058
REMARK INTRA:                   0.160
REMARK UNBOUND:                -0.374
REMARK SMILES Oc1cc(O)c2cc(O)c(-c3cc(O)c(O)c(O)c3)[o+]c2c1
REMARK SMILES IDX 10 1 20 2 21 3 22 4 2 5 3 6 4 7 6 8 7 9 8 10 11 11 12 12
REMARK SMILES IDX 13 13 19 14 15 15 17 16 14 17 16 19 18 21 9 23 1 25 5 27
REMARK H PARENT 14 18 16 20 18 22 9 24 1 26 5 28
REMARK Flexibility Score: inf
ROOT
ATOM      1  C   UNL     1      -4.126  11.837 -30.781  1.00  0.00     0.402 A 
ATOM      2  O   UNL     1      -4.488  12.740 -29.873  1.00  0.00    -0.202 OA
ATOM      3  C   UNL     1      -4.081  12.707 -28.608  1.00  0.00     0.368 A 
ATOM      4  C   UNL     1      -4.518  13.699 -27.727  1.00  0.00     0.162 A 
ATOM      5  C   UNL     1      -4.108  13.686 -26.391  1.00  0.00     0.128 A 
ATOM      6  C   UNL     1      -3.258  12.677 -25.934  1.00  0.00     0.093 A 
ATOM      7  C   UNL     1      -2.806  11.671 -26.797  1.00  0.00     0.136 A 
ATOM      8  C   UNL     1      -3.217  11.680 -28.154  1.00  0.00     0.125 A 
ATOM      9  C   UNL     1      -2.804  10.721 -29.094  1.00  0.00     0.078 A 
ATOM     10  C   UNL     1      -3.248  10.800 -30.417  1.00  0.00     0.223 A 
ENDROOT
BRANCH   1  11
ATOM     11  C   UNL     1      -4.654  11.977 -32.157  1.00  0.00     0.091 A 
ATOM     12  C   UNL     1      -5.001  13.249 -32.637  1.00  0.00     0.068 A 
ATOM     13  C   UNL     1      -5.521  13.409 -33.926  1.00  0.00     0.162 A 
ATOM     14  C   UNL     1      -4.871  10.856 -32.975  1.00  0.00     0.068 A 
ATOM     15  C   UNL     1      -5.716  12.286 -34.748  1.00  0.00     0.200 A 
ATOM     16  C   UNL     1      -5.394  11.006 -34.267  1.00  0.00     0.162 A 
BRANCH  13  17
ATOM     17  O   UNL     1      -5.839  14.692 -34.371  1.00  0.00    -0.504 OA
ATOM     18  H   UNL     1      -6.593  14.865 -35.025  1.00  0.00     0.293 HD
ENDBRANCH  13  17
BRANCH  15  19
ATOM     19  O   UNL     1      -6.232  12.455 -36.034  1.00  0.00    -0.502 OA
ATOM     20  H   UNL     1      -6.613  13.338 -36.351  1.00  0.00     0.293 HD
ENDBRANCH  15  19
BRANCH  16  21
ATOM     21  O   UNL     1      -5.598   9.886 -35.073  1.00  0.00    -0.504 OA
ATOM     22  H   UNL     1      -4.904   9.151 -35.145  1.00  0.00     0.293 HD
ENDBRANCH  16  21
ENDBRANCH   1  11
BRANCH  10  23
ATOM     23  O   UNL     1      -2.798   9.876 -31.361  1.00  0.00    -0.500 OA
ATOM     24  H   UNL     1      -1.845   9.536 -31.361  1.00  0.00     0.294 HD
ENDBRANCH  10  23
BRANCH   5  25
ATOM     25  O   UNL     1      -4.540  14.673 -25.506  1.00  0.00    -0.507 OA
ATOM     26  H   UNL     1      -3.975  14.957 -24.714  1.00  0.00     0.293 HD
ENDBRANCH   5  25
BRANCH   7  27
ATOM     27  O   UNL     1      -1.961  10.695 -26.261  1.00  0.00    -0.507 OA
ATOM     28  H   UNL     1      -1.570  10.728 -25.331  1.00  0.00     0.293 HD
ENDBRANCH   7  27
TORSDOF 7
ENDMDL
MODEL 8
REMARK VINA RESULT:    -0.902      1.151      3.076
REMARK INTER + INTRA:          -1.487
REMARK INTER:                  -1.199
REMARK INTRA:                  -0.288
REMARK UNBOUND:                -0.374
REMARK SMILES Oc1cc(O)c2cc(O)c(-c3cc(O)c(O)c(O)c3)[o+]c2c1
REMARK SMILES IDX 10 1 20 2 21 3 22 4 2 5 3 6 4 7 6 8 7 9 8 10 11 11 12 12
REMARK SMILES IDX 13 13 19 14 15 15 17 16 14 17 16 19 18 21 9 23 1 25 5 27
REMARK H PARENT 14 18 16 20 18 22 9 24 1 26 5 28
REMARK Flexibility Score: inf
ROOT
ATOM      1  C   UNL     1      -4.257  12.289 -32.124  1.00  0.00     0.402 A 
ATOM      2  O   UNL     1      -4.994  13.161 -32.807  1.00  0.00    -0.202 OA
ATOM      3  C   UNL     1      -5.727  12.827 -33.864  1.00  0.00     0.368 A 
ATOM      4  C   UNL     1      -6.467  13.814 -34.519  1.00  0.00     0.162 A 
ATOM      5  C   UNL     1      -7.243  13.491 -35.636  1.00  0.00     0.128 A 
ATOM      6  C   UNL     1      -7.279  12.175 -36.100  1.00  0.00     0.093 A 
ATOM      7  C   UNL     1      -6.545  11.166 -35.462  1.00  0.00     0.136 A 
ATOM      8  C   UNL     1      -5.758  11.489 -34.327  1.00  0.00     0.125 A 
ATOM      9  C   UNL     1      -5.002  10.541 -33.617  1.00  0.00     0.078 A 
ATOM     10  C   UNL     1      -4.254  10.935 -32.503  1.00  0.00     0.223 A 
ENDROOT
BRANCH   1  11
ATOM     11  C   UNL     1      -3.476  12.787 -30.968  1.00  0.00     0.091 A 
ATOM     12  C   UNL     1      -2.077  12.831 -31.048  1.00  0.00     0.068 A 
ATOM     13  C   UNL     1      -1.313  13.277 -29.965  1.00  0.00     0.162 A 
ATOM     14  C   UNL     1      -4.105  13.163 -29.769  1.00  0.00     0.068 A 
ATOM     15  C   UNL     1      -1.947  13.672 -28.775  1.00  0.00     0.200 A 
ATOM     16  C   UNL     1      -3.347  13.609 -28.677  1.00  0.00     0.162 A 
BRANCH  13  17
ATOM     17  O   UNL     1       0.076  13.320 -30.090  1.00  0.00    -0.504 OA
ATOM     18  H   UNL     1       0.551  14.073 -30.570  1.00  0.00     0.293 HD
ENDBRANCH  13  17
BRANCH  15  19
ATOM     19  O   UNL     1      -1.177  14.119 -27.699  1.00  0.00    -0.502 OA
ATOM     20  H   UNL     1      -0.434  14.797 -27.813  1.00  0.00     0.293 HD
ENDBRANCH  15  19
BRANCH  16  21
ATOM     21  O   UNL     1      -3.981  13.987 -27.494  1.00  0.00    -0.504 OA
ATOM     22  H   UNL     1      -4.829  13.530 -27.177  1.00  0.00     0.293 HD
ENDBRANCH  16  21
ENDBRANCH   1  11
BRANCH  10  23
ATOM     23  O   UNL     1      -3.543   9.985 -31.768  1.00  0.00    -0.500 OA
ATOM     24  H   UNL     1      -3.999   9.183 -31.351  1.00  0.00     0.294 HD
ENDBRANCH  10  23
BRANCH   5  25
ATOM     25  O   UNL     1      -7.984  14.471 -36.293  1.00  0.00    -0.507 OA
ATOM     26  H   UNL     1      -7.556  15.097 -36.966  1.00  0.00     0.293 HD
ENDBRANCH   5  25
BRANCH   7  27
ATOM     27  O   UNL     1      -6.632   9.875 -35.991  1.00  0.00    -0.507 OA
ATOM     28  H   UNL     1      -6.013   9.116 -35.747  1.00  0.00     0.293 HD
ENDBRANCH   7  27
TORSDOF 7
ENDMDL
MODEL 9
REMARK VINA RESULT:    -0.754      1.449      7.019
REMARK INTER + INTRA:          -1.305
REMARK INTER:                  -1.235
REMARK INTRA:                  -0.070
REMARK UNBOUND:                -0.374
REMARK SMILES Oc1cc(O)c2cc(O)c(-c3cc(O)c(O)c(O)c3)[o+]c2c1
REMARK SMILES IDX 10 1 20 2 21 3 22 4 2 5 3 6 4 7 6 8 7 9 8 10 11 11 12 12
REMARK SMILES IDX 13 13 19 14 15 15 17 16 14 17 16 19 18 21 9 23 1 25 5 27
REMARK H PARENT 14 18 16 20 18 22 9 24 1 26 5 28
REMARK Flexibility Score: inf
ROOT
ATOM      1  C   UNL     1      -4.213  13.121 -32.058  1.00  0.00     0.402 A 
ATOM      2  O   UNL     1      -2.943  12.727 -32.118  1.00  0.00    -0.202 OA
ATOM      3  C   UNL     1      -2.057  12.971 -31.158  1.00  0.00     0.368 A 
ATOM      4  C   UNL     1      -0.745  12.518 -31.312  1.00  0.00     0.162 A 
ATOM      5  C   UNL     1       0.208  12.765 -30.320  1.00  0.00     0.128 A 
ATOM      6  C   UNL     1      -0.153  13.467 -29.169  1.00  0.00     0.093 A 
ATOM      7  C   UNL     1      -1.462  13.932 -28.990  1.00  0.00     0.136 A 
ATOM      8  C   UNL     1      -2.433  13.683 -29.993  1.00  0.00     0.125 A 
ATOM      9  C   UNL     1      -3.772  14.099 -29.893  1.00  0.00     0.078 A 
ATOM     10  C   UNL     1      -4.673  13.811 -30.922  1.00  0.00     0.223 A 
ENDROOT
BRANCH   1  11
ATOM     11  C   UNL     1      -5.102  12.795 -33.197  1.00  0.00     0.091 A 
ATOM     12  C   UNL     1      -5.075  11.505 -33.746  1.00  0.00     0.068 A 
ATOM     13  C   UNL     1      -5.889  11.175 -34.835  1.00  0.00     0.162 A 
ATOM     14  C   UNL     1      -5.932  13.769 -33.779  1.00  0.00     0.068 A 
ATOM     15  C   UNL     1      -6.733  12.146 -35.400  1.00  0.00     0.200 A 
ATOM     16  C   UNL     1      -6.749  13.448 -34.872  1.00  0.00     0.162 A 
BRANCH  13  17
ATOM     17  O   UNL     1      -5.844   9.876 -35.342  1.00  0.00    -0.504 OA
ATOM     18  H   UNL     1      -4.992   9.328 -35.347  1.00  0.00     0.293 HD
ENDBRANCH  13  17
BRANCH  15  19
ATOM     19  O   UNL     1      -7.544  11.807 -36.484  1.00  0.00    -0.502 OA
ATOM     20  H   UNL     1      -8.486  11.455 -36.364  1.00  0.00     0.293 HD
ENDBRANCH  15  19
BRANCH  16  21
ATOM     21  O   UNL     1      -7.574  14.419 -35.436  1.00  0.00    -0.504 OA
ATOM     22  H   UNL     1      -7.536  15.387 -35.137  1.00  0.00     0.293 HD
ENDBRANCH  16  21
ENDBRANCH   1  11
BRANCH  10  23
ATOM     23  O   UNL     1      -6.013  14.181 -30.801  1.00  0.00    -0.500 OA
ATOM     24  H   UNL     1      -6.665  14.080 -31.569  1.00  0.00     0.294 HD
ENDBRANCH  10  23
BRANCH   5  25
ATOM     25  O   UNL     1       1.519  12.315 -30.467  1.00  0.00    -0.507 OA
ATOM     26  H   UNL     1       1.828  11.441 -30.058  1.00  0.00     0.293 HD
ENDBRANCH   5  25
BRANCH   7  27
ATOM     27  O   UNL     1      -1.742  14.629 -27.811  1.00  0.00    -0.507 OA
ATOM     28  H   UNL     1      -2.609  15.111 -27.625  1.00  0.00     0.293 HD
ENDBRANCH   7  27
TORSDOF 7
ENDMDL
