MODEL 1
REMARK VINA RESULT:    -4.475      0.000      0.000
REMARK INTER + INTRA:          -9.267
REMARK INTER:                  -8.138
REMARK INTRA:                  -1.129
REMARK UNBOUND:                -1.129
REMARK SMILES CCCCCCCCCCCCCCCC(=O)[O-]
REMARK SMILES IDX 9 1 10 2 11 3 12 4 13 5 14 6 15 7 16 8 17 9 18 10 8 11 7 12
REMARK SMILES IDX 6 13 5 14 4 15 3 16 2 17 1 18
REMARK H PARENT
REMARK Flexibility Score: inf
ROOT
ATOM      1  C   UNL     1      -9.422   5.088 -10.680  1.00  0.00     0.000 C 
ENDROOT
BRANCH   1   2
ATOM      2  C   UNL     1      -8.253   4.831 -11.644  1.00  0.00     0.000 C 
BRANCH   2   3
ATOM      3  C   UNL     1      -8.727   4.446 -13.056  1.00  0.00     0.000 C 
BRANCH   3   4
ATOM      4  C   UNL     1      -8.257   5.443 -14.127  1.00  0.00     0.000 C 
BRANCH   4   5
ATOM      5  C   UNL     1      -6.773   5.263 -14.496  1.00  0.00     0.000 C 
BRANCH   5   6
ATOM      6  C   UNL     1      -6.405   5.957 -15.817  1.00  0.00     0.006 C 
BRANCH   6   7
ATOM      7  C   UNL     1      -7.640   6.375 -16.626  1.00  0.00     0.053 C 
BRANCH   7   8
ATOM      8  C   UNL     1      -7.305   7.514 -17.538  1.00  0.00     0.041 C 
ATOM      9  O   UNL     1      -8.002   7.726 -18.566  1.00  0.00    -0.550 OA
ATOM     10  O   UNL     1      -6.257   8.369 -17.227  1.00  0.00    -0.550 OA
ENDBRANCH   7   8
ENDBRANCH   6   7
ENDBRANCH   5   6
ENDBRANCH   4   5
ENDBRANCH   3   4
ENDBRANCH   2   3
ENDBRANCH   1   2
BRANCH   1  11
ATOM     11  C   UNL     1      -9.171   4.504  -9.279  1.00  0.00     0.000 C 
BRANCH  11  12
ATOM     12  C   UNL     1      -9.190   5.580  -8.180  1.00  0.00    -0.000 C 
BRANCH  12  13
ATOM     13  C   UNL     1      -7.971   5.514  -7.232  1.00  0.00    -0.000 C 
BRANCH  13  14
ATOM     14  C   UNL     1      -7.211   6.849  -7.108  1.00  0.00    -0.000 C 
BRANCH  14  15
ATOM     15  C   UNL     1      -5.775   6.836  -7.676  1.00  0.00    -0.000 C 
BRANCH  15  16
ATOM     16  C   UNL     1      -5.600   6.101  -9.018  1.00  0.00    -0.000 C 
BRANCH  16  17
ATOM     17  C   UNL     1      -4.654   6.831  -9.982  1.00  0.00    -0.003 C 
ATOM     18  C   UNL     1      -4.936   6.440 -11.431  1.00  0.00     0.004 C 
ENDBRANCH  16  17
ENDBRANCH  15  16
ENDBRANCH  14  15
ENDBRANCH  13  14
ENDBRANCH  12  13
ENDBRANCH  11  12
ENDBRANCH   1  11
TORSDOF 14
ENDMDL
MODEL 2
REMARK VINA RESULT:    -4.412      4.554      8.417
REMARK INTER + INTRA:          -9.153
REMARK INTER:                  -8.167
REMARK INTRA:                  -0.986
REMARK UNBOUND:                -1.129
REMARK SMILES CCCCCCCCCCCCCCCC(=O)[O-]
REMARK SMILES IDX 9 1 10 2 11 3 12 4 13 5 14 6 15 7 16 8 17 9 18 10 8 11 7 12
REMARK SMILES IDX 6 13 5 14 4 15 3 16 2 17 1 18
REMARK H PARENT
REMARK Flexibility Score: inf
ROOT
ATOM      1  C   UNL     1      -7.847   5.307 -14.118  1.00  0.00     0.000 C 
ENDROOT
BRANCH   1   2
ATOM      2  C   UNL     1      -8.483   4.507 -12.969  1.00  0.00     0.000 C 
BRANCH   2   3
ATOM      3  C   UNL     1      -8.315   5.198 -11.606  1.00  0.00     0.000 C 
BRANCH   3   4
ATOM      4  C   UNL     1      -9.540   5.012 -10.696  1.00  0.00     0.000 C 
BRANCH   4   5
ATOM      5  C   UNL     1      -9.172   4.456  -9.309  1.00  0.00     0.000 C 
BRANCH   5   6
ATOM      6  C   UNL     1      -9.172   5.541  -8.220  1.00  0.00     0.006 C 
BRANCH   6   7
ATOM      7  C   UNL     1      -7.922   5.483  -7.333  1.00  0.00     0.053 C 
BRANCH   7   8
ATOM      8  C   UNL     1      -8.301   5.580  -5.889  1.00  0.00     0.041 C 
ATOM      9  O   UNL     1      -9.160   6.423  -5.515  1.00  0.00    -0.550 OA
ATOM     10  O   UNL     1      -7.746   4.707  -4.963  1.00  0.00    -0.550 OA
ENDBRANCH   7   8
ENDBRANCH   6   7
ENDBRANCH   5   6
ENDBRANCH   4   5
ENDBRANCH   3   4
ENDBRANCH   2   3
ENDBRANCH   1   2
BRANCH   1  11
ATOM     11  C   UNL     1      -6.629   4.595 -14.730  1.00  0.00     0.000 C 
BRANCH  11  12
ATOM     12  C   UNL     1      -5.298   5.252 -14.327  1.00  0.00    -0.000 C 
BRANCH  12  13
ATOM     13  C   UNL     1      -4.817   6.331 -15.324  1.00  0.00    -0.000 C 
BRANCH  13  14
ATOM     14  C   UNL     1      -5.489   6.238 -16.708  1.00  0.00    -0.000 C 
BRANCH  14  15
ATOM     15  C   UNL     1      -6.257   7.504 -17.146  1.00  0.00    -0.000 C 
BRANCH  15  16
ATOM     16  C   UNL     1      -7.784   7.344 -17.265  1.00  0.00    -0.000 C 
BRANCH  16  17
ATOM     17  C   UNL     1      -8.199   6.023 -17.929  1.00  0.00    -0.003 C 
ATOM     18  C   UNL     1      -9.428   6.215 -18.814  1.00  0.00     0.004 C 
ENDBRANCH  16  17
ENDBRANCH  15  16
ENDBRANCH  14  15
ENDBRANCH  13  14
ENDBRANCH  12  13
ENDBRANCH  11  12
ENDBRANCH   1  11
TORSDOF 14
ENDMDL
MODEL 3
REMARK VINA RESULT:    -4.410      1.940      3.499
REMARK INTER + INTRA:          -9.148
REMARK INTER:                  -8.374
REMARK INTRA:                  -0.775
REMARK UNBOUND:                -1.129
REMARK SMILES CCCCCCCCCCCCCCCC(=O)[O-]
REMARK SMILES IDX 9 1 10 2 11 3 12 4 13 5 14 6 15 7 16 8 17 9 18 10 8 11 7 12
REMARK SMILES IDX 6 13 5 14 4 15 3 16 2 17 1 18
REMARK H PARENT
REMARK Flexibility Score: inf
ROOT
ATOM      1  C   UNL     1      -8.343   4.475 -12.962  1.00  0.00     0.000 C 
ENDROOT
BRANCH   1   2
ATOM      2  C   UNL     1      -6.966   4.208 -13.594  1.00  0.00     0.000 C 
BRANCH   2   3
ATOM      3  C   UNL     1      -6.647   5.179 -14.744  1.00  0.00     0.000 C 
BRANCH   3   4
ATOM      4  C   UNL     1      -7.885   5.956 -15.220  1.00  0.00     0.000 C 
BRANCH   4   5
ATOM      5  C   UNL     1      -7.919   6.139 -16.748  1.00  0.00     0.000 C 
BRANCH   5   6
ATOM      6  C   UNL     1      -7.910   7.618 -17.165  1.00  0.00     0.006 C 
BRANCH   6   7
ATOM      7  C   UNL     1      -6.664   7.990 -17.980  1.00  0.00     0.053 C 
BRANCH   7   8
ATOM      8  C   UNL     1      -5.602   8.546 -17.084  1.00  0.00     0.041 C 
ATOM      9  O   UNL     1      -4.816   7.770 -16.478  1.00  0.00    -0.550 OA
ATOM     10  O   UNL     1      -5.447   9.920 -16.957  1.00  0.00    -0.550 OA
ENDBRANCH   7   8
ENDBRANCH   6   7
ENDBRANCH   5   6
ENDBRANCH   4   5
ENDBRANCH   3   4
ENDBRANCH   2   3
ENDBRANCH   1   2
BRANCH   1  11
ATOM     11  C   UNL     1      -8.239   5.166 -11.592  1.00  0.00     0.000 C 
BRANCH  11  12
ATOM     12  C   UNL     1      -9.523   5.017 -10.758  1.00  0.00    -0.000 C 
BRANCH  12  13
ATOM     13  C   UNL     1      -9.273   4.478  -9.332  1.00  0.00    -0.000 C 
BRANCH  13  14
ATOM     14  C   UNL     1      -9.016   5.583  -8.289  1.00  0.00    -0.000 C 
BRANCH  14  15
ATOM     15  C   UNL     1      -7.727   5.408  -7.457  1.00  0.00    -0.000 C 
BRANCH  15  16
ATOM     16  C   UNL     1      -7.927   5.341  -5.932  1.00  0.00    -0.000 C 
BRANCH  16  17
ATOM     17  C   UNL     1      -9.330   5.781  -5.491  1.00  0.00    -0.003 C 
ATOM     18  C   UNL     1      -9.265   7.027  -4.611  1.00  0.00     0.004 C 
ENDBRANCH  16  17
ENDBRANCH  15  16
ENDBRANCH  14  15
ENDBRANCH  13  14
ENDBRANCH  12  13
ENDBRANCH  11  12
ENDBRANCH   1  11
TORSDOF 14
ENDMDL
MODEL 4
REMARK VINA RESULT:    -4.409      5.289      9.010
REMARK INTER + INTRA:          -9.147
REMARK INTER:                  -8.454
REMARK INTRA:                  -0.693
REMARK UNBOUND:                -1.129
REMARK SMILES CCCCCCCCCCCCCCCC(=O)[O-]
REMARK SMILES IDX 9 1 10 2 11 3 12 4 13 5 14 6 15 7 16 8 17 9 18 10 8 11 7 12
REMARK SMILES IDX 6 13 5 14 4 15 3 16 2 17 1 18
REMARK H PARENT
REMARK Flexibility Score: inf
ROOT
ATOM      1  C   UNL     1      -9.447   5.268 -10.595  1.00  0.00     0.000 C 
ENDROOT
BRANCH   1   2
ATOM      2  C   UNL     1      -9.298   4.487  -9.279  1.00  0.00     0.000 C 
BRANCH   2   3
ATOM      3  C   UNL     1      -9.041   5.408  -8.074  1.00  0.00     0.000 C 
BRANCH   3   4
ATOM      4  C   UNL     1      -7.544   5.676  -7.846  1.00  0.00     0.000 C 
BRANCH   4   5
ATOM      5  C   UNL     1      -7.219   6.023  -6.382  1.00  0.00     0.000 C 
BRANCH   5   6
ATOM      6  C   UNL     1      -8.022   5.175  -5.382  1.00  0.00     0.006 C 
BRANCH   6   7
ATOM      7  C   UNL     1      -7.128   4.492  -4.339  1.00  0.00     0.053 C 
BRANCH   7   8
ATOM      8  C   UNL     1      -7.359   5.085  -2.985  1.00  0.00     0.041 C 
ATOM      9  O   UNL     1      -7.147   4.400  -1.949  1.00  0.00    -0.550 OA
ATOM     10  O   UNL     1      -7.760   6.409  -2.865  1.00  0.00    -0.550 OA
ENDBRANCH   7   8
ENDBRANCH   6   7
ENDBRANCH   5   6
ENDBRANCH   4   5
ENDBRANCH   3   4
ENDBRANCH   2   3
ENDBRANCH   1   2
BRANCH   1  11
ATOM     11  C   UNL     1      -8.799   4.543 -11.787  1.00  0.00     0.000 C 
BRANCH  11  12
ATOM     12  C   UNL     1      -7.552   5.274 -12.314  1.00  0.00    -0.000 C 
BRANCH  12  13
ATOM     13  C   UNL     1      -6.826   4.516 -13.448  1.00  0.00    -0.000 C 
BRANCH  13  14
ATOM     14  C   UNL     1      -5.841   5.392 -14.246  1.00  0.00    -0.000 C 
BRANCH  14  15
ATOM     15  C   UNL     1      -6.267   5.696 -15.698  1.00  0.00    -0.000 C 
BRANCH  15  16
ATOM     16  C   UNL     1      -7.734   6.126 -15.882  1.00  0.00    -0.000 C 
BRANCH  16  17
ATOM     17  C   UNL     1      -7.909   7.224 -16.941  1.00  0.00    -0.003 C 
ATOM     18  C   UNL     1      -6.608   7.993 -17.157  1.00  0.00     0.004 C 
ENDBRANCH  16  17
ENDBRANCH  15  16
ENDBRANCH  14  15
ENDBRANCH  13  14
ENDBRANCH  12  13
ENDBRANCH  11  12
ENDBRANCH   1  11
TORSDOF 14
ENDMDL
MODEL 5
REMARK VINA RESULT:    -4.381      5.615      9.359
REMARK INTER + INTRA:          -9.096
REMARK INTER:                  -8.124
REMARK INTRA:                  -0.973
REMARK UNBOUND:                -1.129
REMARK SMILES CCCCCCCCCCCCCCCC(=O)[O-]
REMARK SMILES IDX 9 1 10 2 11 3 12 4 13 5 14 6 15 7 16 8 17 9 18 10 8 11 7 12
REMARK SMILES IDX 6 13 5 14 4 15 3 16 2 17 1 18
REMARK H PARENT
REMARK Flexibility Score: inf
ROOT
ATOM      1  C   UNL     1      -7.725   5.590  -7.716  1.00  0.00     0.000 C 
ENDROOT
BRANCH   1   2
ATOM      2  C   UNL     1      -7.636   5.312  -6.206  1.00  0.00     0.000 C 
BRANCH   2   3
ATOM      3  C   UNL     1      -8.962   5.584  -5.477  1.00  0.00     0.000 C 
BRANCH   3   4
ATOM      4  C   UNL     1      -8.986   6.960  -4.792  1.00  0.00     0.000 C 
BRANCH   4   5
ATOM      5  C   UNL     1      -7.628   7.341  -4.176  1.00  0.00     0.000 C 
BRANCH   5   6
ATOM      6  C   UNL     1      -7.399   6.691  -2.802  1.00  0.00     0.006 C 
BRANCH   6   7
ATOM      7  C   UNL     1      -6.223   5.706  -2.806  1.00  0.00     0.053 C 
BRANCH   7   8
ATOM      8  C   UNL     1      -6.718   4.301  -2.668  1.00  0.00     0.041 C 
ATOM      9  O   UNL     1      -6.355   3.418  -3.490  1.00  0.00    -0.550 OA
ATOM     10  O   UNL     1      -7.540   3.954  -1.604  1.00  0.00    -0.550 OA
ENDBRANCH   7   8
ENDBRANCH   6   7
ENDBRANCH   5   6
ENDBRANCH   4   5
ENDBRANCH   3   4
ENDBRANCH   2   3
ENDBRANCH   1   2
BRANCH   1  11
ATOM     11  C   UNL     1      -9.174   5.581  -8.232  1.00  0.00     0.000 C 
BRANCH  11  12
ATOM     12  C   UNL     1      -9.407   4.513  -9.315  1.00  0.00    -0.000 C 
BRANCH  12  13
ATOM     13  C   UNL     1      -9.516   5.096 -10.742  1.00  0.00    -0.000 C 
BRANCH  13  14
ATOM     14  C   UNL     1      -8.239   4.909 -11.585  1.00  0.00    -0.000 C 
BRANCH  14  15
ATOM     15  C   UNL     1      -8.478   4.420 -13.030  1.00  0.00    -0.000 C 
BRANCH  15  16
ATOM     16  C   UNL     1      -8.073   5.407 -14.140  1.00  0.00    -0.000 C 
BRANCH  16  17
ATOM     17  C   UNL     1      -6.589   5.307 -14.519  1.00  0.00    -0.003 C 
ATOM     18  C   UNL     1      -6.145   3.851 -14.629  1.00  0.00     0.004 C 
ENDBRANCH  16  17
ENDBRANCH  15  16
ENDBRANCH  14  15
ENDBRANCH  13  14
ENDBRANCH  12  13
ENDBRANCH  11  12
ENDBRANCH   1  11
TORSDOF 14
ENDMDL
MODEL 6
REMARK VINA RESULT:    -4.366      2.164      3.982
REMARK INTER + INTRA:          -9.069
REMARK INTER:                  -8.423
REMARK INTRA:                  -0.646
REMARK UNBOUND:                -1.129
REMARK SMILES CCCCCCCCCCCCCCCC(=O)[O-]
REMARK SMILES IDX 9 1 10 2 11 3 12 4 13 5 14 6 15 7 16 8 17 9 18 10 8 11 7 12
REMARK SMILES IDX 6 13 5 14 4 15 3 16 2 17 1 18
REMARK H PARENT
REMARK Flexibility Score: inf
ROOT
ATOM      1  C   UNL     1      -9.319   4.490  -9.277  1.00  0.00     0.000 C 
ENDROOT
BRANCH   1   2
ATOM      2  C   UNL     1      -9.534   5.157 -10.645  1.00  0.00     0.000 C 
BRANCH   2   3
ATOM      3  C   UNL     1      -8.377   4.885 -11.621  1.00  0.00     0.000 C 
BRANCH   3   4
ATOM      4  C   UNL     1      -8.869   4.497 -13.025  1.00  0.00     0.000 C 
BRANCH   4   5
ATOM      5  C   UNL     1      -8.102   5.222 -14.145  1.00  0.00     0.000 C 
BRANCH   5   6
ATOM      6  C   UNL     1      -6.590   5.288 -13.878  1.00  0.00     0.006 C 
BRANCH   6   7
ATOM      7  C   UNL     1      -5.758   4.948 -15.122  1.00  0.00     0.053 C 
BRANCH   7   8
ATOM      8  C   UNL     1      -5.954   5.987 -16.180  1.00  0.00     0.041 C 
ATOM      9  O   UNL     1      -5.187   6.985 -16.237  1.00  0.00    -0.550 OA
ATOM     10  O   UNL     1      -6.950   5.829 -17.135  1.00  0.00    -0.550 OA
ENDBRANCH   7   8
ENDBRANCH   6   7
ENDBRANCH   5   6
ENDBRANCH   4   5
ENDBRANCH   3   4
ENDBRANCH   2   3
ENDBRANCH   1   2
BRANCH   1  11
ATOM     11  C   UNL     1      -9.032   5.511  -8.162  1.00  0.00     0.000 C 
BRANCH  11  12
ATOM     12  C   UNL     1      -7.530   5.641  -7.855  1.00  0.00    -0.000 C 
BRANCH  12  13
ATOM     13  C   UNL     1      -7.235   6.205  -6.447  1.00  0.00    -0.000 C 
BRANCH  13  14
ATOM     14  C   UNL     1      -7.605   5.240  -5.304  1.00  0.00    -0.000 C 
BRANCH  14  15
ATOM     15  C   UNL     1      -8.896   5.600  -4.538  1.00  0.00    -0.000 C 
BRANCH  15  16
ATOM     16  C   UNL     1      -9.471   6.998  -4.829  1.00  0.00    -0.000 C 
BRANCH  16  17
ATOM     17  C   UNL     1      -9.271   7.983  -3.669  1.00  0.00    -0.003 C 
ATOM     18  C   UNL     1     -10.610   8.507  -3.155  1.00  0.00     0.004 C 
ENDBRANCH  16  17
ENDBRANCH  15  16
ENDBRANCH  14  15
ENDBRANCH  13  14
ENDBRANCH  12  13
ENDBRANCH  11  12
ENDBRANCH   1  11
TORSDOF 14
ENDMDL
MODEL 7
REMARK VINA RESULT:    -4.365      5.143      8.632
REMARK INTER + INTRA:          -9.067
REMARK INTER:                  -8.301
REMARK INTRA:                  -0.766
REMARK UNBOUND:                -1.129
REMARK SMILES CCCCCCCCCCCCCCCC(=O)[O-]
REMARK SMILES IDX 9 1 10 2 11 3 12 4 13 5 14 6 15 7 16 8 17 9 18 10 8 11 7 12
REMARK SMILES IDX 6 13 5 14 4 15 3 16 2 17 1 18
REMARK H PARENT
REMARK Flexibility Score: inf
ROOT
ATOM      1  C   UNL     1      -8.367   4.916 -11.531  1.00  0.00     0.000 C 
ENDROOT
BRANCH   1   2
ATOM      2  C   UNL     1      -9.637   5.075 -10.680  1.00  0.00     0.000 C 
BRANCH   2   3
ATOM      3  C   UNL     1      -9.476   4.492  -9.266  1.00  0.00     0.000 C 
BRANCH   3   4
ATOM      4  C   UNL     1      -9.119   5.565  -8.224  1.00  0.00     0.000 C 
BRANCH   4   5
ATOM      5  C   UNL     1      -7.708   5.378  -7.640  1.00  0.00     0.000 C 
BRANCH   5   6
ATOM      6  C   UNL     1      -7.640   5.715  -6.142  1.00  0.00     0.006 C 
BRANCH   6   7
ATOM      7  C   UNL     1      -8.997   6.150  -5.575  1.00  0.00     0.053 C 
BRANCH   7   8
ATOM      8  C   UNL     1      -8.903   6.359  -4.096  1.00  0.00     0.041 C 
ATOM      9  O   UNL     1      -8.194   5.590  -3.392  1.00  0.00    -0.550 OA
ATOM     10  O   UNL     1      -9.555   7.431  -3.501  1.00  0.00    -0.550 OA
ENDBRANCH   7   8
ENDBRANCH   6   7
ENDBRANCH   5   6
ENDBRANCH   4   5
ENDBRANCH   3   4
ENDBRANCH   2   3
ENDBRANCH   1   2
BRANCH   1  11
ATOM     11  C   UNL     1      -8.678   4.557 -12.994  1.00  0.00     0.000 C 
BRANCH  11  12
ATOM     12  C   UNL     1      -7.712   5.231 -13.984  1.00  0.00    -0.000 C 
BRANCH  12  13
ATOM     13  C   UNL     1      -6.244   4.779 -13.817  1.00  0.00    -0.000 C 
BRANCH  13  14
ATOM     14  C   UNL     1      -5.365   5.065 -15.050  1.00  0.00    -0.000 C 
BRANCH  14  15
ATOM     15  C   UNL     1      -6.110   5.684 -16.252  1.00  0.00    -0.000 C 
BRANCH  15  16
ATOM     16  C   UNL     1      -5.558   7.032 -16.751  1.00  0.00    -0.000 C 
BRANCH  16  17
ATOM     17  C   UNL     1      -6.662   8.016 -17.164  1.00  0.00    -0.003 C 
ATOM     18  C   UNL     1      -8.046   7.458 -16.840  1.00  0.00     0.004 C 
ENDBRANCH  16  17
ENDBRANCH  15  16
ENDBRANCH  14  15
ENDBRANCH  13  14
ENDBRANCH  12  13
ENDBRANCH  11  12
ENDBRANCH   1  11
TORSDOF 14
ENDMDL
MODEL 8
REMARK VINA RESULT:    -4.351      3.383      5.295
REMARK INTER + INTRA:          -9.040
REMARK INTER:                  -8.069
REMARK INTRA:                  -0.971
REMARK UNBOUND:                -1.129
REMARK SMILES CCCCCCCCCCCCCCCC(=O)[O-]
REMARK SMILES IDX 9 1 10 2 11 3 12 4 13 5 14 6 15 7 16 8 17 9 18 10 8 11 7 12
REMARK SMILES IDX 6 13 5 14 4 15 3 16 2 17 1 18
REMARK H PARENT
REMARK Flexibility Score: inf
ROOT
ATOM      1  C   UNL     1      -7.745   5.485  -7.329  1.00  0.00     0.000 C 
ENDROOT
BRANCH   1   2
ATOM      2  C   UNL     1      -9.054   5.613  -8.125  1.00  0.00     0.000 C 
BRANCH   2   3
ATOM      3  C   UNL     1      -9.198   4.524  -9.202  1.00  0.00     0.000 C 
BRANCH   3   4
ATOM      4  C   UNL     1      -9.569   5.101 -10.577  1.00  0.00     0.000 C 
BRANCH   4   5
ATOM      5  C   UNL     1      -8.369   5.161 -11.539  1.00  0.00     0.000 C 
BRANCH   5   6
ATOM      6  C   UNL     1      -8.635   4.426 -12.862  1.00  0.00     0.006 C 
BRANCH   6   7
ATOM      7  C   UNL     1      -7.888   5.056 -14.045  1.00  0.00     0.053 C 
BRANCH   7   8
ATOM      8  C   UNL     1      -6.450   4.640 -14.035  1.00  0.00     0.041 C 
ATOM      9  O   UNL     1      -6.099   3.563 -14.585  1.00  0.00    -0.550 OA
ATOM     10  O   UNL     1      -5.491   5.466 -13.464  1.00  0.00    -0.550 OA
ENDBRANCH   7   8
ENDBRANCH   6   7
ENDBRANCH   5   6
ENDBRANCH   4   5
ENDBRANCH   3   4
ENDBRANCH   2   3
ENDBRANCH   1   2
BRANCH   1  11
ATOM     11  C   UNL     1      -7.987   5.198  -5.837  1.00  0.00     0.000 C 
BRANCH  11  12
ATOM     12  C   UNL     1      -9.183   5.983  -5.272  1.00  0.00    -0.000 C 
BRANCH  12  13
ATOM     13  C   UNL     1      -8.788   7.338  -4.643  1.00  0.00    -0.000 C 
BRANCH  13  14
ATOM     14  C   UNL     1      -9.746   7.806  -3.530  1.00  0.00    -0.000 C 
BRANCH  14  15
ATOM     15  C   UNL     1      -9.610   7.048  -2.192  1.00  0.00    -0.000 C 
BRANCH  15  16
ATOM     16  C   UNL     1      -8.211   6.480  -1.891  1.00  0.00    -0.000 C 
BRANCH  16  17
ATOM     17  C   UNL     1      -8.200   4.951  -1.760  1.00  0.00    -0.003 C 
ATOM     18  C   UNL     1      -6.925   4.357  -2.354  1.00  0.00     0.004 C 
ENDBRANCH  16  17
ENDBRANCH  15  16
ENDBRANCH  14  15
ENDBRANCH  13  14
ENDBRANCH  12  13
ENDBRANCH  11  12
ENDBRANCH   1  11
TORSDOF 14
ENDMDL
MODEL 9
REMARK VINA RESULT:    -4.269      1.763      3.122
REMARK INTER + INTRA:          -8.891
REMARK INTER:                  -8.046
REMARK INTRA:                  -0.846
REMARK UNBOUND:                -1.129
REMARK SMILES CCCCCCCCCCCCCCCC(=O)[O-]
REMARK SMILES IDX 9 1 10 2 11 3 12 4 13 5 14 6 15 7 16 8 17 9 18 10 8 11 7 12
REMARK SMILES IDX 6 13 5 14 4 15 3 16 2 17 1 18
REMARK H PARENT
REMARK Flexibility Score: inf
ROOT
ATOM      1  C   UNL     1      -9.466   5.241 -10.751  1.00  0.00     0.000 C 
ENDROOT
BRANCH   1   2
ATOM      2  C   UNL     1      -8.196   5.157 -11.614  1.00  0.00     0.000 C 
BRANCH   2   3
ATOM      3  C   UNL     1      -8.455   4.504 -12.982  1.00  0.00     0.000 C 
BRANCH   3   4
ATOM      4  C   UNL     1      -7.155   4.125 -13.709  1.00  0.00     0.000 C 
BRANCH   4   5
ATOM      5  C   UNL     1      -6.075   5.216 -13.601  1.00  0.00     0.000 C 
BRANCH   5   6
ATOM      6  C   UNL     1      -5.562   5.676 -14.975  1.00  0.00     0.006 C 
BRANCH   6   7
ATOM      7  C   UNL     1      -6.315   5.014 -16.136  1.00  0.00     0.053 C 
BRANCH   7   8
ATOM      8  C   UNL     1      -7.222   6.002 -16.800  1.00  0.00     0.041 C 
ATOM      9  O   UNL     1      -7.317   6.029 -18.056  1.00  0.00    -0.550 OA
ATOM     10  O   UNL     1      -8.001   6.857 -16.032  1.00  0.00    -0.550 OA
ENDBRANCH   7   8
ENDBRANCH   6   7
ENDBRANCH   5   6
ENDBRANCH   4   5
ENDBRANCH   3   4
ENDBRANCH   2   3
ENDBRANCH   1   2
BRANCH   1  11
ATOM     11  C   UNL     1      -9.318   4.503  -9.410  1.00  0.00     0.000 C 
BRANCH  11  12
ATOM     12  C   UNL     1      -9.111   5.464  -8.227  1.00  0.00    -0.000 C 
BRANCH  12  13
ATOM     13  C   UNL     1      -7.630   5.621  -7.813  1.00  0.00    -0.000 C 
BRANCH  13  14
ATOM     14  C   UNL     1      -7.408   6.656  -6.693  1.00  0.00    -0.000 C 
BRANCH  14  15
ATOM     15  C   UNL     1      -8.391   6.554  -5.507  1.00  0.00    -0.000 C 
BRANCH  15  16
ATOM     16  C   UNL     1      -8.297   5.260  -4.678  1.00  0.00    -0.000 C 
BRANCH  16  17
ATOM     17  C   UNL     1      -6.882   4.987  -4.149  1.00  0.00    -0.003 C 
ATOM     18  C   UNL     1      -6.443   6.071  -3.169  1.00  0.00     0.004 C 
ENDBRANCH  16  17
ENDBRANCH  15  16
ENDBRANCH  14  15
ENDBRANCH  13  14
ENDBRANCH  12  13
ENDBRANCH  11  12
ENDBRANCH   1  11
TORSDOF 14
ENDMDL
