MODEL 1
REMARK VINA RESULT:    -4.246      0.000      0.000
REMARK INTER + INTRA:          -8.198
REMARK INTER:                  -7.472
REMARK INTRA:                  -0.725
REMARK UNBOUND:                -0.725
REMARK SMILES CCCCCCCCCCCCCCC(=O)[O-]
REMARK SMILES IDX 9 1 10 2 11 3 12 4 13 5 14 6 15 7 16 8 17 9 8 10 7 11 6 12
REMARK SMILES IDX 5 13 4 14 3 15 2 16 1 17
REMARK H PARENT
REMARK Flexibility Score: inf
ROOT
ATOM      1  C   UNL     1       5.268  13.303  33.637  1.00  0.00     0.000 C 
ENDROOT
BRANCH   1   2
ATOM      2  C   UNL     1       4.897  11.826  33.409  1.00  0.00     0.000 C 
BRANCH   2   3
ATOM      3  C   UNL     1       4.875  11.006  34.708  1.00  0.00     0.000 C 
BRANCH   3   4
ATOM      4  C   UNL     1       6.030   9.993  34.734  1.00  0.00     0.000 C 
BRANCH   4   5
ATOM      5  C   UNL     1       6.498   9.593  33.327  1.00  0.00     0.006 C 
BRANCH   5   6
ATOM      6  C   UNL     1       7.744   8.698  33.352  1.00  0.00     0.053 C 
BRANCH   6   7
ATOM      7  C   UNL     1       7.374   7.299  33.732  1.00  0.00     0.041 C 
ATOM      8  O   UNL     1       6.301   6.791  33.313  1.00  0.00    -0.550 OA
ATOM      9  O   UNL     1       8.190   6.573  34.590  1.00  0.00    -0.550 OA
ENDBRANCH   6   7
ENDBRANCH   5   6
ENDBRANCH   4   5
ENDBRANCH   3   4
ENDBRANCH   2   3
ENDBRANCH   1   2
BRANCH   1  10
ATOM     10  C   UNL     1       5.151  13.789  35.093  1.00  0.00     0.000 C 
BRANCH  10  11
ATOM     11  C   UNL     1       6.109  14.949  35.412  1.00  0.00    -0.000 C 
BRANCH  11  12
ATOM     12  C   UNL     1       5.753  16.240  34.654  1.00  0.00    -0.000 C 
BRANCH  12  13
ATOM     13  C   UNL     1       6.658  17.449  34.963  1.00  0.00    -0.000 C 
BRANCH  13  14
ATOM     14  C   UNL     1       6.013  18.811  34.628  1.00  0.00    -0.000 C 
BRANCH  14  15
ATOM     15  C   UNL     1       5.284  18.791  33.273  1.00  0.00    -0.000 C 
BRANCH  15  16
ATOM     16  C   UNL     1       5.861  19.807  32.277  1.00  0.00    -0.003 C 
ATOM     17  C   UNL     1       7.183  20.414  32.747  1.00  0.00     0.004 C 
ENDBRANCH  15  16
ENDBRANCH  14  15
ENDBRANCH  13  14
ENDBRANCH  12  13
ENDBRANCH  11  12
ENDBRANCH  10  11
ENDBRANCH   1  10
TORSDOF 13
ENDMDL
MODEL 2
REMARK VINA RESULT:    -4.125      4.093      9.403
REMARK INTER + INTRA:          -7.986
REMARK INTER:                  -7.033
REMARK INTRA:                  -0.953
REMARK UNBOUND:                -0.725
REMARK SMILES CCCCCCCCCCCCCCC(=O)[O-]
REMARK SMILES IDX 9 1 10 2 11 3 12 4 13 5 14 6 15 7 16 8 17 9 8 10 7 11 6 12
REMARK SMILES IDX 5 13 4 14 3 15 2 16 1 17
REMARK H PARENT
REMARK Flexibility Score: inf
ROOT
ATOM      1  C   UNL     1       6.759   9.130  33.977  1.00  0.00     0.000 C 
ENDROOT
BRANCH   1   2
ATOM      2  C   UNL     1       6.309  10.239  33.008  1.00  0.00     0.000 C 
BRANCH   2   3
ATOM      3  C   UNL     1       5.246  11.168  33.614  1.00  0.00     0.000 C 
BRANCH   3   4
ATOM      4  C   UNL     1       5.200  11.024  35.142  1.00  0.00     0.000 C 
BRANCH   4   5
ATOM      5  C   UNL     1       5.322  12.373  35.868  1.00  0.00     0.006 C 
BRANCH   5   6
ATOM      6  C   UNL     1       5.357  13.563  34.901  1.00  0.00     0.053 C 
BRANCH   6   7
ATOM      7  C   UNL     1       6.131  14.697  35.497  1.00  0.00     0.041 C 
ATOM      8  O   UNL     1       6.383  14.713  36.731  1.00  0.00    -0.550 OA
ATOM      9  O   UNL     1       6.531  15.761  34.699  1.00  0.00    -0.550 OA
ENDBRANCH   6   7
ENDBRANCH   5   6
ENDBRANCH   4   5
ENDBRANCH   3   4
ENDBRANCH   2   3
ENDBRANCH   1   2
BRANCH   1  10
ATOM     10  C   UNL     1       7.130   7.792  33.312  1.00  0.00     0.000 C 
BRANCH  10  11
ATOM     11  C   UNL     1       6.107   6.680  33.599  1.00  0.00    -0.000 C 
BRANCH  11  12
ATOM     12  C   UNL     1       6.073   6.272  35.083  1.00  0.00    -0.000 C 
BRANCH  12  13
ATOM     13  C   UNL     1       7.160   5.267  35.509  1.00  0.00    -0.000 C 
BRANCH  13  14
ATOM     14  C   UNL     1       8.479   5.930  35.960  1.00  0.00    -0.000 C 
BRANCH  14  15
ATOM     15  C   UNL     1       9.715   5.215  35.385  1.00  0.00    -0.000 C 
BRANCH  15  16
ATOM     16  C   UNL     1      10.191   5.828  34.061  1.00  0.00    -0.003 C 
ATOM     17  C   UNL     1      11.638   5.469  33.727  1.00  0.00     0.004 C 
ENDBRANCH  15  16
ENDBRANCH  14  15
ENDBRANCH  13  14
ENDBRANCH  12  13
ENDBRANCH  11  12
ENDBRANCH  10  11
ENDBRANCH   1  10
TORSDOF 13
ENDMDL
MODEL 3
REMARK VINA RESULT:    -4.026      2.604      5.612
REMARK INTER + INTRA:          -7.810
REMARK INTER:                  -6.903
REMARK INTRA:                  -0.907
REMARK UNBOUND:                -0.725
REMARK SMILES CCCCCCCCCCCCCCC(=O)[O-]
REMARK SMILES IDX 9 1 10 2 11 3 12 4 13 5 14 6 15 7 16 8 17 9 8 10 7 11 6 12
REMARK SMILES IDX 5 13 4 14 3 15 2 16 1 17
REMARK H PARENT
REMARK Flexibility Score: inf
ROOT
ATOM      1  C   UNL     1       7.666   7.305  33.717  1.00  0.00     0.000 C 
ENDROOT
BRANCH   1   2
ATOM      2  C   UNL     1       6.266   6.665  33.699  1.00  0.00     0.000 C 
BRANCH   2   3
ATOM      3  C   UNL     1       5.896   5.994  35.031  1.00  0.00     0.000 C 
BRANCH   3   4
ATOM      4  C   UNL     1       5.880   4.465  34.888  1.00  0.00     0.000 C 
BRANCH   4   5
ATOM      5  C   UNL     1       6.817   3.767  35.886  1.00  0.00     0.006 C 
BRANCH   5   6
ATOM      6  C   UNL     1       7.878   4.713  36.461  1.00  0.00     0.053 C 
BRANCH   6   7
ATOM      7  C   UNL     1       9.243   4.304  36.007  1.00  0.00     0.041 C 
ATOM      8  O   UNL     1       9.908   5.051  35.242  1.00  0.00    -0.550 OA
ATOM      9  O   UNL     1       9.764   3.073  36.389  1.00  0.00    -0.550 OA
ENDBRANCH   6   7
ENDBRANCH   5   6
ENDBRANCH   4   5
ENDBRANCH   3   4
ENDBRANCH   2   3
ENDBRANCH   1   2
BRANCH   1  10
ATOM     10  C   UNL     1       7.693   8.825  33.473  1.00  0.00     0.000 C 
BRANCH  10  11
ATOM     11  C   UNL     1       6.390   9.520  33.903  1.00  0.00    -0.000 C 
BRANCH  11  12
ATOM     12  C   UNL     1       5.990  10.669  32.961  1.00  0.00    -0.000 C 
BRANCH  12  13
ATOM     13  C   UNL     1       5.094  11.751  33.594  1.00  0.00    -0.000 C 
BRANCH  13  14
ATOM     14  C   UNL     1       5.203  11.828  35.132  1.00  0.00    -0.000 C 
BRANCH  14  15
ATOM     15  C   UNL     1       5.331  13.278  35.633  1.00  0.00    -0.000 C 
BRANCH  15  16
ATOM     16  C   UNL     1       5.425  14.294  34.486  1.00  0.00    -0.003 C 
ATOM     17  C   UNL     1       6.272  15.515  34.844  1.00  0.00     0.004 C 
ENDBRANCH  15  16
ENDBRANCH  14  15
ENDBRANCH  13  14
ENDBRANCH  12  13
ENDBRANCH  11  12
ENDBRANCH  10  11
ENDBRANCH   1  10
TORSDOF 13
ENDMDL
MODEL 4
REMARK VINA RESULT:    -3.995      4.655      9.548
REMARK INTER + INTRA:          -7.757
REMARK INTER:                  -5.774
REMARK INTRA:                  -1.983
REMARK UNBOUND:                -0.725
REMARK SMILES CCCCCCCCCCCCCCC(=O)[O-]
REMARK SMILES IDX 9 1 10 2 11 3 12 4 13 5 14 6 15 7 16 8 17 9 8 10 7 11 6 12
REMARK SMILES IDX 5 13 4 14 3 15 2 16 1 17
REMARK H PARENT
REMARK Flexibility Score: inf
ROOT
ATOM      1  C   UNL     1       7.403   7.255  33.733  1.00  0.00     0.000 C 
ENDROOT
BRANCH   1   2
ATOM      2  C   UNL     1       7.452   8.661  34.358  1.00  0.00     0.000 C 
BRANCH   2   3
ATOM      3  C   UNL     1       7.414   8.637  35.894  1.00  0.00     0.000 C 
BRANCH   3   4
ATOM      4  C   UNL     1       6.203   9.419  36.423  1.00  0.00     0.000 C 
BRANCH   4   5
ATOM      5  C   UNL     1       5.228   9.829  35.308  1.00  0.00     0.006 C 
BRANCH   5   6
ATOM      6  C   UNL     1       4.965  11.339  35.279  1.00  0.00     0.053 C 
BRANCH   6   7
ATOM      7  C   UNL     1       5.280  11.899  33.928  1.00  0.00     0.041 C 
ATOM      8  O   UNL     1       5.513  11.126  32.961  1.00  0.00    -0.550 OA
ATOM      9  O   UNL     1       5.364  13.273  33.746  1.00  0.00    -0.550 OA
ENDBRANCH   6   7
ENDBRANCH   5   6
ENDBRANCH   4   5
ENDBRANCH   3   4
ENDBRANCH   2   3
ENDBRANCH   1   2
BRANCH   1  10
ATOM     10  C   UNL     1       6.005   6.786  33.288  1.00  0.00     0.000 C 
BRANCH  10  11
ATOM     11  C   UNL     1       5.543   5.513  34.016  1.00  0.00    -0.000 C 
BRANCH  11  12
ATOM     12  C   UNL     1       5.216   5.761  35.499  1.00  0.00    -0.000 C 
BRANCH  12  13
ATOM     13  C   UNL     1       6.198   5.120  36.500  1.00  0.00    -0.000 C 
BRANCH  13  14
ATOM     14  C   UNL     1       7.047   3.981  35.897  1.00  0.00    -0.000 C 
BRANCH  14  15
ATOM     15  C   UNL     1       8.481   3.967  36.456  1.00  0.00    -0.000 C 
BRANCH  15  16
ATOM     16  C   UNL     1       9.215   5.297  36.235  1.00  0.00    -0.003 C 
ATOM     17  C   UNL     1      10.070   5.299  34.968  1.00  0.00     0.004 C 
ENDBRANCH  15  16
ENDBRANCH  14  15
ENDBRANCH  13  14
ENDBRANCH  12  13
ENDBRANCH  11  12
ENDBRANCH  10  11
ENDBRANCH   1  10
TORSDOF 13
ENDMDL
MODEL 5
REMARK VINA RESULT:    -3.913      2.539      5.292
REMARK INTER + INTRA:          -7.612
REMARK INTER:                  -6.625
REMARK INTRA:                  -0.987
REMARK UNBOUND:                -0.725
REMARK SMILES CCCCCCCCCCCCCCC(=O)[O-]
REMARK SMILES IDX 9 1 10 2 11 3 12 4 13 5 14 6 15 7 16 8 17 9 8 10 7 11 6 12
REMARK SMILES IDX 5 13 4 14 3 15 2 16 1 17
REMARK H PARENT
REMARK Flexibility Score: inf
ROOT
ATOM      1  C   UNL     1       7.838   8.356  33.375  1.00  0.00     0.000 C 
ENDROOT
BRANCH   1   2
ATOM      2  C   UNL     1       7.154   7.019  33.718  1.00  0.00     0.000 C 
BRANCH   2   3
ATOM      3  C   UNL     1       7.679   6.395  35.020  1.00  0.00     0.000 C 
BRANCH   3   4
ATOM      4  C   UNL     1       6.607   5.511  35.674  1.00  0.00     0.000 C 
BRANCH   4   5
ATOM      5  C   UNL     1       5.336   5.389  34.818  1.00  0.00     0.006 C 
BRANCH   5   6
ATOM      6  C   UNL     1       4.986   3.934  34.485  1.00  0.00     0.053 C 
BRANCH   6   7
ATOM      7  C   UNL     1       5.019   3.714  33.005  1.00  0.00     0.041 C 
ATOM      8  O   UNL     1       4.875   4.685  32.217  1.00  0.00    -0.550 OA
ATOM      9  O   UNL     1       5.161   2.430  32.496  1.00  0.00    -0.550 OA
ENDBRANCH   6   7
ENDBRANCH   5   6
ENDBRANCH   4   5
ENDBRANCH   3   4
ENDBRANCH   2   3
ENDBRANCH   1   2
BRANCH   1  10
ATOM     10  C   UNL     1       6.909   9.584  33.375  1.00  0.00     0.000 C 
BRANCH  10  11
ATOM     11  C   UNL     1       5.798   9.490  34.435  1.00  0.00    -0.000 C 
BRANCH  11  12
ATOM     12  C   UNL     1       4.998  10.797  34.575  1.00  0.00    -0.000 C 
BRANCH  12  13
ATOM     13  C   UNL     1       5.141  11.779  33.395  1.00  0.00    -0.000 C 
BRANCH  13  14
ATOM     14  C   UNL     1       5.242  13.258  33.826  1.00  0.00    -0.000 C 
BRANCH  14  15
ATOM     15  C   UNL     1       5.171  13.424  35.355  1.00  0.00    -0.000 C 
BRANCH  15  16
ATOM     16  C   UNL     1       6.115  14.518  35.875  1.00  0.00    -0.003 C 
ATOM     17  C   UNL     1       6.335  15.641  34.863  1.00  0.00     0.004 C 
ENDBRANCH  15  16
ENDBRANCH  14  15
ENDBRANCH  13  14
ENDBRANCH  12  13
ENDBRANCH  11  12
ENDBRANCH  10  11
ENDBRANCH   1  10
TORSDOF 13
ENDMDL
MODEL 6
REMARK VINA RESULT:    -3.878      4.526      9.395
REMARK INTER + INTRA:          -7.550
REMARK INTER:                  -6.886
REMARK INTRA:                  -0.664
REMARK UNBOUND:                -0.725
REMARK SMILES CCCCCCCCCCCCCCC(=O)[O-]
REMARK SMILES IDX 9 1 10 2 11 3 12 4 13 5 14 6 15 7 16 8 17 9 8 10 7 11 6 12
REMARK SMILES IDX 5 13 4 14 3 15 2 16 1 17
REMARK H PARENT
REMARK Flexibility Score: inf
ROOT
ATOM      1  C   UNL     1       5.202  13.572  34.145  1.00  0.00     0.000 C 
ENDROOT
BRANCH   1   2
ATOM      2  C   UNL     1       5.608  13.779  35.616  1.00  0.00     0.000 C 
BRANCH   2   3
ATOM      3  C   UNL     1       5.611  15.257  36.035  1.00  0.00     0.000 C 
BRANCH   3   4
ATOM      4  C   UNL     1       5.428  16.172  34.815  1.00  0.00     0.000 C 
BRANCH   4   5
ATOM      5  C   UNL     1       6.687  16.992  34.495  1.00  0.00     0.006 C 
BRANCH   5   6
ATOM      6  C   UNL     1       6.515  18.483  34.807  1.00  0.00     0.053 C 
BRANCH   6   7
ATOM      7  C   UNL     1       6.583  19.291  33.549  1.00  0.00     0.041 C 
ATOM      8  O   UNL     1       7.563  20.053  33.336  1.00  0.00    -0.550 OA
ATOM      9  O   UNL     1       5.540  19.239  32.632  1.00  0.00    -0.550 OA
ENDBRANCH   6   7
ENDBRANCH   5   6
ENDBRANCH   4   5
ENDBRANCH   3   4
ENDBRANCH   2   3
ENDBRANCH   1   2
BRANCH   1  10
ATOM     10  C   UNL     1       5.113  12.103  33.692  1.00  0.00     0.000 C 
BRANCH  10  11
ATOM     11  C   UNL     1       5.326  11.110  34.847  1.00  0.00    -0.000 C 
BRANCH  11  12
ATOM     12  C   UNL     1       5.497   9.660  34.360  1.00  0.00    -0.000 C 
BRANCH  12  13
ATOM     13  C   UNL     1       6.551   9.464  33.252  1.00  0.00    -0.000 C 
BRANCH  13  14
ATOM     14  C   UNL     1       7.827   8.736  33.728  1.00  0.00    -0.000 C 
BRANCH  14  15
ATOM     15  C   UNL     1       7.687   7.205  33.647  1.00  0.00    -0.000 C 
BRANCH  15  16
ATOM     16  C   UNL     1       7.369   6.568  35.007  1.00  0.00    -0.003 C 
ATOM     17  C   UNL     1       8.576   5.870  35.632  1.00  0.00     0.004 C 
ENDBRANCH  15  16
ENDBRANCH  14  15
ENDBRANCH  13  14
ENDBRANCH  12  13
ENDBRANCH  11  12
ENDBRANCH  10  11
ENDBRANCH   1  10
TORSDOF 13
ENDMDL
MODEL 7
REMARK VINA RESULT:    -3.793      5.131      9.855
REMARK INTER + INTRA:          -7.400
REMARK INTER:                  -5.400
REMARK INTRA:                  -2.000
REMARK UNBOUND:                -0.725
REMARK SMILES CCCCCCCCCCCCCCC(=O)[O-]
REMARK SMILES IDX 9 1 10 2 11 3 12 4 13 5 14 6 15 7 16 8 17 9 8 10 7 11 6 12
REMARK SMILES IDX 5 13 4 14 3 15 2 16 1 17
REMARK H PARENT
REMARK Flexibility Score: inf
ROOT
ATOM      1  C   UNL     1       8.840   6.125  34.496  1.00  0.00     0.000 C 
ENDROOT
BRANCH   1   2
ATOM      2  C   UNL     1       7.851   7.304  34.561  1.00  0.00     0.000 C 
BRANCH   2   3
ATOM      3  C   UNL     1       7.532   7.741  35.999  1.00  0.00     0.000 C 
BRANCH   3   4
ATOM      4  C   UNL     1       6.818   9.101  36.011  1.00  0.00     0.000 C 
BRANCH   4   5
ATOM      5  C   UNL     1       5.543   9.108  35.152  1.00  0.00     0.006 C 
BRANCH   5   6
ATOM      6  C   UNL     1       5.026  10.525  34.875  1.00  0.00     0.053 C 
BRANCH   6   7
ATOM      7  C   UNL     1       5.481  10.991  33.528  1.00  0.00     0.041 C 
ATOM      8  O   UNL     1       6.244  10.271  32.832  1.00  0.00    -0.550 OA
ATOM      9  O   UNL     1       5.103  12.244  33.061  1.00  0.00    -0.550 OA
ENDBRANCH   6   7
ENDBRANCH   5   6
ENDBRANCH   4   5
ENDBRANCH   3   4
ENDBRANCH   2   3
ENDBRANCH   1   2
BRANCH   1  10
ATOM     10  C   UNL     1       9.316   5.596  35.861  1.00  0.00     0.000 C 
BRANCH  10  11
ATOM     11  C   UNL     1       9.207   4.066  35.978  1.00  0.00    -0.000 C 
BRANCH  11  12
ATOM     12  C   UNL     1       8.059   3.620  36.900  1.00  0.00    -0.000 C 
BRANCH  12  13
ATOM     13  C   UNL     1       6.686   3.481  36.214  1.00  0.00    -0.000 C 
BRANCH  13  14
ATOM     14  C   UNL     1       5.663   4.553  36.645  1.00  0.00    -0.000 C 
BRANCH  14  15
ATOM     15  C   UNL     1       4.925   5.170  35.442  1.00  0.00    -0.000 C 
BRANCH  15  16
ATOM     16  C   UNL     1       5.361   4.556  34.104  1.00  0.00    -0.003 C 
ATOM     17  C   UNL     1       5.052   5.458  32.909  1.00  0.00     0.004 C 
ENDBRANCH  15  16
ENDBRANCH  14  15
ENDBRANCH  13  14
ENDBRANCH  12  13
ENDBRANCH  11  12
ENDBRANCH  10  11
ENDBRANCH   1  10
TORSDOF 13
ENDMDL
MODEL 8
REMARK VINA RESULT:    -3.690      2.030      4.445
REMARK INTER + INTRA:          -7.220
REMARK INTER:                  -6.479
REMARK INTRA:                  -0.741
REMARK UNBOUND:                -0.725
REMARK SMILES CCCCCCCCCCCCCCC(=O)[O-]
REMARK SMILES IDX 9 1 10 2 11 3 12 4 13 5 14 6 15 7 16 8 17 9 8 10 7 11 6 12
REMARK SMILES IDX 5 13 4 14 3 15 2 16 1 17
REMARK H PARENT
REMARK Flexibility Score: inf
ROOT
ATOM      1  C   UNL     1       7.071   8.964  33.353  1.00  0.00     0.000 C 
ENDROOT
BRANCH   1   2
ATOM      2  C   UNL     1       6.285   7.967  34.224  1.00  0.00     0.000 C 
BRANCH   2   3
ATOM      3  C   UNL     1       5.985   6.645  33.501  1.00  0.00     0.000 C 
BRANCH   3   4
ATOM      4  C   UNL     1       5.162   5.706  34.396  1.00  0.00     0.000 C 
BRANCH   4   5
ATOM      5  C   UNL     1       5.972   4.496  34.888  1.00  0.00     0.006 C 
BRANCH   5   6
ATOM      6  C   UNL     1       6.752   4.792  36.175  1.00  0.00     0.053 C 
BRANCH   6   7
ATOM      7  C   UNL     1       8.225   4.709  35.923  1.00  0.00     0.041 C 
ATOM      8  O   UNL     1       8.880   3.708  36.316  1.00  0.00    -0.550 OA
ATOM      9  O   UNL     1       8.884   5.759  35.296  1.00  0.00    -0.550 OA
ENDBRANCH   6   7
ENDBRANCH   5   6
ENDBRANCH   4   5
ENDBRANCH   3   4
ENDBRANCH   2   3
ENDBRANCH   1   2
BRANCH   1  10
ATOM     10  C   UNL     1       6.317  10.258  32.998  1.00  0.00     0.000 C 
BRANCH  10  11
ATOM     11  C   UNL     1       5.269  10.646  34.055  1.00  0.00    -0.000 C 
BRANCH  11  12
ATOM     12  C   UNL     1       5.265  12.153  34.364  1.00  0.00    -0.000 C 
BRANCH  12  13
ATOM     13  C   UNL     1       5.272  12.513  35.863  1.00  0.00    -0.000 C 
BRANCH  13  14
ATOM     14  C   UNL     1       5.743  13.954  36.154  1.00  0.00    -0.000 C 
BRANCH  14  15
ATOM     15  C   UNL     1       5.419  14.916  34.997  1.00  0.00    -0.000 C 
BRANCH  15  16
ATOM     16  C   UNL     1       6.584  15.862  34.672  1.00  0.00    -0.003 C 
ATOM     17  C   UNL     1       6.162  17.330  34.630  1.00  0.00     0.004 C 
ENDBRANCH  15  16
ENDBRANCH  14  15
ENDBRANCH  13  14
ENDBRANCH  12  13
ENDBRANCH  11  12
ENDBRANCH  10  11
ENDBRANCH   1  10
TORSDOF 13
ENDMDL
MODEL 9
REMARK VINA RESULT:    -3.626      5.691     10.092
REMARK INTER + INTRA:          -7.107
REMARK INTER:                  -5.415
REMARK INTRA:                  -1.692
REMARK UNBOUND:                -0.725
REMARK SMILES CCCCCCCCCCCCCCC(=O)[O-]
REMARK SMILES IDX 9 1 10 2 11 3 12 4 13 5 14 6 15 7 16 8 17 9 8 10 7 11 6 12
REMARK SMILES IDX 5 13 4 14 3 15 2 16 1 17
REMARK H PARENT
REMARK Flexibility Score: inf
ROOT
ATOM      1  C   UNL     1       8.054   6.752  36.884  1.00  0.00     0.000 C 
ENDROOT
BRANCH   1   2
ATOM      2  C   UNL     1       6.848   7.709  36.886  1.00  0.00     0.000 C 
BRANCH   2   3
ATOM      3  C   UNL     1       7.258   9.190  36.894  1.00  0.00     0.000 C 
BRANCH   3   4
ATOM      4  C   UNL     1       6.142  10.070  36.310  1.00  0.00     0.000 C 
BRANCH   4   5
ATOM      5  C   UNL     1       5.436   9.414  35.113  1.00  0.00     0.006 C 
BRANCH   5   6
ATOM      6  C   UNL     1       6.083   9.782  33.772  1.00  0.00     0.053 C 
BRANCH   6   7
ATOM      7  C   UNL     1       6.994   8.687  33.315  1.00  0.00     0.041 C 
ATOM      8  O   UNL     1       6.526   7.556  33.017  1.00  0.00    -0.550 OA
ATOM      9  O   UNL     1       8.366   8.899  33.264  1.00  0.00    -0.550 OA
ENDBRANCH   6   7
ENDBRANCH   5   6
ENDBRANCH   4   5
ENDBRANCH   3   4
ENDBRANCH   2   3
ENDBRANCH   1   2
BRANCH   1  10
ATOM     10  C   UNL     1       8.399   6.138  35.515  1.00  0.00     0.000 C 
BRANCH  10  11
ATOM     11  C   UNL     1       9.477   5.045  35.607  1.00  0.00    -0.000 C 
BRANCH  11  12
ATOM     12  C   UNL     1       9.353   4.194  36.883  1.00  0.00    -0.000 C 
BRANCH  12  13
ATOM     13  C   UNL     1       8.690   2.816  36.688  1.00  0.00    -0.000 C 
BRANCH  13  14
ATOM     14  C   UNL     1       7.165   2.821  36.922  1.00  0.00    -0.000 C 
BRANCH  14  15
ATOM     15  C   UNL     1       6.374   2.848  35.602  1.00  0.00    -0.000 C 
BRANCH  15  16
ATOM     16  C   UNL     1       5.322   3.966  35.566  1.00  0.00    -0.003 C 
ATOM     17  C   UNL     1       5.234   4.652  34.203  1.00  0.00     0.004 C 
ENDBRANCH  15  16
ENDBRANCH  14  15
ENDBRANCH  13  14
ENDBRANCH  12  13
ENDBRANCH  11  12
ENDBRANCH  10  11
ENDBRANCH   1  10
TORSDOF 13
ENDMDL
