MODEL 1
REMARK VINA RESULT:    -5.099      0.000      0.000
REMARK INTER + INTRA:         -11.153
REMARK INTER:                  -9.570
REMARK INTRA:                  -1.583
REMARK UNBOUND:                -1.583
REMARK SMILES CCCCCCCCC=CCCCCCCCC(=O)[O-]
REMARK SMILES IDX 10 1 9 2 11 3 12 4 13 5 14 6 15 7 16 8 17 9 18 10 19 11
REMARK SMILES IDX 20 12 8 13 7 14 6 15 5 16 4 17 3 18 2 19 1 20
REMARK H PARENT
REMARK Flexibility Score: inf
ROOT
ATOM      1  C   UNL     1      -1.108   0.730   4.727  1.00  0.00    -0.031 C 
ATOM      2  C   UNL     1      -1.329  -0.434   4.097  1.00  0.00    -0.031 C 
ENDROOT
BRANCH   1   3
ATOM      3  C   UNL     1      -1.212   2.047   4.008  1.00  0.00     0.027 C 
BRANCH   3   4
ATOM      4  C   UNL     1      -2.557   2.728   4.298  1.00  0.00     0.004 C 
BRANCH   4   5
ATOM      5  C   UNL     1      -3.708   2.148   3.459  1.00  0.00     0.000 C 
BRANCH   5   6
ATOM      6  C   UNL     1      -5.034   2.080   4.237  1.00  0.00     0.000 C 
BRANCH   6   7
ATOM      7  C   UNL     1      -5.060   0.905   5.237  1.00  0.00     0.000 C 
BRANCH   7   8
ATOM      8  C   UNL     1      -5.552  -0.417   4.622  1.00  0.00     0.006 C 
BRANCH   8   9
ATOM      9  C   UNL     1      -5.090  -1.649   5.408  1.00  0.00     0.053 C 
BRANCH   9  10
ATOM     10  C   UNL     1      -6.129  -2.051   6.407  1.00  0.00     0.041 C 
ATOM     11  O   UNL     1      -5.803  -2.287   7.601  1.00  0.00    -0.550 OA
ATOM     12  O   UNL     1      -7.450  -2.214   6.009  1.00  0.00    -0.550 OA
ENDBRANCH   9  10
ENDBRANCH   8   9
ENDBRANCH   7   8
ENDBRANCH   6   7
ENDBRANCH   5   6
ENDBRANCH   4   5
ENDBRANCH   3   4
ENDBRANCH   1   3
BRANCH   2  13
ATOM     13  C   UNL     1      -1.240  -1.750   4.818  1.00  0.00     0.027 C 
BRANCH  13  14
ATOM     14  C   UNL     1      -0.114  -2.620   4.239  1.00  0.00     0.004 C 
BRANCH  14  15
ATOM     15  C   UNL     1       1.286  -2.075   4.566  1.00  0.00     0.000 C 
BRANCH  15  16
ATOM     16  C   UNL     1       2.027  -1.562   3.319  1.00  0.00     0.000 C 
BRANCH  16  17
ATOM     17  C   UNL     1       2.122  -0.029   3.273  1.00  0.00    -0.000 C 
BRANCH  17  18
ATOM     18  C   UNL     1       2.992   0.505   2.116  1.00  0.00    -0.000 C 
BRANCH  18  19
ATOM     19  C   UNL     1       4.447   0.747   2.547  1.00  0.00    -0.003 C 
ATOM     20  C   UNL     1       5.023   1.987   1.871  1.00  0.00     0.004 C 
ENDBRANCH  18  19
ENDBRANCH  17  18
ENDBRANCH  16  17
ENDBRANCH  15  16
ENDBRANCH  14  15
ENDBRANCH  13  14
ENDBRANCH   2  13
TORSDOF 15
ENDMDL
MODEL 2
REMARK VINA RESULT:    -5.006      3.667      7.450
REMARK INTER + INTRA:         -10.979
REMARK INTER:                  -8.507
REMARK INTRA:                  -2.472
REMARK UNBOUND:                -1.583
REMARK SMILES CCCCCCCCC=CCCCCCCCC(=O)[O-]
REMARK SMILES IDX 10 1 9 2 11 3 12 4 13 5 14 6 15 7 16 8 17 9 18 10 19 11
REMARK SMILES IDX 20 12 8 13 7 14 6 15 5 16 4 17 3 18 2 19 1 20
REMARK H PARENT
REMARK Flexibility Score: inf
ROOT
ATOM      1  C   UNL     1      -3.128   0.037   3.721  1.00  0.00    -0.031 C 
ATOM      2  C   UNL     1      -3.752  -0.737   4.622  1.00  0.00    -0.031 C 
ENDROOT
BRANCH   1   3
ATOM      3  C   UNL     1      -1.644   0.272   3.780  1.00  0.00     0.027 C 
BRANCH   3   4
ATOM      4  C   UNL     1      -1.111   0.072   5.206  1.00  0.00     0.004 C 
BRANCH   4   5
ATOM      5  C   UNL     1      -0.090  -1.073   5.301  1.00  0.00     0.000 C 
BRANCH   5   6
ATOM      6  C   UNL     1      -0.261  -2.116   4.182  1.00  0.00     0.000 C 
BRANCH   6   7
ATOM      7  C   UNL     1       0.981  -2.198   3.270  1.00  0.00     0.000 C 
BRANCH   7   8
ATOM      8  C   UNL     1       2.134  -1.281   3.716  1.00  0.00     0.006 C 
BRANCH   8   9
ATOM      9  C   UNL     1       2.880  -0.645   2.537  1.00  0.00     0.053 C 
BRANCH   9  10
ATOM     10  C   UNL     1       2.583   0.819   2.460  1.00  0.00     0.041 C 
ATOM     11  O   UNL     1       1.593   1.299   3.074  1.00  0.00    -0.550 OA
ATOM     12  O   UNL     1       3.370   1.648   1.670  1.00  0.00    -0.550 OA
ENDBRANCH   9  10
ENDBRANCH   8   9
ENDBRANCH   7   8
ENDBRANCH   6   7
ENDBRANCH   5   6
ENDBRANCH   4   5
ENDBRANCH   3   4
ENDBRANCH   1   3
BRANCH   2  13
ATOM     13  C   UNL     1      -5.234  -0.985   4.555  1.00  0.00     0.027 C 
BRANCH  13  14
ATOM     14  C   UNL     1      -6.000   0.018   5.432  1.00  0.00     0.004 C 
BRANCH  14  15
ATOM     15  C   UNL     1      -5.536   0.000   6.897  1.00  0.00     0.000 C 
BRANCH  15  16
ATOM     16  C   UNL     1      -5.116   1.391   7.402  1.00  0.00     0.000 C 
BRANCH  16  17
ATOM     17  C   UNL     1      -3.590   1.578   7.429  1.00  0.00    -0.000 C 
BRANCH  17  18
ATOM     18  C   UNL     1      -3.106   2.840   6.685  1.00  0.00    -0.000 C 
BRANCH  18  19
ATOM     19  C   UNL     1      -4.250   3.555   5.950  1.00  0.00    -0.003 C 
ATOM     20  C   UNL     1      -4.124   3.387   4.438  1.00  0.00     0.004 C 
ENDBRANCH  18  19
ENDBRANCH  17  18
ENDBRANCH  16  17
ENDBRANCH  15  16
ENDBRANCH  14  15
ENDBRANCH  13  14
ENDBRANCH   2  13
TORSDOF 15
ENDMDL
MODEL 3
REMARK VINA RESULT:    -4.982      1.446      2.157
REMARK INTER + INTRA:         -10.933
REMARK INTER:                  -8.999
REMARK INTRA:                  -1.933
REMARK UNBOUND:                -1.583
REMARK SMILES CCCCCCCCC=CCCCCCCCC(=O)[O-]
REMARK SMILES IDX 10 1 9 2 11 3 12 4 13 5 14 6 15 7 16 8 17 9 18 10 19 11
REMARK SMILES IDX 20 12 8 13 7 14 6 15 5 16 4 17 3 18 2 19 1 20
REMARK H PARENT
REMARK Flexibility Score: inf
ROOT
ATOM      1  C   UNL     1      -1.770   1.579   5.137  1.00  0.00    -0.031 C 
ATOM      2  C   UNL     1      -2.164   0.978   4.004  1.00  0.00    -0.031 C 
ENDROOT
BRANCH   1   3
ATOM      3  C   UNL     1      -2.203   2.978   5.478  1.00  0.00     0.027 C 
BRANCH   3   4
ATOM      4  C   UNL     1      -3.617   2.986   6.076  1.00  0.00     0.004 C 
BRANCH   4   5
ATOM      5  C   UNL     1      -3.807   1.914   7.162  1.00  0.00     0.000 C 
BRANCH   5   6
ATOM      6  C   UNL     1      -5.290   1.617   7.451  1.00  0.00     0.000 C 
BRANCH   6   7
ATOM      7  C   UNL     1      -5.689   0.188   7.029  1.00  0.00     0.000 C 
BRANCH   7   8
ATOM      8  C   UNL     1      -4.912  -0.333   5.807  1.00  0.00     0.006 C 
BRANCH   8   9
ATOM      9  C   UNL     1      -5.381  -1.719   5.349  1.00  0.00     0.053 C 
BRANCH   9  10
ATOM     10  C   UNL     1      -6.865  -1.729   5.152  1.00  0.00     0.041 C 
ATOM     11  O   UNL     1      -7.613  -2.286   5.998  1.00  0.00    -0.550 OA
ATOM     12  O   UNL     1      -7.418  -1.165   4.009  1.00  0.00    -0.550 OA
ENDBRANCH   9  10
ENDBRANCH   8   9
ENDBRANCH   7   8
ENDBRANCH   6   7
ENDBRANCH   5   6
ENDBRANCH   4   5
ENDBRANCH   3   4
ENDBRANCH   1   3
BRANCH   2  13
ATOM     13  C   UNL     1      -1.743  -0.426   3.668  1.00  0.00     0.027 C 
BRANCH  13  14
ATOM     14  C   UNL     1      -1.052  -1.095   4.867  1.00  0.00     0.004 C 
BRANCH  14  15
ATOM     15  C   UNL     1      -0.511  -2.494   4.535  1.00  0.00     0.000 C 
BRANCH  15  16
ATOM     16  C   UNL     1       0.604  -2.461   3.476  1.00  0.00     0.000 C 
BRANCH  16  17
ATOM     17  C   UNL     1       1.761  -1.523   3.859  1.00  0.00    -0.000 C 
BRANCH  17  18
ATOM     18  C   UNL     1       2.464  -0.878   2.647  1.00  0.00    -0.000 C 
BRANCH  18  19
ATOM     19  C   UNL     1       2.706   0.626   2.850  1.00  0.00    -0.003 C 
ATOM     20  C   UNL     1       1.579   1.261   3.660  1.00  0.00     0.004 C 
ENDBRANCH  18  19
ENDBRANCH  17  18
ENDBRANCH  16  17
ENDBRANCH  15  16
ENDBRANCH  14  15
ENDBRANCH  13  14
ENDBRANCH   2  13
TORSDOF 15
ENDMDL
MODEL 4
REMARK VINA RESULT:    -4.901      3.363      5.400
REMARK INTER + INTRA:         -10.782
REMARK INTER:                  -8.485
REMARK INTRA:                  -2.296
REMARK UNBOUND:                -1.583
REMARK SMILES CCCCCCCCC=CCCCCCCCC(=O)[O-]
REMARK SMILES IDX 10 1 9 2 11 3 12 4 13 5 14 6 15 7 16 8 17 9 18 10 19 11
REMARK SMILES IDX 20 12 8 13 7 14 6 15 5 16 4 17 3 18 2 19 1 20
REMARK H PARENT
REMARK Flexibility Score: inf
ROOT
ATOM      1  C   UNL     1      -5.557   0.476   6.790  1.00  0.00    -0.031 C 
ATOM      2  C   UNL     1      -5.702  -0.793   6.381  1.00  0.00    -0.031 C 
ENDROOT
BRANCH   1   3
ATOM      3  C   UNL     1      -5.500   0.831   8.251  1.00  0.00     0.027 C 
BRANCH   3   4
ATOM      4  C   UNL     1      -4.303   1.744   8.549  1.00  0.00     0.004 C 
BRANCH   4   5
ATOM      5  C   UNL     1      -3.343   1.872   7.355  1.00  0.00     0.000 C 
BRANCH   5   6
ATOM      6  C   UNL     1      -2.731   3.279   7.232  1.00  0.00     0.000 C 
BRANCH   6   7
ATOM      7  C   UNL     1      -2.695   3.770   5.770  1.00  0.00     0.000 C 
BRANCH   7   8
ATOM      8  C   UNL     1      -3.782   3.141   4.882  1.00  0.00     0.006 C 
BRANCH   8   9
ATOM      9  C   UNL     1      -3.973   3.886   3.555  1.00  0.00     0.053 C 
BRANCH   9  10
ATOM     10  C   UNL     1      -3.234   3.191   2.455  1.00  0.00     0.041 C 
ATOM     11  O   UNL     1      -2.011   3.426   2.266  1.00  0.00    -0.550 OA
ATOM     12  O   UNL     1      -3.907   2.320   1.608  1.00  0.00    -0.550 OA
ENDBRANCH   9  10
ENDBRANCH   8   9
ENDBRANCH   7   8
ENDBRANCH   6   7
ENDBRANCH   5   6
ENDBRANCH   4   5
ENDBRANCH   3   4
ENDBRANCH   1   3
BRANCH   2  13
ATOM     13  C   UNL     1      -5.745  -1.150   4.921  1.00  0.00     0.027 C 
BRANCH  13  14
ATOM     14  C   UNL     1      -4.670  -0.383   4.135  1.00  0.00     0.004 C 
BRANCH  14  15
ATOM     15  C   UNL     1      -3.242  -0.806   4.516  1.00  0.00     0.000 C 
BRANCH  15  16
ATOM     16  C   UNL     1      -2.167   0.019   3.787  1.00  0.00     0.000 C 
BRANCH  16  17
ATOM     17  C   UNL     1      -0.939   0.305   4.667  1.00  0.00    -0.000 C 
BRANCH  17  18
ATOM     18  C   UNL     1      -0.078  -0.942   4.956  1.00  0.00    -0.000 C 
BRANCH  18  19
ATOM     19  C   UNL     1       0.244  -1.733   3.678  1.00  0.00    -0.003 C 
ATOM     20  C   UNL     1       0.305  -3.231   3.958  1.00  0.00     0.004 C 
ENDBRANCH  18  19
ENDBRANCH  17  18
ENDBRANCH  16  17
ENDBRANCH  15  16
ENDBRANCH  14  15
ENDBRANCH  13  14
ENDBRANCH   2  13
TORSDOF 15
ENDMDL
MODEL 5
REMARK VINA RESULT:    -4.875      3.212      4.463
REMARK INTER + INTRA:         -10.732
REMARK INTER:                  -9.528
REMARK INTRA:                  -1.204
REMARK UNBOUND:                -1.583
REMARK SMILES CCCCCCCCC=CCCCCCCCC(=O)[O-]
REMARK SMILES IDX 10 1 9 2 11 3 12 4 13 5 14 6 15 7 16 8 17 9 18 10 19 11
REMARK SMILES IDX 20 12 8 13 7 14 6 15 5 16 4 17 3 18 2 19 1 20
REMARK H PARENT
REMARK Flexibility Score: inf
ROOT
ATOM      1  C   UNL     1      -3.516  -0.784   4.536  1.00  0.00    -0.031 C 
ATOM      2  C   UNL     1      -2.442  -0.063   4.894  1.00  0.00    -0.031 C 
ENDROOT
BRANCH   1   3
ATOM      3  C   UNL     1      -4.910  -0.353   4.896  1.00  0.00     0.027 C 
BRANCH   3   4
ATOM      4  C   UNL     1      -4.932   1.112   5.358  1.00  0.00     0.004 C 
BRANCH   4   5
ATOM      5  C   UNL     1      -5.033   2.101   4.185  1.00  0.00     0.000 C 
BRANCH   5   6
ATOM      6  C   UNL     1      -4.145   3.343   4.378  1.00  0.00     0.000 C 
BRANCH   6   7
ATOM      7  C   UNL     1      -3.118   3.505   3.237  1.00  0.00     0.000 C 
BRANCH   7   8
ATOM      8  C   UNL     1      -3.559   4.499   2.148  1.00  0.00     0.006 C 
BRANCH   8   9
ATOM      9  C   UNL     1      -4.387   3.840   1.039  1.00  0.00     0.053 C 
BRANCH   9  10
ATOM     10  C   UNL     1      -3.510   3.009   0.157  1.00  0.00     0.041 C 
ATOM     11  O   UNL     1      -2.363   3.420  -0.164  1.00  0.00    -0.550 OA
ATOM     12  O   UNL     1      -3.977   1.805  -0.353  1.00  0.00    -0.550 OA
ENDBRANCH   9  10
ENDBRANCH   8   9
ENDBRANCH   7   8
ENDBRANCH   6   7
ENDBRANCH   5   6
ENDBRANCH   4   5
ENDBRANCH   3   4
ENDBRANCH   1   3
BRANCH   2  13
ATOM     13  C   UNL     1      -1.048  -0.486   4.521  1.00  0.00     0.027 C 
BRANCH  13  14
ATOM     14  C   UNL     1      -0.904  -2.015   4.577  1.00  0.00     0.004 C 
BRANCH  14  15
ATOM     15  C   UNL     1       0.397  -2.512   3.927  1.00  0.00     0.000 C 
BRANCH  15  16
ATOM     16  C   UNL     1       1.603  -1.616   4.257  1.00  0.00     0.000 C 
BRANCH  16  17
ATOM     17  C   UNL     1       2.278  -1.040   3.001  1.00  0.00    -0.000 C 
BRANCH  17  18
ATOM     18  C   UNL     1       2.357   0.501   2.989  1.00  0.00    -0.000 C 
BRANCH  18  19
ATOM     19  C   UNL     1       3.354   1.022   1.943  1.00  0.00    -0.003 C 
ATOM     20  C   UNL     1       4.776   1.036   2.495  1.00  0.00     0.004 C 
ENDBRANCH  18  19
ENDBRANCH  17  18
ENDBRANCH  16  17
ENDBRANCH  15  16
ENDBRANCH  14  15
ENDBRANCH  13  14
ENDBRANCH   2  13
TORSDOF 15
ENDMDL
MODEL 6
REMARK VINA RESULT:    -4.868      2.818      4.499
REMARK INTER + INTRA:         -10.719
REMARK INTER:                  -8.419
REMARK INTRA:                  -2.300
REMARK UNBOUND:                -1.583
REMARK SMILES CCCCCCCCC=CCCCCCCCC(=O)[O-]
REMARK SMILES IDX 10 1 9 2 11 3 12 4 13 5 14 6 15 7 16 8 17 9 18 10 19 11
REMARK SMILES IDX 20 12 8 13 7 14 6 15 5 16 4 17 3 18 2 19 1 20
REMARK H PARENT
REMARK Flexibility Score: inf
ROOT
ATOM      1  C   UNL     1      -5.002   0.129   4.834  1.00  0.00    -0.031 C 
ATOM      2  C   UNL     1      -3.948  -0.544   4.347  1.00  0.00    -0.031 C 
ENDROOT
BRANCH   1   3
ATOM      3  C   UNL     1      -5.894  -0.462   5.890  1.00  0.00     0.027 C 
BRANCH   3   4
ATOM      4  C   UNL     1      -5.541   0.089   7.280  1.00  0.00     0.004 C 
BRANCH   4   5
ATOM      5  C   UNL     1      -5.023   1.535   7.230  1.00  0.00     0.000 C 
BRANCH   5   6
ATOM      6  C   UNL     1      -3.520   1.639   7.544  1.00  0.00     0.000 C 
BRANCH   6   7
ATOM      7  C   UNL     1      -2.798   2.628   6.605  1.00  0.00     0.000 C 
BRANCH   7   8
ATOM      8  C   UNL     1      -3.755   3.473   5.746  1.00  0.00     0.006 C 
BRANCH   8   9
ATOM      9  C   UNL     1      -3.327   3.550   4.276  1.00  0.00     0.053 C 
BRANCH   9  10
ATOM     10  C   UNL     1      -4.490   3.921   3.412  1.00  0.00     0.041 C 
ATOM     11  O   UNL     1      -5.119   3.031   2.779  1.00  0.00    -0.550 OA
ATOM     12  O   UNL     1      -4.851   5.254   3.266  1.00  0.00    -0.550 OA
ENDBRANCH   9  10
ENDBRANCH   8   9
ENDBRANCH   7   8
ENDBRANCH   6   7
ENDBRANCH   5   6
ENDBRANCH   4   5
ENDBRANCH   3   4
ENDBRANCH   1   3
BRANCH   2  13
ATOM     13  C   UNL     1      -3.048   0.052   3.301  1.00  0.00     0.027 C 
BRANCH  13  14
ATOM     14  C   UNL     1      -1.620   0.230   3.840  1.00  0.00     0.004 C 
BRANCH  14  15
ATOM     15  C   UNL     1      -1.324  -0.675   5.046  1.00  0.00     0.000 C 
BRANCH  15  16
ATOM     16  C   UNL     1      -0.632  -1.989   4.644  1.00  0.00     0.000 C 
BRANCH  16  17
ATOM     17  C   UNL     1       0.255  -1.836   3.397  1.00  0.00    -0.000 C 
BRANCH  17  18
ATOM     18  C   UNL     1       1.709  -1.428   3.716  1.00  0.00    -0.000 C 
BRANCH  18  19
ATOM     19  C   UNL     1       2.053  -0.034   3.169  1.00  0.00    -0.003 C 
ATOM     20  C   UNL     1       3.438  -0.020   2.528  1.00  0.00     0.004 C 
ENDBRANCH  18  19
ENDBRANCH  17  18
ENDBRANCH  16  17
ENDBRANCH  15  16
ENDBRANCH  14  15
ENDBRANCH  13  14
ENDBRANCH   2  13
TORSDOF 15
ENDMDL
MODEL 7
REMARK VINA RESULT:    -4.865      4.012      7.792
REMARK INTER + INTRA:         -10.714
REMARK INTER:                  -8.914
REMARK INTRA:                  -1.800
REMARK UNBOUND:                -1.583
REMARK SMILES CCCCCCCCC=CCCCCCCCC(=O)[O-]
REMARK SMILES IDX 10 1 9 2 11 3 12 4 13 5 14 6 15 7 16 8 17 9 18 10 19 11
REMARK SMILES IDX 20 12 8 13 7 14 6 15 5 16 4 17 3 18 2 19 1 20
REMARK H PARENT
REMARK Flexibility Score: inf
ROOT
ATOM      1  C   UNL     1      -1.806   0.161   5.181  1.00  0.00    -0.031 C 
ATOM      2  C   UNL     1      -2.185   0.310   3.902  1.00  0.00    -0.031 C 
ENDROOT
BRANCH   1   3
ATOM      3  C   UNL     1      -0.354   0.088   5.567  1.00  0.00     0.027 C 
BRANCH   3   4
ATOM      4  C   UNL     1       0.024  -1.330   6.018  1.00  0.00     0.004 C 
BRANCH   4   5
ATOM      5  C   UNL     1      -0.494  -2.415   5.060  1.00  0.00     0.000 C 
BRANCH   5   6
ATOM      6  C   UNL     1       0.609  -2.976   4.145  1.00  0.00     0.000 C 
BRANCH   6   7
ATOM      7  C   UNL     1       0.903  -2.044   2.951  1.00  0.00     0.000 C 
BRANCH   7   8
ATOM      8  C   UNL     1       2.247  -1.302   3.066  1.00  0.00     0.006 C 
BRANCH   8   9
ATOM      9  C   UNL     1       2.090   0.223   3.032  1.00  0.00     0.053 C 
BRANCH   9  10
ATOM     10  C   UNL     1       3.170   0.839   2.200  1.00  0.00     0.041 C 
ATOM     11  O   UNL     1       4.380   0.587   2.443  1.00  0.00    -0.550 OA
ATOM     12  O   UNL     1       2.843   1.732   1.187  1.00  0.00    -0.550 OA
ENDBRANCH   9  10
ENDBRANCH   8   9
ENDBRANCH   7   8
ENDBRANCH   6   7
ENDBRANCH   5   6
ENDBRANCH   4   5
ENDBRANCH   3   4
ENDBRANCH   1   3
BRANCH   2  13
ATOM     13  C   UNL     1      -3.636   0.397   3.517  1.00  0.00     0.027 C 
BRANCH  13  14
ATOM     14  C   UNL     1      -4.455  -0.710   4.198  1.00  0.00     0.004 C 
BRANCH  14  15
ATOM     15  C   UNL     1      -5.714  -0.172   4.897  1.00  0.00     0.000 C 
BRANCH  15  16
ATOM     16  C   UNL     1      -5.810  -0.617   6.367  1.00  0.00     0.000 C 
BRANCH  16  17
ATOM     17  C   UNL     1      -5.708   0.559   7.352  1.00  0.00    -0.000 C 
BRANCH  17  18
ATOM     18  C   UNL     1      -4.633   1.598   6.969  1.00  0.00    -0.000 C 
BRANCH  18  19
ATOM     19  C   UNL     1      -3.574   1.768   8.069  1.00  0.00    -0.003 C 
ATOM     20  C   UNL     1      -2.908   3.138   7.986  1.00  0.00     0.004 C 
ENDBRANCH  18  19
ENDBRANCH  17  18
ENDBRANCH  16  17
ENDBRANCH  15  16
ENDBRANCH  14  15
ENDBRANCH  13  14
ENDBRANCH   2  13
TORSDOF 15
ENDMDL
MODEL 8
REMARK VINA RESULT:    -4.835      1.954      3.646
REMARK INTER + INTRA:         -10.657
REMARK INTER:                  -8.648
REMARK INTRA:                  -2.009
REMARK UNBOUND:                -1.583
REMARK SMILES CCCCCCCCC=CCCCCCCCC(=O)[O-]
REMARK SMILES IDX 10 1 9 2 11 3 12 4 13 5 14 6 15 7 16 8 17 9 18 10 19 11
REMARK SMILES IDX 20 12 8 13 7 14 6 15 5 16 4 17 3 18 2 19 1 20
REMARK H PARENT
REMARK Flexibility Score: inf
ROOT
ATOM      1  C   UNL     1      -2.489   3.454   5.266  1.00  0.00    -0.031 C 
ATOM      2  C   UNL     1      -1.709   4.257   4.526  1.00  0.00    -0.031 C 
ENDROOT
BRANCH   1   3
ATOM      3  C   UNL     1      -3.988   3.575   5.245  1.00  0.00     0.027 C 
BRANCH   3   4
ATOM      4  C   UNL     1      -4.625   2.392   4.501  1.00  0.00     0.004 C 
BRANCH   4   5
ATOM      5  C   UNL     1      -3.746   1.870   3.353  1.00  0.00     0.000 C 
BRANCH   5   6
ATOM      6  C   UNL     1      -3.528   0.348   3.416  1.00  0.00     0.000 C 
BRANCH   6   7
ATOM      7  C   UNL     1      -3.481  -0.172   4.868  1.00  0.00     0.000 C 
BRANCH   7   8
ATOM      8  C   UNL     1      -4.346  -1.423   5.102  1.00  0.00     0.006 C 
BRANCH   8   9
ATOM      9  C   UNL     1      -5.848  -1.137   4.997  1.00  0.00     0.053 C 
BRANCH   9  10
ATOM     10  C   UNL     1      -6.605  -1.947   6.002  1.00  0.00     0.041 C 
ATOM     11  O   UNL     1      -6.093  -2.205   7.124  1.00  0.00    -0.550 OA
ATOM     12  O   UNL     1      -7.857  -2.458   5.683  1.00  0.00    -0.550 OA
ENDBRANCH   9  10
ENDBRANCH   8   9
ENDBRANCH   7   8
ENDBRANCH   6   7
ENDBRANCH   5   6
ENDBRANCH   4   5
ENDBRANCH   3   4
ENDBRANCH   1   3
BRANCH   2  13
ATOM     13  C   UNL     1      -0.211   4.128   4.535  1.00  0.00     0.027 C 
BRANCH  13  14
ATOM     14  C   UNL     1       0.260   3.104   3.491  1.00  0.00     0.004 C 
BRANCH  14  15
ATOM     15  C   UNL     1       1.011   1.919   4.118  1.00  0.00     0.000 C 
BRANCH  15  16
ATOM     16  C   UNL     1       0.116   0.681   4.301  1.00  0.00     0.000 C 
BRANCH  16  17
ATOM     17  C   UNL     1       0.725  -0.357   5.257  1.00  0.00    -0.000 C 
BRANCH  17  18
ATOM     18  C   UNL     1      -0.021  -1.708   5.263  1.00  0.00    -0.000 C 
BRANCH  18  19
ATOM     19  C   UNL     1      -0.496  -2.115   3.860  1.00  0.00    -0.003 C 
ATOM     20  C   UNL     1       0.612  -2.824   3.087  1.00  0.00     0.004 C 
ENDBRANCH  18  19
ENDBRANCH  17  18
ENDBRANCH  16  17
ENDBRANCH  15  16
ENDBRANCH  14  15
ENDBRANCH  13  14
ENDBRANCH   2  13
TORSDOF 15
ENDMDL
MODEL 9
REMARK VINA RESULT:    -4.821     15.350     16.644
REMARK INTER + INTRA:         -10.631
REMARK INTER:                  -8.838
REMARK INTRA:                  -1.793
REMARK UNBOUND:                -1.583
REMARK SMILES CCCCCCCCC=CCCCCCCCC(=O)[O-]
REMARK SMILES IDX 10 1 9 2 11 3 12 4 13 5 14 6 15 7 16 8 17 9 18 10 19 11
REMARK SMILES IDX 20 12 8 13 7 14 6 15 5 16 4 17 3 18 2 19 1 20
REMARK H PARENT
REMARK Flexibility Score: inf
ROOT
ATOM      1  C   UNL     1      -8.242  -8.603  -6.059  1.00  0.00    -0.031 C 
ATOM      2  C   UNL     1      -8.637  -9.248  -7.168  1.00  0.00    -0.031 C 
ENDROOT
BRANCH   1   3
ATOM      3  C   UNL     1      -9.121  -7.587  -5.384  1.00  0.00     0.027 C 
BRANCH   3   4
ATOM      4  C   UNL     1      -8.398  -6.239  -5.244  1.00  0.00     0.004 C 
BRANCH   4   5
ATOM      5  C   UNL     1      -6.868  -6.385  -5.249  1.00  0.00     0.000 C 
BRANCH   5   6
ATOM      6  C   UNL     1      -6.208  -5.681  -6.449  1.00  0.00     0.000 C 
BRANCH   6   7
ATOM      7  C   UNL     1      -4.975  -6.451  -6.966  1.00  0.00     0.000 C 
BRANCH   7   8
ATOM      8  C   UNL     1      -5.326  -7.765  -7.685  1.00  0.00     0.006 C 
BRANCH   8   9
ATOM      9  C   UNL     1      -5.264  -7.644  -9.212  1.00  0.00     0.053 C 
BRANCH   9  10
ATOM     10  C   UNL     1      -6.482  -6.947  -9.731  1.00  0.00     0.041 C 
ATOM     11  O   UNL     1      -6.512  -5.689  -9.798  1.00  0.00    -0.550 OA
ATOM     12  O   UNL     1      -7.603  -7.682 -10.094  1.00  0.00    -0.550 OA
ENDBRANCH   9  10
ENDBRANCH   8   9
ENDBRANCH   7   8
ENDBRANCH   6   7
ENDBRANCH   5   6
ENDBRANCH   4   5
ENDBRANCH   3   4
ENDBRANCH   1   3
BRANCH   2  13
ATOM     13  C   UNL     1      -7.764 -10.274  -7.836  1.00  0.00     0.027 C 
BRANCH  13  14
ATOM     14  C   UNL     1      -8.583 -11.153  -8.794  1.00  0.00     0.004 C 
BRANCH  14  15
ATOM     15  C   UNL     1      -7.991 -12.562  -8.958  1.00  0.00     0.000 C 
BRANCH  15  16
ATOM     16  C   UNL     1      -6.508 -12.631  -8.555  1.00  0.00     0.000 C 
BRANCH  16  17
ATOM     17  C   UNL     1      -5.560 -12.576  -9.764  1.00  0.00    -0.000 C 
BRANCH  17  18
ATOM     18  C   UNL     1      -4.658 -11.324  -9.789  1.00  0.00    -0.000 C 
BRANCH  18  19
ATOM     19  C   UNL     1      -3.305 -11.571  -9.102  1.00  0.00    -0.003 C 
ATOM     20  C   UNL     1      -2.730 -10.276  -8.536  1.00  0.00     0.004 C 
ENDBRANCH  18  19
ENDBRANCH  17  18
ENDBRANCH  16  17
ENDBRANCH  15  16
ENDBRANCH  14  15
ENDBRANCH  13  14
ENDBRANCH   2  13
TORSDOF 15
ENDMDL
