MODEL 1
REMARK VINA RESULT:    -1.808      0.000      0.000
REMARK INTER + INTRA:          -1.994
REMARK INTER:                  -1.967
REMARK INTRA:                  -0.027
REMARK UNBOUND:                -0.027
REMARK SMILES O=C([O-])c1ccc(O)cc1
REMARK SMILES IDX 4 1 5 2 10 3 6 4 9 5 7 6 2 7 1 8 3 9 8 10
REMARK H PARENT 8 11
REMARK Flexibility Score: inf
ROOT
ATOM      1  C   UNL     1     -37.859   6.618 -53.999  1.00  0.00    -0.003 A 
ATOM      2  C   UNL     1     -36.759   5.876 -53.536  1.00  0.00     0.014 A 
ATOM      3  C   UNL     1     -37.638   7.679 -54.896  1.00  0.00     0.014 A 
ATOM      4  C   UNL     1     -35.464   6.189 -53.961  1.00  0.00     0.047 A 
ATOM      5  C   UNL     1     -36.341   7.990 -55.318  1.00  0.00     0.047 A 
ATOM      6  C   UNL     1     -35.251   7.245 -54.852  1.00  0.00     0.115 A 
ENDROOT
BRANCH   1   7
ATOM      7  C   UNL     1     -39.229   6.284 -53.549  1.00  0.00     0.071 C 
ATOM      8  O   UNL     1     -39.825   5.272 -54.003  1.00  0.00    -0.545 OA
ATOM      9  O   UNL     1     -39.877   7.086 -52.616  1.00  0.00    -0.545 OA
ENDBRANCH   1   7
BRANCH   6  10
ATOM     10  O   UNL     1     -33.956   7.546 -55.266  1.00  0.00    -0.508 OA
ATOM     11  H   UNL     1     -33.262   7.903 -54.619  1.00  0.00     0.293 HD
ENDBRANCH   6  10
TORSDOF 2
ENDMDL
MODEL 2
REMARK VINA RESULT:    -1.803      0.024      1.532
REMARK INTER + INTRA:          -1.988
REMARK INTER:                  -1.961
REMARK INTRA:                  -0.027
REMARK UNBOUND:                -0.027
REMARK SMILES O=C([O-])c1ccc(O)cc1
REMARK SMILES IDX 4 1 5 2 10 3 6 4 9 5 7 6 2 7 1 8 3 9 8 10
REMARK H PARENT 8 11
REMARK Flexibility Score: inf
ROOT
ATOM      1  C   UNL     1     -37.858   6.614 -53.977  1.00  0.00    -0.003 A 
ATOM      2  C   UNL     1     -37.640   7.680 -54.867  1.00  0.00     0.014 A 
ATOM      3  C   UNL     1     -36.756   5.865 -53.527  1.00  0.00     0.014 A 
ATOM      4  C   UNL     1     -36.346   7.990 -55.298  1.00  0.00     0.047 A 
ATOM      5  C   UNL     1     -35.463   6.177 -53.960  1.00  0.00     0.047 A 
ATOM      6  C   UNL     1     -35.255   7.242 -54.847  1.00  0.00     0.115 A 
ENDROOT
BRANCH   1   7
ATOM      7  C   UNL     1     -39.228   6.288 -53.523  1.00  0.00     0.071 C 
ATOM      8  O   UNL     1     -39.833   5.281 -53.979  1.00  0.00    -0.545 OA
ATOM      9  O   UNL     1     -39.867   7.090 -52.584  1.00  0.00    -0.545 OA
ENDBRANCH   1   7
BRANCH   6  10
ATOM     10  O   UNL     1     -33.973   7.561 -55.284  1.00  0.00    -0.508 OA
ATOM     11  H   UNL     1     -33.193   7.625 -54.640  1.00  0.00     0.293 HD
ENDBRANCH   6  10
TORSDOF 2
ENDMDL
MODEL 3
REMARK VINA RESULT:     0.279     12.428     14.962
REMARK INTER + INTRA:           0.276
REMARK INTER:                   0.303
REMARK INTRA:                  -0.027
REMARK UNBOUND:                -0.027
REMARK SMILES O=C([O-])c1ccc(O)cc1
REMARK SMILES IDX 4 1 5 2 10 3 6 4 9 5 7 6 2 7 1 8 3 9 8 10
REMARK H PARENT 8 11
REMARK Flexibility Score: inf
ROOT
ATOM      1  C   UNL     1     -22.863   5.324 -58.382  1.00  0.00    -0.003 A 
ATOM      2  C   UNL     1     -24.152   4.764 -58.362  1.00  0.00     0.014 A 
ATOM      3  C   UNL     1     -22.680   6.633 -57.901  1.00  0.00     0.014 A 
ATOM      4  C   UNL     1     -25.236   5.499 -57.873  1.00  0.00     0.047 A 
ATOM      5  C   UNL     1     -23.766   7.366 -57.412  1.00  0.00     0.047 A 
ATOM      6  C   UNL     1     -25.048   6.800 -57.396  1.00  0.00     0.115 A 
ENDROOT
BRANCH   1   7
ATOM      7  C   UNL     1     -21.717   4.544 -58.901  1.00  0.00     0.071 C 
ATOM      8  O   UNL     1     -20.875   4.039 -58.112  1.00  0.00    -0.545 OA
ATOM      9  O   UNL     1     -21.554   4.359 -60.269  1.00  0.00    -0.545 OA
ENDBRANCH   1   7
BRANCH   6  10
ATOM     10  O   UNL     1     -26.136   7.521 -56.912  1.00  0.00    -0.508 OA
ATOM     11  H   UNL     1     -26.028   8.457 -56.539  1.00  0.00     0.293 HD
ENDBRANCH   6  10
TORSDOF 2
ENDMDL
MODEL 4
REMARK VINA RESULT:     0.566     23.860     24.975
REMARK INTER + INTRA:           0.588
REMARK INTER:                   0.623
REMARK INTRA:                  -0.035
REMARK UNBOUND:                -0.027
REMARK SMILES O=C([O-])c1ccc(O)cc1
REMARK SMILES IDX 4 1 5 2 10 3 6 4 9 5 7 6 2 7 1 8 3 9 8 10
REMARK H PARENT 8 11
REMARK Flexibility Score: inf
ROOT
ATOM      1  C   UNL     1     -23.091 -11.529 -63.445  1.00  0.00    -0.003 A 
ATOM      2  C   UNL     1     -23.912 -11.931 -62.377  1.00  0.00     0.014 A 
ATOM      3  C   UNL     1     -23.669 -11.324 -64.710  1.00  0.00     0.014 A 
ATOM      4  C   UNL     1     -25.283 -12.125 -62.571  1.00  0.00     0.047 A 
ATOM      5  C   UNL     1     -25.041 -11.519 -64.902  1.00  0.00     0.047 A 
ATOM      6  C   UNL     1     -25.852 -11.919 -63.832  1.00  0.00     0.115 A 
ENDROOT
BRANCH   1   7
ATOM      7  C   UNL     1     -21.640 -11.324 -63.237  1.00  0.00     0.071 C 
ATOM      8  O   UNL     1     -20.963 -10.648 -64.056  1.00  0.00    -0.545 OA
ATOM      9  O   UNL     1     -21.003 -11.877 -62.131  1.00  0.00    -0.545 OA
ENDBRANCH   1   7
BRANCH   6  10
ATOM     10  O   UNL     1     -27.218 -12.116 -64.011  1.00  0.00    -0.508 OA
ATOM     11  H   UNL     1     -27.579 -12.950 -64.462  1.00  0.00     0.293 HD
ENDBRANCH   6  10
TORSDOF 2
ENDMDL
