MODEL 1
REMARK VINA RESULT:    -5.668      0.000      0.000
REMARK INTER + INTRA:          -5.668
REMARK INTER:                  -5.668
REMARK INTRA:                   0.000
REMARK UNBOUND:                 0.000
REMARK SMILES C=C1CCC[C@@]2(C)CC(=O)C(=C(C)C)C[C@@H]12
REMARK SMILES IDX 13 1 12 2 11 3 15 4 16 5 2 6 1 7 3 8 4 9 5 10 6 11 8 12 9 13
REMARK SMILES IDX 10 14 7 15 14 16
REMARK H PARENT
REMARK Flexibility Score: inf
ROOT
ATOM      1  C   UNL     1     -11.762 -20.628  30.536  1.00  0.00     0.039 C 
ATOM      2  C   UNL     1     -11.969 -19.147  30.749  1.00  0.00    -0.070 C 
ATOM      3  C   UNL     1     -12.751 -18.404  29.914  1.00  0.00    -0.006 C 
ATOM      4  C   UNL     1     -12.897 -16.902  30.044  1.00  0.00     0.047 C 
ATOM      5  C   UNL     1     -12.383 -16.205  28.762  1.00  0.00     0.025 C 
ATOM      6  C   UNL     1     -10.852 -16.159  28.795  1.00  0.00    -0.073 C 
ATOM      7  C   UNL     1     -10.239 -15.283  29.610  1.00  0.00     0.008 C 
ATOM      8  C   UNL     1      -9.983 -17.070  27.959  1.00  0.00     0.031 C 
ATOM      9  C   UNL     1     -10.777 -17.994  27.043  1.00  0.00     0.005 C 
ATOM     10  C   UNL     1     -11.932 -17.239  26.395  1.00  0.00     0.008 C 
ATOM     11  C   UNL     1     -13.019 -16.800  27.425  1.00  0.00    -0.018 C 
ATOM     12  C   UNL     1     -13.995 -17.996  27.705  1.00  0.00     0.088 C 
ATOM     13  C   UNL     1     -13.468 -18.954  28.735  1.00  0.00     0.159 C 
ATOM     14  O   UNL     1     -13.714 -20.184  28.610  1.00  0.00    -0.295 OA
ATOM     15  C   UNL     1     -13.860 -15.696  26.737  1.00  0.00     0.012 C 
ATOM     16  C   UNL     1     -11.238 -18.510  31.910  1.00  0.00     0.039 C 
ENDROOT
TORSDOF 0
ENDMDL
MODEL 2
REMARK VINA RESULT:    -5.498      1.980      3.420
REMARK INTER + INTRA:          -5.498
REMARK INTER:                  -5.498
REMARK INTRA:                   0.000
REMARK UNBOUND:                 0.000
REMARK SMILES C=C1CCC[C@@]2(C)CC(=O)C(=C(C)C)C[C@@H]12
REMARK SMILES IDX 13 1 12 2 11 3 15 4 16 5 2 6 1 7 3 8 4 9 5 10 6 11 8 12 9 13
REMARK SMILES IDX 10 14 7 15 14 16
REMARK H PARENT
REMARK Flexibility Score: inf
ROOT
ATOM      1  C   UNL     1     -13.727 -15.121  31.505  1.00  0.00     0.039 C 
ATOM      2  C   UNL     1     -12.321 -15.511  31.116  1.00  0.00    -0.070 C 
ATOM      3  C   UNL     1     -11.957 -15.678  29.811  1.00  0.00    -0.006 C 
ATOM      4  C   UNL     1     -10.585 -16.165  29.396  1.00  0.00     0.047 C 
ATOM      5  C   UNL     1     -10.705 -17.500  28.623  1.00  0.00     0.025 C 
ATOM      6  C   UNL     1     -10.917 -18.641  29.623  1.00  0.00    -0.073 C 
ATOM      7  C   UNL     1      -9.878 -19.072  30.358  1.00  0.00     0.008 C 
ATOM      8  C   UNL     1     -12.257 -19.307  29.839  1.00  0.00     0.031 C 
ATOM      9  C   UNL     1     -13.356 -18.772  28.928  1.00  0.00     0.005 C 
ATOM     10  C   UNL     1     -12.824 -18.572  27.513  1.00  0.00     0.008 C 
ATOM     11  C   UNL     1     -11.756 -17.439  27.424  1.00  0.00    -0.018 C 
ATOM     12  C   UNL     1     -12.471 -16.045  27.323  1.00  0.00     0.088 C 
ATOM     13  C   UNL     1     -12.879 -15.497  28.660  1.00  0.00     0.159 C 
ATOM     14  O   UNL     1     -13.947 -14.836  28.750  1.00  0.00    -0.295 OA
ATOM     15  C   UNL     1     -11.002 -17.646  26.086  1.00  0.00     0.012 C 
ATOM     16  C   UNL     1     -11.337 -15.750  32.238  1.00  0.00     0.039 C 
ENDROOT
TORSDOF 0
ENDMDL
MODEL 3
REMARK VINA RESULT:    -4.929      1.371      3.973
REMARK INTER + INTRA:          -4.929
REMARK INTER:                  -4.929
REMARK INTRA:                   0.000
REMARK UNBOUND:                 0.000
REMARK SMILES C=C1CCC[C@@]2(C)CC(=O)C(=C(C)C)C[C@@H]12
REMARK SMILES IDX 13 1 12 2 11 3 15 4 16 5 2 6 1 7 3 8 4 9 5 10 6 11 8 12 9 13
REMARK SMILES IDX 10 14 7 15 14 16
REMARK H PARENT
REMARK Flexibility Score: inf
ROOT
ATOM      1  C   UNL     1     -13.667 -17.252  26.329  1.00  0.00     0.039 C 
ATOM      2  C   UNL     1     -12.332 -17.505  26.990  1.00  0.00    -0.070 C 
ATOM      3  C   UNL     1     -12.196 -18.398  28.013  1.00  0.00    -0.006 C 
ATOM      4  C   UNL     1     -10.894 -18.599  28.760  1.00  0.00     0.047 C 
ATOM      5  C   UNL     1     -11.078 -18.243  30.254  1.00  0.00     0.025 C 
ATOM      6  C   UNL     1     -11.050 -16.720  30.415  1.00  0.00    -0.073 C 
ATOM      7  C   UNL     1      -9.875 -16.072  30.326  1.00  0.00     0.008 C 
ATOM      8  C   UNL     1     -12.293 -15.895  30.657  1.00  0.00     0.031 C 
ATOM      9  C   UNL     1     -13.562 -16.730  30.781  1.00  0.00     0.005 C 
ATOM     10  C   UNL     1     -13.300 -17.975  31.620  1.00  0.00     0.008 C 
ATOM     11  C   UNL     1     -12.325 -18.977  30.927  1.00  0.00    -0.018 C 
ATOM     12  C   UNL     1     -13.120 -19.866  29.906  1.00  0.00     0.088 C 
ATOM     13  C   UNL     1     -13.314 -19.199  28.574  1.00  0.00     0.159 C 
ATOM     14  O   UNL     1     -14.384 -19.400  27.939  1.00  0.00    -0.295 OA
ATOM     15  C   UNL     1     -11.809 -19.931  32.033  1.00  0.00     0.012 C 
ATOM     16  C   UNL     1     -11.155 -16.696  26.495  1.00  0.00     0.039 C 
ENDROOT
TORSDOF 0
ENDMDL
MODEL 4
REMARK VINA RESULT:    -4.927      1.676      4.431
REMARK INTER + INTRA:          -4.927
REMARK INTER:                  -4.927
REMARK INTRA:                   0.000
REMARK UNBOUND:                 0.000
REMARK SMILES C=C1CCC[C@@]2(C)CC(=O)C(=C(C)C)C[C@@H]12
REMARK SMILES IDX 13 1 12 2 11 3 15 4 16 5 2 6 1 7 3 8 4 9 5 10 6 11 8 12 9 13
REMARK SMILES IDX 10 14 7 15 14 16
REMARK H PARENT
REMARK Flexibility Score: inf
ROOT
ATOM      1  C   UNL     1     -13.205 -17.088  26.317  1.00  0.00     0.039 C 
ATOM      2  C   UNL     1     -13.002 -16.082  27.424  1.00  0.00    -0.070 C 
ATOM      3  C   UNL     1     -11.979 -16.195  28.320  1.00  0.00    -0.006 C 
ATOM      4  C   UNL     1     -11.810 -15.259  29.498  1.00  0.00     0.047 C 
ATOM      5  C   UNL     1     -11.899 -16.052  30.824  1.00  0.00     0.025 C 
ATOM      6  C   UNL     1     -13.369 -16.342  31.138  1.00  0.00    -0.073 C 
ATOM      7  C   UNL     1     -14.153 -15.348  31.591  1.00  0.00     0.008 C 
ATOM      8  C   UNL     1     -13.999 -17.704  30.948  1.00  0.00     0.031 C 
ATOM      9  C   UNL     1     -13.016 -18.766  30.471  1.00  0.00     0.005 C 
ATOM     10  C   UNL     1     -11.690 -18.637  31.212  1.00  0.00     0.008 C 
ATOM     11  C   UNL     1     -10.929 -17.319  30.865  1.00  0.00    -0.018 C 
ATOM     12  C   UNL     1     -10.131 -17.507  29.527  1.00  0.00     0.088 C 
ATOM     13  C   UNL     1     -10.977 -17.292  28.304  1.00  0.00     0.159 C 
ATOM     14  O   UNL     1     -10.760 -17.992  27.279  1.00  0.00    -0.295 OA
ATOM     15  C   UNL     1      -9.876 -17.108  31.981  1.00  0.00     0.012 C 
ATOM     16  C   UNL     1     -14.008 -14.958  27.525  1.00  0.00     0.039 C 
ENDROOT
TORSDOF 0
ENDMDL
MODEL 5
REMARK VINA RESULT:    -4.697      2.194      3.927
REMARK INTER + INTRA:          -4.697
REMARK INTER:                  -4.697
REMARK INTRA:                   0.000
REMARK UNBOUND:                 0.000
REMARK SMILES C=C1CCC[C@@]2(C)CC(=O)C(=C(C)C)C[C@@H]12
REMARK SMILES IDX 13 1 12 2 11 3 15 4 16 5 2 6 1 7 3 8 4 9 5 10 6 11 8 12 9 13
REMARK SMILES IDX 10 14 7 15 14 16
REMARK H PARENT
REMARK Flexibility Score: inf
ROOT
ATOM      1  C   UNL     1     -10.000 -16.050  32.761  1.00  0.00     0.039 C 
ATOM      2  C   UNL     1      -9.971 -17.338  31.972  1.00  0.00    -0.070 C 
ATOM      3  C   UNL     1     -10.061 -17.348  30.611  1.00  0.00    -0.006 C 
ATOM      4  C   UNL     1     -10.135 -18.626  29.801  1.00  0.00     0.047 C 
ATOM      5  C   UNL     1     -11.469 -18.684  29.019  1.00  0.00     0.025 C 
ATOM      6  C   UNL     1     -12.591 -19.106  29.972  1.00  0.00    -0.073 C 
ATOM      7  C   UNL     1     -12.675 -20.390  30.361  1.00  0.00     0.008 C 
ATOM      8  C   UNL     1     -13.616 -18.137  30.517  1.00  0.00     0.031 C 
ATOM      9  C   UNL     1     -13.455 -16.719  29.982  1.00  0.00     0.005 C 
ATOM     10  C   UNL     1     -13.151 -16.744  28.489  1.00  0.00     0.008 C 
ATOM     11  C   UNL     1     -11.756 -17.365  28.167  1.00  0.00    -0.018 C 
ATOM     12  C   UNL     1     -10.639 -16.278  28.349  1.00  0.00     0.088 C 
ATOM     13  C   UNL     1     -10.195 -16.126  29.776  1.00  0.00     0.159 C 
ATOM     14  O   UNL     1      -9.875 -14.983  30.199  1.00  0.00    -0.295 OA
ATOM     15  C   UNL     1     -11.772 -17.735  26.663  1.00  0.00     0.012 C 
ATOM     16  C   UNL     1      -9.875 -18.625  32.759  1.00  0.00     0.039 C 
ENDROOT
TORSDOF 0
ENDMDL
MODEL 6
REMARK VINA RESULT:    -4.369      1.694      3.938
REMARK INTER + INTRA:          -4.369
REMARK INTER:                  -4.369
REMARK INTRA:                   0.000
REMARK UNBOUND:                 0.000
REMARK SMILES C=C1CCC[C@@]2(C)CC(=O)C(=C(C)C)C[C@@H]12
REMARK SMILES IDX 13 1 12 2 11 3 15 4 16 5 2 6 1 7 3 8 4 9 5 10 6 11 8 12 9 13
REMARK SMILES IDX 10 14 7 15 14 16
REMARK H PARENT
REMARK Flexibility Score: inf
ROOT
ATOM      1  C   UNL     1     -13.779 -19.810  28.615  1.00  0.00     0.039 C 
ATOM      2  C   UNL     1     -13.208 -18.546  28.016  1.00  0.00    -0.070 C 
ATOM      3  C   UNL     1     -12.138 -17.907  28.572  1.00  0.00    -0.006 C 
ATOM      4  C   UNL     1     -11.608 -16.588  28.052  1.00  0.00     0.047 C 
ATOM      5  C   UNL     1     -11.717 -15.502  29.149  1.00  0.00     0.025 C 
ATOM      6  C   UNL     1     -13.164 -15.005  29.221  1.00  0.00    -0.073 C 
ATOM      7  C   UNL     1     -13.627 -14.188  28.259  1.00  0.00     0.008 C 
ATOM      8  C   UNL     1     -14.117 -15.403  30.326  1.00  0.00     0.031 C 
ATOM      9  C   UNL     1     -13.480 -16.296  31.384  1.00  0.00     0.005 C 
ATOM     10  C   UNL     1     -12.080 -15.799  31.728  1.00  0.00     0.008 C 
ATOM     11  C   UNL     1     -11.078 -15.948  30.541  1.00  0.00    -0.018 C 
ATOM     12  C   UNL     1     -10.519 -17.414  30.503  1.00  0.00     0.088 C 
ATOM     13  C   UNL     1     -11.434 -18.372  29.795  1.00  0.00     0.159 C 
ATOM     14  O   UNL     1     -11.518 -19.559  30.210  1.00  0.00    -0.295 OA
ATOM     15  C   UNL     1      -9.875 -15.025  30.859  1.00  0.00     0.012 C 
ATOM     16  C   UNL     1     -13.899 -17.993  26.790  1.00  0.00     0.039 C 
ENDROOT
TORSDOF 0
ENDMDL
MODEL 7
REMARK VINA RESULT:    -4.222      1.899      4.263
REMARK INTER + INTRA:          -4.222
REMARK INTER:                  -4.222
REMARK INTRA:                   0.000
REMARK UNBOUND:                 0.000
REMARK SMILES C=C1CCC[C@@]2(C)CC(=O)C(=C(C)C)C[C@@H]12
REMARK SMILES IDX 13 1 12 2 11 3 15 4 16 5 2 6 1 7 3 8 4 9 5 10 6 11 8 12 9 13
REMARK SMILES IDX 10 14 7 15 14 16
REMARK H PARENT
REMARK Flexibility Score: inf
ROOT
ATOM      1  C   UNL     1     -14.000 -13.887  28.968  1.00  0.00     0.039 C 
ATOM      2  C   UNL     1     -13.787 -15.231  28.313  1.00  0.00    -0.070 C 
ATOM      3  C   UNL     1     -13.445 -16.337  29.036  1.00  0.00    -0.006 C 
ATOM      4  C   UNL     1     -13.127 -17.672  28.396  1.00  0.00     0.047 C 
ATOM      5  C   UNL     1     -11.671 -18.083  28.717  1.00  0.00     0.025 C 
ATOM      6  C   UNL     1     -10.717 -17.307  27.805  1.00  0.00    -0.073 C 
ATOM      7  C   UNL     1     -10.612 -17.660  26.512  1.00  0.00     0.008 C 
ATOM      8  C   UNL     1      -9.886 -16.139  28.285  1.00  0.00     0.031 C 
ATOM      9  C   UNL     1     -10.049 -15.849  29.772  1.00  0.00     0.005 C 
ATOM     10  C   UNL     1     -10.068 -17.148  30.570  1.00  0.00     0.008 C 
ATOM     11  C   UNL     1     -11.329 -18.019  30.275  1.00  0.00    -0.018 C 
ATOM     12  C   UNL     1     -12.538 -17.506  31.134  1.00  0.00     0.088 C 
ATOM     13  C   UNL     1     -13.250 -16.341  30.508  1.00  0.00     0.159 C 
ATOM     14  O   UNL     1     -13.726 -15.443  31.253  1.00  0.00    -0.295 OA
ATOM     15  C   UNL     1     -11.007 -19.449  30.776  1.00  0.00     0.012 C 
ATOM     16  C   UNL     1     -13.931 -15.294  26.809  1.00  0.00     0.039 C 
ENDROOT
TORSDOF 0
ENDMDL
MODEL 8
REMARK VINA RESULT:    -3.736      1.962      4.455
REMARK INTER + INTRA:          -3.736
REMARK INTER:                  -3.736
REMARK INTRA:                   0.000
REMARK UNBOUND:                 0.000
REMARK SMILES C=C1CCC[C@@]2(C)CC(=O)C(=C(C)C)C[C@@H]12
REMARK SMILES IDX 13 1 12 2 11 3 15 4 16 5 2 6 1 7 3 8 4 9 5 10 6 11 8 12 9 13
REMARK SMILES IDX 10 14 7 15 14 16
REMARK H PARENT
REMARK Flexibility Score: inf
ROOT
ATOM      1  C   UNL     1     -11.413 -17.574  26.221  1.00  0.00     0.039 C 
ATOM      2  C   UNL     1     -12.401 -17.322  27.335  1.00  0.00    -0.070 C 
ATOM      3  C   UNL     1     -12.065 -16.598  28.442  1.00  0.00    -0.006 C 
ATOM      4  C   UNL     1     -13.000 -16.413  29.619  1.00  0.00     0.047 C 
ATOM      5  C   UNL     1     -12.373 -17.020  30.897  1.00  0.00     0.025 C 
ATOM      6  C   UNL     1     -12.549 -18.541  30.868  1.00  0.00    -0.073 C 
ATOM      7  C   UNL     1     -13.761 -19.067  31.121  1.00  0.00     0.008 C 
ATOM      8  C   UNL     1     -11.419 -19.495  30.553  1.00  0.00     0.031 C 
ATOM      9  C   UNL     1     -10.083 -18.799  30.324  1.00  0.00     0.005 C 
ATOM     10  C   UNL     1      -9.878 -17.688  31.348  1.00  0.00     0.008 C 
ATOM     11  C   UNL     1     -10.886 -16.510  31.171  1.00  0.00    -0.018 C 
ATOM     12  C   UNL     1     -10.370 -15.537  30.053  1.00  0.00     0.088 C 
ATOM     13  C   UNL     1     -10.726 -15.994  28.667  1.00  0.00     0.159 C 
ATOM     14  O   UNL     1      -9.915 -15.783  27.726  1.00  0.00    -0.295 OA
ATOM     15  C   UNL     1     -10.868 -15.709  32.496  1.00  0.00     0.012 C 
ATOM     16  C   UNL     1     -13.773 -17.940  27.192  1.00  0.00     0.039 C 
ENDROOT
TORSDOF 0
ENDMDL
MODEL 9
REMARK VINA RESULT:    -3.591      1.873      3.863
REMARK INTER + INTRA:          -3.591
REMARK INTER:                  -3.591
REMARK INTRA:                   0.000
REMARK UNBOUND:                 0.000
REMARK SMILES C=C1CCC[C@@]2(C)CC(=O)C(=C(C)C)C[C@@H]12
REMARK SMILES IDX 13 1 12 2 11 3 15 4 16 5 2 6 1 7 3 8 4 9 5 10 6 11 8 12 9 13
REMARK SMILES IDX 10 14 7 15 14 16
REMARK H PARENT
REMARK Flexibility Score: inf
ROOT
ATOM      1  C   UNL     1     -13.624 -17.591  26.601  1.00  0.00     0.039 C 
ATOM      2  C   UNL     1     -13.627 -18.102  28.023  1.00  0.00    -0.070 C 
ATOM      3  C   UNL     1     -13.355 -17.284  29.080  1.00  0.00    -0.006 C 
ATOM      4  C   UNL     1     -13.252 -17.789  30.505  1.00  0.00     0.047 C 
ATOM      5  C   UNL     1     -11.831 -17.528  31.059  1.00  0.00     0.025 C 
ATOM      6  C   UNL     1     -10.875 -18.590  30.509  1.00  0.00    -0.073 C 
ATOM      7  C   UNL     1     -10.922 -19.838  31.005  1.00  0.00     0.008 C 
ATOM      8  C   UNL     1      -9.875 -18.307  29.410  1.00  0.00     0.031 C 
ATOM      9  C   UNL     1      -9.875 -16.855  28.948  1.00  0.00     0.005 C 
ATOM     10  C   UNL     1      -9.978 -15.915  30.145  1.00  0.00     0.008 C 
ATOM     11  C   UNL     1     -11.352 -16.017  30.876  1.00  0.00    -0.018 C 
ATOM     12  C   UNL     1     -12.415 -15.137  30.129  1.00  0.00     0.088 C 
ATOM     13  C   UNL     1     -13.036 -15.838  28.955  1.00  0.00     0.159 C 
ATOM     14  O   UNL     1     -13.339 -15.168  27.932  1.00  0.00    -0.295 OA
ATOM     15  C   UNL     1     -11.157 -15.380  32.275  1.00  0.00     0.012 C 
ATOM     16  C   UNL     1     -13.905 -19.574  28.224  1.00  0.00     0.039 C 
ENDROOT
TORSDOF 0
ENDMDL
