MODEL 1
REMARK VINA RESULT:    -3.470      0.000      0.000
REMARK INTER + INTRA:          -4.341
REMARK INTER:                  -4.687
REMARK INTRA:                   0.346
REMARK UNBOUND:                 0.346
REMARK SMILES C=C1C(=O)O[C@@H]2[C@H]1CCC(C)=CCC[C@]1(C)O[C@@H]21
REMARK SMILES IDX 6 1 7 2 2 3 1 4 3 5 4 6 5 7 8 8 9 9 10 10 11 11 12 12 18 14
REMARK SMILES IDX 15 15 17 16 16 17 14 18 13 19
REMARK H PARENT
REMARK Flexibility Score: 70.00
ROOT
ATOM      1  C   UNL     1      19.251  -2.687   5.523  1.00  0.00     0.216 C 
ATOM      2  C   UNL     1      19.237  -1.663   4.329  1.00  0.00     0.070 C 
ATOM      3  C   UNL     1      18.001  -2.065   3.578  1.00  0.00     0.037 C 
ATOM      4  C   UNL     1      17.402  -1.362   2.616  1.00  0.00     0.021 C 
ATOM      5  C   UNL     1      17.557  -3.334   4.095  1.00  0.00     0.334 C 
ATOM      6  O   UNL     1      16.603  -4.021   3.642  1.00  0.00    -0.247 OA
ATOM      7  O   UNL     1      18.330  -3.716   5.167  1.00  0.00    -0.455 OA
ENDROOT
BRANCH   2   8
ATOM      8  C   UNL     1      20.463  -1.739   3.382  1.00  0.00     0.017 C 
BRANCH   8   9
ATOM      9  C   UNL     1      21.695  -0.969   3.913  1.00  0.00     0.031 C 
BRANCH   9  10
ATOM     10  C   UNL     1      22.990  -1.694   3.588  1.00  0.00    -0.077 C 
ATOM     11  C   UNL     1      23.328  -1.933   2.137  1.00  0.00     0.039 C 
ATOM     12  C   UNL     1      23.884  -2.105   4.520  1.00  0.00    -0.028 CG0
ATOM     13  G   UNL     1      23.801  -1.873   6.011  1.00  0.00     0.000 G0
ENDBRANCH   9  10
ENDBRANCH   8   9
ENDBRANCH   2   8
BRANCH   1  14
ATOM     14  C   UNL     1      20.623  -3.307   5.837  1.00  0.00     0.192 C 
ATOM     15  C   UNL     1      21.518  -2.628   6.819  1.00  0.00     0.096 C 
ATOM     16  O   UNL     1      20.725  -3.742   7.176  1.00  0.00    -0.362 OA
ATOM     17  C   UNL     1      21.084  -1.370   7.591  1.00  0.00     0.045 C 
BRANCH  15  18
ATOM     18  C   UNL     1      23.011  -2.972   6.742  1.00  0.00     0.042 C 
BRANCH  18  19
ATOM     19  C   UNL     1      23.816  -1.885   6.010  1.00  0.00     0.030 CG0
ATOM     20  G   UNL     1      23.886  -2.115   4.518  1.00  0.00     0.000 G0
ENDBRANCH  18  19
ENDBRANCH  15  18
ENDBRANCH   1  14
TORSDOF 0
ENDMDL
MODEL 2
REMARK VINA RESULT:    -3.366      3.504      5.480
REMARK INTER + INTRA:          -4.200
REMARK INTER:                  -4.520
REMARK INTRA:                   0.320
REMARK UNBOUND:                 0.346
REMARK SMILES C=C1C(=O)O[C@@H]2[C@H]1CCC(C)=CCC[C@]1(C)O[C@@H]21
REMARK SMILES IDX 6 1 7 2 2 3 1 4 3 5 4 6 5 7 8 8 9 9 10 10 11 11 12 12 18 14
REMARK SMILES IDX 15 15 17 16 16 17 14 18 13 19
REMARK H PARENT
REMARK Flexibility Score: 70.00
ROOT
ATOM      1  C   UNL     1      18.610  -1.756   2.383  1.00  0.00     0.216 C 
ATOM      2  C   UNL     1      19.458  -1.794   3.706  1.00  0.00     0.070 C 
ATOM      3  C   UNL     1      18.887  -2.986   4.419  1.00  0.00     0.037 C 
ATOM      4  C   UNL     1      19.417  -3.596   5.479  1.00  0.00     0.021 C 
ATOM      5  C   UNL     1      17.677  -3.373   3.740  1.00  0.00     0.334 C 
ATOM      6  O   UNL     1      16.881  -4.275   4.113  1.00  0.00    -0.247 OA
ATOM      7  O   UNL     1      17.490  -2.609   2.611  1.00  0.00    -0.455 OA
ENDROOT
BRANCH   2   8
ATOM      8  C   UNL     1      19.326  -0.540   4.610  1.00  0.00     0.017 C 
BRANCH   8   9
ATOM      9  C   UNL     1      20.223   0.636   4.161  1.00  0.00     0.031 C 
BRANCH   9  10
ATOM     10  C   UNL     1      19.533   1.975   4.362  1.00  0.00    -0.077 C 
ATOM     11  C   UNL     1      19.123   2.363   5.761  1.00  0.00     0.039 C 
ATOM     12  C   UNL     1      19.295   2.863   3.366  1.00  0.00    -0.028 CG0
ATOM     13  G   UNL     1      19.717   2.729   1.920  1.00  0.00     0.000 G0
ENDBRANCH   9  10
ENDBRANCH   8   9
ENDBRANCH   2   8
BRANCH   1  14
ATOM     14  C   UNL     1      18.118  -0.361   1.960  1.00  0.00     0.192 C 
ATOM     15  C   UNL     1      18.961   0.456   1.040  1.00  0.00     0.096 C 
ATOM     16  O   UNL     1      17.847  -0.280   0.578  1.00  0.00    -0.362 OA
ATOM     17  C   UNL     1      20.269  -0.079   0.432  1.00  0.00     0.045 C 
BRANCH  15  18
ATOM     18  C   UNL     1      18.707   1.969   1.034  1.00  0.00     0.042 C 
BRANCH  18  19
ATOM     19  C   UNL     1      19.723   2.728   1.904  1.00  0.00     0.030 CG0
ATOM     20  G   UNL     1      19.284   2.846   3.346  1.00  0.00     0.000 G0
ENDBRANCH  18  19
ENDBRANCH  15  18
ENDBRANCH   1  14
TORSDOF 0
ENDMDL
MODEL 3
REMARK VINA RESULT:    -3.341      2.865      4.704
REMARK INTER + INTRA:          -4.167
REMARK INTER:                  -4.542
REMARK INTRA:                   0.376
REMARK UNBOUND:                 0.346
REMARK SMILES C=C1C(=O)O[C@@H]2[C@H]1CCC(C)=CCC[C@]1(C)O[C@@H]21
REMARK SMILES IDX 6 1 7 2 2 3 1 4 3 5 4 6 5 7 8 8 9 9 10 10 11 11 12 12 18 14
REMARK SMILES IDX 15 15 17 16 16 17 14 18 13 19
REMARK H PARENT
REMARK Flexibility Score: 70.00
ROOT
ATOM      1  C   UNL     1      18.631  -0.092   6.043  1.00  0.00     0.216 C 
ATOM      2  C   UNL     1      19.934  -0.408   6.866  1.00  0.00     0.070 C 
ATOM      3  C   UNL     1      20.013   0.764   7.801  1.00  0.00     0.037 C 
ATOM      4  C   UNL     1      20.800   0.863   8.873  1.00  0.00     0.021 C 
ATOM      5  C   UNL     1      19.068   1.756   7.355  1.00  0.00     0.334 C 
ATOM      6  O   UNL     1      18.925   2.908   7.843  1.00  0.00    -0.247 OA
ATOM      7  O   UNL     1      18.330   1.279   6.296  1.00  0.00    -0.455 OA
ENDROOT
BRANCH   2   8
ATOM      8  C   UNL     1      21.238  -0.489   6.030  1.00  0.00     0.017 C 
BRANCH   8   9
ATOM      9  C   UNL     1      21.430  -1.852   5.327  1.00  0.00     0.031 C 
BRANCH   9  10
ATOM     10  C   UNL     1      22.041  -1.689   3.945  1.00  0.00    -0.077 C 
ATOM     11  C   UNL     1      23.394  -1.030   3.838  1.00  0.00     0.039 C 
ATOM     12  C   UNL     1      21.464  -2.133   2.803  1.00  0.00    -0.028 CG0
ATOM     13  G   UNL     1      20.172  -2.912   2.690  1.00  0.00     0.000 G0
ENDBRANCH   9  10
ENDBRANCH   8   9
ENDBRANCH   2   8
BRANCH   1  14
ATOM     14  C   UNL     1      18.742  -0.325   4.526  1.00  0.00     0.192 C 
ATOM     15  C   UNL     1      18.357  -1.654   3.967  1.00  0.00     0.096 C 
ATOM     16  O   UNL     1      17.487  -0.542   3.920  1.00  0.00    -0.362 OA
ATOM     17  C   UNL     1      17.775  -2.775   4.844  1.00  0.00     0.045 C 
BRANCH  15  18
ATOM     18  C   UNL     1      18.926  -2.011   2.589  1.00  0.00     0.042 C 
BRANCH  18  19
ATOM     19  C   UNL     1      20.169  -2.912   2.693  1.00  0.00     0.030 CG0
ATOM     20  G   UNL     1      21.455  -2.123   2.798  1.00  0.00     0.000 G0
ENDBRANCH  18  19
ENDBRANCH  15  18
ENDBRANCH   1  14
TORSDOF 0
ENDMDL
MODEL 4
REMARK VINA RESULT:    -3.277      3.547      4.667
REMARK INTER + INTRA:          -4.080
REMARK INTER:                  -4.545
REMARK INTRA:                   0.465
REMARK UNBOUND:                 0.346
REMARK SMILES C=C1C(=O)O[C@@H]2[C@H]1CCC(C)=CCC[C@]1(C)O[C@@H]21
REMARK SMILES IDX 6 1 7 2 2 3 1 4 3 5 4 6 5 7 8 8 9 9 10 10 11 11 12 12 18 14
REMARK SMILES IDX 15 15 17 16 16 17 14 18 13 19
REMARK H PARENT
REMARK Flexibility Score: 70.00
ROOT
ATOM      1  C   UNL     1      18.992  -1.322   5.423  1.00  0.00     0.216 C 
ATOM      2  C   UNL     1      17.824  -1.769   4.470  1.00  0.00     0.070 C 
ATOM      3  C   UNL     1      17.970  -3.262   4.462  1.00  0.00     0.037 C 
ATOM      4  C   UNL     1      17.078  -4.138   3.998  1.00  0.00     0.021 C 
ATOM      5  C   UNL     1      19.236  -3.590   5.069  1.00  0.00     0.334 C 
ATOM      6  O   UNL     1      19.736  -4.743   5.150  1.00  0.00    -0.247 OA
ATOM      7  O   UNL     1      19.848  -2.456   5.552  1.00  0.00    -0.455 OA
ENDROOT
BRANCH   2   8
ATOM      8  C   UNL     1      17.917  -1.233   3.017  1.00  0.00     0.017 C 
BRANCH   8   9
ATOM      9  C   UNL     1      17.454   0.235   2.875  1.00  0.00     0.031 C 
BRANCH   9  10
ATOM     10  C   UNL     1      18.358   1.019   1.940  1.00  0.00    -0.077 C 
ATOM     11  C   UNL     1      18.509   0.533   0.520  1.00  0.00     0.039 C 
ATOM     12  C   UNL     1      19.011   2.154   2.290  1.00  0.00    -0.028 CG0
ATOM     13  G   UNL     1      18.917   2.874   3.617  1.00  0.00     0.000 G0
ENDBRANCH   9  10
ENDBRANCH   8   9
ENDBRANCH   2   8
BRANCH   1  14
ATOM     14  C   UNL     1      19.809  -0.113   4.936  1.00  0.00     0.192 C 
ATOM     15  C   UNL     1      19.504   1.238   5.490  1.00  0.00     0.096 C 
ATOM     16  O   UNL     1      20.586   0.463   5.963  1.00  0.00    -0.362 OA
ATOM     17  C   UNL     1      18.455   1.455   6.593  1.00  0.00     0.045 C 
BRANCH  15  18
ATOM     18  C   UNL     1      19.964   2.443   4.659  1.00  0.00     0.042 C 
BRANCH  18  19
ATOM     19  C   UNL     1      18.905   2.875   3.632  1.00  0.00     0.030 CG0
ATOM     20  G   UNL     1      19.036   2.143   2.315  1.00  0.00     0.000 G0
ENDBRANCH  18  19
ENDBRANCH  15  18
ENDBRANCH   1  14
TORSDOF 0
ENDMDL
MODEL 5
REMARK VINA RESULT:    -3.116      3.277      5.624
REMARK INTER + INTRA:          -3.864
REMARK INTER:                  -4.177
REMARK INTRA:                   0.313
REMARK UNBOUND:                 0.346
REMARK SMILES C=C1C(=O)O[C@@H]2[C@H]1CCC(C)=CCC[C@]1(C)O[C@@H]21
REMARK SMILES IDX 6 1 7 2 2 3 1 4 3 5 4 6 5 7 8 8 9 9 10 10 11 11 12 12 18 14
REMARK SMILES IDX 15 15 17 16 16 17 14 18 13 19
REMARK H PARENT
REMARK Flexibility Score: 70.00
ROOT
ATOM      1  C   UNL     1      21.160  -0.663   5.281  1.00  0.00     0.216 C 
ATOM      2  C   UNL     1      20.316  -1.691   6.121  1.00  0.00     0.070 C 
ATOM      3  C   UNL     1      21.382  -2.513   6.785  1.00  0.00     0.037 C 
ATOM      4  C   UNL     1      21.202  -3.368   7.792  1.00  0.00     0.021 C 
ATOM      5  C   UNL     1      22.642  -2.198   6.161  1.00  0.00     0.334 C 
ATOM      6  O   UNL     1      23.742  -2.764   6.398  1.00  0.00    -0.247 OA
ATOM      7  O   UNL     1      22.488  -1.183   5.245  1.00  0.00    -0.455 OA
ENDROOT
BRANCH   2   8
ATOM      8  C   UNL     1      19.392  -2.619   5.290  1.00  0.00     0.017 C 
BRANCH   8   9
ATOM      9  C   UNL     1      18.052  -1.955   4.895  1.00  0.00     0.031 C 
BRANCH   9  10
ATOM     10  C   UNL     1      17.623  -2.351   3.493  1.00  0.00    -0.077 C 
ATOM     11  C   UNL     1      17.391  -3.814   3.205  1.00  0.00     0.039 C 
ATOM     12  C   UNL     1      17.396  -1.468   2.490  1.00  0.00    -0.028 CG0
ATOM     13  G   UNL     1      17.460   0.039   2.587  1.00  0.00     0.000 G0
ENDBRANCH   9  10
ENDBRANCH   8   9
ENDBRANCH   2   8
BRANCH   1  14
ATOM     14  C   UNL     1      20.660  -0.423   3.845  1.00  0.00     0.192 C 
ATOM     15  C   UNL     1      19.713   0.699   3.586  1.00  0.00     0.096 C 
ATOM     16  O   UNL     1      21.095   0.812   3.321  1.00  0.00    -0.362 OA
ATOM     17  C   UNL     1      19.279   1.678   4.690  1.00  0.00     0.045 C 
BRANCH  15  18
ATOM     18  C   UNL     1      18.876   0.611   2.304  1.00  0.00     0.042 C 
BRANCH  18  19
ATOM     19  C   UNL     1      17.465   0.059   2.572  1.00  0.00     0.030 CG0
ATOM     20  G   UNL     1      17.405  -1.450   2.499  1.00  0.00     0.000 G0
ENDBRANCH  18  19
ENDBRANCH  15  18
ENDBRANCH   1  14
TORSDOF 0
ENDMDL
MODEL 6
REMARK VINA RESULT:    -3.069      3.649      5.212
REMARK INTER + INTRA:          -3.799
REMARK INTER:                  -4.190
REMARK INTRA:                   0.391
REMARK UNBOUND:                 0.346
REMARK SMILES C=C1C(=O)O[C@@H]2[C@H]1CCC(C)=CCC[C@]1(C)O[C@@H]21
REMARK SMILES IDX 6 1 7 2 2 3 1 4 3 5 4 6 5 7 8 8 9 9 10 10 11 11 12 12 18 14
REMARK SMILES IDX 15 15 17 16 16 17 14 18 13 19
REMARK H PARENT
REMARK Flexibility Score: 70.00
ROOT
ATOM      1  C   UNL     1      20.520  -2.088   1.811  1.00  0.00     0.216 C 
ATOM      2  C   UNL     1      20.097  -0.875   0.904  1.00  0.00     0.070 C 
ATOM      3  C   UNL     1      21.213  -0.820  -0.098  1.00  0.00     0.037 C 
ATOM      4  C   UNL     1      21.217  -0.120  -1.233  1.00  0.00     0.021 C 
ATOM      5  C   UNL     1      22.274  -1.676   0.368  1.00  0.00     0.334 C 
ATOM      6  O   UNL     1      23.406  -1.805  -0.170  1.00  0.00    -0.247 OA
ATOM      7  O   UNL     1      21.890  -2.345   1.508  1.00  0.00    -0.455 OA
ENDROOT
BRANCH   2   8
ATOM      8  C   UNL     1      19.992   0.489   1.635  1.00  0.00     0.017 C 
BRANCH   8   9
ATOM      9  C   UNL     1      18.666   0.668   2.410  1.00  0.00     0.031 C 
BRANCH   9  10
ATOM     10  C   UNL     1      18.887   1.354   3.747  1.00  0.00    -0.077 C 
ATOM     11  C   UNL     1      19.506   2.730   3.748  1.00  0.00     0.039 C 
ATOM     12  C   UNL     1      18.526   0.824   4.941  1.00  0.00    -0.028 CG0
ATOM     13  G   UNL     1      17.797  -0.482   5.163  1.00  0.00     0.000 G0
ENDBRANCH   9  10
ENDBRANCH   8   9
ENDBRANCH   2   8
BRANCH   1  14
ATOM     14  C   UNL     1      20.360  -1.862   3.324  1.00  0.00     0.192 C 
ATOM     15  C   UNL     1      19.112  -2.325   3.997  1.00  0.00     0.096 C 
ATOM     16  O   UNL     1      20.309  -3.072   4.049  1.00  0.00    -0.362 OA
ATOM     17  C   UNL     1      18.011  -3.094   3.247  1.00  0.00     0.045 C 
BRANCH  15  18
ATOM     18  C   UNL     1      18.772  -1.670   5.342  1.00  0.00     0.042 C 
BRANCH  18  19
ATOM     19  C   UNL     1      17.807  -0.483   5.179  1.00  0.00     0.030 CG0
ATOM     20  G   UNL     1      18.527   0.825   4.940  1.00  0.00     0.000 G0
ENDBRANCH  18  19
ENDBRANCH  15  18
ENDBRANCH   1  14
TORSDOF 0
ENDMDL
MODEL 7
REMARK VINA RESULT:    -2.978     13.483     16.611
REMARK INTER + INTRA:          -3.677
REMARK INTER:                  -4.064
REMARK INTRA:                   0.387
REMARK UNBOUND:                 0.346
REMARK SMILES C=C1C(=O)O[C@@H]2[C@H]1CCC(C)=CCC[C@]1(C)O[C@@H]21
REMARK SMILES IDX 6 1 7 2 2 3 1 4 3 5 4 6 5 7 8 8 9 9 10 10 11 11 12 12 18 14
REMARK SMILES IDX 15 15 17 16 16 17 14 18 13 19
REMARK H PARENT
REMARK Flexibility Score: 70.00
ROOT
ATOM      1  C   UNL     1       9.008   0.398  -2.187  1.00  0.00     0.216 C 
ATOM      2  C   UNL     1       7.873   0.739  -1.153  1.00  0.00     0.070 C 
ATOM      3  C   UNL     1       8.452   0.234   0.137  1.00  0.00     0.037 C 
ATOM      4  C   UNL     1       7.993   0.495   1.361  1.00  0.00     0.021 C 
ATOM      5  C   UNL     1       9.611  -0.564  -0.177  1.00  0.00     0.334 C 
ATOM      6  O   UNL     1      10.295  -1.224   0.649  1.00  0.00    -0.247 OA
ATOM      7  O   UNL     1       9.876  -0.521  -1.526  1.00  0.00    -0.455 OA
ENDROOT
BRANCH   2   8
ATOM      8  C   UNL     1       6.512   0.042  -1.415  1.00  0.00     0.017 C 
BRANCH   8   9
ATOM      9  C   UNL     1       5.646   0.769  -2.470  1.00  0.00     0.031 C 
BRANCH   9  10
ATOM     10  C   UNL     1       4.860  -0.214  -3.321  1.00  0.00    -0.077 C 
ATOM     11  C   UNL     1       3.875  -1.126  -2.632  1.00  0.00     0.039 C 
ATOM     12  C   UNL     1       4.958  -0.297  -4.670  1.00  0.00    -0.028 CG0
ATOM     13  G   UNL     1       5.793   0.588  -5.568  1.00  0.00     0.000 G0
ENDBRANCH   9  10
ENDBRANCH   8   9
ENDBRANCH   2   8
BRANCH   1  14
ATOM     14  C   UNL     1       8.523  -0.213  -3.513  1.00  0.00     0.192 C 
ATOM     15  C   UNL     1       8.156   0.697  -4.637  1.00  0.00     0.096 C 
ATOM     16  O   UNL     1       9.408   0.046  -4.582  1.00  0.00    -0.362 OA
ATOM     17  C   UNL     1       8.321   2.223  -4.546  1.00  0.00     0.045 C 
BRANCH  15  18
ATOM     18  C   UNL     1       7.241   0.115  -5.722  1.00  0.00     0.042 C 
BRANCH  18  19
ATOM     19  C   UNL     1       5.789   0.599  -5.574  1.00  0.00     0.030 CG0
ATOM     20  G   UNL     1       4.962  -0.299  -4.681  1.00  0.00     0.000 G0
ENDBRANCH  18  19
ENDBRANCH  15  18
ENDBRANCH   1  14
TORSDOF 0
ENDMDL
MODEL 8
REMARK VINA RESULT:    -2.955      2.797      4.012
REMARK INTER + INTRA:          -3.645
REMARK INTER:                  -3.997
REMARK INTRA:                   0.352
REMARK UNBOUND:                 0.346
REMARK SMILES C=C1C(=O)O[C@@H]2[C@H]1CCC(C)=CCC[C@]1(C)O[C@@H]21
REMARK SMILES IDX 6 1 7 2 2 3 1 4 3 5 4 6 5 7 8 8 9 9 10 10 11 11 12 12 18 14
REMARK SMILES IDX 15 15 17 16 16 17 14 18 13 19
REMARK H PARENT
REMARK Flexibility Score: 70.00
ROOT
ATOM      1  C   UNL     1      19.834  -1.531   3.961  1.00  0.00     0.216 C 
ATOM      2  C   UNL     1      18.390  -0.972   4.236  1.00  0.00     0.070 C 
ATOM      3  C   UNL     1      17.876  -0.719   2.848  1.00  0.00     0.037 C 
ATOM      4  C   UNL     1      16.610  -0.468   2.513  1.00  0.00     0.021 C 
ATOM      5  C   UNL     1      18.986  -0.821   1.935  1.00  0.00     0.334 C 
ATOM      6  O   UNL     1      18.947  -0.579   0.700  1.00  0.00    -0.247 OA
ATOM      7  O   UNL     1      20.124  -1.218   2.600  1.00  0.00    -0.455 OA
ENDROOT
BRANCH   2   8
ATOM      8  C   UNL     1      18.338   0.346   5.053  1.00  0.00     0.017 C 
BRANCH   8   9
ATOM      9  C   UNL     1      18.467   0.125   6.578  1.00  0.00     0.031 C 
BRANCH   9  10
ATOM     10  C   UNL     1      19.289   1.221   7.234  1.00  0.00    -0.077 C 
ATOM     11  C   UNL     1      18.805   2.645   7.115  1.00  0.00     0.039 C 
ATOM     12  C   UNL     1      20.415   0.997   7.956  1.00  0.00    -0.028 CG0
ATOM     13  G   UNL     1      21.014  -0.349   8.293  1.00  0.00     0.000 G0
ENDBRANCH   9  10
ENDBRANCH   8   9
ENDBRANCH   2   8
BRANCH   1  14
ATOM     14  C   UNL     1      20.940  -0.962   4.868  1.00  0.00     0.192 C 
ATOM     15  C   UNL     1      21.279  -1.678   6.132  1.00  0.00     0.096 C 
ATOM     16  O   UNL     1      22.056  -1.820   4.961  1.00  0.00    -0.362 OA
ATOM     17  C   UNL     1      20.619  -3.011   6.523  1.00  0.00     0.045 C 
BRANCH  15  18
ATOM     18  C   UNL     1      21.995  -0.860   7.214  1.00  0.00     0.042 C 
BRANCH  18  19
ATOM     19  C   UNL     1      21.024  -0.356   8.295  1.00  0.00     0.030 CG0
ATOM     20  G   UNL     1      20.419   0.987   7.955  1.00  0.00     0.000 G0
ENDBRANCH  18  19
ENDBRANCH  15  18
ENDBRANCH   1  14
TORSDOF 0
ENDMDL
MODEL 9
REMARK VINA RESULT:    -2.910     17.117     18.883
REMARK INTER + INTRA:          -3.584
REMARK INTER:                  -3.948
REMARK INTRA:                   0.363
REMARK UNBOUND:                 0.346
REMARK SMILES C=C1C(=O)O[C@@H]2[C@H]1CCC(C)=CCC[C@]1(C)O[C@@H]21
REMARK SMILES IDX 6 1 7 2 2 3 1 4 3 5 4 6 5 7 8 8 9 9 10 10 11 11 12 12 18 14
REMARK SMILES IDX 15 15 17 16 16 17 14 18 13 19
REMARK H PARENT
REMARK Flexibility Score: 70.00
ROOT
ATOM      1  C   UNL     1       7.902 -13.436   4.449  1.00  0.00     0.216 C 
ATOM      2  C   UNL     1       7.460 -14.943   4.528  1.00  0.00     0.070 C 
ATOM      3  C   UNL     1       8.654 -15.595   5.163  1.00  0.00     0.037 C 
ATOM      4  C   UNL     1       8.701 -16.827   5.670  1.00  0.00     0.021 C 
ATOM      5  C   UNL     1       9.738 -14.645   5.153  1.00  0.00     0.334 C 
ATOM      6  O   UNL     1      10.921 -14.875   5.521  1.00  0.00    -0.247 OA
ATOM      7  O   UNL     1       9.311 -13.429   4.672  1.00  0.00    -0.455 OA
ENDROOT
BRANCH   2   8
ATOM      8  C   UNL     1       7.172 -15.617   3.160  1.00  0.00     0.017 C 
BRANCH   8   9
ATOM      9  C   UNL     1       5.761 -15.307   2.610  1.00  0.00     0.031 C 
BRANCH   9  10
ATOM     10  C   UNL     1       5.773 -15.136   1.101  1.00  0.00    -0.077 C 
ATOM     11  C   UNL     1       6.243 -16.294   0.256  1.00  0.00     0.039 C 
ATOM     12  C   UNL     1       5.351 -14.019   0.460  1.00  0.00    -0.028 CG0
ATOM     13  G   UNL     1       4.744 -12.790   1.098  1.00  0.00     0.000 G0
ENDBRANCH   9  10
ENDBRANCH   8   9
ENDBRANCH   2   8
BRANCH   1  14
ATOM     14  C   UNL     1       7.586 -12.729   3.120  1.00  0.00     0.192 C 
ATOM     15  C   UNL     1       6.286 -12.012   2.973  1.00  0.00     0.096 C 
ATOM     16  O   UNL     1       7.488 -11.329   3.263  1.00  0.00    -0.362 OA
ATOM     17  C   UNL     1       5.283 -11.884   4.131  1.00  0.00     0.045 C 
BRANCH  15  18
ATOM     18  C   UNL     1       5.799 -11.757   1.540  1.00  0.00     0.042 C 
BRANCH  18  19
ATOM     19  C   UNL     1       4.741 -12.783   1.099  1.00  0.00     0.030 CG0
ATOM     20  G   UNL     1       5.348 -14.006   0.451  1.00  0.00     0.000 G0
ENDBRANCH  18  19
ENDBRANCH  15  18
ENDBRANCH   1  14
TORSDOF 0
ENDMDL
