MODEL 1
REMARK VINA RESULT:    -3.914      0.000      0.000
REMARK INTER + INTRA:          -8.679
REMARK INTER:                  -6.889
REMARK INTRA:                  -1.790
REMARK UNBOUND:                -1.790
REMARK SMILES CCCCCCCCCCCCCCC(=O)[O-]
REMARK SMILES IDX 9 1 10 2 11 3 12 4 13 5 14 6 15 7 16 8 17 9 8 10 7 11 6 12
REMARK SMILES IDX 5 13 4 14 3 15 2 16 1 17
REMARK H PARENT
REMARK Flexibility Score: inf
ROOT
ATOM      1  C   UNL     1     172.620 177.375 153.808  1.00  0.00     0.000 C 
ENDROOT
BRANCH   1   2
ATOM      2  C   UNL     1     173.693 177.394 154.910  1.00  0.00     0.000 C 
BRANCH   2   3
ATOM      3  C   UNL     1     175.113 177.587 154.336  1.00  0.00     0.000 C 
BRANCH   3   4
ATOM      4  C   UNL     1     176.077 176.440 154.686  1.00  0.00     0.000 C 
BRANCH   4   5
ATOM      5  C   UNL     1     175.410 175.057 154.614  1.00  0.00     0.006 C 
BRANCH   5   6
ATOM      6  C   UNL     1     176.226 173.982 155.345  1.00  0.00     0.053 C 
BRANCH   6   7
ATOM      7  C   UNL     1     176.595 172.849 154.436  1.00  0.00     0.041 C 
ATOM      8  O   UNL     1     175.757 171.944 154.181  1.00  0.00    -0.550 OA
ATOM      9  O   UNL     1     177.875 172.773 153.902  1.00  0.00    -0.550 OA
ENDBRANCH   6   7
ENDBRANCH   5   6
ENDBRANCH   4   5
ENDBRANCH   3   4
ENDBRANCH   2   3
ENDBRANCH   1   2
BRANCH   1  10
ATOM     10  C   UNL     1     173.079 178.073 152.515  1.00  0.00     0.000 C 
BRANCH  10  11
ATOM     11  C   UNL     1     173.060 177.186 151.254  1.00  0.00    -0.000 C 
BRANCH  11  12
ATOM     12  C   UNL     1     174.445 176.761 150.732  1.00  0.00    -0.000 C 
BRANCH  12  13
ATOM     13  C   UNL     1     174.734 175.269 150.952  1.00  0.00    -0.000 C 
BRANCH  13  14
ATOM     14  C   UNL     1     176.241 175.022 151.121  1.00  0.00    -0.000 C 
BRANCH  14  15
ATOM     15  C   UNL     1     176.666 173.619 150.659  1.00  0.00    -0.000 C 
BRANCH  15  16
ATOM     16  C   UNL     1     175.506 172.614 150.672  1.00  0.00    -0.003 C 
ATOM     17  C   UNL     1     175.669 171.571 149.570  1.00  0.00     0.004 C 
ENDBRANCH  15  16
ENDBRANCH  14  15
ENDBRANCH  13  14
ENDBRANCH  12  13
ENDBRANCH  11  12
ENDBRANCH  10  11
ENDBRANCH   1  10
TORSDOF 13
ENDMDL
MODEL 2
REMARK VINA RESULT:    -3.913      9.619     12.228
REMARK INTER + INTRA:          -8.678
REMARK INTER:                  -7.422
REMARK INTRA:                  -1.255
REMARK UNBOUND:                -1.790
REMARK SMILES CCCCCCCCCCCCCCC(=O)[O-]
REMARK SMILES IDX 9 1 10 2 11 3 12 4 13 5 14 6 15 7 16 8 17 9 8 10 7 11 6 12
REMARK SMILES IDX 5 13 4 14 3 15 2 16 1 17
REMARK H PARENT
REMARK Flexibility Score: inf
ROOT
ATOM      1  C   UNL     1     163.463 176.339 151.146  1.00  0.00     0.000 C 
ENDROOT
BRANCH   1   2
ATOM      2  C   UNL     1     163.901 177.810 151.253  1.00  0.00     0.000 C 
BRANCH   2   3
ATOM      3  C   UNL     1     165.333 178.030 150.718  1.00  0.00     0.000 C 
BRANCH   3   4
ATOM      4  C   UNL     1     166.114 176.723 150.502  1.00  0.00     0.000 C 
BRANCH   4   5
ATOM      5  C   UNL     1     167.580 176.962 150.104  1.00  0.00     0.006 C 
BRANCH   5   6
ATOM      6  C   UNL     1     168.559 176.253 151.049  1.00  0.00     0.053 C 
BRANCH   6   7
ATOM      7  C   UNL     1     169.051 177.168 152.129  1.00  0.00     0.041 C 
ATOM      8  O   UNL     1     170.225 177.623 152.086  1.00  0.00    -0.550 OA
ATOM      9  O   UNL     1     168.227 177.487 153.201  1.00  0.00    -0.550 OA
ENDBRANCH   6   7
ENDBRANCH   5   6
ENDBRANCH   4   5
ENDBRANCH   3   4
ENDBRANCH   2   3
ENDBRANCH   1   2
BRANCH   1  10
ATOM     10  C   UNL     1     161.954 176.184 150.883  1.00  0.00     0.000 C 
BRANCH  10  11
ATOM     11  C   UNL     1     161.232 177.476 150.448  1.00  0.00    -0.000 C 
BRANCH  11  12
ATOM     12  C   UNL     1     160.186 178.007 151.445  1.00  0.00    -0.000 C 
BRANCH  12  13
ATOM     13  C   UNL     1     160.193 177.249 152.780  1.00  0.00    -0.000 C 
BRANCH  13  14
ATOM     14  C   UNL     1     160.863 178.085 153.881  1.00  0.00    -0.000 C 
BRANCH  14  15
ATOM     15  C   UNL     1     160.768 177.425 155.266  1.00  0.00    -0.000 C 
BRANCH  15  16
ATOM     16  C   UNL     1     162.144 177.175 155.899  1.00  0.00    -0.003 C 
ATOM     17  C   UNL     1     163.267 177.630 154.971  1.00  0.00     0.004 C 
ENDBRANCH  15  16
ENDBRANCH  14  15
ENDBRANCH  13  14
ENDBRANCH  12  13
ENDBRANCH  11  12
ENDBRANCH  10  11
ENDBRANCH   1  10
TORSDOF 13
ENDMDL
MODEL 3
REMARK VINA RESULT:    -3.895      1.449      4.231
REMARK INTER + INTRA:          -8.645
REMARK INTER:                  -6.665
REMARK INTRA:                  -1.980
REMARK UNBOUND:                -1.790
REMARK SMILES CCCCCCCCCCCCCCC(=O)[O-]
REMARK SMILES IDX 9 1 10 2 11 3 12 4 13 5 14 6 15 7 16 8 17 9 8 10 7 11 6 12
REMARK SMILES IDX 5 13 4 14 3 15 2 16 1 17
REMARK H PARENT
REMARK Flexibility Score: inf
ROOT
ATOM      1  C   UNL     1     173.618 175.599 151.242  1.00  0.00     0.000 C 
ENDROOT
BRANCH   1   2
ATOM      2  C   UNL     1     174.435 174.297 151.167  1.00  0.00     0.000 C 
BRANCH   2   3
ATOM      3  C   UNL     1     175.955 174.565 151.155  1.00  0.00     0.000 C 
BRANCH   3   4
ATOM      4  C   UNL     1     176.785 173.367 150.662  1.00  0.00     0.000 C 
BRANCH   4   5
ATOM      5  C   UNL     1     175.921 172.140 150.327  1.00  0.00     0.006 C 
BRANCH   5   6
ATOM      6  C   UNL     1     176.626 170.822 150.676  1.00  0.00     0.053 C 
BRANCH   6   7
ATOM      7  C   UNL     1     176.443 170.459 152.118  1.00  0.00     0.041 C 
ATOM      8  O   UNL     1     177.374 169.897 152.752  1.00  0.00    -0.550 OA
ATOM      9  O   UNL     1     175.231 170.705 152.750  1.00  0.00    -0.550 OA
ENDBRANCH   6   7
ENDBRANCH   5   6
ENDBRANCH   4   5
ENDBRANCH   3   4
ENDBRANCH   2   3
ENDBRANCH   1   2
BRANCH   1  10
ATOM     10  C   UNL     1     174.240 176.742 150.419  1.00  0.00     0.000 C 
BRANCH  10  11
ATOM     11  C   UNL     1     174.213 178.125 151.102  1.00  0.00    -0.000 C 
BRANCH  11  12
ATOM     12  C   UNL     1     174.291 178.096 152.639  1.00  0.00    -0.000 C 
BRANCH  12  13
ATOM     13  C   UNL     1     175.734 178.044 153.163  1.00  0.00    -0.000 C 
BRANCH  13  14
ATOM     14  C   UNL     1     175.873 177.001 154.282  1.00  0.00    -0.000 C 
BRANCH  14  15
ATOM     15  C   UNL     1     174.514 176.478 154.775  1.00  0.00    -0.000 C 
BRANCH  15  16
ATOM     16  C   UNL     1     174.479 174.948 154.902  1.00  0.00    -0.003 C 
ATOM     17  C   UNL     1     175.877 174.353 154.758  1.00  0.00     0.004 C 
ENDBRANCH  15  16
ENDBRANCH  14  15
ENDBRANCH  13  14
ENDBRANCH  12  13
ENDBRANCH  11  12
ENDBRANCH  10  11
ENDBRANCH   1  10
TORSDOF 13
ENDMDL
MODEL 4
REMARK VINA RESULT:    -3.867      9.470     11.827
REMARK INTER + INTRA:          -8.596
REMARK INTER:                  -6.616
REMARK INTRA:                  -1.980
REMARK UNBOUND:                -1.790
REMARK SMILES CCCCCCCCCCCCCCC(=O)[O-]
REMARK SMILES IDX 9 1 10 2 11 3 12 4 13 5 14 6 15 7 16 8 17 9 8 10 7 11 6 12
REMARK SMILES IDX 5 13 4 14 3 15 2 16 1 17
REMARK H PARENT
REMARK Flexibility Score: inf
ROOT
ATOM      1  C   UNL     1     164.620 175.202 151.857  1.00  0.00     0.000 C 
ENDROOT
BRANCH   1   2
ATOM      2  C   UNL     1     164.836 175.021 150.344  1.00  0.00     0.000 C 
BRANCH   2   3
ATOM      3  C   UNL     1     166.285 174.603 150.010  1.00  0.00     0.000 C 
BRANCH   3   4
ATOM      4  C   UNL     1     167.079 175.687 149.262  1.00  0.00     0.000 C 
BRANCH   4   5
ATOM      5  C   UNL     1     167.247 176.977 150.082  1.00  0.00     0.006 C 
BRANCH   5   6
ATOM      6  C   UNL     1     168.457 176.912 151.023  1.00  0.00     0.053 C 
BRANCH   6   7
ATOM      7  C   UNL     1     168.043 176.701 152.447  1.00  0.00     0.041 C 
ATOM      8  O   UNL     1     167.793 177.689 153.187  1.00  0.00    -0.550 OA
ATOM      9  O   UNL     1     167.971 175.415 152.968  1.00  0.00    -0.550 OA
ENDBRANCH   6   7
ENDBRANCH   5   6
ENDBRANCH   4   5
ENDBRANCH   3   4
ENDBRANCH   2   3
ENDBRANCH   1   2
BRANCH   1  10
ATOM     10  C   UNL     1     164.231 176.642 152.236  1.00  0.00     0.000 C 
BRANCH  10  11
ATOM     11  C   UNL     1     163.511 177.436 151.126  1.00  0.00    -0.000 C 
BRANCH  11  12
ATOM     12  C   UNL     1     162.030 177.750 151.402  1.00  0.00    -0.000 C 
BRANCH  12  13
ATOM     13  C   UNL     1     161.073 176.959 150.500  1.00  0.00    -0.000 C 
BRANCH  13  14
ATOM     14  C   UNL     1     160.220 175.985 151.326  1.00  0.00    -0.000 C 
BRANCH  14  15
ATOM     15  C   UNL     1     160.970 174.689 151.675  1.00  0.00    -0.000 C 
BRANCH  15  16
ATOM     16  C   UNL     1     160.896 174.345 153.169  1.00  0.00    -0.003 C 
ATOM     17  C   UNL     1     160.546 175.576 154.000  1.00  0.00     0.004 C 
ENDBRANCH  15  16
ENDBRANCH  14  15
ENDBRANCH  13  14
ENDBRANCH  12  13
ENDBRANCH  11  12
ENDBRANCH  10  11
ENDBRANCH   1  10
TORSDOF 13
ENDMDL
MODEL 5
REMARK VINA RESULT:    -3.866      1.210      3.987
REMARK INTER + INTRA:          -8.595
REMARK INTER:                  -6.713
REMARK INTRA:                  -1.882
REMARK UNBOUND:                -1.790
REMARK SMILES CCCCCCCCCCCCCCC(=O)[O-]
REMARK SMILES IDX 9 1 10 2 11 3 12 4 13 5 14 6 15 7 16 8 17 9 8 10 7 11 6 12
REMARK SMILES IDX 5 13 4 14 3 15 2 16 1 17
REMARK H PARENT
REMARK Flexibility Score: inf
ROOT
ATOM      1  C   UNL     1     173.811 176.547 150.773  1.00  0.00     0.000 C 
ENDROOT
BRANCH   1   2
ATOM      2  C   UNL     1     175.329 176.309 150.854  1.00  0.00     0.000 C 
BRANCH   2   3
ATOM      3  C   UNL     1     175.675 174.811 150.995  1.00  0.00     0.000 C 
BRANCH   3   4
ATOM      4  C   UNL     1     174.465 173.933 151.358  1.00  0.00     0.000 C 
BRANCH   4   5
ATOM      5  C   UNL     1     174.860 172.493 151.723  1.00  0.00     0.006 C 
BRANCH   5   6
ATOM      6  C   UNL     1     175.346 172.375 153.173  1.00  0.00     0.053 C 
BRANCH   6   7
ATOM      7  C   UNL     1     176.791 171.985 153.245  1.00  0.00     0.041 C 
ATOM      8  O   UNL     1     177.126 170.775 153.152  1.00  0.00    -0.550 OA
ATOM      9  O   UNL     1     177.764 172.955 153.453  1.00  0.00    -0.550 OA
ENDBRANCH   6   7
ENDBRANCH   5   6
ENDBRANCH   4   5
ENDBRANCH   3   4
ENDBRANCH   2   3
ENDBRANCH   1   2
BRANCH   1  10
ATOM     10  C   UNL     1     173.400 177.952 151.250  1.00  0.00     0.000 C 
BRANCH  10  11
ATOM     11  C   UNL     1     172.708 177.996 152.628  1.00  0.00    -0.000 C 
BRANCH  11  12
ATOM     12  C   UNL     1     173.512 177.371 153.782  1.00  0.00    -0.000 C 
BRANCH  12  13
ATOM     13  C   UNL     1     174.818 178.122 154.077  1.00  0.00    -0.000 C 
BRANCH  13  14
ATOM     14  C   UNL     1     175.971 177.139 154.329  1.00  0.00    -0.000 C 
BRANCH  14  15
ATOM     15  C   UNL     1     175.478 175.722 154.663  1.00  0.00    -0.000 C 
BRANCH  15  16
ATOM     16  C   UNL     1     176.206 175.110 155.868  1.00  0.00    -0.003 C 
ATOM     17  C   UNL     1     175.234 174.822 157.009  1.00  0.00     0.004 C 
ENDBRANCH  15  16
ENDBRANCH  14  15
ENDBRANCH  13  14
ENDBRANCH  12  13
ENDBRANCH  11  12
ENDBRANCH  10  11
ENDBRANCH   1  10
TORSDOF 13
ENDMDL
MODEL 6
REMARK VINA RESULT:    -3.844      1.883      4.130
REMARK INTER + INTRA:          -8.556
REMARK INTER:                  -6.849
REMARK INTRA:                  -1.707
REMARK UNBOUND:                -1.790
REMARK SMILES CCCCCCCCCCCCCCC(=O)[O-]
REMARK SMILES IDX 9 1 10 2 11 3 12 4 13 5 14 6 15 7 16 8 17 9 8 10 7 11 6 12
REMARK SMILES IDX 5 13 4 14 3 15 2 16 1 17
REMARK H PARENT
REMARK Flexibility Score: inf
ROOT
ATOM      1  C   UNL     1     174.633 174.740 151.471  1.00  0.00     0.000 C 
ENDROOT
BRANCH   1   2
ATOM      2  C   UNL     1     173.695 175.761 150.804  1.00  0.00     0.000 C 
BRANCH   2   3
ATOM      3  C   UNL     1     174.351 177.152 150.672  1.00  0.00     0.000 C 
BRANCH   3   4
ATOM      4  C   UNL     1     173.961 178.124 151.799  1.00  0.00     0.000 C 
BRANCH   4   5
ATOM      5  C   UNL     1     174.959 178.113 152.969  1.00  0.00     0.006 C 
BRANCH   5   6
ATOM      6  C   UNL     1     174.375 177.447 154.222  1.00  0.00     0.053 C 
BRANCH   6   7
ATOM      7  C   UNL     1     175.330 176.462 154.824  1.00  0.00     0.041 C 
ATOM      8  O   UNL     1     176.515 176.392 154.405  1.00  0.00    -0.550 OA
ATOM      9  O   UNL     1     174.900 175.595 155.821  1.00  0.00    -0.550 OA
ENDBRANCH   6   7
ENDBRANCH   5   6
ENDBRANCH   4   5
ENDBRANCH   3   4
ENDBRANCH   2   3
ENDBRANCH   1   2
BRANCH   1  10
ATOM     10  C   UNL     1     176.116 174.984 151.138  1.00  0.00     0.000 C 
BRANCH  10  11
ATOM     11  C   UNL     1     177.013 173.731 151.207  1.00  0.00    -0.000 C 
BRANCH  11  12
ATOM     12  C   UNL     1     177.244 173.018 149.863  1.00  0.00    -0.000 C 
BRANCH  12  13
ATOM     13  C   UNL     1     176.251 171.874 149.614  1.00  0.00    -0.000 C 
BRANCH  13  14
ATOM     14  C   UNL     1     176.539 170.687 150.545  1.00  0.00    -0.000 C 
BRANCH  14  15
ATOM     15  C   UNL     1     175.256 170.022 151.071  1.00  0.00    -0.000 C 
BRANCH  15  16
ATOM     16  C   UNL     1     174.333 171.010 151.798  1.00  0.00    -0.003 C 
ATOM     17  C   UNL     1     174.907 171.400 153.157  1.00  0.00     0.004 C 
ENDBRANCH  15  16
ENDBRANCH  14  15
ENDBRANCH  13  14
ENDBRANCH  12  13
ENDBRANCH  11  12
ENDBRANCH  10  11
ENDBRANCH   1  10
TORSDOF 13
ENDMDL
MODEL 7
REMARK VINA RESULT:    -3.799      1.298      2.267
REMARK INTER + INTRA:          -8.477
REMARK INTER:                  -6.763
REMARK INTRA:                  -1.714
REMARK UNBOUND:                -1.790
REMARK SMILES CCCCCCCCCCCCCCC(=O)[O-]
REMARK SMILES IDX 9 1 10 2 11 3 12 4 13 5 14 6 15 7 16 8 17 9 8 10 7 11 6 12
REMARK SMILES IDX 5 13 4 14 3 15 2 16 1 17
REMARK H PARENT
REMARK Flexibility Score: inf
ROOT
ATOM      1  C   UNL     1     172.926 176.706 151.952  1.00  0.00     0.000 C 
ENDROOT
BRANCH   1   2
ATOM      2  C   UNL     1     173.474 178.125 152.187  1.00  0.00     0.000 C 
BRANCH   2   3
ATOM      3  C   UNL     1     174.749 178.119 153.057  1.00  0.00     0.000 C 
BRANCH   3   4
ATOM      4  C   UNL     1     174.640 177.218 154.299  1.00  0.00     0.000 C 
BRANCH   4   5
ATOM      5  C   UNL     1     175.862 176.305 154.483  1.00  0.00     0.006 C 
BRANCH   5   6
ATOM      6  C   UNL     1     175.464 174.839 154.698  1.00  0.00     0.053 C 
BRANCH   6   7
ATOM      7  C   UNL     1     176.365 174.155 155.680  1.00  0.00     0.041 C 
ATOM      8  O   UNL     1     176.782 172.990 155.452  1.00  0.00    -0.550 OA
ATOM      9  O   UNL     1     176.713 174.791 156.866  1.00  0.00    -0.550 OA
ENDBRANCH   6   7
ENDBRANCH   5   6
ENDBRANCH   4   5
ENDBRANCH   3   4
ENDBRANCH   2   3
ENDBRANCH   1   2
BRANCH   1  10
ATOM     10  C   UNL     1     173.646 175.971 150.807  1.00  0.00     0.000 C 
BRANCH  10  11
ATOM     11  C   UNL     1     174.599 174.843 151.254  1.00  0.00    -0.000 C 
BRANCH  11  12
ATOM     12  C   UNL     1     176.089 175.091 150.958  1.00  0.00    -0.000 C 
BRANCH  12  13
ATOM     13  C   UNL     1     176.968 173.867 151.250  1.00  0.00    -0.000 C 
BRANCH  13  14
ATOM     14  C   UNL     1     176.176 172.565 151.059  1.00  0.00    -0.000 C 
BRANCH  14  15
ATOM     15  C   UNL     1     176.464 171.891 149.707  1.00  0.00    -0.000 C 
BRANCH  15  16
ATOM     16  C   UNL     1     175.263 171.096 149.175  1.00  0.00    -0.003 C 
ATOM     17  C   UNL     1     173.953 171.827 149.455  1.00  0.00     0.004 C 
ENDBRANCH  15  16
ENDBRANCH  14  15
ENDBRANCH  13  14
ENDBRANCH  12  13
ENDBRANCH  11  12
ENDBRANCH  10  11
ENDBRANCH   1  10
TORSDOF 13
ENDMDL
MODEL 8
REMARK VINA RESULT:    -3.785     10.557     13.023
REMARK INTER + INTRA:          -8.451
REMARK INTER:                  -6.147
REMARK INTRA:                  -2.305
REMARK UNBOUND:                -1.790
REMARK SMILES CCCCCCCCCCCCCCC(=O)[O-]
REMARK SMILES IDX 9 1 10 2 11 3 12 4 13 5 14 6 15 7 16 8 17 9 8 10 7 11 6 12
REMARK SMILES IDX 5 13 4 14 3 15 2 16 1 17
REMARK H PARENT
REMARK Flexibility Score: inf
ROOT
ATOM      1  C   UNL     1     161.195 176.319 150.737  1.00  0.00     0.000 C 
ENDROOT
BRANCH   1   2
ATOM      2  C   UNL     1     161.797 177.731 150.832  1.00  0.00     0.000 C 
BRANCH   2   3
ATOM      3  C   UNL     1     163.271 177.705 151.290  1.00  0.00     0.000 C 
BRANCH   3   4
ATOM      4  C   UNL     1     163.909 176.307 151.224  1.00  0.00     0.000 C 
BRANCH   4   5
ATOM      5  C   UNL     1     165.442 176.355 151.128  1.00  0.00     0.006 C 
BRANCH   5   6
ATOM      6  C   UNL     1     166.117 176.054 152.473  1.00  0.00     0.053 C 
BRANCH   6   7
ATOM      7  C   UNL     1     166.642 177.298 153.122  1.00  0.00     0.041 C 
ATOM      8  O   UNL     1     165.846 178.125 153.641  1.00  0.00    -0.550 OA
ATOM      9  O   UNL     1     168.006 177.564 153.119  1.00  0.00    -0.550 OA
ENDBRANCH   6   7
ENDBRANCH   5   6
ENDBRANCH   4   5
ENDBRANCH   3   4
ENDBRANCH   2   3
ENDBRANCH   1   2
BRANCH   1  10
ATOM     10  C   UNL     1     159.873 176.178 151.515  1.00  0.00     0.000 C 
BRANCH  10  11
ATOM     11  C   UNL     1     159.852 175.048 152.564  1.00  0.00    -0.000 C 
BRANCH  11  12
ATOM     12  C   UNL     1     161.043 174.075 152.500  1.00  0.00    -0.000 C 
BRANCH  12  13
ATOM     13  C   UNL     1     161.965 174.177 153.724  1.00  0.00    -0.000 C 
BRANCH  13  14
ATOM     14  C   UNL     1     161.639 175.429 154.553  1.00  0.00    -0.000 C 
BRANCH  14  15
ATOM     15  C   UNL     1     162.771 176.467 154.527  1.00  0.00    -0.000 C 
BRANCH  15  16
ATOM     16  C   UNL     1     162.289 177.879 154.889  1.00  0.00    -0.003 C 
ATOM     17  C   UNL     1     160.874 178.125 154.374  1.00  0.00     0.004 C 
ENDBRANCH  15  16
ENDBRANCH  14  15
ENDBRANCH  13  14
ENDBRANCH  12  13
ENDBRANCH  11  12
ENDBRANCH  10  11
ENDBRANCH   1  10
TORSDOF 13
ENDMDL
MODEL 9
REMARK VINA RESULT:    -3.756     10.092     12.557
REMARK INTER + INTRA:          -8.401
REMARK INTER:                  -6.745
REMARK INTRA:                  -1.656
REMARK UNBOUND:                -1.790
REMARK SMILES CCCCCCCCCCCCCCC(=O)[O-]
REMARK SMILES IDX 9 1 10 2 11 3 12 4 13 5 14 6 15 7 16 8 17 9 8 10 7 11 6 12
REMARK SMILES IDX 5 13 4 14 3 15 2 16 1 17
REMARK H PARENT
REMARK Flexibility Score: inf
ROOT
ATOM      1  C   UNL     1     163.194 176.009 151.461  1.00  0.00     0.000 C 
ENDROOT
BRANCH   1   2
ATOM      2  C   UNL     1     163.989 177.292 151.163  1.00  0.00     0.000 C 
BRANCH   2   3
ATOM      3  C   UNL     1     165.181 177.473 152.127  1.00  0.00     0.000 C 
BRANCH   3   4
ATOM      4  C   UNL     1     166.550 177.389 151.431  1.00  0.00     0.000 C 
BRANCH   4   5
ATOM      5  C   UNL     1     166.446 176.968 149.956  1.00  0.00     0.006 C 
BRANCH   5   6
ATOM      6  C   UNL     1     167.470 175.885 149.589  1.00  0.00     0.053 C 
BRANCH   6   7
ATOM      7  C   UNL     1     166.817 174.556 149.363  1.00  0.00     0.041 C 
ATOM      8  O   UNL     1     167.520 173.536 149.135  1.00  0.00    -0.550 OA
ATOM      9  O   UNL     1     165.432 174.451 149.366  1.00  0.00    -0.550 OA
ENDBRANCH   6   7
ENDBRANCH   5   6
ENDBRANCH   4   5
ENDBRANCH   3   4
ENDBRANCH   2   3
ENDBRANCH   1   2
BRANCH   1  10
ATOM     10  C   UNL     1     161.799 176.006 150.809  1.00  0.00     0.000 C 
BRANCH  10  11
ATOM     11  C   UNL     1     161.301 177.385 150.330  1.00  0.00    -0.000 C 
BRANCH  11  12
ATOM     12  C   UNL     1     160.358 178.114 151.303  1.00  0.00    -0.000 C 
BRANCH  12  13
ATOM     13  C   UNL     1     160.150 177.351 152.619  1.00  0.00    -0.000 C 
BRANCH  13  14
ATOM     14  C   UNL     1     160.750 178.125 153.803  1.00  0.00    -0.000 C 
BRANCH  14  15
ATOM     15  C   UNL     1     161.608 177.236 154.718  1.00  0.00    -0.000 C 
BRANCH  15  16
ATOM     16  C   UNL     1     161.211 175.755 154.646  1.00  0.00    -0.003 C 
ATOM     17  C   UNL     1     162.401 174.851 154.954  1.00  0.00     0.004 C 
ENDBRANCH  15  16
ENDBRANCH  14  15
ENDBRANCH  13  14
ENDBRANCH  12  13
ENDBRANCH  11  12
ENDBRANCH  10  11
ENDBRANCH   1  10
TORSDOF 13
ENDMDL
