MODEL 1
REMARK VINA RESULT:    -3.656      0.000      0.000
REMARK INTER + INTRA:          -4.905
REMARK INTER:                  -4.725
REMARK INTRA:                  -0.180
REMARK UNBOUND:                -0.180
REMARK SMILES CCCCCCC(=O)[O-]
REMARK SMILES IDX 5 1 6 2 7 3 8 4 9 5 4 6 3 7 2 8 1 9
REMARK H PARENT
REMARK Flexibility Score: inf
ROOT
ATOM      1  C   UNL     1      15.917  -9.781  12.487  1.00  0.00     0.006 C 
ENDROOT
BRANCH   1   2
ATOM      2  C   UNL     1      17.370 -10.241  12.669  1.00  0.00     0.053 C 
BRANCH   2   3
ATOM      3  C   UNL     1      18.148  -9.225  13.445  1.00  0.00     0.041 C 
ATOM      4  O   UNL     1      18.335  -8.074  12.971  1.00  0.00    -0.550 OA
ATOM      5  O   UNL     1      18.622  -9.533  14.713  1.00  0.00    -0.550 OA
ENDBRANCH   2   3
ENDBRANCH   1   2
BRANCH   1   6
ATOM      6  C   UNL     1      14.949 -10.967  12.285  1.00  0.00     0.000 C 
BRANCH   6   7
ATOM      7  C   UNL     1      15.647 -12.341  12.275  1.00  0.00    -0.000 C 
BRANCH   7   8
ATOM      8  C   UNL     1      14.725 -13.532  12.583  1.00  0.00    -0.003 C 
ATOM      9  C   UNL     1      13.305 -13.104  12.954  1.00  0.00     0.004 C 
ENDBRANCH   7   8
ENDBRANCH   6   7
ENDBRANCH   1   6
TORSDOF 5
ENDMDL
MODEL 2
REMARK VINA RESULT:    -3.634      4.235      6.323
REMARK INTER + INTRA:          -4.876
REMARK INTER:                  -4.768
REMARK INTRA:                  -0.108
REMARK UNBOUND:                -0.180
REMARK SMILES CCCCCCC(=O)[O-]
REMARK SMILES IDX 5 1 6 2 7 3 8 4 9 5 4 6 3 7 2 8 1 9
REMARK H PARENT
REMARK Flexibility Score: inf
ROOT
ATOM      1  C   UNL     1      16.827  -6.444  14.595  1.00  0.00     0.006 C 
ENDROOT
BRANCH   1   2
ATOM      2  C   UNL     1      17.841  -7.087  13.639  1.00  0.00     0.053 C 
BRANCH   2   3
ATOM      3  C   UNL     1      17.666  -8.572  13.610  1.00  0.00     0.041 C 
ATOM      4  O   UNL     1      16.806  -9.094  12.853  1.00  0.00    -0.550 OA
ATOM      5  O   UNL     1      18.486  -9.384  14.382  1.00  0.00    -0.550 OA
ENDBRANCH   2   3
ENDBRANCH   1   2
BRANCH   1   6
ATOM      6  C   UNL     1      17.307  -6.473  16.063  1.00  0.00     0.000 C 
BRANCH   6   7
ATOM      7  C   UNL     1      16.287  -5.889  17.059  1.00  0.00    -0.000 C 
BRANCH   7   8
ATOM      8  C   UNL     1      16.827  -5.682  18.484  1.00  0.00    -0.003 C 
ATOM      9  C   UNL     1      16.245  -4.443  19.164  1.00  0.00     0.004 C 
ENDBRANCH   7   8
ENDBRANCH   6   7
ENDBRANCH   1   6
TORSDOF 5
ENDMDL
MODEL 3
REMARK VINA RESULT:    -3.578      3.195      4.981
REMARK INTER + INTRA:          -4.804
REMARK INTER:                  -4.658
REMARK INTRA:                  -0.147
REMARK UNBOUND:                -0.180
REMARK SMILES CCCCCCC(=O)[O-]
REMARK SMILES IDX 5 1 6 2 7 3 8 4 9 5 4 6 3 7 2 8 1 9
REMARK H PARENT
REMARK Flexibility Score: inf
ROOT
ATOM      1  C   UNL     1      14.873 -10.425  12.393  1.00  0.00     0.006 C 
ENDROOT
BRANCH   1   2
ATOM      2  C   UNL     1      15.156 -11.930  12.302  1.00  0.00     0.053 C 
BRANCH   2   3
ATOM      3  C   UNL     1      13.964 -12.716  12.749  1.00  0.00     0.041 C 
ATOM      4  O   UNL     1      14.010 -13.973  12.783  1.00  0.00    -0.550 OA
ATOM      5  O   UNL     1      12.818 -12.057  13.176  1.00  0.00    -0.550 OA
ENDBRANCH   2   3
ENDBRANCH   1   2
BRANCH   1   6
ATOM      6  C   UNL     1      16.148  -9.576  12.197  1.00  0.00     0.000 C 
BRANCH   6   7
ATOM      7  C   UNL     1      17.402 -10.183  12.856  1.00  0.00    -0.000 C 
BRANCH   7   8
ATOM      8  C   UNL     1      18.234  -9.193  13.688  1.00  0.00    -0.003 C 
ATOM      9  C   UNL     1      18.614  -9.745  15.061  1.00  0.00     0.004 C 
ENDBRANCH   7   8
ENDBRANCH   6   7
ENDBRANCH   1   6
TORSDOF 5
ENDMDL
MODEL 4
REMARK VINA RESULT:    -3.451      2.803      5.084
REMARK INTER + INTRA:          -4.640
REMARK INTER:                  -4.402
REMARK INTRA:                  -0.238
REMARK UNBOUND:                -0.180
REMARK SMILES CCCCCCC(=O)[O-]
REMARK SMILES IDX 5 1 6 2 7 3 8 4 9 5 4 6 3 7 2 8 1 9
REMARK H PARENT
REMARK Flexibility Score: inf
ROOT
ATOM      1  C   UNL     1      17.475 -10.300  12.977  1.00  0.00     0.006 C 
ENDROOT
BRANCH   1   2
ATOM      2  C   UNL     1      16.079  -9.924  12.461  1.00  0.00     0.053 C 
BRANCH   2   3
ATOM      3  C   UNL     1      15.200 -11.133  12.399  1.00  0.00     0.041 C 
ATOM      4  O   UNL     1      13.991 -11.055  12.740  1.00  0.00    -0.550 OA
ATOM      5  O   UNL     1      15.703 -12.334  11.917  1.00  0.00    -0.550 OA
ENDBRANCH   2   3
ENDBRANCH   1   2
BRANCH   1   6
ATOM      6  C   UNL     1      18.229  -9.087  13.564  1.00  0.00     0.000 C 
BRANCH   6   7
ATOM      7  C   UNL     1      18.167  -7.830  12.674  1.00  0.00    -0.000 C 
BRANCH   7   8
ATOM      8  C   UNL     1      17.849  -6.527  13.424  1.00  0.00    -0.003 C 
ATOM      9  C   UNL     1      17.353  -6.768  14.849  1.00  0.00     0.004 C 
ENDBRANCH   7   8
ENDBRANCH   6   7
ENDBRANCH   1   6
TORSDOF 5
ENDMDL
MODEL 5
REMARK VINA RESULT:    -3.444      3.028      5.087
REMARK INTER + INTRA:          -4.630
REMARK INTER:                  -4.498
REMARK INTRA:                  -0.132
REMARK UNBOUND:                -0.180
REMARK SMILES CCCCCCC(=O)[O-]
REMARK SMILES IDX 5 1 6 2 7 3 8 4 9 5 4 6 3 7 2 8 1 9
REMARK H PARENT
REMARK Flexibility Score: inf
ROOT
ATOM      1  C   UNL     1      16.300 -10.256  12.590  1.00  0.00     0.006 C 
ENDROOT
BRANCH   1   2
ATOM      2  C   UNL     1      16.234 -11.690  12.046  1.00  0.00     0.053 C 
BRANCH   2   3
ATOM      3  C   UNL     1      14.937 -12.333  12.421  1.00  0.00     0.041 C 
ATOM      4  O   UNL     1      14.858 -13.585  12.527  1.00  0.00    -0.550 OA
ATOM      5  O   UNL     1      13.827 -11.547  12.702  1.00  0.00    -0.550 OA
ENDBRANCH   2   3
ENDBRANCH   1   2
BRANCH   1   6
ATOM      6  C   UNL     1      17.708  -9.891  13.109  1.00  0.00     0.000 C 
BRANCH   6   7
ATOM      7  C   UNL     1      18.039  -8.390  12.998  1.00  0.00    -0.000 C 
BRANCH   7   8
ATOM      8  C   UNL     1      16.970  -7.452  13.580  1.00  0.00    -0.003 C 
ATOM      9  C   UNL     1      17.378  -6.847  14.923  1.00  0.00     0.004 C 
ENDBRANCH   7   8
ENDBRANCH   6   7
ENDBRANCH   1   6
TORSDOF 5
ENDMDL
MODEL 6
REMARK VINA RESULT:    -3.433      3.236      5.382
REMARK INTER + INTRA:          -4.616
REMARK INTER:                  -4.370
REMARK INTRA:                  -0.246
REMARK UNBOUND:                -0.180
REMARK SMILES CCCCCCC(=O)[O-]
REMARK SMILES IDX 5 1 6 2 7 3 8 4 9 5 4 6 3 7 2 8 1 9
REMARK H PARENT
REMARK Flexibility Score: inf
ROOT
ATOM      1  C   UNL     1      17.993  -6.913  12.796  1.00  0.00     0.006 C 
ENDROOT
BRANCH   1   2
ATOM      2  C   UNL     1      17.006  -8.087  12.840  1.00  0.00     0.053 C 
BRANCH   2   3
ATOM      3  C   UNL     1      17.719  -9.359  13.176  1.00  0.00     0.041 C 
ATOM      4  O   UNL     1      18.511  -9.401  14.154  1.00  0.00    -0.550 OA
ATOM      5  O   UNL     1      17.472 -10.510  12.440  1.00  0.00    -0.550 OA
ENDBRANCH   2   3
ENDBRANCH   1   2
BRANCH   1   6
ATOM      6  C   UNL     1      17.546  -5.738  13.692  1.00  0.00     0.000 C 
BRANCH   6   7
ATOM      7  C   UNL     1      16.582  -6.152  14.821  1.00  0.00    -0.000 C 
BRANCH   7   8
ATOM      8  C   UNL     1      17.270  -6.599  16.121  1.00  0.00    -0.003 C 
ATOM      9  C   UNL     1      16.741  -5.867  17.354  1.00  0.00     0.004 C 
ENDBRANCH   7   8
ENDBRANCH   6   7
ENDBRANCH   1   6
TORSDOF 5
ENDMDL
MODEL 7
REMARK VINA RESULT:    -3.403      2.019      3.059
REMARK INTER + INTRA:          -4.577
REMARK INTER:                  -4.390
REMARK INTRA:                  -0.187
REMARK UNBOUND:                -0.180
REMARK SMILES CCCCCCC(=O)[O-]
REMARK SMILES IDX 5 1 6 2 7 3 8 4 9 5 4 6 3 7 2 8 1 9
REMARK H PARENT
REMARK Flexibility Score: inf
ROOT
ATOM      1  C   UNL     1      18.199  -8.780  14.016  1.00  0.00     0.006 C 
ENDROOT
BRANCH   1   2
ATOM      2  C   UNL     1      17.749  -7.377  13.589  1.00  0.00     0.053 C 
BRANCH   2   3
ATOM      3  C   UNL     1      17.058  -6.681  14.719  1.00  0.00     0.041 C 
ATOM      4  O   UNL     1      16.068  -5.937  14.493  1.00  0.00    -0.550 OA
ATOM      5  O   UNL     1      17.475  -6.894  16.025  1.00  0.00    -0.550 OA
ENDBRANCH   2   3
ENDBRANCH   1   2
BRANCH   1   6
ATOM      6  C   UNL     1      17.651  -9.881  13.081  1.00  0.00     0.000 C 
BRANCH   6   7
ATOM      7  C   UNL     1      16.285  -9.539  12.456  1.00  0.00    -0.000 C 
BRANCH   7   8
ATOM      8  C   UNL     1      15.378 -10.752  12.193  1.00  0.00    -0.003 C 
ATOM      9  C   UNL     1      16.125 -12.082  12.277  1.00  0.00     0.004 C 
ENDBRANCH   7   8
ENDBRANCH   6   7
ENDBRANCH   1   6
TORSDOF 5
ENDMDL
MODEL 8
REMARK VINA RESULT:    -3.294      4.261      5.574
REMARK INTER + INTRA:          -4.437
REMARK INTER:                  -4.201
REMARK INTRA:                  -0.236
REMARK UNBOUND:                -0.180
REMARK SMILES CCCCCCC(=O)[O-]
REMARK SMILES IDX 5 1 6 2 7 3 8 4 9 5 4 6 3 7 2 8 1 9
REMARK H PARENT
REMARK Flexibility Score: inf
ROOT
ATOM      1  C   UNL     1      16.670  -6.231  14.796  1.00  0.00     0.006 C 
ENDROOT
BRANCH   1   2
ATOM      2  C   UNL     1      17.309  -6.574  16.149  1.00  0.00     0.053 C 
BRANCH   2   3
ATOM      3  C   UNL     1      16.618  -5.840  17.255  1.00  0.00     0.041 C 
ATOM      4  O   UNL     1      15.419  -5.480  17.124  1.00  0.00    -0.550 OA
ATOM      5  O   UNL     1      17.284  -5.598  18.450  1.00  0.00    -0.550 OA
ENDBRANCH   2   3
ENDBRANCH   1   2
BRANCH   1   6
ATOM      6  C   UNL     1      17.719  -5.807  13.745  1.00  0.00     0.000 C 
BRANCH   6   7
ATOM      7  C   UNL     1      18.248  -6.975  12.892  1.00  0.00    -0.000 C 
BRANCH   7   8
ATOM      8  C   UNL     1      17.352  -8.224  12.887  1.00  0.00    -0.003 C 
ATOM      9  C   UNL     1      18.047  -9.456  13.466  1.00  0.00     0.004 C 
ENDBRANCH   7   8
ENDBRANCH   6   7
ENDBRANCH   1   6
TORSDOF 5
ENDMDL
MODEL 9
REMARK VINA RESULT:    -3.211      4.731      6.725
REMARK INTER + INTRA:          -4.329
REMARK INTER:                  -4.154
REMARK INTRA:                  -0.175
REMARK UNBOUND:                -0.180
REMARK SMILES CCCCCCC(=O)[O-]
REMARK SMILES IDX 5 1 6 2 7 3 8 4 9 5 4 6 3 7 2 8 1 9
REMARK H PARENT
REMARK Flexibility Score: inf
ROOT
ATOM      1  C   UNL     1      17.548  -6.391  14.436  1.00  0.00     0.006 C 
ENDROOT
BRANCH   1   2
ATOM      2  C   UNL     1      16.711  -7.248  13.476  1.00  0.00     0.053 C 
BRANCH   2   3
ATOM      3  C   UNL     1      15.323  -6.701  13.361  1.00  0.00     0.041 C 
ATOM      4  O   UNL     1      14.344  -7.482  13.238  1.00  0.00    -0.550 OA
ATOM      5  O   UNL     1      15.106  -5.332  13.441  1.00  0.00    -0.550 OA
ENDBRANCH   2   3
ENDBRANCH   1   2
BRANCH   1   6
ATOM      6  C   UNL     1      17.359  -6.808  15.910  1.00  0.00     0.000 C 
BRANCH   6   7
ATOM      7  C   UNL     1      16.594  -5.771  16.754  1.00  0.00    -0.000 C 
BRANCH   7   8
ATOM      8  C   UNL     1      17.021  -5.701  18.229  1.00  0.00    -0.003 C 
ATOM      9  C   UNL     1      16.297  -4.602  19.006  1.00  0.00     0.004 C 
ENDBRANCH   7   8
ENDBRANCH   6   7
ENDBRANCH   1   6
TORSDOF 5
ENDMDL
