MODEL 1
REMARK VINA RESULT:    -1.820      0.000      0.000
REMARK INTER + INTRA:          -4.665
REMARK INTER:                  -4.160
REMARK INTRA:                  -0.505
REMARK UNBOUND:                -0.505
REMARK SMILES CCCCCCCCCCCCCCCCCCCCCCCC(=O)[O-]
REMARK SMILES IDX 13 1 14 2 15 3 16 4 17 5 18 6 19 7 20 8 21 9 22 10 23 11
REMARK SMILES IDX 24 12 25 13 26 14 12 15 11 16 10 17 9 18 8 19 7 20 6 21 5 22
REMARK SMILES IDX 4 23 3 24 2 25 1 26
REMARK H PARENT
REMARK Flexibility Score: inf
ROOT
ATOM      1  C   UNL     1       5.052 -36.383  19.454  1.00  0.00     0.000 C 
ENDROOT
BRANCH   1   2
ATOM      2  C   UNL     1       4.828 -35.586  20.753  1.00  0.00     0.000 C 
BRANCH   2   3
ATOM      3  C   UNL     1       6.076 -35.538  21.652  1.00  0.00     0.000 C 
BRANCH   3   4
ATOM      4  C   UNL     1       6.078 -36.633  22.735  1.00  0.00     0.000 C 
BRANCH   4   5
ATOM      5  C   UNL     1       5.898 -36.132  24.179  1.00  0.00     0.000 C 
BRANCH   5   6
ATOM      6  C   UNL     1       5.914 -37.270  25.214  1.00  0.00     0.000 C 
BRANCH   6   7
ATOM      7  C   UNL     1       4.515 -37.850  25.494  1.00  0.00     0.000 C 
BRANCH   7   8
ATOM      8  C   UNL     1       4.313 -39.310  25.046  1.00  0.00     0.000 C 
BRANCH   8   9
ATOM      9  C   UNL     1       5.627 -40.005  24.649  1.00  0.00     0.000 C 
BRANCH   9  10
ATOM     10  C   UNL     1       5.464 -41.516  24.414  1.00  0.00     0.006 C 
BRANCH  10  11
ATOM     11  C   UNL     1       5.856 -41.972  22.996  1.00  0.00     0.053 C 
BRANCH  11  12
ATOM     12  C   UNL     1       5.611 -40.913  21.963  1.00  0.00     0.041 C 
ATOM     13  O   UNL     1       4.912 -39.902  22.246  1.00  0.00    -0.550 OA
ATOM     14  O   UNL     1       6.122 -41.056  20.678  1.00  0.00    -0.550 OA
ENDBRANCH  11  12
ENDBRANCH  10  11
ENDBRANCH   9  10
ENDBRANCH   8   9
ENDBRANCH   7   8
ENDBRANCH   6   7
ENDBRANCH   5   6
ENDBRANCH   4   5
ENDBRANCH   3   4
ENDBRANCH   2   3
ENDBRANCH   1   2
BRANCH   1  15
ATOM     15  C   UNL     1       5.157 -37.911  19.630  1.00  0.00     0.000 C 
BRANCH  15  16
ATOM     16  C   UNL     1       3.979 -38.725  19.058  1.00  0.00     0.000 C 
BRANCH  16  17
ATOM     17  C   UNL     1       2.607 -38.343  19.652  1.00  0.00     0.000 C 
BRANCH  17  18
ATOM     18  C   UNL     1       1.494 -38.305  18.589  1.00  0.00    -0.000 C 
BRANCH  18  19
ATOM     19  C   UNL     1       2.034 -38.099  17.162  1.00  0.00    -0.000 C 
BRANCH  19  20
ATOM     20  C   UNL     1       1.845 -36.682  16.590  1.00  0.00    -0.000 C 
BRANCH  20  21
ATOM     21  C   UNL     1       1.219 -36.680  15.187  1.00  0.00    -0.000 C 
BRANCH  21  22
ATOM     22  C   UNL     1       2.081 -37.473  14.197  1.00  0.00    -0.000 C 
BRANCH  22  23
ATOM     23  C   UNL     1       3.571 -37.143  14.379  1.00  0.00    -0.000 C 
BRANCH  23  24
ATOM     24  C   UNL     1       4.490 -38.272  13.883  1.00  0.00    -0.000 C 
BRANCH  24  25
ATOM     25  C   UNL     1       4.057 -39.653  14.397  1.00  0.00    -0.003 C 
ATOM     26  C   UNL     1       4.984 -40.748  13.875  1.00  0.00     0.004 C 
ENDBRANCH  24  25
ENDBRANCH  23  24
ENDBRANCH  22  23
ENDBRANCH  21  22
ENDBRANCH  20  21
ENDBRANCH  19  20
ENDBRANCH  18  19
ENDBRANCH  17  18
ENDBRANCH  16  17
ENDBRANCH  15  16
ENDBRANCH   1  15
TORSDOF 22
ENDMDL
MODEL 2
REMARK VINA RESULT:    -1.571      2.498      6.557
REMARK INTER + INTRA:          -4.096
REMARK INTER:                  -0.957
REMARK INTRA:                  -3.139
REMARK UNBOUND:                -0.505
REMARK SMILES CCCCCCCCCCCCCCCCCCCCCCCC(=O)[O-]
REMARK SMILES IDX 13 1 14 2 15 3 16 4 17 5 18 6 19 7 20 8 21 9 22 10 23 11
REMARK SMILES IDX 24 12 25 13 26 14 12 15 11 16 10 17 9 18 8 19 7 20 6 21 5 22
REMARK SMILES IDX 4 23 3 24 2 25 1 26
REMARK H PARENT
REMARK Flexibility Score: inf
ROOT
ATOM      1  C   UNL     1       4.848 -37.593  23.975  1.00  0.00     0.000 C 
ENDROOT
BRANCH   1   2
ATOM      2  C   UNL     1       6.124 -36.743  23.826  1.00  0.00     0.000 C 
BRANCH   2   3
ATOM      3  C   UNL     1       5.910 -35.265  24.197  1.00  0.00     0.000 C 
BRANCH   3   4
ATOM      4  C   UNL     1       5.483 -34.402  22.995  1.00  0.00     0.000 C 
BRANCH   4   5
ATOM      5  C   UNL     1       4.062 -34.666  22.465  1.00  0.00     0.000 C 
BRANCH   5   6
ATOM      6  C   UNL     1       4.050 -35.172  21.012  1.00  0.00     0.000 C 
BRANCH   6   7
ATOM      7  C   UNL     1       5.428 -35.670  20.536  1.00  0.00     0.000 C 
BRANCH   7   8
ATOM      8  C   UNL     1       5.648 -35.621  19.012  1.00  0.00     0.000 C 
BRANCH   8   9
ATOM      9  C   UNL     1       4.343 -35.420  18.222  1.00  0.00     0.000 C 
BRANCH   9  10
ATOM     10  C   UNL     1       4.104 -36.511  17.165  1.00  0.00     0.006 C 
BRANCH  10  11
ATOM     11  C   UNL     1       2.745 -36.398  16.449  1.00  0.00     0.053 C 
BRANCH  11  12
ATOM     12  C   UNL     1       2.677 -37.238  15.209  1.00  0.00     0.041 C 
ATOM     13  O   UNL     1       1.759 -37.050  14.365  1.00  0.00    -0.550 OA
ATOM     14  O   UNL     1       3.605 -38.252  14.998  1.00  0.00    -0.550 OA
ENDBRANCH  11  12
ENDBRANCH  10  11
ENDBRANCH   9  10
ENDBRANCH   8   9
ENDBRANCH   7   8
ENDBRANCH   6   7
ENDBRANCH   5   6
ENDBRANCH   4   5
ENDBRANCH   3   4
ENDBRANCH   2   3
ENDBRANCH   1   2
BRANCH   1  15
ATOM     15  C   UNL     1       4.726 -38.371  25.300  1.00  0.00     0.000 C 
BRANCH  15  16
ATOM     16  C   UNL     1       5.385 -39.764  25.312  1.00  0.00     0.000 C 
BRANCH  16  17
ATOM     17  C   UNL     1       4.728 -40.777  24.351  1.00  0.00     0.000 C 
BRANCH  17  18
ATOM     18  C   UNL     1       5.746 -41.755  23.738  1.00  0.00    -0.000 C 
BRANCH  18  19
ATOM     19  C   UNL     1       5.872 -41.611  22.210  1.00  0.00    -0.000 C 
BRANCH  19  20
ATOM     20  C   UNL     1       5.930 -40.161  21.694  1.00  0.00    -0.000 C 
BRANCH  20  21
ATOM     21  C   UNL     1       5.895 -40.070  20.160  1.00  0.00    -0.000 C 
BRANCH  21  22
ATOM     22  C   UNL     1       4.852 -39.047  19.692  1.00  0.00    -0.000 C 
BRANCH  22  23
ATOM     23  C   UNL     1       3.833 -38.754  20.804  1.00  0.00    -0.000 C 
BRANCH  23  24
ATOM     24  C   UNL     1       2.567 -38.060  20.275  1.00  0.00    -0.000 C 
BRANCH  24  25
ATOM     25  C   UNL     1       2.013 -38.729  19.008  1.00  0.00    -0.003 C 
ATOM     26  C   UNL     1       0.529 -38.423  18.830  1.00  0.00     0.004 C 
ENDBRANCH  24  25
ENDBRANCH  23  24
ENDBRANCH  22  23
ENDBRANCH  21  22
ENDBRANCH  20  21
ENDBRANCH  19  20
ENDBRANCH  18  19
ENDBRANCH  17  18
ENDBRANCH  16  17
ENDBRANCH  15  16
ENDBRANCH   1  15
TORSDOF 22
ENDMDL
MODEL 3
REMARK VINA RESULT:    -0.882      2.255      8.010
REMARK INTER + INTRA:          -2.520
REMARK INTER:                  -1.812
REMARK INTRA:                  -0.708
REMARK UNBOUND:                -0.505
REMARK SMILES CCCCCCCCCCCCCCCCCCCCCCCC(=O)[O-]
REMARK SMILES IDX 13 1 14 2 15 3 16 4 17 5 18 6 19 7 20 8 21 9 22 10 23 11
REMARK SMILES IDX 24 12 25 13 26 14 12 15 11 16 10 17 9 18 8 19 7 20 6 21 5 22
REMARK SMILES IDX 4 23 3 24 2 25 1 26
REMARK H PARENT
REMARK Flexibility Score: inf
ROOT
ATOM      1  C   UNL     1       3.936 -37.660  20.360  1.00  0.00     0.000 C 
ENDROOT
BRANCH   1   2
ATOM      2  C   UNL     1       4.448 -36.227  20.600  1.00  0.00     0.000 C 
BRANCH   2   3
ATOM      3  C   UNL     1       5.904 -36.023  20.143  1.00  0.00     0.000 C 
BRANCH   3   4
ATOM      4  C   UNL     1       6.015 -35.208  18.842  1.00  0.00     0.000 C 
BRANCH   4   5
ATOM      5  C   UNL     1       4.682 -34.931  18.122  1.00  0.00     0.000 C 
BRANCH   5   6
ATOM      6  C   UNL     1       4.232 -36.098  17.226  1.00  0.00     0.000 C 
BRANCH   6   7
ATOM      7  C   UNL     1       3.099 -35.710  16.257  1.00  0.00     0.000 C 
BRANCH   7   8
ATOM      8  C   UNL     1       2.812 -36.736  15.144  1.00  0.00     0.000 C 
BRANCH   8   9
ATOM      9  C   UNL     1       1.479 -37.480  15.342  1.00  0.00     0.000 C 
BRANCH   9  10
ATOM     10  C   UNL     1       0.907 -37.324  16.762  1.00  0.00     0.006 C 
BRANCH  10  11
ATOM     11  C   UNL     1       1.689 -38.100  17.838  1.00  0.00     0.053 C 
BRANCH  11  12
ATOM     12  C   UNL     1       0.799 -38.642  18.916  1.00  0.00     0.041 C 
ATOM     13  O   UNL     1       0.363 -37.881  19.821  1.00  0.00    -0.550 OA
ATOM     14  O   UNL     1       0.478 -39.995  18.943  1.00  0.00    -0.550 OA
ENDBRANCH  11  12
ENDBRANCH  10  11
ENDBRANCH   9  10
ENDBRANCH   8   9
ENDBRANCH   7   8
ENDBRANCH   6   7
ENDBRANCH   5   6
ENDBRANCH   4   5
ENDBRANCH   3   4
ENDBRANCH   2   3
ENDBRANCH   1   2
BRANCH   1  15
ATOM     15  C   UNL     1       5.028 -38.745  20.282  1.00  0.00     0.000 C 
BRANCH  15  16
ATOM     16  C   UNL     1       5.717 -39.086  21.618  1.00  0.00     0.000 C 
BRANCH  16  17
ATOM     17  C   UNL     1       5.773 -40.597  21.926  1.00  0.00     0.000 C 
BRANCH  17  18
ATOM     18  C   UNL     1       4.882 -40.989  23.119  1.00  0.00    -0.000 C 
BRANCH  18  19
ATOM     19  C   UNL     1       4.515 -39.791  24.013  1.00  0.00    -0.000 C 
BRANCH  19  20
ATOM     20  C   UNL     1       4.711 -40.019  25.524  1.00  0.00    -0.000 C 
BRANCH  20  21
ATOM     21  C   UNL     1       5.085 -38.734  26.280  1.00  0.00    -0.000 C 
BRANCH  21  22
ATOM     22  C   UNL     1       4.827 -37.492  25.419  1.00  0.00    -0.000 C 
BRANCH  22  23
ATOM     23  C   UNL     1       6.118 -37.019  24.735  1.00  0.00    -0.000 C 
BRANCH  23  24
ATOM     24  C   UNL     1       5.852 -36.327  23.387  1.00  0.00    -0.000 C 
BRANCH  24  25
ATOM     25  C   UNL     1       5.137 -34.977  23.550  1.00  0.00    -0.003 C 
ATOM     26  C   UNL     1       6.123 -33.876  23.930  1.00  0.00     0.004 C 
ENDBRANCH  24  25
ENDBRANCH  23  24
ENDBRANCH  22  23
ENDBRANCH  21  22
ENDBRANCH  20  21
ENDBRANCH  19  20
ENDBRANCH  18  19
ENDBRANCH  17  18
ENDBRANCH  16  17
ENDBRANCH  15  16
ENDBRANCH   1  15
TORSDOF 22
ENDMDL
MODEL 4
REMARK VINA RESULT:    -0.716      2.224      7.504
REMARK INTER + INTRA:          -2.142
REMARK INTER:                  -1.869
REMARK INTRA:                  -0.274
REMARK UNBOUND:                -0.505
REMARK SMILES CCCCCCCCCCCCCCCCCCCCCCCC(=O)[O-]
REMARK SMILES IDX 13 1 14 2 15 3 16 4 17 5 18 6 19 7 20 8 21 9 22 10 23 11
REMARK SMILES IDX 24 12 25 13 26 14 12 15 11 16 10 17 9 18 8 19 7 20 6 21 5 22
REMARK SMILES IDX 4 23 3 24 2 25 1 26
REMARK H PARENT
REMARK Flexibility Score: inf
ROOT
ATOM      1  C   UNL     1       5.974 -35.545  22.229  1.00  0.00     0.000 C 
ENDROOT
BRANCH   1   2
ATOM      2  C   UNL     1       4.550 -36.001  21.861  1.00  0.00     0.000 C 
BRANCH   2   3
ATOM      3  C   UNL     1       4.368 -36.254  20.354  1.00  0.00     0.000 C 
BRANCH   3   4
ATOM      4  C   UNL     1       5.633 -35.932  19.536  1.00  0.00     0.000 C 
BRANCH   4   5
ATOM      5  C   UNL     1       5.420 -34.989  18.338  1.00  0.00     0.000 C 
BRANCH   5   6
ATOM      6  C   UNL     1       4.059 -35.191  17.651  1.00  0.00     0.000 C 
BRANCH   6   7
ATOM      7  C   UNL     1       3.786 -36.659  17.274  1.00  0.00     0.000 C 
BRANCH   7   8
ATOM      8  C   UNL     1       3.528 -36.912  15.776  1.00  0.00     0.000 C 
BRANCH   8   9
ATOM      9  C   UNL     1       2.035 -37.087  15.446  1.00  0.00     0.000 C 
BRANCH   9  10
ATOM     10  C   UNL     1       1.169 -37.355  16.689  1.00  0.00     0.006 C 
BRANCH  10  11
ATOM     11  C   UNL     1       1.863 -38.223  17.756  1.00  0.00     0.053 C 
BRANCH  11  12
ATOM     12  C   UNL     1       0.930 -38.641  18.853  1.00  0.00     0.041 C 
ATOM     13  O   UNL     1       0.336 -39.751  18.791  1.00  0.00    -0.550 OA
ATOM     14  O   UNL     1       0.688 -37.791  19.927  1.00  0.00    -0.550 OA
ENDBRANCH  11  12
ENDBRANCH  10  11
ENDBRANCH   9  10
ENDBRANCH   8   9
ENDBRANCH   7   8
ENDBRANCH   6   7
ENDBRANCH   5   6
ENDBRANCH   4   5
ENDBRANCH   3   4
ENDBRANCH   2   3
ENDBRANCH   1   2
BRANCH   1  15
ATOM     15  C   UNL     1       6.125 -34.924  23.631  1.00  0.00     0.000 C 
BRANCH  15  16
ATOM     16  C   UNL     1       5.848 -35.878  24.810  1.00  0.00     0.000 C 
BRANCH  16  17
ATOM     17  C   UNL     1       6.025 -37.372  24.462  1.00  0.00     0.000 C 
BRANCH  17  18
ATOM     18  C   UNL     1       5.184 -38.291  25.365  1.00  0.00    -0.000 C 
BRANCH  18  19
ATOM     19  C   UNL     1       4.040 -38.991  24.609  1.00  0.00    -0.000 C 
BRANCH  19  20
ATOM     20  C   UNL     1       4.193 -40.516  24.458  1.00  0.00    -0.000 C 
BRANCH  20  21
ATOM     21  C   UNL     1       5.661 -40.971  24.436  1.00  0.00    -0.000 C 
BRANCH  21  22
ATOM     22  C   UNL     1       5.854 -42.165  23.492  1.00  0.00    -0.000 C 
BRANCH  22  23
ATOM     23  C   UNL     1       5.771 -41.722  22.024  1.00  0.00    -0.000 C 
BRANCH  23  24
ATOM     24  C   UNL     1       6.122 -40.237  21.835  1.00  0.00    -0.000 C 
BRANCH  24  25
ATOM     25  C   UNL     1       5.363 -39.597  20.662  1.00  0.00    -0.003 C 
ATOM     26  C   UNL     1       3.975 -39.132  21.094  1.00  0.00     0.004 C 
ENDBRANCH  24  25
ENDBRANCH  23  24
ENDBRANCH  22  23
ENDBRANCH  21  22
ENDBRANCH  20  21
ENDBRANCH  19  20
ENDBRANCH  18  19
ENDBRANCH  17  18
ENDBRANCH  16  17
ENDBRANCH  15  16
ENDBRANCH   1  15
TORSDOF 22
ENDMDL
MODEL 5
REMARK VINA RESULT:    -0.703      1.829      3.668
REMARK INTER + INTRA:          -2.112
REMARK INTER:                  -1.046
REMARK INTRA:                  -1.066
REMARK UNBOUND:                -0.505
REMARK SMILES CCCCCCCCCCCCCCCCCCCCCCCC(=O)[O-]
REMARK SMILES IDX 13 1 14 2 15 3 16 4 17 5 18 6 19 7 20 8 21 9 22 10 23 11
REMARK SMILES IDX 24 12 25 13 26 14 12 15 11 16 10 17 9 18 8 19 7 20 6 21 5 22
REMARK SMILES IDX 4 23 3 24 2 25 1 26
REMARK H PARENT
REMARK Flexibility Score: inf
ROOT
ATOM      1  C   UNL     1       3.048 -37.691  20.487  1.00  0.00     0.000 C 
ENDROOT
BRANCH   1   2
ATOM      2  C   UNL     1       3.585 -38.594  19.361  1.00  0.00     0.000 C 
BRANCH   2   3
ATOM      3  C   UNL     1       5.085 -38.906  19.501  1.00  0.00     0.000 C 
BRANCH   3   4
ATOM      4  C   UNL     1       5.531 -39.060  20.967  1.00  0.00     0.000 C 
BRANCH   4   5
ATOM      5  C   UNL     1       5.892 -40.493  21.399  1.00  0.00     0.000 C 
BRANCH   5   6
ATOM      6  C   UNL     1       5.099 -40.965  22.630  1.00  0.00     0.000 C 
BRANCH   6   7
ATOM      7  C   UNL     1       4.288 -39.836  23.294  1.00  0.00     0.000 C 
BRANCH   7   8
ATOM      8  C   UNL     1       4.681 -39.519  24.749  1.00  0.00     0.000 C 
BRANCH   8   9
ATOM      9  C   UNL     1       5.749 -38.417  24.857  1.00  0.00     0.000 C 
BRANCH   9  10
ATOM     10  C   UNL     1       5.182 -37.073  25.346  1.00  0.00     0.006 C 
BRANCH  10  11
ATOM     11  C   UNL     1       6.071 -35.861  25.006  1.00  0.00     0.053 C 
BRANCH  11  12
ATOM     12  C   UNL     1       5.972 -35.462  23.564  1.00  0.00     0.041 C 
ATOM     13  O   UNL     1       6.009 -34.245  23.239  1.00  0.00    -0.550 OA
ATOM     14  O   UNL     1       5.805 -36.431  22.580  1.00  0.00    -0.550 OA
ENDBRANCH  11  12
ENDBRANCH  10  11
ENDBRANCH   9  10
ENDBRANCH   8   9
ENDBRANCH   7   8
ENDBRANCH   6   7
ENDBRANCH   5   6
ENDBRANCH   4   5
ENDBRANCH   3   4
ENDBRANCH   2   3
ENDBRANCH   1   2
BRANCH   1  15
ATOM     15  C   UNL     1       3.424 -36.201  20.371  1.00  0.00     0.000 C 
BRANCH  15  16
ATOM     16  C   UNL     1       4.791 -35.913  19.719  1.00  0.00     0.000 C 
BRANCH  16  17
ATOM     17  C   UNL     1       4.703 -35.080  18.422  1.00  0.00     0.000 C 
BRANCH  17  18
ATOM     18  C   UNL     1       4.378 -35.940  17.188  1.00  0.00    -0.000 C 
BRANCH  18  19
ATOM     19  C   UNL     1       2.866 -36.054  16.919  1.00  0.00    -0.000 C 
BRANCH  19  20
ATOM     20  C   UNL     1       2.411 -37.393  16.309  1.00  0.00    -0.000 C 
BRANCH  20  21
ATOM     21  C   UNL     1       3.150 -37.741  15.007  1.00  0.00    -0.000 C 
BRANCH  21  22
ATOM     22  C   UNL     1       3.609 -39.204  15.007  1.00  0.00    -0.000 C 
BRANCH  22  23
ATOM     23  C   UNL     1       4.616 -39.463  13.876  1.00  0.00    -0.000 C 
BRANCH  23  24
ATOM     24  C   UNL     1       5.389 -40.779  14.064  1.00  0.00    -0.000 C 
BRANCH  24  25
ATOM     25  C   UNL     1       4.461 -41.976  14.323  1.00  0.00    -0.003 C 
ATOM     26  C   UNL     1       5.183 -43.071  15.104  1.00  0.00     0.004 C 
ENDBRANCH  24  25
ENDBRANCH  23  24
ENDBRANCH  22  23
ENDBRANCH  21  22
ENDBRANCH  20  21
ENDBRANCH  19  20
ENDBRANCH  18  19
ENDBRANCH  17  18
ENDBRANCH  16  17
ENDBRANCH  15  16
ENDBRANCH   1  15
TORSDOF 22
ENDMDL
MODEL 6
REMARK VINA RESULT:    -0.486      1.434      2.153
REMARK INTER + INTRA:          -1.616
REMARK INTER:                  -1.844
REMARK INTRA:                   0.228
REMARK UNBOUND:                -0.505
REMARK SMILES CCCCCCCCCCCCCCCCCCCCCCCC(=O)[O-]
REMARK SMILES IDX 13 1 14 2 15 3 16 4 17 5 18 6 19 7 20 8 21 9 22 10 23 11
REMARK SMILES IDX 24 12 25 13 26 14 12 15 11 16 10 17 9 18 8 19 7 20 6 21 5 22
REMARK SMILES IDX 4 23 3 24 2 25 1 26
REMARK H PARENT
REMARK Flexibility Score: inf
ROOT
ATOM      1  C   UNL     1       4.877 -37.684  21.828  1.00  0.00     0.000 C 
ENDROOT
BRANCH   1   2
ATOM      2  C   UNL     1       5.763 -36.435  21.992  1.00  0.00     0.000 C 
BRANCH   2   3
ATOM      3  C   UNL     1       5.011 -35.239  22.602  1.00  0.00     0.000 C 
BRANCH   3   4
ATOM      4  C   UNL     1       5.767 -34.593  23.778  1.00  0.00     0.000 C 
BRANCH   4   5
ATOM      5  C   UNL     1       6.091 -35.537  24.951  1.00  0.00     0.000 C 
BRANCH   5   6
ATOM      6  C   UNL     1       5.101 -36.708  25.068  1.00  0.00     0.000 C 
BRANCH   6   7
ATOM      7  C   UNL     1       5.766 -38.014  25.543  1.00  0.00     0.000 C 
BRANCH   7   8
ATOM      8  C   UNL     1       4.805 -39.052  26.153  1.00  0.00     0.000 C 
BRANCH   8   9
ATOM      9  C   UNL     1       4.091 -39.906  25.091  1.00  0.00     0.000 C 
BRANCH   9  10
ATOM     10  C   UNL     1       4.880 -40.017  23.775  1.00  0.00     0.006 C 
BRANCH  10  11
ATOM     11  C   UNL     1       6.125 -40.919  23.869  1.00  0.00     0.053 C 
BRANCH  11  12
ATOM     12  C   UNL     1       5.778 -42.378  23.879  1.00  0.00     0.041 C 
ATOM     13  O   UNL     1       5.729 -43.025  22.798  1.00  0.00    -0.550 OA
ATOM     14  O   UNL     1       5.473 -43.017  25.076  1.00  0.00    -0.550 OA
ENDBRANCH  11  12
ENDBRANCH  10  11
ENDBRANCH   9  10
ENDBRANCH   8   9
ENDBRANCH   7   8
ENDBRANCH   6   7
ENDBRANCH   5   6
ENDBRANCH   4   5
ENDBRANCH   3   4
ENDBRANCH   2   3
ENDBRANCH   1   2
BRANCH   1  15
ATOM     15  C   UNL     1       5.154 -38.528  20.568  1.00  0.00     0.000 C 
BRANCH  15  16
ATOM     16  C   UNL     1       5.404 -37.724  19.277  1.00  0.00     0.000 C 
BRANCH  16  17
ATOM     17  C   UNL     1       4.114 -37.252  18.573  1.00  0.00     0.000 C 
BRANCH  17  18
ATOM     18  C   UNL     1       3.180 -38.419  18.208  1.00  0.00    -0.000 C 
BRANCH  18  19
ATOM     19  C   UNL     1       1.884 -38.433  19.040  1.00  0.00    -0.000 C 
BRANCH  19  20
ATOM     20  C   UNL     1       0.582 -38.354  18.222  1.00  0.00    -0.000 C 
BRANCH  20  21
ATOM     21  C   UNL     1       0.571 -37.186  17.224  1.00  0.00    -0.000 C 
BRANCH  21  22
ATOM     22  C   UNL     1       1.844 -37.177  16.370  1.00  0.00    -0.000 C 
BRANCH  22  23
ATOM     23  C   UNL     1       1.544 -36.697  14.942  1.00  0.00    -0.000 C 
BRANCH  23  24
ATOM     24  C   UNL     1       2.284 -37.521  13.875  1.00  0.00    -0.000 C 
BRANCH  24  25
ATOM     25  C   UNL     1       3.752 -37.782  14.246  1.00  0.00    -0.003 C 
ATOM     26  C   UNL     1       3.987 -39.259  14.550  1.00  0.00     0.004 C 
ENDBRANCH  24  25
ENDBRANCH  23  24
ENDBRANCH  22  23
ENDBRANCH  21  22
ENDBRANCH  20  21
ENDBRANCH  19  20
ENDBRANCH  18  19
ENDBRANCH  17  18
ENDBRANCH  16  17
ENDBRANCH  15  16
ENDBRANCH   1  15
TORSDOF 22
ENDMDL
MODEL 7
REMARK VINA RESULT:    -0.381      1.965      7.790
REMARK INTER + INTRA:          -1.374
REMARK INTER:                  -0.002
REMARK INTRA:                  -1.372
REMARK UNBOUND:                -0.505
REMARK SMILES CCCCCCCCCCCCCCCCCCCCCCCC(=O)[O-]
REMARK SMILES IDX 13 1 14 2 15 3 16 4 17 5 18 6 19 7 20 8 21 9 22 10 23 11
REMARK SMILES IDX 24 12 25 13 26 14 12 15 11 16 10 17 9 18 8 19 7 20 6 21 5 22
REMARK SMILES IDX 4 23 3 24 2 25 1 26
REMARK H PARENT
REMARK Flexibility Score: inf
ROOT
ATOM      1  C   UNL     1       4.038 -36.205  21.539  1.00  0.00     0.000 C 
ENDROOT
BRANCH   1   2
ATOM      2  C   UNL     1       5.266 -37.077  21.213  1.00  0.00     0.000 C 
BRANCH   2   3
ATOM      3  C   UNL     1       5.917 -36.720  19.865  1.00  0.00     0.000 C 
BRANCH   3   4
ATOM      4  C   UNL     1       5.973 -35.203  19.609  1.00  0.00     0.000 C 
BRANCH   4   5
ATOM      5  C   UNL     1       5.296 -34.729  18.310  1.00  0.00     0.000 C 
BRANCH   5   6
ATOM      6  C   UNL     1       4.614 -35.871  17.538  1.00  0.00     0.000 C 
BRANCH   6   7
ATOM      7  C   UNL     1       3.319 -35.432  16.831  1.00  0.00     0.000 C 
BRANCH   7   8
ATOM      8  C   UNL     1       2.972 -36.220  15.554  1.00  0.00     0.000 C 
BRANCH   8   9
ATOM      9  C   UNL     1       3.393 -37.698  15.628  1.00  0.00     0.000 C 
BRANCH   9  10
ATOM     10  C   UNL     1       2.462 -38.547  16.512  1.00  0.00     0.006 C 
BRANCH  10  11
ATOM     11  C   UNL     1       1.465 -37.717  17.342  1.00  0.00     0.053 C 
BRANCH  11  12
ATOM     12  C   UNL     1       1.577 -37.989  18.813  1.00  0.00     0.041 C 
ATOM     13  O   UNL     1       2.710 -38.092  19.354  1.00  0.00    -0.550 OA
ATOM     14  O   UNL     1       0.430 -38.162  19.581  1.00  0.00    -0.550 OA
ENDBRANCH  11  12
ENDBRANCH  10  11
ENDBRANCH   9  10
ENDBRANCH   8   9
ENDBRANCH   7   8
ENDBRANCH   6   7
ENDBRANCH   5   6
ENDBRANCH   4   5
ENDBRANCH   3   4
ENDBRANCH   2   3
ENDBRANCH   1   2
BRANCH   1  15
ATOM     15  C   UNL     1       4.309 -35.011  22.475  1.00  0.00     0.000 C 
BRANCH  15  16
ATOM     16  C   UNL     1       5.775 -34.838  22.918  1.00  0.00     0.000 C 
BRANCH  16  17
ATOM     17  C   UNL     1       6.000 -35.046  24.431  1.00  0.00     0.000 C 
BRANCH  17  18
ATOM     18  C   UNL     1       6.008 -36.534  24.827  1.00  0.00    -0.000 C 
BRANCH  18  19
ATOM     19  C   UNL     1       4.964 -36.872  25.907  1.00  0.00    -0.000 C 
BRANCH  19  20
ATOM     20  C   UNL     1       4.240 -38.218  25.716  1.00  0.00    -0.000 C 
BRANCH  20  21
ATOM     21  C   UNL     1       5.112 -39.426  26.092  1.00  0.00    -0.000 C 
BRANCH  21  22
ATOM     22  C   UNL     1       5.219 -40.415  24.925  1.00  0.00    -0.000 C 
BRANCH  22  23
ATOM     23  C   UNL     1       5.161 -39.681  23.577  1.00  0.00    -0.000 C 
BRANCH  23  24
ATOM     24  C   UNL     1       4.941 -40.638  22.394  1.00  0.00    -0.000 C 
BRANCH  24  25
ATOM     25  C   UNL     1       6.082 -41.654  22.237  1.00  0.00    -0.003 C 
ATOM     26  C   UNL     1       5.641 -43.048  22.675  1.00  0.00     0.004 C 
ENDBRANCH  24  25
ENDBRANCH  23  24
ENDBRANCH  22  23
ENDBRANCH  21  22
ENDBRANCH  20  21
ENDBRANCH  19  20
ENDBRANCH  18  19
ENDBRANCH  17  18
ENDBRANCH  16  17
ENDBRANCH  15  16
ENDBRANCH   1  15
TORSDOF 22
ENDMDL
MODEL 8
REMARK VINA RESULT:     0.007      2.384      7.673
REMARK INTER + INTRA:          -0.489
REMARK INTER:                   0.310
REMARK INTRA:                  -0.799
REMARK UNBOUND:                -0.505
REMARK SMILES CCCCCCCCCCCCCCCCCCCCCCCC(=O)[O-]
REMARK SMILES IDX 13 1 14 2 15 3 16 4 17 5 18 6 19 7 20 8 21 9 22 10 23 11
REMARK SMILES IDX 24 12 25 13 26 14 12 15 11 16 10 17 9 18 8 19 7 20 6 21 5 22
REMARK SMILES IDX 4 23 3 24 2 25 1 26
REMARK H PARENT
REMARK Flexibility Score: inf
ROOT
ATOM      1  C   UNL     1       5.122 -36.530  22.634  1.00  0.00     0.000 C 
ENDROOT
BRANCH   1   2
ATOM      2  C   UNL     1       4.690 -35.461  21.613  1.00  0.00     0.000 C 
BRANCH   2   3
ATOM      3  C   UNL     1       5.853 -34.955  20.741  1.00  0.00     0.000 C 
BRANCH   3   4
ATOM      4  C   UNL     1       6.111 -35.846  19.511  1.00  0.00     0.000 C 
BRANCH   4   5
ATOM      5  C   UNL     1       5.748 -35.216  18.154  1.00  0.00     0.000 C 
BRANCH   5   6
ATOM      6  C   UNL     1       4.230 -35.159  17.907  1.00  0.00     0.000 C 
BRANCH   6   7
ATOM      7  C   UNL     1       3.783 -36.018  16.709  1.00  0.00     0.000 C 
BRANCH   7   8
ATOM      8  C   UNL     1       2.633 -36.999  17.003  1.00  0.00     0.000 C 
BRANCH   8   9
ATOM      9  C   UNL     1       1.429 -36.813  16.063  1.00  0.00     0.000 C 
BRANCH   9  10
ATOM     10  C   UNL     1       1.621 -37.490  14.695  1.00  0.00     0.006 C 
BRANCH  10  11
ATOM     11  C   UNL     1       2.904 -37.057  13.961  1.00  0.00     0.053 C 
BRANCH  11  12
ATOM     12  C   UNL     1       3.969 -38.113  13.995  1.00  0.00     0.041 C 
ATOM     13  O   UNL     1       3.657 -39.322  14.161  1.00  0.00    -0.550 OA
ATOM     14  O   UNL     1       5.309 -37.759  13.878  1.00  0.00    -0.550 OA
ENDBRANCH  11  12
ENDBRANCH  10  11
ENDBRANCH   9  10
ENDBRANCH   8   9
ENDBRANCH   7   8
ENDBRANCH   6   7
ENDBRANCH   5   6
ENDBRANCH   4   5
ENDBRANCH   3   4
ENDBRANCH   2   3
ENDBRANCH   1   2
BRANCH   1  15
ATOM     15  C   UNL     1       4.879 -36.165  24.112  1.00  0.00     0.000 C 
BRANCH  15  16
ATOM     16  C   UNL     1       6.118 -36.248  25.026  1.00  0.00     0.000 C 
BRANCH  16  17
ATOM     17  C   UNL     1       6.125 -37.475  25.962  1.00  0.00     0.000 C 
BRANCH  17  18
ATOM     18  C   UNL     1       4.717 -38.057  26.184  1.00  0.00    -0.000 C 
BRANCH  18  19
ATOM     19  C   UNL     1       4.508 -39.408  25.475  1.00  0.00    -0.000 C 
BRANCH  19  20
ATOM     20  C   UNL     1       5.520 -39.722  24.357  1.00  0.00    -0.000 C 
BRANCH  20  21
ATOM     21  C   UNL     1       5.195 -41.021  23.603  1.00  0.00    -0.000 C 
BRANCH  21  22
ATOM     22  C   UNL     1       5.444 -40.863  22.099  1.00  0.00    -0.000 C 
BRANCH  22  23
ATOM     23  C   UNL     1       4.487 -39.827  21.490  1.00  0.00    -0.000 C 
BRANCH  23  24
ATOM     24  C   UNL     1       5.191 -38.883  20.501  1.00  0.00    -0.000 C 
BRANCH  24  25
ATOM     25  C   UNL     1       4.296 -38.499  19.314  1.00  0.00    -0.003 C 
ATOM     26  C   UNL     1       2.851 -38.293  19.759  1.00  0.00     0.004 C 
ENDBRANCH  24  25
ENDBRANCH  23  24
ENDBRANCH  22  23
ENDBRANCH  21  22
ENDBRANCH  20  21
ENDBRANCH  19  20
ENDBRANCH  18  19
ENDBRANCH  17  18
ENDBRANCH  16  17
ENDBRANCH  15  16
ENDBRANCH   1  15
TORSDOF 22
ENDMDL
