MODEL 1
REMARK VINA RESULT:    -4.502      0.000      0.000
REMARK INTER + INTRA:          -9.830
REMARK INTER:                  -8.451
REMARK INTRA:                  -1.379
REMARK UNBOUND:                -1.379
REMARK SMILES O=C([O-])CCCCCCCCCCCCCCC(=O)[O-]
REMARK SMILES IDX 10 1 9 2 8 3 7 4 6 5 5 6 4 7 2 8 1 9 3 10 11 11 12 12 13 13
REMARK SMILES IDX 14 14 15 15 16 16 17 17 18 18 19 19 20 20
REMARK H PARENT
REMARK Flexibility Score: inf
ROOT
ATOM      1  C   UNL     1     -12.479   6.002 -41.005  1.00  0.00     0.000 C 
ENDROOT
BRANCH   1   2
ATOM      2  C   UNL     1     -13.636   6.901 -41.470  1.00  0.00     0.000 C 
BRANCH   2   3
ATOM      3  C   UNL     1     -14.348   6.352 -42.720  1.00  0.00     0.000 C 
BRANCH   3   4
ATOM      4  C   UNL     1     -15.846   6.104 -42.484  1.00  0.00     0.000 C 
BRANCH   4   5
ATOM      5  C   UNL     1     -16.333   6.673 -41.139  1.00  0.00     0.000 C 
BRANCH   5   6
ATOM      6  C   UNL     1     -17.049   5.620 -40.278  1.00  0.00     0.006 C 
BRANCH   6   7
ATOM      7  C   UNL     1     -16.521   4.200 -40.515  1.00  0.00     0.053 C 
BRANCH   7   8
ATOM      8  C   UNL     1     -17.653   3.257 -40.782  1.00  0.00     0.041 C 
ATOM      9  O   UNL     1     -18.513   3.533 -41.658  1.00  0.00    -0.550 OA
ATOM     10  O   UNL     1     -17.783   2.095 -40.030  1.00  0.00    -0.550 OA
ENDBRANCH   7   8
ENDBRANCH   6   7
ENDBRANCH   5   6
ENDBRANCH   4   5
ENDBRANCH   3   4
ENDBRANCH   2   3
ENDBRANCH   1   2
BRANCH   1  11
ATOM     11  C   UNL     1     -12.548   4.590 -41.611  1.00  0.00     0.000 C 
BRANCH  11  12
ATOM     12  C   UNL     1     -12.658   3.485 -40.544  1.00  0.00     0.000 C 
BRANCH  12  13
ATOM     13  C   UNL     1     -12.451   2.050 -41.065  1.00  0.00     0.000 C 
BRANCH  13  14
ATOM     14  C   UNL     1     -11.130   1.384 -40.632  1.00  0.00     0.000 C 
BRANCH  14  15
ATOM     15  C   UNL     1     -10.743   0.159 -41.489  1.00  0.00     0.000 C 
BRANCH  15  16
ATOM     16  C   UNL     1     -10.944  -1.170 -40.740  1.00  0.00     0.006 C 
BRANCH  16  17
ATOM     17  C   UNL     1     -11.872  -1.017 -39.527  1.00  0.00     0.053 C 
BRANCH  17  18
ATOM     18  C   UNL     1     -13.164  -1.747 -39.719  1.00  0.00     0.041 C 
ATOM     19  O   UNL     1     -13.319  -2.900 -39.237  1.00  0.00    -0.550 OA
ATOM     20  O   UNL     1     -14.211  -1.139 -40.400  1.00  0.00    -0.550 OA
ENDBRANCH  17  18
ENDBRANCH  16  17
ENDBRANCH  15  16
ENDBRANCH  14  15
ENDBRANCH  13  14
ENDBRANCH  12  13
ENDBRANCH  11  12
ENDBRANCH   1  11
TORSDOF 15
ENDMDL
MODEL 2
REMARK VINA RESULT:    -4.458      1.321      2.402
REMARK INTER + INTRA:          -9.746
REMARK INTER:                  -8.353
REMARK INTRA:                  -1.393
REMARK UNBOUND:                -1.379
REMARK SMILES O=C([O-])CCCCCCCCCCCCCCC(=O)[O-]
REMARK SMILES IDX 10 1 9 2 8 3 7 4 6 5 5 6 4 7 2 8 1 9 3 10 11 11 12 12 13 13
REMARK SMILES IDX 14 14 15 15 16 16 17 17 18 18 19 19 20 20
REMARK H PARENT
REMARK Flexibility Score: inf
ROOT
ATOM      1  C   UNL     1     -12.196   2.627 -40.913  1.00  0.00     0.000 C 
ENDROOT
BRANCH   1   2
ATOM      2  C   UNL     1     -11.790   3.923 -40.192  1.00  0.00     0.000 C 
BRANCH   2   3
ATOM      3  C   UNL     1     -12.757   5.088 -40.475  1.00  0.00     0.000 C 
BRANCH   3   4
ATOM      4  C   UNL     1     -13.996   4.647 -41.270  1.00  0.00     0.000 C 
BRANCH   4   5
ATOM      5  C   UNL     1     -14.920   5.826 -41.621  1.00  0.00     0.000 C 
BRANCH   5   6
ATOM      6  C   UNL     1     -16.410   5.462 -41.508  1.00  0.00     0.006 C 
BRANCH   6   7
ATOM      7  C   UNL     1     -16.693   4.464 -40.379  1.00  0.00     0.053 C 
BRANCH   7   8
ATOM      8  C   UNL     1     -17.629   3.394 -40.847  1.00  0.00     0.041 C 
ATOM      9  O   UNL     1     -18.351   3.584 -41.859  1.00  0.00    -0.550 OA
ATOM     10  O   UNL     1     -17.736   2.203 -40.138  1.00  0.00    -0.550 OA
ENDBRANCH   7   8
ENDBRANCH   6   7
ENDBRANCH   5   6
ENDBRANCH   4   5
ENDBRANCH   3   4
ENDBRANCH   2   3
ENDBRANCH   1   2
BRANCH   1  11
ATOM     11  C   UNL     1     -10.982   1.780 -41.332  1.00  0.00     0.000 C 
BRANCH  11  12
ATOM     12  C   UNL     1      -9.638   2.446 -40.981  1.00  0.00     0.000 C 
BRANCH  12  13
ATOM     13  C   UNL     1      -8.575   1.501 -40.389  1.00  0.00     0.000 C 
BRANCH  13  14
ATOM     14  C   UNL     1      -9.035   0.044 -40.192  1.00  0.00     0.000 C 
BRANCH  14  15
ATOM     15  C   UNL     1      -9.393  -0.302 -38.730  1.00  0.00     0.000 C 
BRANCH  15  16
ATOM     16  C   UNL     1     -10.844  -0.792 -38.580  1.00  0.00     0.006 C 
BRANCH  16  17
ATOM     17  C   UNL     1     -11.303  -1.621 -39.787  1.00  0.00     0.053 C 
BRANCH  17  18
ATOM     18  C   UNL     1     -12.795  -1.643 -39.911  1.00  0.00     0.041 C 
ATOM     19  O   UNL     1     -13.388  -0.762 -40.588  1.00  0.00    -0.550 OA
ATOM     20  O   UNL     1     -13.528  -2.657 -39.309  1.00  0.00    -0.550 OA
ENDBRANCH  17  18
ENDBRANCH  16  17
ENDBRANCH  15  16
ENDBRANCH  14  15
ENDBRANCH  13  14
ENDBRANCH  12  13
ENDBRANCH  11  12
ENDBRANCH   1  11
TORSDOF 15
ENDMDL
MODEL 3
REMARK VINA RESULT:    -4.385      4.555      7.071
REMARK INTER + INTRA:          -9.610
REMARK INTER:                  -7.705
REMARK INTRA:                  -1.905
REMARK UNBOUND:                -1.379
REMARK SMILES O=C([O-])CCCCCCCCCCCCCCC(=O)[O-]
REMARK SMILES IDX 10 1 9 2 8 3 7 4 6 5 5 6 4 7 2 8 1 9 3 10 11 11 12 12 13 13
REMARK SMILES IDX 14 14 15 15 16 16 17 17 18 18 19 19 20 20
REMARK H PARENT
REMARK Flexibility Score: inf
ROOT
ATOM      1  C   UNL     1      -7.535  -0.733 -41.089  1.00  0.00     0.000 C 
ENDROOT
BRANCH   1   2
ATOM      2  C   UNL     1      -7.717   0.545 -40.254  1.00  0.00     0.000 C 
BRANCH   2   3
ATOM      3  C   UNL     1      -8.804   1.476 -40.823  1.00  0.00     0.000 C 
BRANCH   3   4
ATOM      4  C   UNL     1     -10.195   1.187 -40.237  1.00  0.00     0.000 C 
BRANCH   4   5
ATOM      5  C   UNL     1     -11.277   1.062 -41.324  1.00  0.00     0.000 C 
BRANCH   5   6
ATOM      6  C   UNL     1     -12.520   0.299 -40.835  1.00  0.00     0.006 C 
BRANCH   6   7
ATOM      7  C   UNL     1     -12.172  -1.043 -40.180  1.00  0.00     0.053 C 
BRANCH   7   8
ATOM      8  C   UNL     1     -13.418  -1.785 -39.813  1.00  0.00     0.041 C 
ATOM      9  O   UNL     1     -13.349  -2.834 -39.120  1.00  0.00    -0.550 OA
ATOM     10  O   UNL     1     -14.653  -1.344 -40.274  1.00  0.00    -0.550 OA
ENDBRANCH   7   8
ENDBRANCH   6   7
ENDBRANCH   5   6
ENDBRANCH   4   5
ENDBRANCH   3   4
ENDBRANCH   2   3
ENDBRANCH   1   2
BRANCH   1  11
ATOM     11  C   UNL     1      -8.371  -1.909 -40.557  1.00  0.00     0.000 C 
BRANCH  11  12
ATOM     12  C   UNL     1      -8.109  -2.205 -39.069  1.00  0.00     0.000 C 
BRANCH  12  13
ATOM     13  C   UNL     1      -9.339  -2.080 -38.150  1.00  0.00     0.000 C 
BRANCH  13  14
ATOM     14  C   UNL     1      -9.254  -0.960 -37.095  1.00  0.00     0.000 C 
BRANCH  14  15
ATOM     15  C   UNL     1     -10.554  -0.138 -36.954  1.00  0.00     0.000 C 
BRANCH  15  16
ATOM     16  C   UNL     1     -10.849   0.251 -35.496  1.00  0.00     0.006 C 
BRANCH  16  17
ATOM     17  C   UNL     1     -10.734   1.764 -35.265  1.00  0.00     0.053 C 
BRANCH  17  18
ATOM     18  C   UNL     1      -9.322   2.180 -34.994  1.00  0.00     0.041 C 
ATOM     19  O   UNL     1      -8.515   1.376 -34.458  1.00  0.00    -0.550 OA
ATOM     20  O   UNL     1      -8.887   3.446 -35.365  1.00  0.00    -0.550 OA
ENDBRANCH  17  18
ENDBRANCH  16  17
ENDBRANCH  15  16
ENDBRANCH  14  15
ENDBRANCH  13  14
ENDBRANCH  12  13
ENDBRANCH  11  12
ENDBRANCH   1  11
TORSDOF 15
ENDMDL
MODEL 4
REMARK VINA RESULT:    -4.367      1.128      6.886
REMARK INTER + INTRA:          -9.576
REMARK INTER:                  -8.274
REMARK INTRA:                  -1.302
REMARK UNBOUND:                -1.379
REMARK SMILES O=C([O-])CCCCCCCCCCCCCCC(=O)[O-]
REMARK SMILES IDX 10 1 9 2 8 3 7 4 6 5 5 6 4 7 2 8 1 9 3 10 11 11 12 12 13 13
REMARK SMILES IDX 14 14 15 15 16 16 17 17 18 18 19 19 20 20
REMARK H PARENT
REMARK Flexibility Score: inf
ROOT
ATOM      1  C   UNL     1     -11.899   3.155 -41.061  1.00  0.00     0.000 C 
ENDROOT
BRANCH   1   2
ATOM      2  C   UNL     1     -11.071   2.347 -40.048  1.00  0.00     0.000 C 
BRANCH   2   3
ATOM      3  C   UNL     1      -9.833   1.690 -40.684  1.00  0.00     0.000 C 
BRANCH   3   4
ATOM      4  C   UNL     1      -9.323   0.486 -39.877  1.00  0.00     0.000 C 
BRANCH   4   5
ATOM      5  C   UNL     1     -10.195   0.193 -38.643  1.00  0.00     0.000 C 
BRANCH   5   6
ATOM      6  C   UNL     1     -10.634  -1.278 -38.565  1.00  0.00     0.006 C 
BRANCH   6   7
ATOM      7  C   UNL     1     -11.253  -1.782 -39.874  1.00  0.00     0.053 C 
BRANCH   7   8
ATOM      8  C   UNL     1     -12.715  -1.464 -39.920  1.00  0.00     0.041 C 
ATOM      9  O   UNL     1     -13.534  -2.162 -39.267  1.00  0.00    -0.550 OA
ATOM     10  O   UNL     1     -13.177  -0.424 -40.718  1.00  0.00    -0.550 OA
ENDBRANCH   7   8
ENDBRANCH   6   7
ENDBRANCH   5   6
ENDBRANCH   4   5
ENDBRANCH   3   4
ENDBRANCH   2   3
ENDBRANCH   1   2
BRANCH   1  11
ATOM     11  C   UNL     1     -13.085   3.883 -40.405  1.00  0.00     0.000 C 
BRANCH  11  12
ATOM     12  C   UNL     1     -12.985   5.416 -40.521  1.00  0.00     0.000 C 
BRANCH  12  13
ATOM     13  C   UNL     1     -13.678   6.026 -41.753  1.00  0.00     0.000 C 
BRANCH  13  14
ATOM     14  C   UNL     1     -14.820   5.178 -42.345  1.00  0.00     0.000 C 
BRANCH  14  15
ATOM     15  C   UNL     1     -16.141   5.958 -42.533  1.00  0.00     0.000 C 
BRANCH  15  16
ATOM     16  C   UNL     1     -17.100   5.785 -41.343  1.00  0.00     0.006 C 
BRANCH  16  17
ATOM     17  C   UNL     1     -16.730   4.579 -40.470  1.00  0.00     0.053 C 
BRANCH  17  18
ATOM     18  C   UNL     1     -17.617   3.404 -40.739  1.00  0.00     0.041 C 
ATOM     19  O   UNL     1     -18.615   3.523 -41.498  1.00  0.00    -0.550 OA
ATOM     20  O   UNL     1     -17.322   2.168 -40.179  1.00  0.00    -0.550 OA
ENDBRANCH  17  18
ENDBRANCH  16  17
ENDBRANCH  15  16
ENDBRANCH  14  15
ENDBRANCH  13  14
ENDBRANCH  12  13
ENDBRANCH  11  12
ENDBRANCH   1  11
TORSDOF 15
ENDMDL
MODEL 5
REMARK VINA RESULT:    -4.296      1.413      6.830
REMARK INTER + INTRA:          -9.442
REMARK INTER:                  -8.042
REMARK INTRA:                  -1.400
REMARK UNBOUND:                -1.379
REMARK SMILES O=C([O-])CCCCCCCCCCCCCCC(=O)[O-]
REMARK SMILES IDX 10 1 9 2 8 3 7 4 6 5 5 6 4 7 2 8 1 9 3 10 11 11 12 12 13 13
REMARK SMILES IDX 14 14 15 15 16 16 17 17 18 18 19 19 20 20
REMARK H PARENT
REMARK Flexibility Score: inf
ROOT
ATOM      1  C   UNL     1     -13.606   4.261 -40.813  1.00  0.00     0.000 C 
ENDROOT
BRANCH   1   2
ATOM      2  C   UNL     1     -12.352   3.426 -41.120  1.00  0.00     0.000 C 
BRANCH   2   3
ATOM      3  C   UNL     1     -11.362   3.387 -39.941  1.00  0.00     0.000 C 
BRANCH   3   4
ATOM      4  C   UNL     1     -10.614   2.049 -39.842  1.00  0.00     0.000 C 
BRANCH   4   5
ATOM      5  C   UNL     1     -10.508   1.332 -41.200  1.00  0.00     0.000 C 
BRANCH   5   6
ATOM      6  C   UNL     1     -10.858  -0.163 -41.108  1.00  0.00     0.006 C 
BRANCH   6   7
ATOM      7  C   UNL     1     -12.314  -0.406 -40.692  1.00  0.00     0.053 C 
BRANCH   7   8
ATOM      8  C   UNL     1     -12.421  -1.647 -39.861  1.00  0.00     0.041 C 
ATOM      9  O   UNL     1     -13.550  -2.076 -39.509  1.00  0.00    -0.550 OA
ATOM     10  O   UNL     1     -11.271  -2.303 -39.439  1.00  0.00    -0.550 OA
ENDBRANCH   7   8
ENDBRANCH   6   7
ENDBRANCH   5   6
ENDBRANCH   4   5
ENDBRANCH   3   4
ENDBRANCH   2   3
ENDBRANCH   1   2
BRANCH   1  11
ATOM     11  C   UNL     1     -13.394   5.761 -41.073  1.00  0.00     0.000 C 
BRANCH  11  12
ATOM     12  C   UNL     1     -14.206   6.282 -42.274  1.00  0.00     0.000 C 
BRANCH  12  13
ATOM     13  C   UNL     1     -14.501   5.237 -43.366  1.00  0.00     0.000 C 
BRANCH  13  14
ATOM     14  C   UNL     1     -15.933   5.272 -43.933  1.00  0.00     0.000 C 
BRANCH  14  15
ATOM     15  C   UNL     1     -16.787   6.440 -43.392  1.00  0.00     0.000 C 
BRANCH  15  16
ATOM     16  C   UNL     1     -17.872   5.969 -42.409  1.00  0.00     0.006 C 
BRANCH  16  17
ATOM     17  C   UNL     1     -17.762   4.471 -42.098  1.00  0.00     0.053 C 
BRANCH  17  18
ATOM     18  C   UNL     1     -17.229   4.226 -40.721  1.00  0.00     0.041 C 
ATOM     19  O   UNL     1     -17.143   3.052 -40.274  1.00  0.00    -0.550 OA
ATOM     20  O   UNL     1     -16.794   5.291 -39.944  1.00  0.00    -0.550 OA
ENDBRANCH  17  18
ENDBRANCH  16  17
ENDBRANCH  15  16
ENDBRANCH  14  15
ENDBRANCH  13  14
ENDBRANCH  12  13
ENDBRANCH  11  12
ENDBRANCH   1  11
TORSDOF 15
ENDMDL
MODEL 6
REMARK VINA RESULT:    -4.277      3.296      7.099
REMARK INTER + INTRA:          -9.406
REMARK INTER:                  -7.522
REMARK INTRA:                  -1.884
REMARK UNBOUND:                -1.379
REMARK SMILES O=C([O-])CCCCCCCCCCCCCCC(=O)[O-]
REMARK SMILES IDX 10 1 9 2 8 3 7 4 6 5 5 6 4 7 2 8 1 9 3 10 11 11 12 12 13 13
REMARK SMILES IDX 14 14 15 15 16 16 17 17 18 18 19 19 20 20
REMARK H PARENT
REMARK Flexibility Score: inf
ROOT
ATOM      1  C   UNL     1     -10.652  -0.134 -36.817  1.00  0.00     0.000 C 
ENDROOT
BRANCH   1   2
ATOM      2  C   UNL     1      -9.402  -0.496 -37.636  1.00  0.00     0.000 C 
BRANCH   2   3
ATOM      3  C   UNL     1      -9.048   0.575 -38.684  1.00  0.00     0.000 C 
BRANCH   3   4
ATOM      4  C   UNL     1      -9.618   0.252 -40.074  1.00  0.00     0.000 C 
BRANCH   4   5
ATOM      5  C   UNL     1     -10.960   0.957 -40.338  1.00  0.00     0.000 C 
BRANCH   5   6
ATOM      6  C   UNL     1     -12.062  -0.019 -40.782  1.00  0.00     0.006 C 
BRANCH   6   7
ATOM      7  C   UNL     1     -11.978  -1.373 -40.068  1.00  0.00     0.053 C 
BRANCH   7   8
ATOM      8  C   UNL     1     -13.348  -1.920 -39.817  1.00  0.00     0.041 C 
ATOM      9  O   UNL     1     -14.364  -1.259 -40.155  1.00  0.00    -0.550 OA
ATOM     10  O   UNL     1     -13.504  -3.140 -39.170  1.00  0.00    -0.550 OA
ENDBRANCH   7   8
ENDBRANCH   6   7
ENDBRANCH   5   6
ENDBRANCH   4   5
ENDBRANCH   3   4
ENDBRANCH   2   3
ENDBRANCH   1   2
BRANCH   1  11
ATOM     11  C   UNL     1     -10.305   0.514 -35.466  1.00  0.00     0.000 C 
BRANCH  11  12
ATOM     12  C   UNL     1     -10.669   2.009 -35.408  1.00  0.00     0.000 C 
BRANCH  12  13
ATOM     13  C   UNL     1      -9.486   2.978 -35.597  1.00  0.00     0.000 C 
BRANCH  13  14
ATOM     14  C   UNL     1      -9.632   3.964 -36.772  1.00  0.00     0.000 C 
BRANCH  14  15
ATOM     15  C   UNL     1     -10.690   3.538 -37.813  1.00  0.00     0.000 C 
BRANCH  15  16
ATOM     16  C   UNL     1     -11.441   4.738 -38.414  1.00  0.00     0.006 C 
BRANCH  16  17
ATOM     17  C   UNL     1     -11.334   4.783 -39.944  1.00  0.00     0.053 C 
BRANCH  17  18
ATOM     18  C   UNL     1     -12.679   4.733 -40.598  1.00  0.00     0.041 C 
ATOM     19  O   UNL     1     -13.117   5.734 -41.223  1.00  0.00    -0.550 OA
ATOM     20  O   UNL     1     -13.433   3.568 -40.548  1.00  0.00    -0.550 OA
ENDBRANCH  17  18
ENDBRANCH  16  17
ENDBRANCH  15  16
ENDBRANCH  14  15
ENDBRANCH  13  14
ENDBRANCH  12  13
ENDBRANCH  11  12
ENDBRANCH   1  11
TORSDOF 15
ENDMDL
MODEL 7
REMARK VINA RESULT:    -4.274      1.570      2.169
REMARK INTER + INTRA:          -9.401
REMARK INTER:                  -8.239
REMARK INTRA:                  -1.162
REMARK UNBOUND:                -1.379
REMARK SMILES O=C([O-])CCCCCCCCCCCCCCC(=O)[O-]
REMARK SMILES IDX 10 1 9 2 8 3 7 4 6 5 5 6 4 7 2 8 1 9 3 10 11 11 12 12 13 13
REMARK SMILES IDX 14 14 15 15 16 16 17 17 18 18 19 19 20 20
REMARK H PARENT
REMARK Flexibility Score: inf
ROOT
ATOM      1  C   UNL     1     -12.565   5.225 -42.695  1.00  0.00     0.000 C 
ENDROOT
BRANCH   1   2
ATOM      2  C   UNL     1     -12.864   4.626 -44.079  1.00  0.00     0.000 C 
BRANCH   2   3
ATOM      3  C   UNL     1     -13.755   5.539 -44.942  1.00  0.00     0.000 C 
BRANCH   3   4
ATOM      4  C   UNL     1     -15.052   4.847 -45.388  1.00  0.00     0.000 C 
BRANCH   4   5
ATOM      5  C   UNL     1     -16.297   5.422 -44.689  1.00  0.00     0.000 C 
BRANCH   5   6
ATOM      6  C   UNL     1     -16.634   4.685 -43.383  1.00  0.00     0.006 C 
BRANCH   6   7
ATOM      7  C   UNL     1     -16.252   5.487 -42.133  1.00  0.00     0.053 C 
BRANCH   7   8
ATOM      8  C   UNL     1     -17.141   5.125 -40.985  1.00  0.00     0.041 C 
ATOM      9  O   UNL     1     -17.271   5.912 -40.013  1.00  0.00    -0.550 OA
ATOM     10  O   UNL     1     -17.792   3.896 -40.969  1.00  0.00    -0.550 OA
ENDBRANCH   7   8
ENDBRANCH   6   7
ENDBRANCH   5   6
ENDBRANCH   4   5
ENDBRANCH   3   4
ENDBRANCH   2   3
ENDBRANCH   1   2
BRANCH   1  11
ATOM     11  C   UNL     1     -12.739   4.202 -41.560  1.00  0.00     0.000 C 
BRANCH  11  12
ATOM     12  C   UNL     1     -11.562   3.215 -41.458  1.00  0.00     0.000 C 
BRANCH  12  13
ATOM     13  C   UNL     1     -11.954   1.760 -41.136  1.00  0.00     0.000 C 
BRANCH  13  14
ATOM     14  C   UNL     1     -10.935   0.985 -40.278  1.00  0.00     0.000 C 
BRANCH  14  15
ATOM     15  C   UNL     1     -10.242  -0.172 -41.030  1.00  0.00     0.000 C 
BRANCH  15  16
ATOM     16  C   UNL     1     -10.789  -1.551 -40.621  1.00  0.00     0.006 C 
BRANCH  16  17
ATOM     17  C   UNL     1     -11.676  -1.475 -39.372  1.00  0.00     0.053 C 
BRANCH  17  18
ATOM     18  C   UNL     1     -13.078  -1.914 -39.658  1.00  0.00     0.041 C 
ATOM     19  O   UNL     1     -13.853  -1.173 -40.319  1.00  0.00    -0.550 OA
ATOM     20  O   UNL     1     -13.520  -3.157 -39.224  1.00  0.00    -0.550 OA
ENDBRANCH  17  18
ENDBRANCH  16  17
ENDBRANCH  15  16
ENDBRANCH  14  15
ENDBRANCH  13  14
ENDBRANCH  12  13
ENDBRANCH  11  12
ENDBRANCH   1  11
TORSDOF 15
ENDMDL
MODEL 8
REMARK VINA RESULT:    -4.271      1.461      7.085
REMARK INTER + INTRA:          -9.396
REMARK INTER:                  -8.361
REMARK INTRA:                  -1.035
REMARK UNBOUND:                -1.379
REMARK SMILES O=C([O-])CCCCCCCCCCCCCCC(=O)[O-]
REMARK SMILES IDX 10 1 9 2 8 3 7 4 6 5 5 6 4 7 2 8 1 9 3 10 11 11 12 12 13 13
REMARK SMILES IDX 14 14 15 15 16 16 17 17 18 18 19 19 20 20
REMARK H PARENT
REMARK Flexibility Score: inf
ROOT
ATOM      1  C   UNL     1      -9.876   2.052 -40.566  1.00  0.00     0.000 C 
ENDROOT
BRANCH   1   2
ATOM      2  C   UNL     1      -8.567   1.273 -40.773  1.00  0.00     0.000 C 
BRANCH   2   3
ATOM      3  C   UNL     1      -8.577  -0.101 -40.077  1.00  0.00     0.000 C 
BRANCH   3   4
ATOM      4  C   UNL     1      -8.564  -1.268 -41.076  1.00  0.00     0.000 C 
BRANCH   4   5
ATOM      5  C   UNL     1      -9.978  -1.779 -41.403  1.00  0.00     0.000 C 
BRANCH   5   6
ATOM      6  C   UNL     1     -10.898  -1.800 -40.171  1.00  0.00     0.006 C 
BRANCH   6   7
ATOM      7  C   UNL     1     -12.140  -0.916 -40.343  1.00  0.00     0.053 C 
BRANCH   7   8
ATOM      8  C   UNL     1     -13.369  -1.649 -39.907  1.00  0.00     0.041 C 
ATOM      9  O   UNL     1     -13.272  -2.664 -39.169  1.00  0.00    -0.550 OA
ATOM     10  O   UNL     1     -14.620  -1.238 -40.353  1.00  0.00    -0.550 OA
ENDBRANCH   7   8
ENDBRANCH   6   7
ENDBRANCH   5   6
ENDBRANCH   4   5
ENDBRANCH   3   4
ENDBRANCH   2   3
ENDBRANCH   1   2
BRANCH   1  11
ATOM     11  C   UNL     1      -9.647   3.566 -40.435  1.00  0.00     0.000 C 
BRANCH  11  12
ATOM     12  C   UNL     1     -10.899   4.394 -40.782  1.00  0.00     0.000 C 
BRANCH  12  13
ATOM     13  C   UNL     1     -12.121   3.573 -41.235  1.00  0.00     0.000 C 
BRANCH  13  14
ATOM     14  C   UNL     1     -13.487   4.168 -40.842  1.00  0.00     0.000 C 
BRANCH  14  15
ATOM     15  C   UNL     1     -14.111   5.066 -41.933  1.00  0.00     0.000 C 
BRANCH  15  16
ATOM     16  C   UNL     1     -15.601   5.350 -41.679  1.00  0.00     0.006 C 
BRANCH  16  17
ATOM     17  C   UNL     1     -16.166   4.504 -40.531  1.00  0.00     0.053 C 
BRANCH  17  18
ATOM     18  C   UNL     1     -17.485   3.891 -40.888  1.00  0.00     0.041 C 
ATOM     19  O   UNL     1     -18.257   4.473 -41.694  1.00  0.00    -0.550 OA
ATOM     20  O   UNL     1     -17.846   2.660 -40.356  1.00  0.00    -0.550 OA
ENDBRANCH  17  18
ENDBRANCH  16  17
ENDBRANCH  15  16
ENDBRANCH  14  15
ENDBRANCH  13  14
ENDBRANCH  12  13
ENDBRANCH  11  12
ENDBRANCH   1  11
TORSDOF 15
ENDMDL
MODEL 9
REMARK VINA RESULT:    -4.244      3.362      5.847
REMARK INTER + INTRA:          -9.345
REMARK INTER:                  -7.108
REMARK INTRA:                  -2.237
REMARK UNBOUND:                -1.379
REMARK SMILES O=C([O-])CCCCCCCCCCCCCCC(=O)[O-]
REMARK SMILES IDX 10 1 9 2 8 3 7 4 6 5 5 6 4 7 2 8 1 9 3 10 11 11 12 12 13 13
REMARK SMILES IDX 14 14 15 15 16 16 17 17 18 18 19 19 20 20
REMARK H PARENT
REMARK Flexibility Score: inf
ROOT
ATOM      1  C   UNL     1     -10.578  -0.031 -36.581  1.00  0.00     0.000 C 
ENDROOT
BRANCH   1   2
ATOM      2  C   UNL     1     -10.132   1.264 -35.882  1.00  0.00     0.000 C 
BRANCH   2   3
ATOM      3  C   UNL     1     -10.176   2.488 -36.816  1.00  0.00     0.000 C 
BRANCH   3   4
ATOM      4  C   UNL     1     -10.519   2.112 -38.266  1.00  0.00     0.000 C 
BRANCH   4   5
ATOM      5  C   UNL     1      -9.410   2.511 -39.255  1.00  0.00     0.000 C 
BRANCH   5   6
ATOM      6  C   UNL     1      -9.961   2.882 -40.642  1.00  0.00     0.006 C 
BRANCH   6   7
ATOM      7  C   UNL     1     -11.324   2.241 -40.930  1.00  0.00     0.053 C 
BRANCH   7   8
ATOM      8  C   UNL     1     -12.305   3.276 -41.384  1.00  0.00     0.041 C 
ATOM      9  O   UNL     1     -13.197   3.690 -40.599  1.00  0.00    -0.550 OA
ATOM     10  O   UNL     1     -12.261   3.751 -42.690  1.00  0.00    -0.550 OA
ENDBRANCH   7   8
ENDBRANCH   6   7
ENDBRANCH   5   6
ENDBRANCH   4   5
ENDBRANCH   3   4
ENDBRANCH   2   3
ENDBRANCH   1   2
BRANCH   1  11
ATOM     11  C   UNL     1      -9.479  -1.106 -36.587  1.00  0.00     0.000 C 
BRANCH  11  12
ATOM     12  C   UNL     1      -8.448  -0.903 -37.713  1.00  0.00     0.000 C 
BRANCH  12  13
ATOM     13  C   UNL     1      -8.653  -1.790 -38.956  1.00  0.00     0.000 C 
BRANCH  13  14
ATOM     14  C   UNL     1      -8.788  -1.027 -40.287  1.00  0.00     0.000 C 
BRANCH  14  15
ATOM     15  C   UNL     1     -10.146  -1.243 -40.992  1.00  0.00     0.000 C 
BRANCH  15  16
ATOM     16  C   UNL     1     -11.261  -1.641 -40.010  1.00  0.00     0.006 C 
BRANCH  16  17
ATOM     17  C   UNL     1     -12.603  -0.986 -40.360  1.00  0.00     0.053 C 
BRANCH  17  18
ATOM     18  C   UNL     1     -13.761  -1.873 -40.021  1.00  0.00     0.041 C 
ATOM     19  O   UNL     1     -13.588  -2.898 -39.312  1.00  0.00    -0.550 OA
ATOM     20  O   UNL     1     -15.038  -1.547 -40.459  1.00  0.00    -0.550 OA
ENDBRANCH  17  18
ENDBRANCH  16  17
ENDBRANCH  15  16
ENDBRANCH  14  15
ENDBRANCH  13  14
ENDBRANCH  12  13
ENDBRANCH  11  12
ENDBRANCH   1  11
TORSDOF 15
ENDMDL
