MODEL 1
REMARK VINA RESULT:    -4.658      0.000      0.000
REMARK INTER + INTRA:          -5.837
REMARK INTER:                  -5.747
REMARK INTRA:                  -0.090
REMARK UNBOUND:                -0.090
REMARK SMILES CCCCCC(=O)[O-]
REMARK SMILES IDX 4 1 5 2 6 3 7 4 8 5 3 6 2 7 1 8
REMARK H PARENT
REMARK Flexibility Score: inf
ROOT
ATOM      1  C   UNL     1       2.290   6.736  18.475  1.00  0.00     0.006 C 
ENDROOT
BRANCH   1   2
ATOM      2  C   UNL     1       2.296   5.465  19.335  1.00  0.00     0.053 C 
BRANCH   2   3
ATOM      3  C   UNL     1       2.800   4.279  18.572  1.00  0.00     0.041 C 
ATOM      4  O   UNL     1       2.709   4.248  17.317  1.00  0.00    -0.550 OA
ATOM      5  O   UNL     1       3.340   3.193  19.250  1.00  0.00    -0.550 OA
ENDBRANCH   2   3
ENDBRANCH   1   2
BRANCH   1   6
ATOM      6  C   UNL     1       2.063   8.004  19.313  1.00  0.00     0.000 C 
BRANCH   6   7
ATOM      7  C   UNL     1       2.541   9.251  18.562  1.00  0.00    -0.003 C 
ATOM      8  C   UNL     1       3.311   8.874  17.299  1.00  0.00     0.004 C 
ENDBRANCH   6   7
ENDBRANCH   1   6
TORSDOF 4
ENDMDL
MODEL 2
REMARK VINA RESULT:    -4.390      3.908      4.897
REMARK INTER + INTRA:          -5.506
REMARK INTER:                  -5.460
REMARK INTRA:                  -0.046
REMARK UNBOUND:                -0.090
REMARK SMILES CCCCCC(=O)[O-]
REMARK SMILES IDX 4 1 5 2 6 3 7 4 8 5 3 6 2 7 1 8
REMARK H PARENT
REMARK Flexibility Score: inf
ROOT
ATOM      1  C   UNL     1       4.135   8.753  16.209  1.00  0.00     0.006 C 
ENDROOT
BRANCH   1   2
ATOM      2  C   UNL     1       5.046   7.716  15.538  1.00  0.00     0.053 C 
BRANCH   2   3
ATOM      3  C   UNL     1       5.272   8.028  14.091  1.00  0.00     0.041 C 
ATOM      4  O   UNL     1       5.147   9.208  13.670  1.00  0.00    -0.550 OA
ATOM      5  O   UNL     1       5.588   7.009  13.201  1.00  0.00    -0.550 OA
ENDBRANCH   2   3
ENDBRANCH   1   2
BRANCH   1   6
ATOM      6  C   UNL     1       3.351   8.161  17.391  1.00  0.00     0.000 C 
BRANCH   6   7
ATOM      7  C   UNL     1       2.608   9.257  18.161  1.00  0.00    -0.003 C 
ATOM      8  C   UNL     1       2.092   8.738  19.500  1.00  0.00     0.004 C 
ENDBRANCH   6   7
ENDBRANCH   1   6
TORSDOF 4
ENDMDL
MODEL 3
REMARK VINA RESULT:    -4.316      2.762      4.641
REMARK INTER + INTRA:          -5.416
REMARK INTER:                  -5.363
REMARK INTRA:                  -0.053
REMARK UNBOUND:                -0.090
REMARK SMILES CCCCCC(=O)[O-]
REMARK SMILES IDX 4 1 5 2 6 3 7 4 8 5 3 6 2 7 1 8
REMARK H PARENT
REMARK Flexibility Score: inf
ROOT
ATOM      1  C   UNL     1       2.213   6.460  18.630  1.00  0.00     0.006 C 
ENDROOT
BRANCH   1   2
ATOM      2  C   UNL     1       2.132   7.850  19.276  1.00  0.00     0.053 C 
BRANCH   2   3
ATOM      3  C   UNL     1       2.421   8.940  18.290  1.00  0.00     0.041 C 
ATOM      4  O   UNL     1       3.247   8.749  17.360  1.00  0.00    -0.550 OA
ATOM      5  O   UNL     1       1.803  10.177  18.419  1.00  0.00    -0.550 OA
ENDBRANCH   2   3
ENDBRANCH   1   2
BRANCH   1   6
ATOM      6  C   UNL     1       2.453   5.350  19.665  1.00  0.00     0.000 C 
BRANCH   6   7
ATOM      7  C   UNL     1       1.967   3.995  19.139  1.00  0.00    -0.003 C 
ATOM      8  C   UNL     1       3.136   3.045  18.898  1.00  0.00     0.004 C 
ENDBRANCH   6   7
ENDBRANCH   1   6
TORSDOF 4
ENDMDL
MODEL 4
REMARK VINA RESULT:    -4.170      2.033      3.175
REMARK INTER + INTRA:          -5.235
REMARK INTER:                  -5.126
REMARK INTRA:                  -0.109
REMARK UNBOUND:                -0.090
REMARK SMILES CCCCCC(=O)[O-]
REMARK SMILES IDX 4 1 5 2 6 3 7 4 8 5 3 6 2 7 1 8
REMARK H PARENT
REMARK Flexibility Score: inf
ROOT
ATOM      1  C   UNL     1       3.102   3.268  19.087  1.00  0.00     0.006 C 
ENDROOT
BRANCH   1   2
ATOM      2  C   UNL     1       3.165   3.242  17.554  1.00  0.00     0.053 C 
BRANCH   2   3
ATOM      3  C   UNL     1       3.807   1.988  17.044  1.00  0.00     0.041 C 
ATOM      4  O   UNL     1       3.661   1.646  15.842  1.00  0.00    -0.550 OA
ATOM      5  O   UNL     1       4.538   1.180  17.906  1.00  0.00    -0.550 OA
ENDBRANCH   2   3
ENDBRANCH   1   2
BRANCH   1   6
ATOM      6  C   UNL     1       2.696   4.647  19.629  1.00  0.00     0.000 C 
BRANCH   6   7
ATOM      7  C   UNL     1       2.148   5.538  18.510  1.00  0.00    -0.003 C 
ATOM      8  C   UNL     1       2.203   7.012  18.900  1.00  0.00     0.004 C 
ENDBRANCH   6   7
ENDBRANCH   1   6
TORSDOF 4
ENDMDL
MODEL 5
REMARK VINA RESULT:    -4.144      3.655      4.807
REMARK INTER + INTRA:          -5.203
REMARK INTER:                  -5.153
REMARK INTRA:                  -0.050
REMARK UNBOUND:                -0.090
REMARK SMILES CCCCCC(=O)[O-]
REMARK SMILES IDX 4 1 5 2 6 3 7 4 8 5 3 6 2 7 1 8
REMARK H PARENT
REMARK Flexibility Score: inf
ROOT
ATOM      1  C   UNL     1       3.818   8.837  16.646  1.00  0.00     0.006 C 
ENDROOT
BRANCH   1   2
ATOM      2  C   UNL     1       3.008   8.156  17.758  1.00  0.00     0.053 C 
BRANCH   2   3
ATOM      3  C   UNL     1       2.612   9.122  18.831  1.00  0.00     0.041 C 
ATOM      4  O   UNL     1       1.481   9.033  19.377  1.00  0.00    -0.550 OA
ATOM      5  O   UNL     1       3.478  10.143  19.204  1.00  0.00    -0.550 OA
ENDBRANCH   2   3
ENDBRANCH   1   2
BRANCH   1   6
ATOM      6  C   UNL     1       4.698   7.842  15.874  1.00  0.00     0.000 C 
BRANCH   6   7
ATOM      7  C   UNL     1       5.112   8.415  14.515  1.00  0.00    -0.003 C 
ATOM      8  C   UNL     1       5.593   7.314  13.574  1.00  0.00     0.004 C 
ENDBRANCH   6   7
ENDBRANCH   1   6
TORSDOF 4
ENDMDL
MODEL 6
REMARK VINA RESULT:    -4.002      2.826      4.049
REMARK INTER + INTRA:          -5.027
REMARK INTER:                  -4.945
REMARK INTRA:                  -0.083
REMARK UNBOUND:                -0.090
REMARK SMILES CCCCCC(=O)[O-]
REMARK SMILES IDX 4 1 5 2 6 3 7 4 8 5 3 6 2 7 1 8
REMARK H PARENT
REMARK Flexibility Score: inf
ROOT
ATOM      1  C   UNL     1       3.005   3.567  17.719  1.00  0.00     0.006 C 
ENDROOT
BRANCH   1   2
ATOM      2  C   UNL     1       3.548   2.376  16.919  1.00  0.00     0.053 C 
BRANCH   2   3
ATOM      3  C   UNL     1       2.900   2.267  15.573  1.00  0.00     0.041 C 
ATOM      4  O   UNL     1       3.061   3.176  14.717  1.00  0.00    -0.550 OA
ATOM      5  O   UNL     1       2.090   1.178  15.275  1.00  0.00    -0.550 OA
ENDBRANCH   2   3
ENDBRANCH   1   2
BRANCH   1   6
ATOM      6  C   UNL     1       3.107   3.344  19.236  1.00  0.00     0.000 C 
BRANCH   6   7
ATOM      7  C   UNL     1       2.743   4.619  20.004  1.00  0.00    -0.003 C 
ATOM      8  C   UNL     1       2.253   5.712  19.059  1.00  0.00     0.004 C 
ENDBRANCH   6   7
ENDBRANCH   1   6
TORSDOF 4
ENDMDL
MODEL 7
REMARK VINA RESULT:    -3.926      3.064      4.224
REMARK INTER + INTRA:          -4.934
REMARK INTER:                  -4.883
REMARK INTRA:                  -0.051
REMARK UNBOUND:                -0.090
REMARK SMILES CCCCCC(=O)[O-]
REMARK SMILES IDX 4 1 5 2 6 3 7 4 8 5 3 6 2 7 1 8
REMARK H PARENT
REMARK Flexibility Score: inf
ROOT
ATOM      1  C   UNL     1       3.105   3.832  16.558  1.00  0.00     0.006 C 
ENDROOT
BRANCH   1   2
ATOM      2  C   UNL     1       2.712   4.736  17.734  1.00  0.00     0.053 C 
BRANCH   2   3
ATOM      3  C   UNL     1       2.959   4.073  19.054  1.00  0.00     0.041 C 
ATOM      4  O   UNL     1       2.825   4.722  20.124  1.00  0.00    -0.550 OA
ATOM      5  O   UNL     1       3.371   2.747  19.101  1.00  0.00    -0.550 OA
ENDBRANCH   2   3
ENDBRANCH   1   2
BRANCH   1   6
ATOM      6  C   UNL     1       3.754   4.619  15.409  1.00  0.00     0.000 C 
BRANCH   6   7
ATOM      7  C   UNL     1       3.760   3.798  14.116  1.00  0.00    -0.003 C 
ATOM      8  C   UNL     1       4.089   4.671  12.909  1.00  0.00     0.004 C 
ENDBRANCH   6   7
ENDBRANCH   1   6
TORSDOF 4
ENDMDL
MODEL 8
REMARK VINA RESULT:    -3.870      2.503      3.812
REMARK INTER + INTRA:          -4.865
REMARK INTER:                  -4.634
REMARK INTRA:                  -0.231
REMARK UNBOUND:                -0.090
REMARK SMILES CCCCCC(=O)[O-]
REMARK SMILES IDX 4 1 5 2 6 3 7 4 8 5 3 6 2 7 1 8
REMARK H PARENT
REMARK Flexibility Score: inf
ROOT
ATOM      1  C   UNL     1       1.908   5.224  17.897  1.00  0.00     0.006 C 
ENDROOT
BRANCH   1   2
ATOM      2  C   UNL     1       3.085   5.059  16.926  1.00  0.00     0.053 C 
BRANCH   2   3
ATOM      3  C   UNL     1       2.973   3.799  16.125  1.00  0.00     0.041 C 
ATOM      4  O   UNL     1       2.924   2.682  16.705  1.00  0.00    -0.550 OA
ATOM      5  O   UNL     1       2.958   3.854  14.737  1.00  0.00    -0.550 OA
ENDBRANCH   2   3
ENDBRANCH   1   2
BRANCH   1   6
ATOM      6  C   UNL     1       2.373   5.489  19.337  1.00  0.00     0.000 C 
BRANCH   6   7
ATOM      7  C   UNL     1       2.826   4.193  20.016  1.00  0.00    -0.003 C 
ATOM      8  C   UNL     1       1.727   3.135  19.975  1.00  0.00     0.004 C 
ENDBRANCH   6   7
ENDBRANCH   1   6
TORSDOF 4
ENDMDL
MODEL 9
REMARK VINA RESULT:    -3.766      3.160      4.439
REMARK INTER + INTRA:          -4.737
REMARK INTER:                  -4.629
REMARK INTRA:                  -0.107
REMARK UNBOUND:                -0.090
REMARK SMILES CCCCCC(=O)[O-]
REMARK SMILES IDX 4 1 5 2 6 3 7 4 8 5 3 6 2 7 1 8
REMARK H PARENT
REMARK Flexibility Score: inf
ROOT
ATOM      1  C   UNL     1       2.894   4.643  17.146  1.00  0.00     0.006 C 
ENDROOT
BRANCH   1   2
ATOM      2  C   UNL     1       3.017   3.445  18.096  1.00  0.00     0.053 C 
BRANCH   2   3
ATOM      3  C   UNL     1       2.501   3.763  19.465  1.00  0.00     0.041 C 
ATOM      4  O   UNL     1       2.874   4.811  20.055  1.00  0.00    -0.550 OA
ATOM      5  O   UNL     1       1.633   2.886  20.104  1.00  0.00    -0.550 OA
ENDBRANCH   2   3
ENDBRANCH   1   2
BRANCH   1   6
ATOM      6  C   UNL     1       3.250   4.278  15.697  1.00  0.00     0.000 C 
BRANCH   6   7
ATOM      7  C   UNL     1       3.348   2.759  15.523  1.00  0.00    -0.003 C 
ATOM      8  C   UNL     1       4.124   2.397  14.259  1.00  0.00     0.004 C 
ENDBRANCH   6   7
ENDBRANCH   1   6
TORSDOF 4
ENDMDL
