MODEL 1
REMARK VINA RESULT:    -5.214      0.000      0.000
REMARK INTER + INTRA:          -8.585
REMARK INTER:                  -7.957
REMARK INTRA:                  -0.628
REMARK UNBOUND:                -0.628
REMARK SMILES CC1=CCC[C@@H](C)C(=O)C[C@@H](C(C)C)C(=O)C1
REMARK SMILES IDX 8 1 9 2 6 3 7 4 5 5 4 6 3 7 2 8 1 9 10 11 11 12 15 13 16 14
REMARK SMILES IDX 17 15 12 17 13 18 14 19
REMARK H PARENT
REMARK Flexibility Score: 70.00
ROOT
ATOM      1  C   UNL     1     -12.560 -16.680  31.683  1.00  0.00     0.136 C 
ATOM      2  O   UNL     1     -13.520 -17.398  31.921  1.00  0.00    -0.299 OA
ENDROOT
BRANCH   1   3
ATOM      3  C   UNL     1     -11.216 -16.992  32.358  1.00  0.00     0.053 C 
ATOM      4  C   UNL     1     -10.109 -16.048  31.876  1.00  0.00     0.016 C 
BRANCH   3   5
ATOM      5  C   UNL     1     -10.958 -18.437  31.999  1.00  0.00     0.015 C 
BRANCH   5   6
ATOM      6  C   UNL     1     -10.515 -19.029  30.696  1.00  0.00     0.028 C 
BRANCH   6   7
ATOM      7  C   UNL     1     -11.748 -19.642  30.017  1.00  0.00    -0.028 C 
ATOM      8  C   UNL     1     -12.433 -19.234  28.883  1.00  0.00    -0.070 CG0
ATOM      9  C   UNL     1     -13.691 -20.012  28.568  1.00  0.00     0.039 C 
ATOM     10  G   UNL     1     -12.050 -18.102  27.885  1.00  0.00     0.000 G0
ENDBRANCH   6   7
ENDBRANCH   5   6
ENDBRANCH   3   5
ENDBRANCH   1   3
BRANCH   1  11
ATOM     11  C   UNL     1     -12.732 -15.512  30.697  1.00  0.00     0.087 C 
BRANCH  11  12
ATOM     12  C   UNL     1     -12.992 -15.896  29.187  1.00  0.00     0.066 C 
BRANCH  12  13
ATOM     13  C   UNL     1     -11.866 -16.690  28.476  1.00  0.00     0.140 C 
ATOM     14  O   UNL     1     -10.741 -16.215  28.484  1.00  0.00    -0.299 OA
BRANCH  13  15
ATOM     15  C   UNL     1     -12.048 -18.096  27.876  1.00  0.00     0.106 CG0
ATOM     16  G   UNL     1     -12.430 -19.209  28.896  1.00  0.00     0.000 G0
ENDBRANCH  13  15
ENDBRANCH  12  13
BRANCH  12  17
ATOM     17  C   UNL     1     -13.376 -14.654  28.315  1.00  0.00    -0.006 C 
ATOM     18  C   UNL     1     -14.359 -13.699  29.019  1.00  0.00     0.008 C 
ATOM     19  C   UNL     1     -13.996 -15.084  26.969  1.00  0.00     0.008 C 
ENDBRANCH  12  17
ENDBRANCH  11  12
ENDBRANCH   1  11
TORSDOF 1
ENDMDL
MODEL 2
REMARK VINA RESULT:    -5.005      1.362      2.502
REMARK INTER + INTRA:          -8.267
REMARK INTER:                  -7.874
REMARK INTRA:                  -0.393
REMARK UNBOUND:                -0.628
REMARK SMILES CC1=CCC[C@@H](C)C(=O)C[C@@H](C(C)C)C(=O)C1
REMARK SMILES IDX 8 1 9 2 6 3 7 4 5 5 4 6 3 7 2 8 1 9 10 11 11 12 15 13 16 14
REMARK SMILES IDX 17 15 12 17 13 18 14 19
REMARK H PARENT
REMARK Flexibility Score: 70.00
ROOT
ATOM      1  C   UNL     1     -12.611 -17.886  31.550  1.00  0.00     0.136 C 
ATOM      2  O   UNL     1     -13.638 -18.101  32.176  1.00  0.00    -0.299 OA
ENDROOT
BRANCH   1   3
ATOM      3  C   UNL     1     -11.700 -19.069  31.191  1.00  0.00     0.053 C 
ATOM      4  C   UNL     1     -10.301 -18.601  30.780  1.00  0.00     0.016 C 
BRANCH   3   5
ATOM      5  C   UNL     1     -12.441 -19.768  30.074  1.00  0.00     0.015 C 
BRANCH   5   6
ATOM      6  C   UNL     1     -13.240 -19.184  28.950  1.00  0.00     0.028 C 
BRANCH   6   7
ATOM      7  C   UNL     1     -12.254 -18.655  27.900  1.00  0.00    -0.028 C 
ATOM      8  C   UNL     1     -12.228 -17.439  27.235  1.00  0.00    -0.070 CG0
ATOM      9  C   UNL     1     -11.170 -17.303  26.165  1.00  0.00     0.039 C 
ATOM     10  G   UNL     1     -13.130 -16.193  27.480  1.00  0.00     0.000 G0
ENDBRANCH   6   7
ENDBRANCH   5   6
ENDBRANCH   3   5
ENDBRANCH   1   3
BRANCH   1  11
ATOM     11  C   UNL     1     -12.289 -16.443  31.125  1.00  0.00     0.087 C 
BRANCH  11  12
ATOM     12  C   UNL     1     -13.325 -15.744  30.160  1.00  0.00     0.066 C 
BRANCH  12  13
ATOM     13  C   UNL     1     -12.810 -15.382  28.743  1.00  0.00     0.140 C 
ATOM     14  O   UNL     1     -12.012 -14.463  28.645  1.00  0.00    -0.299 OA
BRANCH  13  15
ATOM     15  C   UNL     1     -13.138 -16.188  27.473  1.00  0.00     0.106 CG0
ATOM     16  G   UNL     1     -12.244 -17.440  27.233  1.00  0.00     0.000 G0
ENDBRANCH  13  15
ENDBRANCH  12  13
BRANCH  12  17
ATOM     17  C   UNL     1     -13.983 -14.479  30.808  1.00  0.00    -0.006 C 
ATOM     18  C   UNL     1     -14.749 -14.792  32.107  1.00  0.00     0.008 C 
ATOM     19  C   UNL     1     -14.952 -13.786  29.827  1.00  0.00     0.008 C 
ENDBRANCH  12  17
ENDBRANCH  11  12
ENDBRANCH   1  11
TORSDOF 1
ENDMDL
MODEL 3
REMARK VINA RESULT:    -4.886      1.755      2.675
REMARK INTER + INTRA:          -8.085
REMARK INTER:                  -7.559
REMARK INTRA:                  -0.526
REMARK UNBOUND:                -0.628
REMARK SMILES CC1=CCC[C@@H](C)C(=O)C[C@@H](C(C)C)C(=O)C1
REMARK SMILES IDX 8 1 9 2 6 3 7 4 5 5 4 6 3 7 2 8 1 9 10 11 11 12 15 13 16 14
REMARK SMILES IDX 17 15 12 17 13 18 14 19
REMARK H PARENT
REMARK Flexibility Score: 70.00
ROOT
ATOM      1  C   UNL     1     -13.327 -15.500  30.624  1.00  0.00     0.136 C 
ATOM      2  O   UNL     1     -14.190 -14.642  30.506  1.00  0.00    -0.299 OA
ENDROOT
BRANCH   1   3
ATOM      3  C   UNL     1     -13.066 -16.102  32.012  1.00  0.00     0.053 C 
ATOM      4  C   UNL     1     -13.901 -15.411  33.094  1.00  0.00     0.016 C 
BRANCH   3   5
ATOM      5  C   UNL     1     -11.578 -15.922  32.210  1.00  0.00     0.015 C 
BRANCH   5   6
ATOM      6  C   UNL     1     -10.467 -16.909  32.017  1.00  0.00     0.028 C 
BRANCH   6   7
ATOM      7  C   UNL     1     -11.077 -18.316  32.061  1.00  0.00    -0.028 C 
ATOM      8  C   UNL     1     -11.533 -19.122  31.029  1.00  0.00    -0.070 CG0
ATOM      9  C   UNL     1     -12.192 -20.414  31.453  1.00  0.00     0.039 C 
ATOM     10  G   UNL     1     -11.418 -18.873  29.496  1.00  0.00     0.000 G0
ENDBRANCH   6   7
ENDBRANCH   5   6
ENDBRANCH   3   5
ENDBRANCH   1   3
BRANCH   1  11
ATOM     11  C   UNL     1     -12.561 -15.960  29.372  1.00  0.00     0.087 C 
BRANCH  11  12
ATOM     12  C   UNL     1     -13.235 -17.099  28.510  1.00  0.00     0.066 C 
BRANCH  12  13
ATOM     13  C   UNL     1     -12.723 -18.541  28.755  1.00  0.00     0.140 C 
ATOM     14  O   UNL     1     -13.348 -19.461  28.249  1.00  0.00    -0.299 OA
BRANCH  13  15
ATOM     15  C   UNL     1     -11.411 -18.880  29.484  1.00  0.00     0.106 CG0
ATOM     16  G   UNL     1     -11.546 -19.126  31.016  1.00  0.00     0.000 G0
ENDBRANCH  13  15
ENDBRANCH  12  13
BRANCH  12  17
ATOM     17  C   UNL     1     -13.191 -16.790  26.976  1.00  0.00    -0.006 C 
ATOM     18  C   UNL     1     -11.761 -16.610  26.434  1.00  0.00     0.008 C 
ATOM     19  C   UNL     1     -14.003 -15.523  26.636  1.00  0.00     0.008 C 
ENDBRANCH  12  17
ENDBRANCH  11  12
ENDBRANCH   1  11
TORSDOF 1
ENDMDL
MODEL 4
REMARK VINA RESULT:    -4.879      2.006      5.082
REMARK INTER + INTRA:          -8.074
REMARK INTER:                  -7.725
REMARK INTRA:                  -0.349
REMARK UNBOUND:                -0.628
REMARK SMILES CC1=CCC[C@@H](C)C(=O)C[C@@H](C(C)C)C(=O)C1
REMARK SMILES IDX 8 1 9 2 6 3 7 4 5 5 4 6 3 7 2 8 1 9 10 11 11 12 15 13 16 14
REMARK SMILES IDX 17 15 12 17 13 18 14 19
REMARK H PARENT
REMARK Flexibility Score: 70.00
ROOT
ATOM      1  C   UNL     1     -11.008 -17.233  28.412  1.00  0.00     0.136 C 
ATOM      2  O   UNL     1      -9.927 -16.686  28.247  1.00  0.00    -0.299 OA
ENDROOT
BRANCH   1   3
ATOM      3  C   UNL     1     -12.053 -17.163  27.288  1.00  0.00     0.053 C 
ATOM      4  C   UNL     1     -11.395 -17.004  25.914  1.00  0.00     0.016 C 
BRANCH   3   5
ATOM      5  C   UNL     1     -12.916 -15.984  27.671  1.00  0.00     0.015 C 
BRANCH   5   6
ATOM      6  C   UNL     1     -12.539 -14.718  28.378  1.00  0.00     0.028 C 
BRANCH   6   7
ATOM      7  C   UNL     1     -13.660 -14.386  29.374  1.00  0.00    -0.028 C 
ATOM      8  C   UNL     1     -13.876 -14.856  30.659  1.00  0.00    -0.070 CG0
ATOM      9  C   UNL     1     -15.163 -14.403  31.311  1.00  0.00     0.039 C 
ATOM     10  G   UNL     1     -12.945 -15.761  31.519  1.00  0.00     0.000 G0
ENDBRANCH   6   7
ENDBRANCH   5   6
ENDBRANCH   3   5
ENDBRANCH   1   3
BRANCH   1  11
ATOM     11  C   UNL     1     -11.264 -17.991  29.725  1.00  0.00     0.087 C 
BRANCH  11  12
ATOM     12  C   UNL     1     -12.770 -18.127  30.180  1.00  0.00     0.066 C 
BRANCH  12  13
ATOM     13  C   UNL     1     -13.198 -17.278  31.404  1.00  0.00     0.140 C 
ATOM     14  O   UNL     1     -13.670 -17.864  32.367  1.00  0.00    -0.299 OA
BRANCH  13  15
ATOM     15  C   UNL     1     -12.948 -15.765  31.535  1.00  0.00     0.106 CG0
ATOM     16  G   UNL     1     -13.862 -14.863  30.654  1.00  0.00     0.000 G0
ENDBRANCH  13  15
ENDBRANCH  12  13
BRANCH  12  17
ATOM     17  C   UNL     1     -13.189 -19.618  30.415  1.00  0.00    -0.006 C 
ATOM     18  C   UNL     1     -12.139 -20.427  31.200  1.00  0.00     0.008 C 
ATOM     19  C   UNL     1     -13.460 -20.341  29.080  1.00  0.00     0.008 C 
ENDBRANCH  12  17
ENDBRANCH  11  12
ENDBRANCH   1  11
TORSDOF 1
ENDMDL
MODEL 5
REMARK VINA RESULT:    -4.829      1.318      3.909
REMARK INTER + INTRA:          -7.999
REMARK INTER:                  -7.880
REMARK INTRA:                  -0.119
REMARK UNBOUND:                -0.628
REMARK SMILES CC1=CCC[C@@H](C)C(=O)C[C@@H](C(C)C)C(=O)C1
REMARK SMILES IDX 8 1 9 2 6 3 7 4 5 5 4 6 3 7 2 8 1 9 10 11 11 12 15 13 16 14
REMARK SMILES IDX 17 15 12 17 13 18 14 19
REMARK H PARENT
REMARK Flexibility Score: 70.00
ROOT
ATOM      1  C   UNL     1     -13.840 -14.808  30.137  1.00  0.00     0.136 C 
ATOM      2  O   UNL     1     -14.665 -14.318  30.893  1.00  0.00    -0.299 OA
ENDROOT
BRANCH   1   3
ATOM      3  C   UNL     1     -13.612 -14.156  28.765  1.00  0.00     0.053 C 
ATOM      4  C   UNL     1     -14.379 -12.837  28.632  1.00  0.00     0.016 C 
BRANCH   3   5
ATOM      5  C   UNL     1     -14.071 -15.209  27.784  1.00  0.00     0.015 C 
BRANCH   5   6
ATOM      6  C   UNL     1     -13.258 -16.108  26.903  1.00  0.00     0.028 C 
BRANCH   6   7
ATOM      7  C   UNL     1     -13.255 -17.506  27.535  1.00  0.00    -0.028 C 
ATOM      8  C   UNL     1     -12.236 -18.189  28.181  1.00  0.00    -0.070 CG0
ATOM      9  C   UNL     1     -12.553 -19.613  28.576  1.00  0.00     0.039 C 
ATOM     10  G   UNL     1     -10.826 -17.658  28.575  1.00  0.00     0.000 G0
ENDBRANCH   6   7
ENDBRANCH   5   6
ENDBRANCH   3   5
ENDBRANCH   1   3
BRANCH   1  11
ATOM     11  C   UNL     1     -13.046 -16.040  30.603  1.00  0.00     0.087 C 
BRANCH  11  12
ATOM     12  C   UNL     1     -11.471 -15.919  30.570  1.00  0.00     0.066 C 
BRANCH  12  13
ATOM     13  C   UNL     1     -10.783 -16.263  29.224  1.00  0.00     0.140 C 
ATOM     14  O   UNL     1     -10.088 -15.403  28.704  1.00  0.00    -0.299 OA
BRANCH  13  15
ATOM     15  C   UNL     1     -10.812 -17.656  28.571  1.00  0.00     0.106 CG0
ATOM     16  G   UNL     1     -12.226 -18.171  28.169  1.00  0.00     0.000 G0
ENDBRANCH  13  15
ENDBRANCH  12  13
BRANCH  12  17
ATOM     17  C   UNL     1     -10.787 -16.731  31.722  1.00  0.00    -0.006 C 
ATOM     18  C   UNL     1     -11.472 -18.082  32.001  1.00  0.00     0.008 C 
ATOM     19  C   UNL     1     -10.754 -15.922  33.034  1.00  0.00     0.008 C 
ENDBRANCH  12  17
ENDBRANCH  11  12
ENDBRANCH   1  11
TORSDOF 1
ENDMDL
MODEL 6
REMARK VINA RESULT:    -4.819      2.001      3.647
REMARK INTER + INTRA:          -7.983
REMARK INTER:                  -7.840
REMARK INTRA:                  -0.142
REMARK UNBOUND:                -0.628
REMARK SMILES CC1=CCC[C@@H](C)C(=O)C[C@@H](C(C)C)C(=O)C1
REMARK SMILES IDX 8 1 9 2 6 3 7 4 5 5 4 6 3 7 2 8 1 9 10 11 11 12 15 13 16 14
REMARK SMILES IDX 17 15 12 17 13 18 14 19
REMARK H PARENT
REMARK Flexibility Score: 70.00
ROOT
ATOM      1  C   UNL     1     -13.208 -19.344  29.344  1.00  0.00     0.136 C 
ATOM      2  O   UNL     1     -13.851 -20.355  29.103  1.00  0.00    -0.299 OA
ENDROOT
BRANCH   1   3
ATOM      3  C   UNL     1     -12.402 -19.271  30.649  1.00  0.00     0.053 C 
ATOM      4  C   UNL     1     -12.140 -20.664  31.230  1.00  0.00     0.016 C 
BRANCH   3   5
ATOM      5  C   UNL     1     -13.251 -18.404  31.550  1.00  0.00     0.015 C 
BRANCH   5   6
ATOM      6  C   UNL     1     -12.991 -17.019  32.059  1.00  0.00     0.028 C 
BRANCH   6   7
ATOM      7  C   UNL     1     -13.581 -16.030  31.044  1.00  0.00    -0.028 C 
ATOM      8  C   UNL     1     -12.958 -15.317  30.032  1.00  0.00    -0.070 CG0
ATOM      9  C   UNL     1     -13.836 -14.330  29.295  1.00  0.00     0.039 C 
ATOM     10  G   UNL     1     -11.484 -15.432  29.543  1.00  0.00     0.000 G0
ENDBRANCH   6   7
ENDBRANCH   5   6
ENDBRANCH   3   5
ENDBRANCH   1   3
BRANCH   1  11
ATOM     11  C   UNL     1     -13.212 -18.200  28.316  1.00  0.00     0.087 C 
BRANCH  11  12
ATOM     12  C   UNL     1     -11.805 -17.606  27.915  1.00  0.00     0.066 C 
BRANCH  12  13
ATOM     13  C   UNL     1     -11.048 -16.824  29.020  1.00  0.00     0.140 C 
ATOM     14  O   UNL     1      -9.996 -17.291  29.429  1.00  0.00    -0.299 OA
BRANCH  13  15
ATOM     15  C   UNL     1     -11.470 -15.438  29.539  1.00  0.00     0.106 CG0
ATOM     16  G   UNL     1     -12.939 -15.337  30.045  1.00  0.00     0.000 G0
ENDBRANCH  13  15
ENDBRANCH  12  13
BRANCH  12  17
ATOM     17  C   UNL     1     -11.875 -16.729  26.620  1.00  0.00    -0.006 C 
ATOM     18  C   UNL     1     -13.311 -16.532  26.098  1.00  0.00     0.008 C 
ATOM     19  C   UNL     1     -11.025 -17.336  25.485  1.00  0.00     0.008 C 
ENDBRANCH  12  17
ENDBRANCH  11  12
ENDBRANCH   1  11
TORSDOF 1
ENDMDL
MODEL 7
REMARK VINA RESULT:    -4.781      1.637      3.859
REMARK INTER + INTRA:          -7.924
REMARK INTER:                  -7.503
REMARK INTRA:                  -0.421
REMARK UNBOUND:                -0.628
REMARK SMILES CC1=CCC[C@@H](C)C(=O)C[C@@H](C(C)C)C(=O)C1
REMARK SMILES IDX 8 1 9 2 6 3 7 4 5 5 4 6 3 7 2 8 1 9 10 11 11 12 15 13 16 14
REMARK SMILES IDX 17 15 12 17 13 18 14 19
REMARK H PARENT
REMARK Flexibility Score: 70.00
ROOT
ATOM      1  C   UNL     1     -13.121 -15.302  28.699  1.00  0.00     0.136 C 
ATOM      2  O   UNL     1     -13.195 -14.087  28.586  1.00  0.00    -0.299 OA
ENDROOT
BRANCH   1   3
ATOM      3  C   UNL     1     -13.010 -16.159  27.430  1.00  0.00     0.053 C 
ATOM      4  C   UNL     1     -13.991 -15.698  26.348  1.00  0.00     0.016 C 
BRANCH   3   5
ATOM      5  C   UNL     1     -13.285 -17.563  27.917  1.00  0.00     0.015 C 
BRANCH   5   6
ATOM      6  C   UNL     1     -12.400 -18.772  27.886  1.00  0.00     0.028 C 
BRANCH   6   7
ATOM      7  C   UNL     1     -12.556 -19.501  29.228  1.00  0.00    -0.028 C 
ATOM      8  C   UNL     1     -11.771 -19.442  30.369  1.00  0.00    -0.070 CG0
ATOM      9  C   UNL     1     -12.156 -20.399  31.474  1.00  0.00     0.039 C 
ATOM     10  G   UNL     1     -10.571 -18.494  30.660  1.00  0.00     0.000 G0
ENDBRANCH   6   7
ENDBRANCH   5   6
ENDBRANCH   3   5
ENDBRANCH   1   3
BRANCH   1  11
ATOM     11  C   UNL     1     -13.114 -15.917  30.109  1.00  0.00     0.087 C 
BRANCH  11  12
ATOM     12  C   UNL     1     -11.708 -16.036  30.820  1.00  0.00     0.066 C 
BRANCH  12  13
ATOM     13  C   UNL     1     -10.710 -17.050  30.206  1.00  0.00     0.140 C 
ATOM     14  O   UNL     1      -9.927 -16.640  29.363  1.00  0.00    -0.299 OA
BRANCH  13  15
ATOM     15  C   UNL     1     -10.557 -18.506  30.681  1.00  0.00     0.106 CG0
ATOM     16  G   UNL     1     -11.766 -19.437  30.370  1.00  0.00     0.000 G0
ENDBRANCH  13  15
ENDBRANCH  12  13
BRANCH  12  17
ATOM     17  C   UNL     1     -11.840 -16.307  32.357  1.00  0.00    -0.006 C 
ATOM     18  C   UNL     1     -13.118 -15.707  32.971  1.00  0.00     0.008 C 
ATOM     19  C   UNL     1     -10.624 -15.757  33.129  1.00  0.00     0.008 C 
ENDBRANCH  12  17
ENDBRANCH  11  12
ENDBRANCH   1  11
TORSDOF 1
ENDMDL
MODEL 8
REMARK VINA RESULT:    -4.778      1.853      3.907
REMARK INTER + INTRA:          -7.920
REMARK INTER:                  -7.618
REMARK INTRA:                  -0.302
REMARK UNBOUND:                -0.628
REMARK SMILES CC1=CCC[C@@H](C)C(=O)C[C@@H](C(C)C)C(=O)C1
REMARK SMILES IDX 8 1 9 2 6 3 7 4 5 5 4 6 3 7 2 8 1 9 10 11 11 12 15 13 16 14
REMARK SMILES IDX 17 15 12 17 13 18 14 19
REMARK H PARENT
REMARK Flexibility Score: 70.00
ROOT
ATOM      1  C   UNL     1     -12.573 -19.260  30.473  1.00  0.00     0.136 C 
ATOM      2  O   UNL     1     -12.165 -20.371  30.777  1.00  0.00    -0.299 OA
ENDROOT
BRANCH   1   3
ATOM      3  C   UNL     1     -12.991 -18.996  29.019  1.00  0.00     0.053 C 
ATOM      4  C   UNL     1     -13.761 -20.181  28.428  1.00  0.00     0.016 C 
BRANCH   3   5
ATOM      5  C   UNL     1     -11.684 -18.728  28.310  1.00  0.00     0.015 C 
BRANCH   5   6
ATOM      6  C   UNL     1     -11.374 -17.742  27.225  1.00  0.00     0.028 C 
BRANCH   6   7
ATOM      7  C   UNL     1     -12.463 -16.660  27.252  1.00  0.00    -0.028 C 
ATOM      8  C   UNL     1     -12.634 -15.590  28.116  1.00  0.00    -0.070 CG0
ATOM      9  C   UNL     1     -13.900 -14.788  27.919  1.00  0.00     0.039 C 
ATOM     10  G   UNL     1     -11.669 -15.098  29.236  1.00  0.00     0.000 G0
ENDBRANCH   6   7
ENDBRANCH   5   6
ENDBRANCH   3   5
ENDBRANCH   1   3
BRANCH   1  11
ATOM     11  C   UNL     1     -12.676 -18.183  31.566  1.00  0.00     0.087 C 
BRANCH  11  12
ATOM     12  C   UNL     1     -12.904 -16.699  31.076  1.00  0.00     0.066 C 
BRANCH  12  13
ATOM     13  C   UNL     1     -11.661 -15.960  30.518  1.00  0.00     0.140 C 
ATOM     14  O   UNL     1     -10.589 -16.152  31.071  1.00  0.00    -0.299 OA
BRANCH  13  15
ATOM     15  C   UNL     1     -11.666 -15.106  29.238  1.00  0.00     0.106 CG0
ATOM     16  G   UNL     1     -12.628 -15.597  28.116  1.00  0.00     0.000 G0
ENDBRANCH  13  15
ENDBRANCH  12  13
BRANCH  12  17
ATOM     17  C   UNL     1     -13.586 -15.809  32.169  1.00  0.00    -0.006 C 
ATOM     18  C   UNL     1     -14.490 -16.609  33.125  1.00  0.00     0.008 C 
ATOM     19  C   UNL     1     -14.427 -14.684  31.531  1.00  0.00     0.008 C 
ENDBRANCH  12  17
ENDBRANCH  11  12
ENDBRANCH   1  11
TORSDOF 1
ENDMDL
MODEL 9
REMARK VINA RESULT:    -4.709      1.723      4.151
REMARK INTER + INTRA:          -7.814
REMARK INTER:                  -7.442
REMARK INTRA:                  -0.372
REMARK UNBOUND:                -0.628
REMARK SMILES CC1=CCC[C@@H](C)C(=O)C[C@@H](C(C)C)C(=O)C1
REMARK SMILES IDX 8 1 9 2 6 3 7 4 5 5 4 6 3 7 2 8 1 9 10 11 11 12 15 13 16 14
REMARK SMILES IDX 17 15 12 17 13 18 14 19
REMARK H PARENT
REMARK Flexibility Score: 70.00
ROOT
ATOM      1  C   UNL     1     -12.808 -16.047  31.861  1.00  0.00     0.136 C 
ATOM      2  O   UNL     1     -11.955 -16.093  32.734  1.00  0.00    -0.299 OA
ENDROOT
BRANCH   1   3
ATOM      3  C   UNL     1     -13.684 -14.790  31.746  1.00  0.00     0.053 C 
ATOM      4  C   UNL     1     -14.817 -14.795  32.776  1.00  0.00     0.016 C 
BRANCH   3   5
ATOM      5  C   UNL     1     -14.181 -14.826  30.319  1.00  0.00     0.015 C 
BRANCH   5   6
ATOM      6  C   UNL     1     -13.718 -14.042  29.129  1.00  0.00     0.028 C 
BRANCH   6   7
ATOM      7  C   UNL     1     -13.407 -15.038  28.004  1.00  0.00    -0.028 C 
ATOM      8  C   UNL     1     -12.279 -15.814  27.789  1.00  0.00    -0.070 CG0
ATOM      9  C   UNL     1     -12.264 -16.599  26.498  1.00  0.00     0.039 C 
ATOM     10  G   UNL     1     -11.048 -15.998  28.726  1.00  0.00     0.000 G0
ENDBRANCH   6   7
ENDBRANCH   5   6
ENDBRANCH   3   5
ENDBRANCH   1   3
BRANCH   1  11
ATOM     11  C   UNL     1     -12.948 -17.237  30.896  1.00  0.00     0.087 C 
BRANCH  11  12
ATOM     12  C   UNL     1     -11.616 -17.986  30.501  1.00  0.00     0.066 C 
BRANCH  12  13
ATOM     13  C   UNL     1     -10.829 -17.404  29.299  1.00  0.00     0.140 C 
ATOM     14  O   UNL     1     -10.070 -18.151  28.699  1.00  0.00    -0.299 OA
BRANCH  13  15
ATOM     15  C   UNL     1     -11.040 -15.988  28.733  1.00  0.00     0.106 CG0
ATOM     16  G   UNL     1     -12.273 -15.825  27.796  1.00  0.00     0.000 G0
ENDBRANCH  13  15
ENDBRANCH  12  13
BRANCH  12  17
ATOM     17  C   UNL     1     -11.839 -19.520  30.277  1.00  0.00    -0.006 C 
ATOM     18  C   UNL     1     -12.970 -19.828  29.278  1.00  0.00     0.008 C 
ATOM     19  C   UNL     1     -12.152 -20.240  31.604  1.00  0.00     0.008 C 
ENDBRANCH  12  17
ENDBRANCH  11  12
ENDBRANCH   1  11
TORSDOF 1
ENDMDL
