MODEL 1
REMARK VINA RESULT:    -6.379      0.000      0.000
REMARK INTER + INTRA:         -10.837
REMARK INTER:                  -9.362
REMARK INTRA:                  -1.475
REMARK UNBOUND:                -1.475
REMARK SMILES Cc1cc2c(C(C)C)c(O)c(O)c(C=O)c2c(O)c1-c1c(C)cc2c(C(C)C)c(O)c(O)c(C=O)c2c1O
REMARK SMILES IDX 1 1 2 2 3 3 4 4 16 5 13 6 11 7 9 8 5 9 17 10 19 11 20 12
REMARK SMILES IDX 37 13 21 14 36 15 23 16 22 17 24 18 33 19 25 20 31 21 29 22
REMARK SMILES IDX 38 23 34 25 35 26 26 27 27 28 28 29 32 30 30 32 18 34 6 36
REMARK SMILES IDX 7 37 8 38 14 39 15 40 10 41 12 43
REMARK H PARENT 38 24 32 31 30 33 18 35 10 42 12 44
REMARK Flexibility Score: inf
ROOT
ATOM      1  C   UNL     1       1.260  -8.990 -20.641  1.00  0.00     0.045 C 
ATOM      2  C   UNL     1       1.329  -9.751 -21.942  1.00  0.00    -0.039 A 
ATOM      3  C   UNL     1       0.269  -9.656 -22.846  1.00  0.00     0.013 A 
ATOM      4  C   UNL     1       0.257 -10.380 -24.060  1.00  0.00    -0.006 A 
ATOM      5  C   UNL     1       1.395 -11.172 -24.394  1.00  0.00     0.039 A 
ATOM      6  C   UNL     1       1.385 -11.913 -25.609  1.00  0.00     0.072 A 
ATOM      7  C   UNL     1       0.384 -11.678 -26.564  1.00  0.00     0.169 A 
ATOM      8  C   UNL     1      -0.683 -10.810 -26.273  1.00  0.00     0.162 A 
ATOM      9  C   UNL     1      -0.845 -10.294 -24.967  1.00  0.00     0.008 A 
ATOM     10  C   UNL     1       2.529 -11.157 -23.531  1.00  0.00     0.132 A 
ATOM     11  C   UNL     1       2.470 -10.495 -22.288  1.00  0.00     0.031 A 
ENDROOT
BRANCH  11  12
ATOM     12  C   UNL     1       3.624 -10.561 -21.352  1.00  0.00     0.031 A 
ATOM     13  C   UNL     1       3.699 -11.582 -20.381  1.00  0.00     0.132 A 
ATOM     14  C   UNL     1       4.646  -9.602 -21.442  1.00  0.00    -0.039 A 
ATOM     15  C   UNL     1       4.834 -11.677 -19.523  1.00  0.00     0.039 A 
ATOM     16  C   UNL     1       5.689  -9.618 -20.514  1.00  0.00     0.013 A 
ATOM     17  C   UNL     1       4.609  -8.522 -22.495  1.00  0.00     0.045 C 
ATOM     18  C   UNL     1       5.772 -10.605 -19.506  1.00  0.00    -0.006 A 
ATOM     19  C   UNL     1       5.046 -12.793 -18.661  1.00  0.00     0.072 A 
ATOM     20  C   UNL     1       6.790 -10.557 -18.507  1.00  0.00     0.008 A 
ATOM     21  C   UNL     1       6.135 -12.798 -17.770  1.00  0.00     0.169 A 
ATOM     22  C   UNL     1       7.023 -11.707 -17.719  1.00  0.00     0.162 A 
BRANCH  13  23
ATOM     23  O   UNL     1       2.629 -12.472 -20.236  1.00  0.00    -0.507 OA
ATOM     24  H   UNL     1       2.588 -13.193 -19.526  1.00  0.00     0.293 HD
ENDBRANCH  13  23
BRANCH  19  25
ATOM     25  C   UNL     1       4.231 -14.028 -18.760  1.00  0.00     0.264 C 
ATOM     26  O   UNL     1       3.331 -14.280 -17.914  1.00  0.00    -0.298 OA
ENDBRANCH  19  25
BRANCH  20  27
ATOM     27  C   UNL     1       7.648  -9.296 -18.292  1.00  0.00     0.017 C 
ATOM     28  C   UNL     1       6.768  -8.074 -18.011  1.00  0.00     0.012 C 
ATOM     29  C   UNL     1       8.643  -9.020 -19.435  1.00  0.00     0.012 C 
ENDBRANCH  20  27
BRANCH  21  30
ATOM     30  O   UNL     1       6.313 -13.915 -16.942  1.00  0.00    -0.504 OA
ATOM     31  H   UNL     1       6.483 -13.870 -15.948  1.00  0.00     0.293 HD
ENDBRANCH  21  30
BRANCH  22  32
ATOM     32  O   UNL     1       8.171 -11.758 -16.924  1.00  0.00    -0.504 OA
ATOM     33  H   UNL     1       9.013 -11.231 -17.097  1.00  0.00     0.293 HD
ENDBRANCH  22  32
ENDBRANCH  11  12
BRANCH  10  34
ATOM     34  O   UNL     1       3.731 -11.748 -23.939  1.00  0.00    -0.507 OA
ATOM     35  H   UNL     1       3.972 -12.714 -23.760  1.00  0.00     0.293 HD
ENDBRANCH  10  34
BRANCH   9  36
ATOM     36  C   UNL     1      -2.166  -9.609 -24.576  1.00  0.00     0.017 C 
ATOM     37  C   UNL     1      -2.261  -8.209 -25.191  1.00  0.00     0.012 C 
ATOM     38  C   UNL     1      -3.419 -10.447 -24.896  1.00  0.00     0.012 C 
ENDBRANCH   9  36
BRANCH   6  39
ATOM     39  C   UNL     1       2.343 -13.005 -25.897  1.00  0.00     0.264 C 
ATOM     40  O   UNL     1       3.325 -12.816 -26.661  1.00  0.00    -0.298 OA
ENDBRANCH   6  39
BRANCH   8  41
ATOM     41  O   UNL     1      -1.591 -10.439 -27.270  1.00  0.00    -0.504 OA
ATOM     42  H   UNL     1      -1.323 -10.090 -28.178  1.00  0.00     0.293 HD
ENDBRANCH   8  41
BRANCH   7  43
ATOM     43  O   UNL     1       0.450 -12.364 -27.782  1.00  0.00    -0.504 OA
ATOM     44  H   UNL     1       0.244 -13.347 -27.891  1.00  0.00     0.293 HD
ENDBRANCH   7  43
TORSDOF 11
ENDMDL
MODEL 2
REMARK VINA RESULT:    -6.373     11.231     13.663
REMARK INTER + INTRA:         -10.828
REMARK INTER:                  -9.359
REMARK INTRA:                  -1.470
REMARK UNBOUND:                -1.475
REMARK SMILES Cc1cc2c(C(C)C)c(O)c(O)c(C=O)c2c(O)c1-c1c(C)cc2c(C(C)C)c(O)c(O)c(C=O)c2c1O
REMARK SMILES IDX 1 1 2 2 3 3 4 4 16 5 13 6 11 7 9 8 5 9 17 10 19 11 20 12
REMARK SMILES IDX 37 13 21 14 36 15 23 16 22 17 24 18 33 19 25 20 31 21 29 22
REMARK SMILES IDX 38 23 34 25 35 26 26 27 27 28 28 29 32 30 30 32 18 34 6 36
REMARK SMILES IDX 7 37 8 38 14 39 15 40 10 41 12 43
REMARK H PARENT 38 24 32 31 30 33 18 35 10 42 12 44
REMARK Flexibility Score: inf
ROOT
ATOM      1  C   UNL     1      -0.605  -7.850 -33.368  1.00  0.00     0.045 C 
ATOM      2  C   UNL     1       0.255  -8.989 -33.856  1.00  0.00    -0.039 A 
ATOM      3  C   UNL     1      -0.355 -10.157 -34.319  1.00  0.00     0.013 A 
ATOM      4  C   UNL     1       0.399 -11.274 -34.746  1.00  0.00    -0.006 A 
ATOM      5  C   UNL     1       1.821 -11.169 -34.769  1.00  0.00     0.039 A 
ATOM      6  C   UNL     1       2.587 -12.294 -35.187  1.00  0.00     0.072 A 
ATOM      7  C   UNL     1       1.950 -13.389 -35.790  1.00  0.00     0.169 A 
ATOM      8  C   UNL     1       0.547 -13.440 -35.864  1.00  0.00     0.162 A 
ATOM      9  C   UNL     1      -0.236 -12.474 -35.194  1.00  0.00     0.008 A 
ATOM     10  C   UNL     1       2.432  -9.928 -34.425  1.00  0.00     0.132 A 
ATOM     11  C   UNL     1       1.653  -8.867 -33.919  1.00  0.00     0.031 A 
ENDROOT
BRANCH  11  12
ATOM     12  C   UNL     1       2.308  -7.608 -33.476  1.00  0.00     0.031 A 
ATOM     13  C   UNL     1       2.470  -6.532 -34.375  1.00  0.00     0.132 A 
ATOM     14  C   UNL     1       2.763  -7.489 -32.152  1.00  0.00    -0.039 A 
ATOM     15  C   UNL     1       3.046  -5.304 -33.933  1.00  0.00     0.039 A 
ATOM     16  C   UNL     1       3.446  -6.337 -31.759  1.00  0.00     0.013 A 
ATOM     17  C   UNL     1       2.568  -8.610 -31.160  1.00  0.00     0.045 C 
ATOM     18  C   UNL     1       3.658  -5.259 -32.646  1.00  0.00    -0.006 A 
ATOM     19  C   UNL     1       3.057  -4.133 -34.745  1.00  0.00     0.072 A 
ATOM     20  C   UNL     1       4.438  -4.127 -32.263  1.00  0.00     0.008 A 
ATOM     21  C   UNL     1       3.716  -2.972 -34.297  1.00  0.00     0.169 A 
ATOM     22  C   UNL     1       4.369  -2.956 -33.050  1.00  0.00     0.162 A 
BRANCH  13  23
ATOM     23  O   UNL     1       2.104  -6.697 -35.715  1.00  0.00    -0.507 OA
ATOM     24  H   UNL     1       1.630  -5.987 -36.261  1.00  0.00     0.293 HD
ENDBRANCH  13  23
BRANCH  19  25
ATOM     25  C   UNL     1       2.278  -4.040 -36.002  1.00  0.00     0.264 C 
ATOM     26  O   UNL     1       2.852  -4.060 -37.124  1.00  0.00    -0.298 OA
ENDBRANCH  19  25
BRANCH  20  27
ATOM     27  C   UNL     1       5.324  -4.151 -31.004  1.00  0.00     0.017 C 
ATOM     28  C   UNL     1       4.723  -3.283 -29.893  1.00  0.00     0.012 C 
ATOM     29  C   UNL     1       6.794  -3.779 -31.272  1.00  0.00     0.012 C 
ENDBRANCH  20  27
BRANCH  21  30
ATOM     30  O   UNL     1       3.701  -1.839 -35.122  1.00  0.00    -0.504 OA
ATOM     31  H   UNL     1       3.274  -0.957 -34.875  1.00  0.00     0.293 HD
ENDBRANCH  21  30
BRANCH  22  32
ATOM     32  O   UNL     1       4.920  -1.773 -32.549  1.00  0.00    -0.504 OA
ATOM     33  H   UNL     1       5.801  -1.381 -32.844  1.00  0.00     0.293 HD
ENDBRANCH  22  32
ENDBRANCH  11  12
BRANCH  10  34
ATOM     34  O   UNL     1       3.800  -9.733 -34.645  1.00  0.00    -0.507 OA
ATOM     35  H   UNL     1       4.201  -8.858 -34.959  1.00  0.00     0.293 HD
ENDBRANCH  10  34
BRANCH   9  36
ATOM     36  C   UNL     1      -1.747 -12.707 -35.016  1.00  0.00     0.017 C 
ATOM     37  C   UNL     1      -2.112 -12.823 -33.532  1.00  0.00     0.012 C 
ATOM     38  C   UNL     1      -2.627 -11.661 -35.728  1.00  0.00     0.012 C 
ENDBRANCH   9  36
BRANCH   6  39
ATOM     39  C   UNL     1       4.042 -12.416 -34.941  1.00  0.00     0.264 C 
ATOM     40  O   UNL     1       4.869 -12.257 -35.878  1.00  0.00    -0.298 OA
ENDBRANCH   6  39
BRANCH   8  41
ATOM     41  O   UNL     1      -0.090 -14.439 -36.606  1.00  0.00    -0.504 OA
ATOM     42  H   UNL     1       0.376 -15.255 -36.976  1.00  0.00     0.293 HD
ENDBRANCH   8  41
BRANCH   7  43
ATOM     43  O   UNL     1       2.741 -14.443 -36.264  1.00  0.00    -0.504 OA
ATOM     44  H   UNL     1       2.621 -14.880 -37.167  1.00  0.00     0.293 HD
ENDBRANCH   7  43
TORSDOF 11
ENDMDL
MODEL 3
REMARK VINA RESULT:    -6.278      6.878     12.274
REMARK INTER + INTRA:         -10.689
REMARK INTER:                  -9.513
REMARK INTRA:                  -1.175
REMARK UNBOUND:                -1.475
REMARK SMILES Cc1cc2c(C(C)C)c(O)c(O)c(C=O)c2c(O)c1-c1c(C)cc2c(C(C)C)c(O)c(O)c(C=O)c2c1O
REMARK SMILES IDX 1 1 2 2 3 3 4 4 16 5 13 6 11 7 9 8 5 9 17 10 19 11 20 12
REMARK SMILES IDX 37 13 21 14 36 15 23 16 22 17 24 18 33 19 25 20 31 21 29 22
REMARK SMILES IDX 38 23 34 25 35 26 26 27 27 28 28 29 32 30 30 32 18 34 6 36
REMARK SMILES IDX 7 37 8 38 14 39 15 40 10 41 12 43
REMARK H PARENT 38 24 32 31 30 33 18 35 10 42 12 44
REMARK Flexibility Score: inf
ROOT
ATOM      1  C   UNL     1      -5.346  -5.659 -21.374  1.00  0.00     0.045 C 
ATOM      2  C   UNL     1      -4.834  -7.072 -21.498  1.00  0.00    -0.039 A 
ATOM      3  C   UNL     1      -4.498  -7.781 -20.342  1.00  0.00     0.013 A 
ATOM      4  C   UNL     1      -3.972  -9.092 -20.398  1.00  0.00    -0.006 A 
ATOM      5  C   UNL     1      -3.852  -9.726 -21.671  1.00  0.00     0.039 A 
ATOM      6  C   UNL     1      -3.312 -11.042 -21.735  1.00  0.00     0.072 A 
ATOM      7  C   UNL     1      -3.132 -11.783 -20.558  1.00  0.00     0.169 A 
ATOM      8  C   UNL     1      -3.356 -11.187 -19.304  1.00  0.00     0.162 A 
ATOM      9  C   UNL     1      -3.608  -9.800 -19.211  1.00  0.00     0.008 A 
ATOM     10  C   UNL     1      -4.324  -9.048 -22.832  1.00  0.00     0.132 A 
ATOM     11  C   UNL     1      -4.759  -7.709 -22.748  1.00  0.00     0.031 A 
ENDROOT
BRANCH  11  12
ATOM     12  C   UNL     1      -5.163  -6.979 -23.979  1.00  0.00     0.031 A 
ATOM     13  C   UNL     1      -6.492  -7.049 -24.447  1.00  0.00     0.132 A 
ATOM     14  C   UNL     1      -4.214  -6.210 -24.673  1.00  0.00    -0.039 A 
ATOM     15  C   UNL     1      -6.892  -6.302 -25.594  1.00  0.00     0.039 A 
ATOM     16  C   UNL     1      -4.576  -5.588 -25.869  1.00  0.00     0.013 A 
ATOM     17  C   UNL     1      -2.796  -6.087 -24.173  1.00  0.00     0.045 C 
ATOM     18  C   UNL     1      -5.888  -5.671 -26.385  1.00  0.00    -0.006 A 
ATOM     19  C   UNL     1      -8.256  -6.190 -25.993  1.00  0.00     0.072 A 
ATOM     20  C   UNL     1      -6.222  -5.111 -27.654  1.00  0.00     0.008 A 
ATOM     21  C   UNL     1      -8.590  -5.515 -27.182  1.00  0.00     0.169 A 
ATOM     22  C   UNL     1      -7.585  -4.946 -27.987  1.00  0.00     0.162 A 
BRANCH  13  23
ATOM     23  O   UNL     1      -7.402  -7.896 -23.805  1.00  0.00    -0.507 OA
ATOM     24  H   UNL     1      -7.291  -8.226 -22.853  1.00  0.00     0.293 HD
ENDBRANCH  13  23
BRANCH  19  25
ATOM     25  C   UNL     1      -9.368  -6.646 -25.125  1.00  0.00     0.264 C 
ATOM     26  O   UNL     1     -10.125  -7.589 -25.482  1.00  0.00    -0.298 OA
ENDBRANCH  19  25
BRANCH  20  27
ATOM     27  C   UNL     1      -5.132  -4.662 -28.647  1.00  0.00     0.017 C 
ATOM     28  C   UNL     1      -5.168  -3.144 -28.852  1.00  0.00     0.012 C 
ATOM     29  C   UNL     1      -5.172  -5.411 -29.991  1.00  0.00     0.012 C 
ENDBRANCH  20  27
BRANCH  21  30
ATOM     30  O   UNL     1      -9.942  -5.422 -27.537  1.00  0.00    -0.504 OA
ATOM     31  H   UNL     1     -10.583  -6.201 -27.557  1.00  0.00     0.293 HD
ENDBRANCH  21  30
BRANCH  22  32
ATOM     32  O   UNL     1      -7.918  -4.173 -29.103  1.00  0.00    -0.504 OA
ATOM     33  H   UNL     1      -8.422  -4.514 -29.907  1.00  0.00     0.293 HD
ENDBRANCH  22  32
ENDBRANCH  11  12
BRANCH  10  34
ATOM     34  O   UNL     1      -4.417  -9.726 -24.053  1.00  0.00    -0.507 OA
ATOM     35  H   UNL     1      -3.622 -10.120 -24.540  1.00  0.00     0.293 HD
ENDBRANCH  10  34
BRANCH   9  36
ATOM     36  C   UNL     1      -3.542  -9.103 -17.840  1.00  0.00     0.017 C 
ATOM     37  C   UNL     1      -4.580  -9.688 -16.877  1.00  0.00     0.012 C 
ATOM     38  C   UNL     1      -2.135  -9.100 -17.211  1.00  0.00     0.012 C 
ENDBRANCH   9  36
BRANCH   6  39
ATOM     39  C   UNL     1      -2.840 -11.659 -22.996  1.00  0.00     0.264 C 
ATOM     40  O   UNL     1      -1.615 -11.666 -23.290  1.00  0.00    -0.298 OA
ENDBRANCH   6  39
BRANCH   8  41
ATOM     41  O   UNL     1      -3.341 -11.957 -18.137  1.00  0.00    -0.504 OA
ATOM     42  H   UNL     1      -3.728 -11.656 -17.255  1.00  0.00     0.293 HD
ENDBRANCH   8  41
BRANCH   7  43
ATOM     43  O   UNL     1      -2.676 -13.102 -20.663  1.00  0.00    -0.504 OA
ATOM     44  H   UNL     1      -1.817 -13.370 -21.121  1.00  0.00     0.293 HD
ENDBRANCH   7  43
TORSDOF 11
ENDMDL
MODEL 4
REMARK VINA RESULT:    -6.210      7.133      9.633
REMARK INTER + INTRA:         -10.589
REMARK INTER:                  -9.130
REMARK INTRA:                  -1.460
REMARK UNBOUND:                -1.475
REMARK SMILES Cc1cc2c(C(C)C)c(O)c(O)c(C=O)c2c(O)c1-c1c(C)cc2c(C(C)C)c(O)c(O)c(C=O)c2c1O
REMARK SMILES IDX 1 1 2 2 3 3 4 4 16 5 13 6 11 7 9 8 5 9 17 10 19 11 20 12
REMARK SMILES IDX 37 13 21 14 36 15 23 16 22 17 24 18 33 19 25 20 31 21 29 22
REMARK SMILES IDX 38 23 34 25 35 26 26 27 27 28 28 29 32 30 30 32 18 34 6 36
REMARK SMILES IDX 7 37 8 38 14 39 15 40 10 41 12 43
REMARK H PARENT 38 24 32 31 30 33 18 35 10 42 12 44
REMARK Flexibility Score: inf
ROOT
ATOM      1  C   UNL     1      -2.372  -7.194 -24.858  1.00  0.00     0.045 C 
ATOM      2  C   UNL     1      -3.839  -6.930 -25.095  1.00  0.00    -0.039 A 
ATOM      3  C   UNL     1      -4.241  -6.329 -26.290  1.00  0.00     0.013 A 
ATOM      4  C   UNL     1      -5.595  -6.017 -26.549  1.00  0.00    -0.006 A 
ATOM      5  C   UNL     1      -6.579  -6.394 -25.588  1.00  0.00     0.039 A 
ATOM      6  C   UNL     1      -7.943  -6.072 -25.837  1.00  0.00     0.072 A 
ATOM      7  C   UNL     1      -8.334  -5.614 -27.104  1.00  0.00     0.169 A 
ATOM      8  C   UNL     1      -7.367  -5.345 -28.090  1.00  0.00     0.162 A 
ATOM      9  C   UNL     1      -5.992  -5.379 -27.766  1.00  0.00     0.008 A 
ATOM     10  C   UNL     1      -6.177  -7.128 -24.434  1.00  0.00     0.132 A 
ATOM     11  C   UNL     1      -4.809  -7.342 -24.166  1.00  0.00     0.031 A 
ENDROOT
BRANCH  11  12
ATOM     12  C   UNL     1      -4.393  -8.028 -22.914  1.00  0.00     0.031 A 
ATOM     13  C   UNL     1      -4.338  -9.437 -22.856  1.00  0.00     0.132 A 
ATOM     14  C   UNL     1      -4.049  -7.266 -21.786  1.00  0.00    -0.039 A 
ATOM     15  C   UNL     1      -3.883 -10.092 -21.674  1.00  0.00     0.039 A 
ATOM     16  C   UNL     1      -3.733  -7.911 -20.590  1.00  0.00     0.013 A 
ATOM     17  C   UNL     1      -4.063  -5.757 -21.833  1.00  0.00     0.045 C 
ATOM     18  C   UNL     1      -3.707  -9.320 -20.488  1.00  0.00    -0.006 A 
ATOM     19  C   UNL     1      -3.630 -11.494 -21.629  1.00  0.00     0.072 A 
ATOM     20  C   UNL     1      -3.475  -9.969 -19.239  1.00  0.00     0.008 A 
ATOM     21  C   UNL     1      -3.268 -12.106 -20.414  1.00  0.00     0.169 A 
ATOM     22  C   UNL     1      -3.154 -11.344 -19.236  1.00  0.00     0.162 A 
BRANCH  13  23
ATOM     23  O   UNL     1      -4.777 -10.187 -23.953  1.00  0.00    -0.507 OA
ATOM     24  H   UNL     1      -5.147 -11.128 -23.881  1.00  0.00     0.293 HD
ENDBRANCH  13  23
BRANCH  19  25
ATOM     25  C   UNL     1      -3.601 -12.327 -22.855  1.00  0.00     0.264 C 
ATOM     26  O   UNL     1      -4.532 -13.137 -23.111  1.00  0.00    -0.298 OA
ENDBRANCH  19  25
BRANCH  20  27
ATOM     27  C   UNL     1      -3.543  -9.196 -17.907  1.00  0.00     0.017 C 
ATOM     28  C   UNL     1      -2.143  -8.993 -17.319  1.00  0.00     0.012 C 
ATOM     29  C   UNL     1      -4.500  -9.821 -16.875  1.00  0.00     0.012 C 
ENDBRANCH  20  27
BRANCH  21  30
ATOM     30  O   UNL     1      -3.022 -13.486 -20.411  1.00  0.00    -0.504 OA
ATOM     31  H   UNL     1      -2.833 -14.032 -19.583  1.00  0.00     0.293 HD
ENDBRANCH  21  30
BRANCH  22  32
ATOM     32  O   UNL     1      -2.680 -11.924 -18.055  1.00  0.00    -0.504 OA
ATOM     33  H   UNL     1      -2.622 -11.451 -17.166  1.00  0.00     0.293 HD
ENDBRANCH  22  32
ENDBRANCH  11  12
BRANCH  10  34
ATOM     34  O   UNL     1      -7.140  -7.694 -23.591  1.00  0.00    -0.507 OA
ATOM     35  H   UNL     1      -6.937  -8.055 -22.667  1.00  0.00     0.293 HD
ENDBRANCH  10  34
BRANCH   9  36
ATOM     36  C   UNL     1      -4.963  -4.787 -28.745  1.00  0.00     0.017 C 
ATOM     37  C   UNL     1      -4.875  -5.629 -30.022  1.00  0.00     0.012 C 
ATOM     38  C   UNL     1      -5.199  -3.299 -29.071  1.00  0.00     0.012 C 
ENDBRANCH   9  36
BRANCH   6  39
ATOM     39  C   UNL     1      -8.986  -6.113 -24.787  1.00  0.00     0.264 C 
ATOM     40  O   UNL     1      -9.869  -7.012 -24.790  1.00  0.00    -0.298 OA
ENDBRANCH   6  39
BRANCH   8  41
ATOM     41  O   UNL     1      -7.752  -5.050 -29.401  1.00  0.00    -0.504 OA
ATOM     42  H   UNL     1      -8.271  -5.681 -29.995  1.00  0.00     0.293 HD
ENDBRANCH   8  41
BRANCH   7  43
ATOM     43  O   UNL     1      -9.694  -5.385 -27.341  1.00  0.00    -0.504 OA
ATOM     44  H   UNL     1     -10.390  -5.302 -26.613  1.00  0.00     0.293 HD
ENDBRANCH   7  43
TORSDOF 11
ENDMDL
MODEL 5
REMARK VINA RESULT:    -6.204     11.017     14.190
REMARK INTER + INTRA:         -10.580
REMARK INTER:                  -9.116
REMARK INTRA:                  -1.464
REMARK UNBOUND:                -1.475
REMARK SMILES Cc1cc2c(C(C)C)c(O)c(O)c(C=O)c2c(O)c1-c1c(C)cc2c(C(C)C)c(O)c(O)c(C=O)c2c1O
REMARK SMILES IDX 1 1 2 2 3 3 4 4 16 5 13 6 11 7 9 8 5 9 17 10 19 11 20 12
REMARK SMILES IDX 37 13 21 14 36 15 23 16 22 17 24 18 33 19 25 20 31 21 29 22
REMARK SMILES IDX 38 23 34 25 35 26 26 27 27 28 28 29 32 30 30 32 18 34 6 36
REMARK SMILES IDX 7 37 8 38 14 39 15 40 10 41 12 43
REMARK H PARENT 38 24 32 31 30 33 18 35 10 42 12 44
REMARK Flexibility Score: inf
ROOT
ATOM      1  C   UNL     1       5.024  -9.761 -31.610  1.00  0.00     0.045 C 
ATOM      2  C   UNL     1       4.735  -8.621 -32.555  1.00  0.00    -0.039 A 
ATOM      3  C   UNL     1       5.697  -7.625 -32.739  1.00  0.00     0.013 A 
ATOM      4  C   UNL     1       5.466  -6.511 -33.577  1.00  0.00    -0.006 A 
ATOM      5  C   UNL     1       4.241  -6.446 -34.305  1.00  0.00     0.039 A 
ATOM      6  C   UNL     1       3.997  -5.320 -35.141  1.00  0.00     0.072 A 
ATOM      7  C   UNL     1       5.035  -4.422 -35.427  1.00  0.00     0.169 A 
ATOM      8  C   UNL     1       6.281  -4.552 -34.788  1.00  0.00     0.162 A 
ATOM      9  C   UNL     1       6.448  -5.485 -33.739  1.00  0.00     0.008 A 
ATOM     10  C   UNL     1       3.322  -7.532 -34.217  1.00  0.00     0.132 A 
ATOM     11  C   UNL     1       3.547  -8.583 -33.304  1.00  0.00     0.031 A 
ENDROOT
BRANCH  11  12
ATOM     12  C   UNL     1       2.539  -9.666 -33.151  1.00  0.00     0.031 A 
ATOM     13  C   UNL     1       2.614 -10.828 -33.948  1.00  0.00     0.132 A 
ATOM     14  C   UNL     1       1.511  -9.529 -32.204  1.00  0.00    -0.039 A 
ATOM     15  C   UNL     1       1.681 -11.891 -33.760  1.00  0.00     0.039 A 
ATOM     16  C   UNL     1       0.522 -10.510 -32.116  1.00  0.00     0.013 A 
ATOM     17  C   UNL     1       1.430  -8.314 -31.313  1.00  0.00     0.045 C 
ATOM     18  C   UNL     1       0.547 -11.668 -32.926  1.00  0.00    -0.006 A 
ATOM     19  C   UNL     1       1.828 -13.155 -34.402  1.00  0.00     0.072 A 
ATOM     20  C   UNL     1      -0.517 -12.617 -32.893  1.00  0.00     0.008 A 
ATOM     21  C   UNL     1       0.833 -14.140 -34.254  1.00  0.00     0.169 A 
ATOM     22  C   UNL     1      -0.312 -13.889 -33.475  1.00  0.00     0.162 A 
BRANCH  13  23
ATOM     23  O   UNL     1       3.582 -10.910 -34.954  1.00  0.00    -0.507 OA
ATOM     24  H   UNL     1       3.365 -10.962 -35.943  1.00  0.00     0.293 HD
ENDBRANCH  13  23
BRANCH  19  25
ATOM     25  C   UNL     1       3.067 -13.532 -35.121  1.00  0.00     0.264 C 
ATOM     26  O   UNL     1       3.110 -13.539 -36.381  1.00  0.00    -0.298 OA
ENDBRANCH  19  25
BRANCH  20  27
ATOM     27  C   UNL     1      -1.864 -12.293 -32.219  1.00  0.00     0.017 C 
ATOM     28  C   UNL     1      -2.052 -13.120 -30.943  1.00  0.00     0.012 C 
ATOM     29  C   UNL     1      -3.077 -12.428 -33.158  1.00  0.00     0.012 C 
ENDBRANCH  20  27
BRANCH  21  30
ATOM     30  O   UNL     1       1.016 -15.372 -34.896  1.00  0.00    -0.504 OA
ATOM     31  H   UNL     1       1.845 -15.632 -35.409  1.00  0.00     0.293 HD
ENDBRANCH  21  30
BRANCH  22  32
ATOM     32  O   UNL     1      -1.243 -14.901 -33.227  1.00  0.00    -0.504 OA
ATOM     33  H   UNL     1      -1.539 -15.588 -33.905  1.00  0.00     0.293 HD
ENDBRANCH  22  32
ENDBRANCH  11  12
BRANCH  10  34
ATOM     34  O   UNL     1       2.223  -7.594 -35.080  1.00  0.00    -0.507 OA
ATOM     35  H   UNL     1       2.263  -7.976 -36.017  1.00  0.00     0.293 HD
ENDBRANCH  10  34
BRANCH   9  36
ATOM     36  C   UNL     1       7.697  -5.409 -32.843  1.00  0.00     0.017 C 
ATOM     37  C   UNL     1       8.974  -5.618 -33.664  1.00  0.00     0.012 C 
ATOM     38  C   UNL     1       7.779  -4.123 -31.998  1.00  0.00     0.012 C 
ENDBRANCH   9  36
BRANCH   6  39
ATOM     39  C   UNL     1       2.655  -4.986 -35.673  1.00  0.00     0.264 C 
ATOM     40  O   UNL     1       2.394  -5.127 -36.897  1.00  0.00    -0.298 OA
ENDBRANCH   6  39
BRANCH   8  41
ATOM     41  O   UNL     1       7.370  -3.771 -35.185  1.00  0.00    -0.504 OA
ATOM     42  H   UNL     1       8.335  -4.037 -35.056  1.00  0.00     0.293 HD
ENDBRANCH   8  41
BRANCH   7  43
ATOM     43  O   UNL     1       4.784  -3.372 -36.318  1.00  0.00    -0.504 OA
ATOM     44  H   UNL     1       4.704  -2.403 -36.044  1.00  0.00     0.293 HD
ENDBRANCH   7  43
TORSDOF 11
ENDMDL
MODEL 6
REMARK VINA RESULT:    -6.197     10.577     13.938
REMARK INTER + INTRA:         -10.570
REMARK INTER:                  -9.393
REMARK INTRA:                  -1.177
REMARK UNBOUND:                -1.475
REMARK SMILES Cc1cc2c(C(C)C)c(O)c(O)c(C=O)c2c(O)c1-c1c(C)cc2c(C(C)C)c(O)c(O)c(C=O)c2c1O
REMARK SMILES IDX 1 1 2 2 3 3 4 4 16 5 13 6 11 7 9 8 5 9 17 10 19 11 20 12
REMARK SMILES IDX 37 13 21 14 36 15 23 16 22 17 24 18 33 19 25 20 31 21 29 22
REMARK SMILES IDX 38 23 34 25 35 26 26 27 27 28 28 29 32 30 30 32 18 34 6 36
REMARK SMILES IDX 7 37 8 38 14 39 15 40 10 41 12 43
REMARK H PARENT 38 24 32 31 30 33 18 35 10 42 12 44
REMARK Flexibility Score: inf
ROOT
ATOM      1  C   UNL     1       1.248  -6.775 -34.723  1.00  0.00     0.045 C 
ATOM      2  C   UNL     1       2.703  -6.979 -34.381  1.00  0.00    -0.039 A 
ATOM      3  C   UNL     1       3.635  -6.007 -34.753  1.00  0.00     0.013 A 
ATOM      4  C   UNL     1       5.016  -6.163 -34.499  1.00  0.00    -0.006 A 
ATOM      5  C   UNL     1       5.453  -7.316 -33.781  1.00  0.00     0.039 A 
ATOM      6  C   UNL     1       6.845  -7.485 -33.533  1.00  0.00     0.072 A 
ATOM      7  C   UNL     1       7.733  -6.426 -33.776  1.00  0.00     0.169 A 
ATOM      8  C   UNL     1       7.277  -5.245 -34.387  1.00  0.00     0.162 A 
ATOM      9  C   UNL     1       5.964  -5.172 -34.905  1.00  0.00     0.008 A 
ATOM     10  C   UNL     1       4.483  -8.235 -33.287  1.00  0.00     0.132 A 
ATOM     11  C   UNL     1       3.124  -8.093 -33.636  1.00  0.00     0.031 A 
ENDROOT
BRANCH  11  12
ATOM     12  C   UNL     1       2.131  -9.108 -33.194  1.00  0.00     0.031 A 
ATOM     13  C   UNL     1       1.980 -10.317 -33.905  1.00  0.00     0.132 A 
ATOM     14  C   UNL     1       1.344  -8.859 -32.057  1.00  0.00    -0.039 A 
ATOM     15  C   UNL     1       1.068 -11.313 -33.446  1.00  0.00     0.039 A 
ATOM     16  C   UNL     1       0.359  -9.777 -31.688  1.00  0.00     0.013 A 
ATOM     17  C   UNL     1       1.512  -7.591 -31.256  1.00  0.00     0.045 C 
ATOM     18  C   UNL     1       0.157 -10.979 -32.402  1.00  0.00    -0.006 A 
ATOM     19  C   UNL     1       1.017 -12.619 -34.015  1.00  0.00     0.072 A 
ATOM     20  C   UNL     1      -0.913 -11.864 -32.074  1.00  0.00     0.008 A 
ATOM     21  C   UNL     1       0.039 -13.537 -33.586  1.00  0.00     0.169 A 
ATOM     22  C   UNL     1      -0.894 -13.177 -32.596  1.00  0.00     0.162 A 
BRANCH  13  23
ATOM     23  O   UNL     1       2.698 -10.511 -35.090  1.00  0.00    -0.507 OA
ATOM     24  H   UNL     1       2.301 -10.395 -36.015  1.00  0.00     0.293 HD
ENDBRANCH  13  23
BRANCH  19  25
ATOM     25  C   UNL     1       2.051 -13.105 -34.960  1.00  0.00     0.264 C 
ATOM     26  O   UNL     1       1.802 -13.223 -36.190  1.00  0.00    -0.298 OA
ENDBRANCH  19  25
BRANCH  20  27
ATOM     27  C   UNL     1      -2.063 -11.427 -31.146  1.00  0.00     0.017 C 
ATOM     28  C   UNL     1      -2.006 -12.176 -29.811  1.00  0.00     0.012 C 
ATOM     29  C   UNL     1      -3.456 -11.537 -31.792  1.00  0.00     0.012 C 
ENDBRANCH  20  27
BRANCH  21  30
ATOM     30  O   UNL     1       0.025 -14.813 -34.166  1.00  0.00    -0.504 OA
ATOM     31  H   UNL     1       0.727 -15.521 -34.008  1.00  0.00     0.293 HD
ENDBRANCH  21  30
BRANCH  22  32
ATOM     32  O   UNL     1      -1.788 -14.120 -32.083  1.00  0.00    -0.504 OA
ATOM     33  H   UNL     1      -2.753 -14.209 -32.363  1.00  0.00     0.293 HD
ENDBRANCH  22  32
ENDBRANCH  11  12
BRANCH  10  34
ATOM     34  O   UNL     1       4.863  -9.250 -32.402  1.00  0.00    -0.507 OA
ATOM     35  H   UNL     1       5.805  -9.367 -32.051  1.00  0.00     0.293 HD
ENDBRANCH  10  34
BRANCH   9  36
ATOM     36  C   UNL     1       5.575  -4.012 -35.838  1.00  0.00     0.017 C 
ATOM     37  C   UNL     1       5.338  -2.725 -35.041  1.00  0.00     0.012 C 
ATOM     38  C   UNL     1       6.571  -3.780 -36.991  1.00  0.00     0.012 C 
ENDBRANCH   9  36
BRANCH   6  39
ATOM     39  C   UNL     1       7.437  -8.772 -33.102  1.00  0.00     0.264 C 
ATOM     40  O   UNL     1       8.270  -9.373 -33.830  1.00  0.00    -0.298 OA
ENDBRANCH   6  39
BRANCH   8  41
ATOM     41  O   UNL     1       8.110  -4.126 -34.482  1.00  0.00    -0.504 OA
ATOM     42  H   UNL     1       7.787  -3.172 -34.416  1.00  0.00     0.293 HD
ENDBRANCH   8  41
BRANCH   7  43
ATOM     43  O   UNL     1       9.082  -6.598 -33.444  1.00  0.00    -0.504 OA
ATOM     44  H   UNL     1       9.474  -7.459 -33.092  1.00  0.00     0.293 HD
ENDBRANCH   7  43
TORSDOF 11
ENDMDL
MODEL 7
REMARK VINA RESULT:    -6.183      9.759     14.551
REMARK INTER + INTRA:         -10.550
REMARK INTER:                  -9.129
REMARK INTRA:                  -1.421
REMARK UNBOUND:                -1.475
REMARK SMILES Cc1cc2c(C(C)C)c(O)c(O)c(C=O)c2c(O)c1-c1c(C)cc2c(C(C)C)c(O)c(O)c(C=O)c2c1O
REMARK SMILES IDX 1 1 2 2 3 3 4 4 16 5 13 6 11 7 9 8 5 9 17 10 19 11 20 12
REMARK SMILES IDX 37 13 21 14 36 15 23 16 22 17 24 18 33 19 25 20 31 21 29 22
REMARK SMILES IDX 38 23 34 25 35 26 26 27 27 28 28 29 32 30 30 32 18 34 6 36
REMARK SMILES IDX 7 37 8 38 14 39 15 40 10 41 12 43
REMARK H PARENT 38 24 32 31 30 33 18 35 10 42 12 44
REMARK Flexibility Score: inf
ROOT
ATOM      1  C   UNL     1      -0.632  -6.759 -30.784  1.00  0.00     0.045 C 
ATOM      2  C   UNL     1      -0.646  -8.007 -31.632  1.00  0.00    -0.039 A 
ATOM      3  C   UNL     1      -1.039  -9.218 -31.059  1.00  0.00     0.013 A 
ATOM      4  C   UNL     1      -1.030 -10.427 -31.791  1.00  0.00    -0.006 A 
ATOM      5  C   UNL     1      -0.675 -10.387 -33.172  1.00  0.00     0.039 A 
ATOM      6  C   UNL     1      -0.653 -11.603 -33.911  1.00  0.00     0.072 A 
ATOM      7  C   UNL     1      -1.200 -12.770 -33.357  1.00  0.00     0.169 A 
ATOM      8  C   UNL     1      -1.650 -12.778 -32.025  1.00  0.00     0.162 A 
ATOM      9  C   UNL     1      -1.412 -11.666 -31.187  1.00  0.00     0.008 A 
ATOM     10  C   UNL     1      -0.407  -9.128 -33.783  1.00  0.00     0.132 A 
ATOM     11  C   UNL     1      -0.338  -7.957 -33.002  1.00  0.00     0.031 A 
ENDROOT
BRANCH  11  12
ATOM     12  C   UNL     1       0.033  -6.662 -33.632  1.00  0.00     0.031 A 
ATOM     13  C   UNL     1      -0.965  -5.796 -34.126  1.00  0.00     0.132 A 
ATOM     14  C   UNL     1       1.387  -6.299 -33.729  1.00  0.00    -0.039 A 
ATOM     15  C   UNL     1      -0.611  -4.529 -34.677  1.00  0.00     0.039 A 
ATOM     16  C   UNL     1       1.738  -5.121 -34.388  1.00  0.00     0.013 A 
ATOM     17  C   UNL     1       2.472  -7.189 -33.174  1.00  0.00     0.045 C 
ATOM     18  C   UNL     1       0.764  -4.251 -34.928  1.00  0.00    -0.006 A 
ATOM     19  C   UNL     1      -1.586  -3.545 -35.013  1.00  0.00     0.072 A 
ATOM     20  C   UNL     1       1.137  -3.098 -35.682  1.00  0.00     0.008 A 
ATOM     21  C   UNL     1      -1.192  -2.346 -35.637  1.00  0.00     0.169 A 
ATOM     22  C   UNL     1       0.163  -2.106 -35.934  1.00  0.00     0.162 A 
BRANCH  13  23
ATOM     23  O   UNL     1      -2.302  -6.210 -34.114  1.00  0.00    -0.507 OA
ATOM     24  H   UNL     1      -3.030  -5.750 -33.581  1.00  0.00     0.293 HD
ENDBRANCH  13  23
BRANCH  19  25
ATOM     25  C   UNL     1      -3.006  -3.675 -34.607  1.00  0.00     0.264 C 
ATOM     26  O   UNL     1      -3.897  -3.974 -35.447  1.00  0.00    -0.298 OA
ENDBRANCH  19  25
BRANCH  20  27
ATOM     27  C   UNL     1       2.576  -2.905 -36.197  1.00  0.00     0.017 C 
ATOM     28  C   UNL     1       2.988  -4.056 -37.120  1.00  0.00     0.012 C 
ATOM     29  C   UNL     1       3.611  -2.684 -35.078  1.00  0.00     0.012 C 
ENDBRANCH  20  27
BRANCH  21  30
ATOM     30  O   UNL     1      -2.180  -1.401 -35.947  1.00  0.00    -0.504 OA
ATOM     31  H   UNL     1      -2.139  -0.426 -35.690  1.00  0.00     0.293 HD
ENDBRANCH  21  30
BRANCH  22  32
ATOM     32  O   UNL     1       0.574  -0.871 -36.442  1.00  0.00    -0.504 OA
ATOM     33  H   UNL     1       0.619  -0.640 -37.423  1.00  0.00     0.293 HD
ENDBRANCH  22  32
ENDBRANCH  11  12
BRANCH  10  34
ATOM     34  O   UNL     1      -0.269  -9.038 -35.173  1.00  0.00    -0.507 OA
ATOM     35  H   UNL     1      -0.317  -9.833 -35.797  1.00  0.00     0.293 HD
ENDBRANCH  10  34
BRANCH   9  36
ATOM     36  C   UNL     1      -1.621 -11.797 -29.668  1.00  0.00     0.017 C 
ATOM     37  C   UNL     1      -0.297 -11.627 -28.916  1.00  0.00     0.012 C 
ATOM     38  C   UNL     1      -2.708 -10.860 -29.106  1.00  0.00     0.012 C 
ENDBRANCH   9  36
BRANCH   6  39
ATOM     39  C   UNL     1       0.006 -11.732 -35.232  1.00  0.00     0.264 C 
ATOM     40  O   UNL     1      -0.674 -11.756 -36.291  1.00  0.00    -0.298 OA
ENDBRANCH   6  39
BRANCH   8  41
ATOM     41  O   UNL     1      -2.346 -13.879 -31.516  1.00  0.00    -0.504 OA
ATOM     42  H   UNL     1      -2.731 -13.924 -30.584  1.00  0.00     0.293 HD
ENDBRANCH   8  41
BRANCH   7  43
ATOM     43  O   UNL     1      -1.235 -13.929 -34.142  1.00  0.00    -0.504 OA
ATOM     44  H   UNL     1      -2.061 -14.268 -34.615  1.00  0.00     0.293 HD
ENDBRANCH   7  43
TORSDOF 11
ENDMDL
MODEL 8
REMARK VINA RESULT:    -6.163     11.295     14.567
REMARK INTER + INTRA:         -10.520
REMARK INTER:                  -9.197
REMARK INTRA:                  -1.324
REMARK UNBOUND:                -1.475
REMARK SMILES Cc1cc2c(C(C)C)c(O)c(O)c(C=O)c2c(O)c1-c1c(C)cc2c(C(C)C)c(O)c(O)c(C=O)c2c1O
REMARK SMILES IDX 1 1 2 2 3 3 4 4 16 5 13 6 11 7 9 8 5 9 17 10 19 11 20 12
REMARK SMILES IDX 37 13 21 14 36 15 23 16 22 17 24 18 33 19 25 20 31 21 29 22
REMARK SMILES IDX 38 23 34 25 35 26 26 27 27 28 28 29 32 30 30 32 18 34 6 36
REMARK SMILES IDX 7 37 8 38 14 39 15 40 10 41 12 43
REMARK H PARENT 38 24 32 31 30 33 18 35 10 42 12 44
REMARK Flexibility Score: inf
ROOT
ATOM      1  C   UNL     1       1.784  -8.017 -34.657  1.00  0.00     0.045 C 
ATOM      2  C   UNL     1       0.772  -8.942 -34.026  1.00  0.00    -0.039 A 
ATOM      3  C   UNL     1       0.984 -10.321 -34.073  1.00  0.00     0.013 A 
ATOM      4  C   UNL     1       0.051 -11.238 -33.538  1.00  0.00    -0.006 A 
ATOM      5  C   UNL     1      -1.103 -10.727 -32.873  1.00  0.00     0.039 A 
ATOM      6  C   UNL     1      -2.053 -11.645 -32.343  1.00  0.00     0.072 A 
ATOM      7  C   UNL     1      -1.740 -13.011 -32.265  1.00  0.00     0.169 A 
ATOM      8  C   UNL     1      -0.547 -13.497 -32.829  1.00  0.00     0.162 A 
ATOM      9  C   UNL     1       0.266 -12.649 -33.614  1.00  0.00     0.008 A 
ATOM     10  C   UNL     1      -1.245  -9.319 -32.710  1.00  0.00     0.132 A 
ATOM     11  C   UNL     1      -0.340  -8.435 -33.333  1.00  0.00     0.031 A 
ENDROOT
BRANCH  11  12
ATOM     12  C   UNL     1      -0.547  -6.965 -33.235  1.00  0.00     0.031 A 
ATOM     13  C   UNL     1      -1.329  -6.289 -34.195  1.00  0.00     0.132 A 
ATOM     14  C   UNL     1       0.038  -6.251 -32.177  1.00  0.00    -0.039 A 
ATOM     15  C   UNL     1      -1.574  -4.890 -34.068  1.00  0.00     0.039 A 
ATOM     16  C   UNL     1      -0.093  -4.862 -32.130  1.00  0.00     0.013 A 
ATOM     17  C   UNL     1       0.847  -6.956 -31.116  1.00  0.00     0.045 C 
ATOM     18  C   UNL     1      -0.837  -4.151 -33.097  1.00  0.00    -0.006 A 
ATOM     19  C   UNL     1      -2.506  -4.201 -34.897  1.00  0.00     0.072 A 
ATOM     20  C   UNL     1      -0.886  -2.725 -33.092  1.00  0.00     0.008 A 
ATOM     21  C   UNL     1      -2.646  -2.804 -34.791  1.00  0.00     0.169 A 
ATOM     22  C   UNL     1      -1.871  -2.076 -33.870  1.00  0.00     0.162 A 
BRANCH  13  23
ATOM     23  O   UNL     1      -1.824  -6.993 -35.298  1.00  0.00    -0.507 OA
ATOM     24  H   UNL     1      -1.237  -7.402 -36.016  1.00  0.00     0.293 HD
ENDBRANCH  13  23
BRANCH  19  25
ATOM     25  C   UNL     1      -3.446  -4.921 -35.789  1.00  0.00     0.264 C 
ATOM     26  O   UNL     1      -3.677  -4.509 -36.958  1.00  0.00    -0.298 OA
ENDBRANCH  19  25
BRANCH  20  27
ATOM     27  C   UNL     1       0.090  -1.890 -32.242  1.00  0.00     0.017 C 
ATOM     28  C   UNL     1      -0.628  -1.257 -31.045  1.00  0.00     0.012 C 
ATOM     29  C   UNL     1       0.871  -0.836 -33.049  1.00  0.00     0.012 C 
ENDBRANCH  20  27
BRANCH  21  30
ATOM     30  O   UNL     1      -3.577  -2.164 -35.621  1.00  0.00    -0.504 OA
ATOM     31  H   UNL     1      -3.352  -1.422 -36.267  1.00  0.00     0.293 HD
ENDBRANCH  21  30
BRANCH  22  32
ATOM     32  O   UNL     1      -2.090  -0.709 -33.676  1.00  0.00    -0.504 OA
ATOM     33  H   UNL     1      -2.309  -0.053 -34.410  1.00  0.00     0.293 HD
ENDBRANCH  22  32
ENDBRANCH  11  12
BRANCH  10  34
ATOM     34  O   UNL     1      -2.247  -8.805 -31.879  1.00  0.00    -0.507 OA
ATOM     35  H   UNL     1      -3.189  -9.171 -31.841  1.00  0.00     0.293 HD
ENDBRANCH  10  34
BRANCH   9  36
ATOM     36  C   UNL     1       1.388 -13.253 -34.476  1.00  0.00     0.017 C 
ATOM     37  C   UNL     1       2.568 -13.701 -33.606  1.00  0.00     0.012 C 
ATOM     38  C   UNL     1       0.916 -14.389 -35.405  1.00  0.00     0.012 C 
ENDBRANCH   9  36
BRANCH   6  39
ATOM     39  C   UNL     1      -3.420 -11.246 -31.935  1.00  0.00     0.264 C 
ATOM     40  O   UNL     1      -3.729 -11.157 -30.718  1.00  0.00    -0.298 OA
ENDBRANCH   6  39
BRANCH   8  41
ATOM     41  O   UNL     1      -0.147 -14.819 -32.614  1.00  0.00    -0.504 OA
ATOM     42  H   UNL     1      -0.313 -15.330 -31.759  1.00  0.00     0.293 HD
ENDBRANCH   8  41
BRANCH   7  43
ATOM     43  O   UNL     1      -2.664 -13.874 -31.664  1.00  0.00    -0.504 OA
ATOM     44  H   UNL     1      -3.299 -14.469 -32.176  1.00  0.00     0.293 HD
ENDBRANCH   7  43
TORSDOF 11
ENDMDL
