MODEL 1
REMARK VINA RESULT:    -4.221      0.000      0.000
REMARK INTER + INTRA:          -6.699
REMARK INTER:                  -6.194
REMARK INTRA:                  -0.505
REMARK UNBOUND:                -0.505
REMARK SMILES O=C([O-])CCCCCCCC(=O)[O-]
REMARK SMILES IDX 7 1 6 2 5 3 4 4 2 5 1 6 3 7 8 8 9 9 10 10 11 11 12 12 13 13
REMARK H PARENT
REMARK Flexibility Score: inf
ROOT
ATOM      1  C   UNL     1      22.784   6.853  15.918  1.00  0.00     0.000 C 
ENDROOT
BRANCH   1   2
ATOM      2  C   UNL     1      24.035   6.123  15.409  1.00  0.00     0.000 C 
BRANCH   2   3
ATOM      3  C   UNL     1      25.234   7.076  15.334  1.00  0.00     0.006 C 
BRANCH   3   4
ATOM      4  C   UNL     1      26.532   6.307  15.070  1.00  0.00     0.053 C 
BRANCH   4   5
ATOM      5  C   UNL     1      26.858   6.316  13.610  1.00  0.00     0.041 C 
ATOM      6  O   UNL     1      27.227   7.381  13.050  1.00  0.00    -0.550 OA
ATOM      7  O   UNL     1      26.707   5.158  12.857  1.00  0.00    -0.550 OA
ENDBRANCH   4   5
ENDBRANCH   3   4
ENDBRANCH   2   3
ENDBRANCH   1   2
BRANCH   1   8
ATOM      8  C   UNL     1      21.634   6.839  14.898  1.00  0.00     0.000 C 
BRANCH   8   9
ATOM      9  C   UNL     1      22.080   6.345  13.510  1.00  0.00     0.006 C 
BRANCH   9  10
ATOM     10  C   UNL     1      21.520   7.216  12.379  1.00  0.00     0.053 C 
BRANCH  10  11
ATOM     11  C   UNL     1      22.582   7.598  11.395  1.00  0.00     0.041 C 
ATOM     12  O   UNL     1      22.267   8.100  10.284  1.00  0.00    -0.550 OA
ATOM     13  O   UNL     1      23.920   7.368  11.691  1.00  0.00    -0.550 OA
ENDBRANCH  10  11
ENDBRANCH   9  10
ENDBRANCH   8   9
ENDBRANCH   1   8
TORSDOF 8
ENDMDL
MODEL 2
REMARK VINA RESULT:    -4.013     12.569     14.459
REMARK INTER + INTRA:          -6.395
REMARK INTER:                  -5.797
REMARK INTRA:                  -0.598
REMARK UNBOUND:                -0.505
REMARK SMILES O=C([O-])CCCCCCCC(=O)[O-]
REMARK SMILES IDX 7 1 6 2 5 3 4 4 2 5 1 6 3 7 8 8 9 9 10 10 11 11 12 12 13 13
REMARK H PARENT
REMARK Flexibility Score: inf
ROOT
ATOM      1  C   UNL     1      31.754  -3.870   6.894  1.00  0.00     0.000 C 
ENDROOT
BRANCH   1   2
ATOM      2  C   UNL     1      31.228  -5.062   7.707  1.00  0.00     0.000 C 
BRANCH   2   3
ATOM      3  C   UNL     1      29.706  -4.982   7.875  1.00  0.00     0.006 C 
BRANCH   3   4
ATOM      4  C   UNL     1      29.295  -3.674   8.558  1.00  0.00     0.053 C 
BRANCH   4   5
ATOM      5  C   UNL     1      28.008  -3.168   7.988  1.00  0.00     0.041 C 
ATOM      6  O   UNL     1      27.868  -3.053   6.743  1.00  0.00    -0.550 OA
ATOM      7  O   UNL     1      26.979  -2.773   8.836  1.00  0.00    -0.550 OA
ENDBRANCH   4   5
ENDBRANCH   3   4
ENDBRANCH   2   3
ENDBRANCH   1   2
BRANCH   1   8
ATOM      8  C   UNL     1      32.366  -4.295   5.549  1.00  0.00     0.000 C 
BRANCH   8   9
ATOM      9  C   UNL     1      31.381  -4.144   4.376  1.00  0.00     0.006 C 
BRANCH   9  10
ATOM     10  C   UNL     1      30.479  -2.915   4.534  1.00  0.00     0.053 C 
BRANCH  10  11
ATOM     11  C   UNL     1      30.934  -1.777   3.673  1.00  0.00     0.041 C 
ATOM     12  O   UNL     1      32.002  -1.871   3.012  1.00  0.00    -0.550 OA
ATOM     13  O   UNL     1      30.198  -0.600   3.628  1.00  0.00    -0.550 OA
ENDBRANCH  10  11
ENDBRANCH   9  10
ENDBRANCH   8   9
ENDBRANCH   1   8
TORSDOF 8
ENDMDL
MODEL 3
REMARK VINA RESULT:    -3.972      1.147      4.446
REMARK INTER + INTRA:          -6.335
REMARK INTER:                  -5.725
REMARK INTRA:                  -0.610
REMARK UNBOUND:                -0.505
REMARK SMILES O=C([O-])CCCCCCCC(=O)[O-]
REMARK SMILES IDX 7 1 6 2 5 3 4 4 2 5 1 6 3 7 8 8 9 9 10 10 11 11 12 12 13 13
REMARK H PARENT
REMARK Flexibility Score: inf
ROOT
ATOM      1  C   UNL     1      23.349   5.596  15.727  1.00  0.00     0.000 C 
ENDROOT
BRANCH   1   2
ATOM      2  C   UNL     1      21.888   5.536  15.259  1.00  0.00     0.000 C 
BRANCH   2   3
ATOM      3  C   UNL     1      21.563   6.707  14.323  1.00  0.00     0.006 C 
BRANCH   3   4
ATOM      4  C   UNL     1      22.063   6.431  12.902  1.00  0.00     0.053 C 
BRANCH   4   5
ATOM      5  C   UNL     1      21.613   7.511  11.969  1.00  0.00     0.041 C 
ATOM      6  O   UNL     1      22.377   7.916  11.055  1.00  0.00    -0.550 OA
ATOM      7  O   UNL     1      20.369   8.106  12.142  1.00  0.00    -0.550 OA
ENDBRANCH   4   5
ENDBRANCH   3   4
ENDBRANCH   2   3
ENDBRANCH   1   2
BRANCH   1   8
ATOM      8  C   UNL     1      23.785   7.016  16.124  1.00  0.00     0.000 C 
BRANCH   8   9
ATOM      9  C   UNL     1      25.133   7.418  15.499  1.00  0.00     0.006 C 
BRANCH   9  10
ATOM     10  C   UNL     1      25.771   6.266  14.713  1.00  0.00     0.053 C 
BRANCH  10  11
ATOM     11  C   UNL     1      26.244   6.711  13.363  1.00  0.00     0.041 C 
ATOM     12  O   UNL     1      27.401   7.189  13.222  1.00  0.00    -0.550 OA
ATOM     13  O   UNL     1      25.396   6.629  12.266  1.00  0.00    -0.550 OA
ENDBRANCH  10  11
ENDBRANCH   9  10
ENDBRANCH   8   9
ENDBRANCH   1   8
TORSDOF 8
ENDMDL
MODEL 4
REMARK VINA RESULT:    -3.912      3.676      5.102
REMARK INTER + INTRA:          -6.246
REMARK INTER:                  -5.908
REMARK INTRA:                  -0.339
REMARK UNBOUND:                -0.505
REMARK SMILES O=C([O-])CCCCCCCC(=O)[O-]
REMARK SMILES IDX 7 1 6 2 5 3 4 4 2 5 1 6 3 7 8 8 9 9 10 10 11 11 12 12 13 13
REMARK H PARENT
REMARK Flexibility Score: inf
ROOT
ATOM      1  C   UNL     1      23.127   6.630  15.518  1.00  0.00     0.000 C 
ENDROOT
BRANCH   1   2
ATOM      2  C   UNL     1      24.376   7.411  15.952  1.00  0.00     0.000 C 
BRANCH   2   3
ATOM      3  C   UNL     1      25.624   6.900  15.222  1.00  0.00     0.006 C 
BRANCH   3   4
ATOM      4  C   UNL     1      25.355   6.729  13.725  1.00  0.00     0.053 C 
BRANCH   4   5
ATOM      5  C   UNL     1      26.607   6.329  13.009  1.00  0.00     0.041 C 
ATOM      6  O   UNL     1      26.826   5.118  12.744  1.00  0.00    -0.550 OA
ATOM      7  O   UNL     1      27.557   7.288  12.679  1.00  0.00    -0.550 OA
ENDBRANCH   4   5
ENDBRANCH   3   4
ENDBRANCH   2   3
ENDBRANCH   1   2
BRANCH   1   8
ATOM      8  C   UNL     1      22.332   6.076  16.711  1.00  0.00     0.000 C 
BRANCH   8   9
ATOM      9  C   UNL     1      22.782   4.662  17.117  1.00  0.00     0.006 C 
BRANCH   9  10
ATOM     10  C   UNL     1      23.801   4.686  18.263  1.00  0.00     0.053 C 
BRANCH  10  11
ATOM     11  C   UNL     1      23.194   5.196  19.534  1.00  0.00     0.041 C 
ATOM     12  O   UNL     1      23.269   6.418  19.827  1.00  0.00    -0.550 OA
ATOM     13  O   UNL     1      22.576   4.314  20.412  1.00  0.00    -0.550 OA
ENDBRANCH  10  11
ENDBRANCH   9  10
ENDBRANCH   8   9
ENDBRANCH   1   8
TORSDOF 8
ENDMDL
MODEL 5
REMARK VINA RESULT:    -3.854      4.621      8.036
REMARK INTER + INTRA:          -6.161
REMARK INTER:                  -5.552
REMARK INTRA:                  -0.609
REMARK UNBOUND:                -0.505
REMARK SMILES O=C([O-])CCCCCCCC(=O)[O-]
REMARK SMILES IDX 7 1 6 2 5 3 4 4 2 5 1 6 3 7 8 8 9 9 10 10 11 11 12 12 13 13
REMARK H PARENT
REMARK Flexibility Score: inf
ROOT
ATOM      1  C   UNL     1      19.389   4.876   8.709  1.00  0.00     0.000 C 
ENDROOT
BRANCH   1   2
ATOM      2  C   UNL     1      18.031   5.426   8.249  1.00  0.00     0.000 C 
BRANCH   2   3
ATOM      3  C   UNL     1      18.208   6.701   7.416  1.00  0.00     0.006 C 
BRANCH   3   4
ATOM      4  C   UNL     1      17.094   7.709   7.710  1.00  0.00     0.053 C 
BRANCH   4   5
ATOM      5  C   UNL     1      17.193   8.204   9.118  1.00  0.00     0.041 C 
ATOM      6  O   UNL     1      18.219   8.826   9.501  1.00  0.00    -0.550 OA
ATOM      7  O   UNL     1      16.174   7.935  10.024  1.00  0.00    -0.550 OA
ENDBRANCH   4   5
ENDBRANCH   3   4
ENDBRANCH   2   3
ENDBRANCH   1   2
BRANCH   1   8
ATOM      8  C   UNL     1      20.061   5.768   9.766  1.00  0.00     0.000 C 
BRANCH   8   9
ATOM      9  C   UNL     1      19.253   5.846  11.074  1.00  0.00     0.006 C 
BRANCH   9  10
ATOM     10  C   UNL     1      20.150   5.739  12.313  1.00  0.00     0.053 C 
BRANCH  10  11
ATOM     11  C   UNL     1      20.393   7.078  12.939  1.00  0.00     0.041 C 
ATOM     12  O   UNL     1      20.396   7.202  14.192  1.00  0.00    -0.550 OA
ATOM     13  O   UNL     1      20.584   8.196  12.137  1.00  0.00    -0.550 OA
ENDBRANCH  10  11
ENDBRANCH   9  10
ENDBRANCH   8   9
ENDBRANCH   1   8
TORSDOF 8
ENDMDL
MODEL 6
REMARK VINA RESULT:    -3.800      4.425      6.779
REMARK INTER + INTRA:          -6.081
REMARK INTER:                  -5.481
REMARK INTRA:                  -0.600
REMARK UNBOUND:                -0.505
REMARK SMILES O=C([O-])CCCCCCCC(=O)[O-]
REMARK SMILES IDX 7 1 6 2 5 3 4 4 2 5 1 6 3 7 8 8 9 9 10 10 11 11 12 12 13 13
REMARK H PARENT
REMARK Flexibility Score: inf
ROOT
ATOM      1  C   UNL     1      18.926   5.217   7.870  1.00  0.00     0.000 C 
ENDROOT
BRANCH   1   2
ATOM      2  C   UNL     1      19.304   4.880   9.320  1.00  0.00     0.000 C 
BRANCH   2   3
ATOM      3  C   UNL     1      20.785   5.175   9.584  1.00  0.00     0.006 C 
BRANCH   3   4
ATOM      4  C   UNL     1      20.961   6.028  10.843  1.00  0.00     0.053 C 
BRANCH   4   5
ATOM      5  C   UNL     1      22.070   7.015  10.658  1.00  0.00     0.041 C 
ATOM      6  O   UNL     1      23.055   6.731   9.927  1.00  0.00    -0.550 OA
ATOM      7  O   UNL     1      22.042   8.229  11.334  1.00  0.00    -0.550 OA
ENDBRANCH   4   5
ENDBRANCH   3   4
ENDBRANCH   2   3
ENDBRANCH   1   2
BRANCH   1   8
ATOM      8  C   UNL     1      17.528   5.845   7.754  1.00  0.00     0.000 C 
BRANCH   8   9
ATOM      9  C   UNL     1      17.578   7.336   7.374  1.00  0.00     0.006 C 
BRANCH   9  10
ATOM     10  C   UNL     1      16.913   8.225   8.433  1.00  0.00     0.053 C 
BRANCH  10  11
ATOM     11  C   UNL     1      17.589   8.104   9.763  1.00  0.00     0.041 C 
ATOM     12  O   UNL     1      18.744   8.577   9.933  1.00  0.00    -0.550 OA
ATOM     13  O   UNL     1      16.958   7.440  10.808  1.00  0.00    -0.550 OA
ENDBRANCH  10  11
ENDBRANCH   9  10
ENDBRANCH   8   9
ENDBRANCH   1   8
TORSDOF 8
ENDMDL
MODEL 7
REMARK VINA RESULT:    -3.792      3.638      5.458
REMARK INTER + INTRA:          -6.071
REMARK INTER:                  -5.714
REMARK INTRA:                  -0.356
REMARK UNBOUND:                -0.505
REMARK SMILES O=C([O-])CCCCCCCC(=O)[O-]
REMARK SMILES IDX 7 1 6 2 5 3 4 4 2 5 1 6 3 7 8 8 9 9 10 10 11 11 12 12 13 13
REMARK H PARENT
REMARK Flexibility Score: inf
ROOT
ATOM      1  C   UNL     1      22.937   6.859  16.364  1.00  0.00     0.000 C 
ENDROOT
BRANCH   1   2
ATOM      2  C   UNL     1      23.969   6.222  15.422  1.00  0.00     0.000 C 
BRANCH   2   3
ATOM      3  C   UNL     1      25.206   7.116  15.277  1.00  0.00     0.006 C 
BRANCH   3   4
ATOM      4  C   UNL     1      26.469   6.277  15.060  1.00  0.00     0.053 C 
BRANCH   4   5
ATOM      5  C   UNL     1      26.856   6.278  13.615  1.00  0.00     0.041 C 
ATOM      6  O   UNL     1      27.297   7.328  13.078  1.00  0.00    -0.550 OA
ATOM      7  O   UNL     1      26.684   5.133  12.847  1.00  0.00    -0.550 OA
ENDBRANCH   4   5
ENDBRANCH   3   4
ENDBRANCH   2   3
ENDBRANCH   1   2
BRANCH   1   8
ATOM      8  C   UNL     1      22.988   6.269  17.782  1.00  0.00     0.000 C 
BRANCH   8   9
ATOM      9  C   UNL     1      23.080   4.733  17.782  1.00  0.00     0.006 C 
BRANCH   9  10
ATOM     10  C   UNL     1      22.889   4.143  19.185  1.00  0.00     0.053 C 
BRANCH  10  11
ATOM     11  C   UNL     1      24.005   3.215  19.554  1.00  0.00     0.041 C 
ATOM     12  O   UNL     1      23.827   2.322  20.423  1.00  0.00    -0.550 OA
ATOM     13  O   UNL     1      25.253   3.359  18.961  1.00  0.00    -0.550 OA
ENDBRANCH  10  11
ENDBRANCH   9  10
ENDBRANCH   8   9
ENDBRANCH   1   8
TORSDOF 8
ENDMDL
MODEL 8
REMARK VINA RESULT:    -3.792      0.975      4.371
REMARK INTER + INTRA:          -6.070
REMARK INTER:                  -5.549
REMARK INTRA:                  -0.521
REMARK UNBOUND:                -0.505
REMARK SMILES O=C([O-])CCCCCCCC(=O)[O-]
REMARK SMILES IDX 7 1 6 2 5 3 4 4 2 5 1 6 3 7 8 8 9 9 10 10 11 11 12 12 13 13
REMARK H PARENT
REMARK Flexibility Score: inf
ROOT
ATOM      1  C   UNL     1      23.044   5.599  15.692  1.00  0.00     0.000 C 
ENDROOT
BRANCH   1   2
ATOM      2  C   UNL     1      22.580   6.742  14.777  1.00  0.00     0.000 C 
BRANCH   2   3
ATOM      3  C   UNL     1      22.085   6.201  13.431  1.00  0.00     0.006 C 
BRANCH   3   4
ATOM      4  C   UNL     1      23.152   6.368  12.345  1.00  0.00     0.053 C 
BRANCH   4   5
ATOM      5  C   UNL     1      22.643   7.239  11.240  1.00  0.00     0.041 C 
ATOM      6  O   UNL     1      21.943   8.252  11.503  1.00  0.00    -0.550 OA
ATOM      7  O   UNL     1      22.899   6.905   9.916  1.00  0.00    -0.550 OA
ENDBRANCH   4   5
ENDBRANCH   3   4
ENDBRANCH   2   3
ENDBRANCH   1   2
BRANCH   1   8
ATOM      8  C   UNL     1      24.528   5.715  16.077  1.00  0.00     0.000 C 
BRANCH   8   9
ATOM      9  C   UNL     1      25.280   6.755  15.228  1.00  0.00     0.006 C 
BRANCH   9  10
ATOM     10  C   UNL     1      26.695   6.288  14.864  1.00  0.00     0.053 C 
BRANCH  10  11
ATOM     11  C   UNL     1      26.950   6.384  13.391  1.00  0.00     0.041 C 
ATOM     12  O   UNL     1      26.624   5.436  12.628  1.00  0.00    -0.550 OA
ATOM     13  O   UNL     1      27.578   7.506  12.865  1.00  0.00    -0.550 OA
ENDBRANCH  10  11
ENDBRANCH   9  10
ENDBRANCH   8   9
ENDBRANCH   1   8
TORSDOF 8
ENDMDL
MODEL 9
REMARK VINA RESULT:    -3.709     11.512     13.060
REMARK INTER + INTRA:          -5.948
REMARK INTER:                  -5.250
REMARK INTRA:                  -0.698
REMARK UNBOUND:                -0.505
REMARK SMILES O=C([O-])CCCCCCCC(=O)[O-]
REMARK SMILES IDX 7 1 6 2 5 3 4 4 2 5 1 6 3 7 8 8 9 9 10 10 11 11 12 12 13 13
REMARK H PARENT
REMARK Flexibility Score: inf
ROOT
ATOM      1  C   UNL     1      29.151  -0.345   8.334  1.00  0.00     0.000 C 
ENDROOT
BRANCH   1   2
ATOM      2  C   UNL     1      27.869  -1.027   8.834  1.00  0.00     0.000 C 
BRANCH   2   3
ATOM      3  C   UNL     1      27.879  -2.524   8.504  1.00  0.00     0.006 C 
BRANCH   3   4
ATOM      4  C   UNL     1      29.194  -3.176   8.942  1.00  0.00     0.053 C 
BRANCH   4   5
ATOM      5  C   UNL     1      29.560  -4.293   8.018  1.00  0.00     0.041 C 
ATOM      6  O   UNL     1      29.004  -4.392   6.892  1.00  0.00    -0.550 OA
ATOM      7  O   UNL     1      30.477  -5.257   8.419  1.00  0.00    -0.550 OA
ENDBRANCH   4   5
ENDBRANCH   3   4
ENDBRANCH   2   3
ENDBRANCH   1   2
BRANCH   1   8
ATOM      8  C   UNL     1      29.110  -0.039   6.828  1.00  0.00     0.000 C 
BRANCH   8   9
ATOM      9  C   UNL     1      30.112  -0.886   6.024  1.00  0.00     0.006 C 
BRANCH   9  10
ATOM     10  C   UNL     1      29.448  -1.596   4.838  1.00  0.00     0.053 C 
BRANCH  10  11
ATOM     11  C   UNL     1      30.451  -2.317   3.990  1.00  0.00     0.041 C 
ATOM     12  O   UNL     1      30.515  -3.574   4.016  1.00  0.00    -0.550 OA
ATOM     13  O   UNL     1      31.338  -1.599   3.198  1.00  0.00    -0.550 OA
ENDBRANCH  10  11
ENDBRANCH   9  10
ENDBRANCH   8   9
ENDBRANCH   1   8
TORSDOF 8
ENDMDL
