MODEL 1
REMARK VINA RESULT:    -3.931      0.000      0.000
REMARK INTER + INTRA:          -5.645
REMARK INTER:                  -5.080
REMARK INTRA:                  -0.564
REMARK UNBOUND:                -0.564
REMARK SMILES CO[C@@]1(CO)O[C@@H](CO)[C@H](O)[C@@H]1O
REMARK SMILES IDX 3 1 12 2 10 3 7 4 6 5 2 6 1 7 4 8 5 9 13 11 11 13 8 15 9 16
REMARK H PARENT 5 10 13 12 11 14 9 17
REMARK Flexibility Score: inf
ROOT
ATOM      1  C   UNL     1     -22.845 -12.868  38.782  1.00  0.00     0.221 C 
ATOM      2  C   UNL     1     -22.084 -11.522  38.677  1.00  0.00     0.207 C 
ATOM      3  C   UNL     1     -21.121 -11.644  39.831  1.00  0.00     0.180 C 
ATOM      4  C   UNL     1     -21.945 -12.435  40.845  1.00  0.00     0.179 C 
ATOM      5  O   UNL     1     -22.980 -13.122  40.167  1.00  0.00    -0.337 OA
ENDROOT
BRANCH   1   6
ATOM      6  O   UNL     1     -22.133 -13.986  38.247  1.00  0.00    -0.349 OA
ATOM      7  C   UNL     1     -22.670 -15.252  38.571  1.00  0.00     0.198 C 
ENDBRANCH   1   6
BRANCH   1   8
ATOM      8  C   UNL     1     -24.277 -12.808  38.193  1.00  0.00     0.224 C 
BRANCH   8   9
ATOM      9  O   UNL     1     -24.281 -12.293  36.889  1.00  0.00    -0.391 OA
ATOM     10  H   UNL     1     -23.440 -12.605  36.465  1.00  0.00     0.210 HD
ENDBRANCH   8   9
ENDBRANCH   1   8
BRANCH   2  11
ATOM     11  O   UNL     1     -22.967 -10.446  38.896  1.00  0.00    -0.385 OA
ATOM     12  H   UNL     1     -23.886 -10.820  38.902  1.00  0.00     0.211 HD
ENDBRANCH   2  11
BRANCH   3  13
ATOM     13  O   UNL     1     -20.744 -10.394  40.349  1.00  0.00    -0.387 OA
ATOM     14  H   UNL     1     -21.346  -9.724  39.931  1.00  0.00     0.211 HD
ENDBRANCH   3  13
BRANCH   4  15
ATOM     15  C   UNL     1     -21.100 -13.418  41.667  1.00  0.00     0.191 C 
BRANCH  15  16
ATOM     16  O   UNL     1     -20.058 -12.753  42.332  1.00  0.00    -0.394 OA
ATOM     17  H   UNL     1     -20.256 -12.796  43.303  1.00  0.00     0.210 HD
ENDBRANCH  15  16
ENDBRANCH   4  15
TORSDOF 7
ENDMDL
MODEL 2
REMARK VINA RESULT:    -3.681      1.478      3.558
REMARK INTER + INTRA:          -5.322
REMARK INTER:                  -4.664
REMARK INTRA:                  -0.658
REMARK UNBOUND:                -0.564
REMARK SMILES CO[C@@]1(CO)O[C@@H](CO)[C@H](O)[C@@H]1O
REMARK SMILES IDX 3 1 12 2 10 3 7 4 6 5 2 6 1 7 4 8 5 9 13 11 11 13 8 15 9 16
REMARK H PARENT 5 10 13 12 11 14 9 17
REMARK Flexibility Score: inf
ROOT
ATOM      1  C   UNL     1     -21.347 -12.826  39.626  1.00  0.00     0.221 C 
ATOM      2  C   UNL     1     -21.870 -11.536  40.305  1.00  0.00     0.207 C 
ATOM      3  C   UNL     1     -23.025 -11.182  39.403  1.00  0.00     0.180 C 
ATOM      4  C   UNL     1     -22.515 -11.652  38.042  1.00  0.00     0.179 C 
ATOM      5  O   UNL     1     -21.492 -12.611  38.236  1.00  0.00    -0.337 OA
ENDROOT
BRANCH   1   6
ATOM      6  O   UNL     1     -22.114 -13.996  39.923  1.00  0.00    -0.349 OA
ATOM      7  C   UNL     1     -21.830 -15.122  39.117  1.00  0.00     0.198 C 
ENDBRANCH   1   6
BRANCH   1   8
ATOM      8  C   UNL     1     -19.842 -13.087  39.886  1.00  0.00     0.224 C 
BRANCH   8   9
ATOM      9  O   UNL     1     -19.029 -12.395  38.978  1.00  0.00    -0.391 OA
ATOM     10  H   UNL     1     -18.560 -11.696  39.503  1.00  0.00     0.210 HD
ENDBRANCH   8   9
ENDBRANCH   1   8
BRANCH   2  11
ATOM     11  O   UNL     1     -20.888 -10.526  40.252  1.00  0.00    -0.385 OA
ATOM     12  H   UNL     1     -20.859 -10.198  39.316  1.00  0.00     0.211 HD
ENDBRANCH   2  11
BRANCH   3  13
ATOM     13  O   UNL     1     -23.296  -9.803  39.394  1.00  0.00    -0.387 OA
ATOM     14  H   UNL     1     -22.808  -9.417  40.168  1.00  0.00     0.211 HD
ENDBRANCH   3  13
BRANCH   4  15
ATOM     15  C   UNL     1     -23.626 -12.228  37.152  1.00  0.00     0.191 C 
BRANCH  15  16
ATOM     16  O   UNL     1     -24.479 -13.065  37.890  1.00  0.00    -0.394 OA
ATOM     17  H   UNL     1     -23.945 -13.439  38.638  1.00  0.00     0.210 HD
ENDBRANCH  15  16
ENDBRANCH   4  15
TORSDOF 7
ENDMDL
MODEL 3
REMARK VINA RESULT:    -3.650      1.506      3.904
REMARK INTER + INTRA:          -5.281
REMARK INTER:                  -4.700
REMARK INTRA:                  -0.581
REMARK UNBOUND:                -0.564
REMARK SMILES CO[C@@]1(CO)O[C@@H](CO)[C@H](O)[C@@H]1O
REMARK SMILES IDX 3 1 12 2 10 3 7 4 6 5 2 6 1 7 4 8 5 9 13 11 11 13 8 15 9 16
REMARK H PARENT 5 10 13 12 11 14 9 17
REMARK Flexibility Score: inf
ROOT
ATOM      1  C   UNL     1     -20.837 -12.074  40.230  1.00  0.00     0.221 C 
ATOM      2  C   UNL     1     -22.316 -11.642  40.069  1.00  0.00     0.207 C 
ATOM      3  C   UNL     1     -22.687 -12.347  38.789  1.00  0.00     0.180 C 
ATOM      4  C   UNL     1     -21.372 -12.298  38.013  1.00  0.00     0.179 C 
ATOM      5  O   UNL     1     -20.304 -12.102  38.920  1.00  0.00    -0.337 OA
ENDROOT
BRANCH   1   6
ATOM      6  O   UNL     1     -20.667 -13.394  40.749  1.00  0.00    -0.349 OA
ATOM      7  C   UNL     1     -21.219 -13.612  42.032  1.00  0.00     0.198 C 
ENDBRANCH   1   6
BRANCH   1   8
ATOM      8  C   UNL     1     -19.989 -11.061  41.041  1.00  0.00     0.224 C 
BRANCH   8   9
ATOM      9  O   UNL     1     -19.571  -9.982  40.249  1.00  0.00    -0.391 OA
ATOM     10  H   UNL     1     -19.217  -9.299  40.876  1.00  0.00     0.210 HD
ENDBRANCH   8   9
ENDBRANCH   1   8
BRANCH   2  11
ATOM     11  O   UNL     1     -22.398 -10.245  39.893  1.00  0.00    -0.385 OA
ATOM     12  H   UNL     1     -23.217 -10.067  39.361  1.00  0.00     0.211 HD
ENDBRANCH   2  11
BRANCH   3  13
ATOM     13  O   UNL     1     -23.712 -11.689  38.091  1.00  0.00    -0.387 OA
ATOM     14  H   UNL     1     -23.303 -10.878  37.691  1.00  0.00     0.211 HD
ENDBRANCH   3  13
BRANCH   4  15
ATOM     15  C   UNL     1     -21.129 -13.554  37.165  1.00  0.00     0.191 C 
BRANCH  15  16
ATOM     16  O   UNL     1     -22.320 -14.275  36.981  1.00  0.00    -0.394 OA
ATOM     17  H   UNL     1     -22.233 -15.120  37.495  1.00  0.00     0.210 HD
ENDBRANCH  15  16
ENDBRANCH   4  15
TORSDOF 7
ENDMDL
MODEL 4
REMARK VINA RESULT:    -3.644      1.900      3.845
REMARK INTER + INTRA:          -5.273
REMARK INTER:                  -4.758
REMARK INTRA:                  -0.515
REMARK UNBOUND:                -0.564
REMARK SMILES CO[C@@]1(CO)O[C@@H](CO)[C@H](O)[C@@H]1O
REMARK SMILES IDX 3 1 12 2 10 3 7 4 6 5 2 6 1 7 4 8 5 9 13 11 11 13 8 15 9 16
REMARK H PARENT 5 10 13 12 11 14 9 17
REMARK Flexibility Score: inf
ROOT
ATOM      1  C   UNL     1     -21.146 -13.235  38.614  1.00  0.00     0.221 C 
ATOM      2  C   UNL     1     -22.242 -13.458  37.542  1.00  0.00     0.207 C 
ATOM      3  C   UNL     1     -23.127 -12.260  37.780  1.00  0.00     0.180 C 
ATOM      4  C   UNL     1     -23.002 -12.074  39.292  1.00  0.00     0.179 C 
ATOM      5  O   UNL     1     -21.816 -12.703  39.740  1.00  0.00    -0.337 OA
ENDROOT
BRANCH   1   6
ATOM      6  O   UNL     1     -20.161 -12.264  38.250  1.00  0.00    -0.349 OA
ATOM      7  C   UNL     1     -19.312 -11.846  39.300  1.00  0.00     0.198 C 
ENDBRANCH   1   6
BRANCH   1   8
ATOM      8  C   UNL     1     -20.465 -14.549  39.074  1.00  0.00     0.224 C 
BRANCH   8   9
ATOM      9  O   UNL     1     -21.224 -15.215  40.046  1.00  0.00    -0.391 OA
ATOM     10  H   UNL     1     -20.861 -16.137  40.097  1.00  0.00     0.210 HD
ENDBRANCH   8   9
ENDBRANCH   1   8
BRANCH   2  11
ATOM     11  O   UNL     1     -22.952 -14.645  37.812  1.00  0.00    -0.385 OA
ATOM     12  H   UNL     1     -23.073 -14.694  38.796  1.00  0.00     0.211 HD
ENDBRANCH   2  11
BRANCH   3  13
ATOM     13  O   UNL     1     -24.461 -12.497  37.408  1.00  0.00    -0.387 OA
ATOM     14  H   UNL     1     -24.951 -11.649  37.569  1.00  0.00     0.211 HD
ENDBRANCH   3  13
BRANCH   4  15
ATOM     15  C   UNL     1     -23.019 -10.599  39.717  1.00  0.00     0.191 C 
BRANCH  15  16
ATOM     16  O   UNL     1     -24.319 -10.072  39.656  1.00  0.00    -0.394 OA
ATOM     17  H   UNL     1     -24.536  -9.940  38.697  1.00  0.00     0.210 HD
ENDBRANCH  15  16
ENDBRANCH   4  15
TORSDOF 7
ENDMDL
MODEL 5
REMARK VINA RESULT:    -3.597      1.832      3.325
REMARK INTER + INTRA:          -5.213
REMARK INTER:                  -4.573
REMARK INTRA:                  -0.640
REMARK UNBOUND:                -0.564
REMARK SMILES CO[C@@]1(CO)O[C@@H](CO)[C@H](O)[C@@H]1O
REMARK SMILES IDX 3 1 12 2 10 3 7 4 6 5 2 6 1 7 4 8 5 9 13 11 11 13 8 15 9 16
REMARK H PARENT 5 10 13 12 11 14 9 17
REMARK Flexibility Score: inf
ROOT
ATOM      1  C   UNL     1     -22.310 -12.135  39.030  1.00  0.00     0.221 C 
ATOM      2  C   UNL     1     -23.025 -12.628  37.748  1.00  0.00     0.207 C 
ATOM      3  C   UNL     1     -22.027 -13.630  37.226  1.00  0.00     0.180 C 
ATOM      4  C   UNL     1     -20.701 -12.999  37.646  1.00  0.00     0.179 C 
ATOM      5  O   UNL     1     -20.934 -12.091  38.706  1.00  0.00    -0.337 OA
ENDROOT
BRANCH   1   6
ATOM      6  O   UNL     1     -22.421 -13.027  40.142  1.00  0.00    -0.349 OA
ATOM      7  C   UNL     1     -21.583 -12.729  41.240  1.00  0.00     0.198 C 
ENDBRANCH   1   6
BRANCH   1   8
ATOM      8  C   UNL     1     -22.721 -10.700  39.447  1.00  0.00     0.224 C 
BRANCH   8   9
ATOM      9  O   UNL     1     -24.114 -10.544  39.468  1.00  0.00    -0.391 OA
ATOM     10  H   UNL     1     -24.357 -10.111  38.610  1.00  0.00     0.210 HD
ENDBRANCH   8   9
ENDBRANCH   1   8
BRANCH   2  11
ATOM     11  O   UNL     1     -23.167 -11.566  36.832  1.00  0.00    -0.385 OA
ATOM     12  H   UNL     1     -22.419 -10.936  36.999  1.00  0.00     0.211 HD
ENDBRANCH   2  11
BRANCH   3  13
ATOM     13  O   UNL     1     -22.097 -13.781  35.832  1.00  0.00    -0.387 OA
ATOM     14  H   UNL     1     -21.320 -14.341  35.571  1.00  0.00     0.211 HD
ENDBRANCH   3  13
BRANCH   4  15
ATOM     15  C   UNL     1     -19.645 -14.037  38.053  1.00  0.00     0.191 C 
BRANCH  15  16
ATOM     16  O   UNL     1     -20.186 -14.985  38.935  1.00  0.00    -0.394 OA
ATOM     17  H   UNL     1     -19.820 -14.788  39.836  1.00  0.00     0.210 HD
ENDBRANCH  15  16
ENDBRANCH   4  15
TORSDOF 7
ENDMDL
MODEL 6
REMARK VINA RESULT:    -3.569      1.425      3.071
REMARK INTER + INTRA:          -5.176
REMARK INTER:                  -4.593
REMARK INTRA:                  -0.584
REMARK UNBOUND:                -0.564
REMARK SMILES CO[C@@]1(CO)O[C@@H](CO)[C@H](O)[C@@H]1O
REMARK SMILES IDX 3 1 12 2 10 3 7 4 6 5 2 6 1 7 4 8 5 9 13 11 11 13 8 15 9 16
REMARK H PARENT 5 10 13 12 11 14 9 17
REMARK Flexibility Score: inf
ROOT
ATOM      1  C   UNL     1     -22.514 -11.668  39.430  1.00  0.00     0.221 C 
ATOM      2  C   UNL     1     -22.404 -12.548  40.700  1.00  0.00     0.207 C 
ATOM      3  C   UNL     1     -20.990 -12.256  41.133  1.00  0.00     0.180 C 
ATOM      4  C   UNL     1     -20.286 -12.062  39.791  1.00  0.00     0.179 C 
ATOM      5  O   UNL     1     -21.248 -11.743  38.803  1.00  0.00    -0.337 OA
ENDROOT
BRANCH   1   6
ATOM      6  O   UNL     1     -22.737 -10.281  39.696  1.00  0.00    -0.349 OA
ATOM      7  C   UNL     1     -24.056  -9.947  40.078  1.00  0.00     0.198 C 
ENDBRANCH   1   6
BRANCH   1   8
ATOM      8  C   UNL     1     -23.554 -12.195  38.408  1.00  0.00     0.224 C 
BRANCH   8   9
ATOM      9  O   UNL     1     -23.025 -13.221  37.611  1.00  0.00    -0.391 OA
ATOM     10  H   UNL     1     -22.051 -13.047  37.546  1.00  0.00     0.210 HD
ENDBRANCH   8   9
ENDBRANCH   1   8
BRANCH   2  11
ATOM     11  O   UNL     1     -22.535 -13.910  40.361  1.00  0.00    -0.385 OA
ATOM     12  H   UNL     1     -23.507 -14.103  40.303  1.00  0.00     0.211 HD
ENDBRANCH   2  11
BRANCH   3  13
ATOM     13  O   UNL     1     -20.420 -13.318  41.855  1.00  0.00    -0.387 OA
ATOM     14  H   UNL     1     -20.245 -14.041  41.197  1.00  0.00     0.211 HD
ENDBRANCH   3  13
BRANCH   4  15
ATOM     15  C   UNL     1     -19.192 -10.986  39.839  1.00  0.00     0.191 C 
BRANCH  15  16
ATOM     16  O   UNL     1     -19.641  -9.840  40.514  1.00  0.00    -0.394 OA
ATOM     17  H   UNL     1     -19.679 -10.066  41.480  1.00  0.00     0.210 HD
ENDBRANCH  15  16
ENDBRANCH   4  15
TORSDOF 7
ENDMDL
MODEL 7
REMARK VINA RESULT:    -3.566      1.718      2.372
REMARK INTER + INTRA:          -5.173
REMARK INTER:                  -4.537
REMARK INTRA:                  -0.636
REMARK UNBOUND:                -0.564
REMARK SMILES CO[C@@]1(CO)O[C@@H](CO)[C@H](O)[C@@H]1O
REMARK SMILES IDX 3 1 12 2 10 3 7 4 6 5 2 6 1 7 4 8 5 9 13 11 11 13 8 15 9 16
REMARK H PARENT 5 10 13 12 11 14 9 17
REMARK Flexibility Score: inf
ROOT
ATOM      1  C   UNL     1     -22.246 -12.511  37.462  1.00  0.00     0.221 C 
ATOM      2  C   UNL     1     -22.281 -11.632  38.737  1.00  0.00     0.207 C 
ATOM      3  C   UNL     1     -21.907 -12.640  39.794  1.00  0.00     0.180 C 
ATOM      4  C   UNL     1     -22.543 -13.917  39.247  1.00  0.00     0.179 C 
ATOM      5  O   UNL     1     -22.751 -13.773  37.855  1.00  0.00    -0.337 OA
ENDROOT
BRANCH   1   6
ATOM      6  O   UNL     1     -20.932 -12.757  36.957  1.00  0.00    -0.349 OA
ATOM      7  C   UNL     1     -20.881 -13.331  35.667  1.00  0.00     0.198 C 
ENDBRANCH   1   6
BRANCH   1   8
ATOM      8  C   UNL     1     -23.170 -11.988  36.333  1.00  0.00     0.224 C 
BRANCH   8   9
ATOM      9  O   UNL     1     -24.522 -12.233  36.612  1.00  0.00    -0.391 OA
ATOM     10  H   UNL     1     -24.781 -11.585  37.317  1.00  0.00     0.210 HD
ENDBRANCH   8   9
ENDBRANCH   1   8
BRANCH   2  11
ATOM     11  O   UNL     1     -23.589 -11.156  38.964  1.00  0.00    -0.385 OA
ATOM     12  H   UNL     1     -23.608 -10.787  39.885  1.00  0.00     0.211 HD
ENDBRANCH   2  11
BRANCH   3  13
ATOM     13  O   UNL     1     -22.432 -12.313  41.056  1.00  0.00    -0.387 OA
ATOM     14  H   UNL     1     -21.666 -12.006  41.607  1.00  0.00     0.211 HD
ENDBRANCH   3  13
BRANCH   4  15
ATOM     15  C   UNL     1     -21.707 -15.173  39.536  1.00  0.00     0.191 C 
BRANCH  15  16
ATOM     16  O   UNL     1     -20.434 -15.075  38.952  1.00  0.00    -0.394 OA
ATOM     17  H   UNL     1     -20.487 -15.510  38.061  1.00  0.00     0.210 HD
ENDBRANCH  15  16
ENDBRANCH   4  15
TORSDOF 7
ENDMDL
MODEL 8
REMARK VINA RESULT:    -3.540      1.567      2.973
REMARK INTER + INTRA:          -5.139
REMARK INTER:                  -4.495
REMARK INTRA:                  -0.644
REMARK UNBOUND:                -0.564
REMARK SMILES CO[C@@]1(CO)O[C@@H](CO)[C@H](O)[C@@H]1O
REMARK SMILES IDX 3 1 12 2 10 3 7 4 6 5 2 6 1 7 4 8 5 9 13 11 11 13 8 15 9 16
REMARK H PARENT 5 10 13 12 11 14 9 17
REMARK Flexibility Score: inf
ROOT
ATOM      1  C   UNL     1     -22.655 -12.555  38.771  1.00  0.00     0.221 C 
ATOM      2  C   UNL     1     -22.846 -14.078  38.985  1.00  0.00     0.207 C 
ATOM      3  C   UNL     1     -21.720 -14.378  39.942  1.00  0.00     0.180 C 
ATOM      4  C   UNL     1     -20.645 -13.397  39.480  1.00  0.00     0.179 C 
ATOM      5  O   UNL     1     -21.256 -12.344  38.758  1.00  0.00    -0.337 OA
ENDROOT
BRANCH   1   6
ATOM      6  O   UNL     1     -23.163 -11.747  39.834  1.00  0.00    -0.349 OA
ATOM      7  C   UNL     1     -23.049 -10.352  39.637  1.00  0.00     0.198 C 
ENDBRANCH   1   6
BRANCH   1   8
ATOM      8  C   UNL     1     -23.198 -12.057  37.407  1.00  0.00     0.224 C 
BRANCH   8   9
ATOM      9  O   UNL     1     -24.522 -12.465  37.195  1.00  0.00    -0.391 OA
ATOM     10  H   UNL     1     -24.709 -13.164  37.873  1.00  0.00     0.210 HD
ENDBRANCH   8   9
ENDBRANCH   1   8
BRANCH   2  11
ATOM     11  O   UNL     1     -22.646 -14.768  37.772  1.00  0.00    -0.385 OA
ATOM     12  H   UNL     1     -22.202 -14.137  37.148  1.00  0.00     0.211 HD
ENDBRANCH   2  11
BRANCH   3  13
ATOM     13  O   UNL     1     -21.271 -15.706  39.843  1.00  0.00    -0.387 OA
ATOM     14  H   UNL     1     -20.287 -15.679  39.969  1.00  0.00     0.211 HD
ENDBRANCH   3  13
BRANCH   4  15
ATOM     15  C   UNL     1     -19.808 -12.836  40.638  1.00  0.00     0.191 C 
BRANCH  15  16
ATOM     16  O   UNL     1     -20.608 -12.103  41.529  1.00  0.00    -0.394 OA
ATOM     17  H   UNL     1     -20.431 -11.142  41.358  1.00  0.00     0.210 HD
ENDBRANCH  15  16
ENDBRANCH   4  15
TORSDOF 7
ENDMDL
MODEL 9
REMARK VINA RESULT:    -3.528      1.443      4.359
REMARK INTER + INTRA:          -5.124
REMARK INTER:                  -4.489
REMARK INTRA:                  -0.635
REMARK UNBOUND:                -0.564
REMARK SMILES CO[C@@]1(CO)O[C@@H](CO)[C@H](O)[C@@H]1O
REMARK SMILES IDX 3 1 12 2 10 3 7 4 6 5 2 6 1 7 4 8 5 9 13 11 11 13 8 15 9 16
REMARK H PARENT 5 10 13 12 11 14 9 17
REMARK Flexibility Score: inf
ROOT
ATOM      1  C   UNL     1     -21.324 -13.060  40.140  1.00  0.00     0.221 C 
ATOM      2  C   UNL     1     -21.160 -14.379  39.344  1.00  0.00     0.207 C 
ATOM      3  C   UNL     1     -22.234 -14.222  38.298  1.00  0.00     0.180 C 
ATOM      4  C   UNL     1     -23.310 -13.456  39.068  1.00  0.00     0.179 C 
ATOM      5  O   UNL     1     -22.715 -12.807  40.175  1.00  0.00    -0.337 OA
ENDROOT
BRANCH   1   6
ATOM      6  O   UNL     1     -20.735 -11.920  39.511  1.00  0.00    -0.349 OA
ATOM      7  C   UNL     1     -20.343 -10.883  40.388  1.00  0.00     0.198 C 
ENDBRANCH   1   6
BRANCH   1   8
ATOM      8  C   UNL     1     -20.849 -13.170  41.611  1.00  0.00     0.224 C 
BRANCH   8   9
ATOM      9  O   UNL     1     -21.877 -13.605  42.458  1.00  0.00    -0.391 OA
ATOM     10  H   UNL     1     -21.436 -14.090  43.203  1.00  0.00     0.210 HD
ENDBRANCH   8   9
ENDBRANCH   1   8
BRANCH   2  11
ATOM     11  O   UNL     1     -21.447 -15.484  40.170  1.00  0.00    -0.385 OA
ATOM     12  H   UNL     1     -20.601 -15.992  40.281  1.00  0.00     0.211 HD
ENDBRANCH   2  11
BRANCH   3  13
ATOM     13  O   UNL     1     -22.722 -15.457  37.840  1.00  0.00    -0.387 OA
ATOM     14  H   UNL     1     -23.326 -15.800  38.549  1.00  0.00     0.211 HD
ENDBRANCH   3  13
BRANCH   4  15
ATOM     15  C   UNL     1     -24.064 -12.443  38.195  1.00  0.00     0.191 C 
BRANCH  15  16
ATOM     16  O   UNL     1     -23.232 -11.371  37.835  1.00  0.00    -0.394 OA
ATOM     17  H   UNL     1     -22.298 -11.704  37.863  1.00  0.00     0.210 HD
ENDBRANCH  15  16
ENDBRANCH   4  15
TORSDOF 7
ENDMDL
