MODEL 1
REMARK VINA RESULT:    -3.503      0.000      0.000
REMARK INTER + INTRA:          -3.919
REMARK INTER:                  -3.913
REMARK INTRA:                  -0.006
REMARK UNBOUND:                -0.006
REMARK SMILES CCCC(=O)[O-]
REMARK SMILES IDX 3 1 4 2 5 3 6 4 2 5 1 6
REMARK H PARENT
REMARK Flexibility Score: inf
ROOT
ATOM      1  C   UNL     1      16.680  69.729  32.715  1.00  0.00     0.052 C 
ENDROOT
BRANCH   1   2
ATOM      2  C   UNL     1      17.011  70.103  34.127  1.00  0.00     0.041 C 
ATOM      3  O   UNL     1      17.002  69.228  35.032  1.00  0.00    -0.550 OA
ATOM      4  O   UNL     1      17.362  71.411  34.438  1.00  0.00    -0.550 OA
ENDBRANCH   1   2
BRANCH   1   5
ATOM      5  C   UNL     1      15.363  68.947  32.626  1.00  0.00     0.003 C 
ATOM      6  C   UNL     1      14.684  69.102  31.266  1.00  0.00     0.004 C 
ENDBRANCH   1   5
TORSDOF 2
ENDMDL
MODEL 2
REMARK VINA RESULT:    -3.462      0.185      1.331
REMARK INTER + INTRA:          -3.874
REMARK INTER:                  -3.868
REMARK INTRA:                  -0.006
REMARK UNBOUND:                -0.006
REMARK SMILES CCCC(=O)[O-]
REMARK SMILES IDX 3 1 4 2 5 3 6 4 2 5 1 6
REMARK H PARENT
REMARK Flexibility Score: inf
ROOT
ATOM      1  C   UNL     1      16.655  69.730  32.725  1.00  0.00     0.052 C 
ENDROOT
BRANCH   1   2
ATOM      2  C   UNL     1      16.995  69.998  34.159  1.00  0.00     0.041 C 
ATOM      3  O   UNL     1      17.419  71.131  34.507  1.00  0.00    -0.550 OA
ATOM      4  O   UNL     1      16.811  69.008  35.116  1.00  0.00    -0.550 OA
ENDBRANCH   1   2
BRANCH   1   5
ATOM      5  C   UNL     1      15.327  68.974  32.586  1.00  0.00     0.003 C 
ATOM      6  C   UNL     1      14.672  69.192  31.223  1.00  0.00     0.004 C 
ENDBRANCH   1   5
TORSDOF 2
ENDMDL
MODEL 3
REMARK VINA RESULT:    -3.295      8.504      8.989
REMARK INTER + INTRA:          -3.686
REMARK INTER:                  -3.667
REMARK INTRA:                  -0.019
REMARK UNBOUND:                -0.006
REMARK SMILES CCCC(=O)[O-]
REMARK SMILES IDX 3 1 4 2 5 3 6 4 2 5 1 6
REMARK H PARENT
REMARK Flexibility Score: inf
ROOT
ATOM      1  C   UNL     1      23.475  69.093  27.599  1.00  0.00     0.052 C 
ENDROOT
BRANCH   1   2
ATOM      2  C   UNL     1      24.088  70.445  27.805  1.00  0.00     0.041 C 
ATOM      3  O   UNL     1      25.339  70.577  27.816  1.00  0.00    -0.550 OA
ATOM      4  O   UNL     1      23.276  71.563  27.948  1.00  0.00    -0.550 OA
ENDBRANCH   1   2
BRANCH   1   5
ATOM      5  C   UNL     1      21.942  69.155  27.616  1.00  0.00     0.003 C 
ATOM      6  C   UNL     1      21.324  68.056  28.479  1.00  0.00     0.004 C 
ENDBRANCH   1   5
TORSDOF 2
ENDMDL
MODEL 4
REMARK VINA RESULT:    -3.168      9.043      9.731
REMARK INTER + INTRA:          -3.544
REMARK INTER:                  -3.514
REMARK INTRA:                  -0.031
REMARK UNBOUND:                -0.006
REMARK SMILES CCCC(=O)[O-]
REMARK SMILES IDX 3 1 4 2 5 3 6 4 2 5 1 6
REMARK H PARENT
REMARK Flexibility Score: inf
ROOT
ATOM      1  C   UNL     1      24.344  74.636  29.196  1.00  0.00     0.052 C 
ENDROOT
BRANCH   1   2
ATOM      2  C   UNL     1      24.218  74.929  30.659  1.00  0.00     0.041 C 
ATOM      3  O   UNL     1      24.771  75.948  31.150  1.00  0.00    -0.550 OA
ATOM      4  O   UNL     1      23.462  74.096  31.475  1.00  0.00    -0.550 OA
ENDBRANCH   1   2
BRANCH   1   5
ATOM      5  C   UNL     1      23.443  73.469  28.770  1.00  0.00     0.003 C 
ATOM      6  C   UNL     1      24.234  72.322  28.143  1.00  0.00     0.004 C 
ENDBRANCH   1   5
TORSDOF 2
ENDMDL
MODEL 5
REMARK VINA RESULT:    -3.157      2.109      3.254
REMARK INTER + INTRA:          -3.532
REMARK INTER:                  -3.522
REMARK INTRA:                  -0.010
REMARK UNBOUND:                -0.006
REMARK SMILES CCCC(=O)[O-]
REMARK SMILES IDX 3 1 4 2 5 3 6 4 2 5 1 6
REMARK H PARENT
REMARK Flexibility Score: inf
ROOT
ATOM      1  C   UNL     1      16.825  69.761  32.820  1.00  0.00     0.052 C 
ENDROOT
BRANCH   1   2
ATOM      2  C   UNL     1      15.574  68.958  32.634  1.00  0.00     0.041 C 
ATOM      3  O   UNL     1      15.257  68.078  33.477  1.00  0.00    -0.550 OA
ATOM      4  O   UNL     1      14.742  69.205  31.550  1.00  0.00    -0.550 OA
ENDBRANCH   1   2
BRANCH   1   5
ATOM      5  C   UNL     1      17.044  70.141  34.290  1.00  0.00     0.003 C 
ATOM      6  C   UNL     1      17.422  71.612  34.462  1.00  0.00     0.004 C 
ENDBRANCH   1   5
TORSDOF 2
ENDMDL
MODEL 6
REMARK VINA RESULT:    -3.147      9.511     10.088
REMARK INTER + INTRA:          -3.521
REMARK INTER:                  -3.508
REMARK INTRA:                  -0.013
REMARK UNBOUND:                -0.006
REMARK SMILES CCCC(=O)[O-]
REMARK SMILES IDX 3 1 4 2 5 3 6 4 2 5 1 6
REMARK H PARENT
REMARK Flexibility Score: inf
ROOT
ATOM      1  C   UNL     1      25.026  70.972  27.831  1.00  0.00     0.052 C 
ENDROOT
BRANCH   1   2
ATOM      2  C   UNL     1      24.270  72.253  28.000  1.00  0.00     0.041 C 
ATOM      3  O   UNL     1      24.888  73.333  28.192  1.00  0.00    -0.550 OA
ATOM      4  O   UNL     1      22.883  72.261  27.911  1.00  0.00    -0.550 OA
ENDBRANCH   1   2
BRANCH   1   5
ATOM      5  C   UNL     1      24.085  69.769  27.689  1.00  0.00     0.003 C 
ATOM      6  C   UNL     1      24.700  68.642  26.861  1.00  0.00     0.004 C 
ENDBRANCH   1   5
TORSDOF 2
ENDMDL
MODEL 7
REMARK VINA RESULT:    -3.094      9.484     10.090
REMARK INTER + INTRA:          -3.462
REMARK INTER:                  -3.412
REMARK INTRA:                  -0.050
REMARK UNBOUND:                -0.006
REMARK SMILES CCCC(=O)[O-]
REMARK SMILES IDX 3 1 4 2 5 3 6 4 2 5 1 6
REMARK H PARENT
REMARK Flexibility Score: inf
ROOT
ATOM      1  C   UNL     1      23.238  72.655  28.088  1.00  0.00     0.052 C 
ENDROOT
BRANCH   1   2
ATOM      2  C   UNL     1      24.528  71.916  27.910  1.00  0.00     0.041 C 
ATOM      3  O   UNL     1      24.589  70.681  28.149  1.00  0.00    -0.550 OA
ATOM      4  O   UNL     1      25.655  72.583  27.448  1.00  0.00    -0.550 OA
ENDBRANCH   1   2
BRANCH   1   5
ATOM      5  C   UNL     1      23.463  74.068  28.643  1.00  0.00     0.003 C 
ATOM      6  C   UNL     1      23.610  74.080  30.164  1.00  0.00     0.004 C 
ENDBRANCH   1   5
TORSDOF 2
ENDMDL
MODEL 8
REMARK VINA RESULT:    -3.085      1.474      2.254
REMARK INTER + INTRA:          -3.452
REMARK INTER:                  -3.445
REMARK INTRA:                  -0.008
REMARK UNBOUND:                -0.006
REMARK SMILES CCCC(=O)[O-]
REMARK SMILES IDX 3 1 4 2 5 3 6 4 2 5 1 6
REMARK H PARENT
REMARK Flexibility Score: inf
ROOT
ATOM      1  C   UNL     1      15.499  67.954  33.215  1.00  0.00     0.052 C 
ENDROOT
BRANCH   1   2
ATOM      2  C   UNL     1      16.012  68.189  34.602  1.00  0.00     0.041 C 
ATOM      3  O   UNL     1      16.897  69.060  34.809  1.00  0.00    -0.550 OA
ATOM      4  O   UNL     1      15.489  67.471  35.670  1.00  0.00    -0.550 OA
ENDBRANCH   1   2
BRANCH   1   5
ATOM      5  C   UNL     1      15.373  69.263  32.424  1.00  0.00     0.003 C 
ATOM      6  C   UNL     1      14.543  69.098  31.152  1.00  0.00     0.004 C 
ENDBRANCH   1   5
TORSDOF 2
ENDMDL
MODEL 9
REMARK VINA RESULT:    -2.906      9.972     10.724
REMARK INTER + INTRA:          -3.252
REMARK INTER:                  -3.247
REMARK INTRA:                  -0.005
REMARK UNBOUND:                -0.006
REMARK SMILES CCCC(=O)[O-]
REMARK SMILES IDX 3 1 4 2 5 3 6 4 2 5 1 6
REMARK H PARENT
REMARK Flexibility Score: inf
ROOT
ATOM      1  C   UNL     1      25.193  73.026  27.631  1.00  0.00     0.052 C 
ENDROOT
BRANCH   1   2
ATOM      2  C   UNL     1      24.371  74.271  27.770  1.00  0.00     0.041 C 
ATOM      3  O   UNL     1      24.142  74.993  26.765  1.00  0.00    -0.550 OA
ATOM      4  O   UNL     1      23.829  74.614  29.003  1.00  0.00    -0.550 OA
ENDBRANCH   1   2
BRANCH   1   5
ATOM      5  C   UNL     1      24.405  71.775  28.041  1.00  0.00     0.003 C 
ATOM      6  C   UNL     1      25.119  70.482  27.650  1.00  0.00     0.004 C 
ENDBRANCH   1   5
TORSDOF 2
ENDMDL
