MODEL 1
REMARK VINA RESULT:    -2.939      0.000      0.000
REMARK INTER + INTRA:          -3.386
REMARK INTER:                  -3.283
REMARK INTRA:                  -0.103
REMARK UNBOUND:                -0.103
REMARK SMILES COc1cc2ccc(=O)oc2cc1OC
REMARK SMILES IDX 3 1 13 2 12 3 11 4 5 5 4 6 6 7 7 8 8 9 9 10 10 11 2 12 1 13
REMARK SMILES IDX 14 14 15 15
REMARK H PARENT
REMARK Flexibility Score: inf
ROOT
ATOM      1  C   UNL     1      21.108  23.218  13.443  1.00  0.00     0.161 A 
ATOM      2  C   UNL     1      21.117  24.621  13.529  1.00  0.00     0.164 A 
ATOM      3  C   UNL     1      21.122  25.394  12.351  1.00  0.00     0.098 A 
ATOM      4  C   UNL     1      21.118  24.776  11.099  1.00  0.00     0.142 A 
ATOM      5  C   UNL     1      21.109  23.369  11.011  1.00  0.00     0.022 A 
ATOM      6  C   UNL     1      21.103  22.595  12.179  1.00  0.00     0.062 A 
ATOM      7  C   UNL     1      21.105  22.781   9.742  1.00  0.00     0.019 A 
ATOM      8  C   UNL     1      21.111  23.593   8.609  1.00  0.00     0.094 A 
ATOM      9  C   UNL     1      21.120  24.983   8.773  1.00  0.00     0.336 A 
ATOM     10  O   UNL     1      21.125  25.734   7.764  1.00  0.00    -0.246 OA
ATOM     11  O   UNL     1      21.124  25.517   9.992  1.00  0.00    -0.423 OA
ENDROOT
BRANCH   1  12
ATOM     12  O   UNL     1      21.102  22.478  14.636  1.00  0.00    -0.493 OA
ATOM     13  C   UNL     1      21.074  21.057  14.705  1.00  0.00     0.278 C 
ENDBRANCH   1  12
BRANCH   2  14
ATOM     14  O   UNL     1      21.121  25.209  14.804  1.00  0.00    -0.493 OA
ATOM     15  C   UNL     1      20.563  26.482  15.108  1.00  0.00     0.278 C 
ENDBRANCH   2  14
TORSDOF 2
ENDMDL
MODEL 2
REMARK VINA RESULT:    -1.918     15.393     18.019
REMARK INTER + INTRA:          -2.246
REMARK INTER:                  -2.681
REMARK INTRA:                   0.435
REMARK UNBOUND:                -0.103
REMARK SMILES COc1cc2ccc(=O)oc2cc1OC
REMARK SMILES IDX 3 1 13 2 12 3 11 4 5 5 4 6 6 7 7 8 8 9 9 10 10 11 2 12 1 13
REMARK SMILES IDX 14 14 15 15
REMARK H PARENT
REMARK Flexibility Score: inf
ROOT
ATOM      1  C   UNL     1      11.880  21.677  -3.789  1.00  0.00     0.161 A 
ATOM      2  C   UNL     1      10.794  21.020  -3.187  1.00  0.00     0.164 A 
ATOM      3  C   UNL     1      10.260  21.512  -1.980  1.00  0.00     0.098 A 
ATOM      4  C   UNL     1      10.803  22.650  -1.378  1.00  0.00     0.142 A 
ATOM      5  C   UNL     1      11.892  23.310  -1.982  1.00  0.00     0.022 A 
ATOM      6  C   UNL     1      12.427  22.825  -3.182  1.00  0.00     0.062 A 
ATOM      7  C   UNL     1      12.413  24.447  -1.354  1.00  0.00     0.019 A 
ATOM      8  C   UNL     1      11.847  24.891  -0.160  1.00  0.00     0.094 A 
ATOM      9  C   UNL     1      10.766  24.185   0.380  1.00  0.00     0.336 A 
ATOM     10  O   UNL     1      10.240  24.569   1.457  1.00  0.00    -0.246 OA
ATOM     11  O   UNL     1      10.291  23.107  -0.237  1.00  0.00    -0.423 OA
ENDROOT
BRANCH   1  12
ATOM     12  O   UNL     1      12.387  21.160  -4.992  1.00  0.00    -0.493 OA
ATOM     13  C   UNL     1      13.047  19.906  -5.116  1.00  0.00     0.278 C 
ENDBRANCH   1  12
BRANCH   2  14
ATOM     14  O   UNL     1      10.273  19.879  -3.819  1.00  0.00    -0.493 OA
ATOM     15  C   UNL     1       9.570  19.892  -5.056  1.00  0.00     0.278 C 
ENDBRANCH   2  14
TORSDOF 2
ENDMDL
MODEL 3
REMARK VINA RESULT:    -1.559      1.003      2.888
REMARK INTER + INTRA:          -1.845
REMARK INTER:                  -1.744
REMARK INTRA:                  -0.101
REMARK UNBOUND:                -0.103
REMARK SMILES COc1cc2ccc(=O)oc2cc1OC
REMARK SMILES IDX 3 1 13 2 12 3 11 4 5 5 4 6 6 7 7 8 8 9 9 10 10 11 2 12 1 13
REMARK SMILES IDX 14 14 15 15
REMARK H PARENT
REMARK Flexibility Score: inf
ROOT
ATOM      1  C   UNL     1      20.960  24.563  13.343  1.00  0.00     0.161 A 
ATOM      2  C   UNL     1      20.910  23.187  13.064  1.00  0.00     0.164 A 
ATOM      3  C   UNL     1      20.928  22.742  11.727  1.00  0.00     0.098 A 
ATOM      4  C   UNL     1      20.994  23.661  10.678  1.00  0.00     0.142 A 
ATOM      5  C   UNL     1      21.044  25.042  10.956  1.00  0.00     0.022 A 
ATOM      6  C   UNL     1      21.027  25.490  12.283  1.00  0.00     0.062 A 
ATOM      7  C   UNL     1      21.111  25.936   9.882  1.00  0.00     0.019 A 
ATOM      8  C   UNL     1      21.125  25.442   8.578  1.00  0.00     0.094 A 
ATOM      9  C   UNL     1      21.073  24.058   8.378  1.00  0.00     0.336 A 
ATOM     10  O   UNL     1      21.085  23.592   7.210  1.00  0.00    -0.246 OA
ATOM     11  O   UNL     1      21.010  23.230   9.417  1.00  0.00    -0.423 OA
ENDROOT
BRANCH   1  12
ATOM     12  O   UNL     1      20.941  24.971  14.686  1.00  0.00    -0.493 OA
ATOM     13  C   UNL     1      20.974  26.326  15.119  1.00  0.00     0.278 C 
ENDBRANCH   1  12
BRANCH   2  14
ATOM     14  O   UNL     1      20.843  22.292  14.144  1.00  0.00    -0.493 OA
ATOM     15  C   UNL     1      20.947  20.877  14.028  1.00  0.00     0.278 C 
ENDBRANCH   2  14
TORSDOF 2
ENDMDL
MODEL 4
REMARK VINA RESULT:    -1.192     14.416     17.708
REMARK INTER + INTRA:          -1.435
REMARK INTER:                  -1.334
REMARK INTRA:                  -0.101
REMARK UNBOUND:                -0.103
REMARK SMILES COc1cc2ccc(=O)oc2cc1OC
REMARK SMILES IDX 3 1 13 2 12 3 11 4 5 5 4 6 6 7 7 8 8 9 9 10 10 11 2 12 1 13
REMARK SMILES IDX 14 14 15 15
REMARK H PARENT
REMARK Flexibility Score: inf
ROOT
ATOM      1  C   UNL     1      11.789  23.700  -3.732  1.00  0.00     0.161 A 
ATOM      2  C   UNL     1      11.806  22.295  -3.732  1.00  0.00     0.164 A 
ATOM      3  C   UNL     1      11.807  21.595  -2.509  1.00  0.00     0.098 A 
ATOM      4  C   UNL     1      11.789  22.289  -1.297  1.00  0.00     0.142 A 
ATOM      5  C   UNL     1      11.771  23.698  -1.296  1.00  0.00     0.022 A 
ATOM      6  C   UNL     1      11.771  24.400  -2.508  1.00  0.00     0.062 A 
ATOM      7  C   UNL     1      11.754  24.363  -0.065  1.00  0.00     0.019 A 
ATOM      8  C   UNL     1      11.755  23.622   1.116  1.00  0.00     0.094 A 
ATOM      9  C   UNL     1      11.773  22.225   1.037  1.00  0.00     0.336 A 
ATOM     10  O   UNL     1      11.775  21.537   2.090  1.00  0.00    -0.246 OA
ATOM     11  O   UNL     1      11.790  21.618  -0.147  1.00  0.00    -0.423 OA
ENDROOT
BRANCH   1  12
ATOM     12  O   UNL     1      11.788  24.366  -4.968  1.00  0.00    -0.493 OA
ATOM     13  C   UNL     1      11.745  25.779  -5.124  1.00  0.00     0.278 C 
ENDBRANCH   1  12
BRANCH   2  14
ATOM     14  O   UNL     1      11.824  21.630  -4.968  1.00  0.00    -0.493 OA
ATOM     15  C   UNL     1      11.906  20.218  -5.125  1.00  0.00     0.278 C 
ENDBRANCH   2  14
TORSDOF 2
ENDMDL
MODEL 5
REMARK VINA RESULT:    -1.124     14.207     17.281
REMARK INTER + INTRA:          -1.358
REMARK INTER:                  -1.257
REMARK INTRA:                  -0.101
REMARK UNBOUND:                -0.103
REMARK SMILES COc1cc2ccc(=O)oc2cc1OC
REMARK SMILES IDX 3 1 13 2 12 3 11 4 5 5 4 6 6 7 7 8 8 9 9 10 10 11 2 12 1 13
REMARK SMILES IDX 14 14 15 15
REMARK H PARENT
REMARK Flexibility Score: inf
ROOT
ATOM      1  C   UNL     1      11.756  21.908  -3.519  1.00  0.00     0.161 A 
ATOM      2  C   UNL     1      11.759  23.306  -3.370  1.00  0.00     0.164 A 
ATOM      3  C   UNL     1      11.757  23.873  -2.081  1.00  0.00     0.098 A 
ATOM      4  C   UNL     1      11.752  23.054  -0.949  1.00  0.00     0.142 A 
ATOM      5  C   UNL     1      11.750  21.653  -1.097  1.00  0.00     0.022 A 
ATOM      6  C   UNL     1      11.752  21.083  -2.377  1.00  0.00     0.062 A 
ATOM      7  C   UNL     1      11.745  20.861   0.057  1.00  0.00     0.019 A 
ATOM      8  C   UNL     1      11.743  21.474   1.309  1.00  0.00     0.094 A 
ATOM      9  C   UNL     1      11.746  22.871   1.379  1.00  0.00     0.336 A 
ATOM     10  O   UNL     1      11.744  23.444   2.499  1.00  0.00    -0.246 OA
ATOM     11  O   UNL     1      11.749  23.600   0.266  1.00  0.00    -0.423 OA
ENDROOT
BRANCH   1  12
ATOM     12  O   UNL     1      11.759  21.378  -4.819  1.00  0.00    -0.493 OA
ATOM     13  C   UNL     1      11.866  19.992  -5.125  1.00  0.00     0.278 C 
ENDBRANCH   1  12
BRANCH   2  14
ATOM     14  O   UNL     1      11.763  24.098  -4.530  1.00  0.00    -0.493 OA
ATOM     15  C   UNL     1      11.958  25.508  -4.544  1.00  0.00     0.278 C 
ENDBRANCH   2  14
TORSDOF 2
ENDMDL
