MODEL 1
REMARK VINA RESULT:    -7.280      0.000      0.000
REMARK INTER + INTRA:         -11.647
REMARK INTER:                 -10.259
REMARK INTRA:                  -1.388
REMARK UNBOUND:                -1.388
REMARK SMILES COc1c(O[C@@H]2O[C@@H](C(=O)[O-])[C@@H](O)[C@H](O)[C@@H]2O)cc(O)c2c(=O)cc(-c3ccccc3)oc12
REMARK SMILES IDX 5 1 6 2 8 3 12 4 7 5 14 6 16 7 9 8 10 9 11 10 13 11 15 13
REMARK SMILES IDX 17 15 4 17 3 18 18 19 33 20 19 21 21 22 32 23 22 24 25 25
REMARK SMILES IDX 24 26 23 27 2 28 1 29 20 30 26 32 27 33 31 34 28 35 30 36
REMARK SMILES IDX 29 37
REMARK H PARENT 13 12 15 14 17 16 20 31
REMARK Flexibility Score: inf
ROOT
ATOM      1  O   UNL     1       8.917  -1.648 -13.542  1.00  0.00    -0.458 OA
ENDROOT
BRANCH   1   2
ATOM      2  C   UNL     1       9.868  -2.444 -12.821  1.00  0.00     0.339 C 
ATOM      3  C   UNL     1       8.472  -4.329 -12.897  1.00  0.00     0.199 C 
ATOM      4  C   UNL     1       8.238  -4.365 -11.370  1.00  0.00     0.180 C 
ATOM      5  O   UNL     1       9.756  -3.806 -13.204  1.00  0.00    -0.328 OA
ATOM      6  C   UNL     1       8.438  -2.962 -10.754  1.00  0.00     0.181 C 
ATOM      7  C   UNL     1       9.726  -2.297 -11.284  1.00  0.00     0.214 C 
BRANCH   3   8
ATOM      8  C   UNL     1       8.360  -5.712 -13.471  1.00  0.00     0.073 C 
ATOM      9  O   UNL     1       9.299  -6.537 -13.317  1.00  0.00    -0.547 OA
ATOM     10  O   UNL     1       7.248  -6.072 -14.223  1.00  0.00    -0.547 OA
ENDBRANCH   3   8
BRANCH   4  11
ATOM     11  O   UNL     1       9.137  -5.269 -10.777  1.00  0.00    -0.387 OA
ATOM     12  H   UNL     1       9.102  -5.111  -9.797  1.00  0.00     0.211 HD
ENDBRANCH   4  11
BRANCH   6  13
ATOM     13  O   UNL     1       7.306  -2.142 -10.935  1.00  0.00    -0.387 OA
ATOM     14  H   UNL     1       6.515  -2.720 -11.081  1.00  0.00     0.211 HD
ENDBRANCH   6  13
BRANCH   7  15
ATOM     15  O   UNL     1       9.760  -0.949 -10.894  1.00  0.00    -0.384 OA
ATOM     16  H   UNL     1       9.117  -0.465 -11.475  1.00  0.00     0.211 HD
ENDBRANCH   7  15
ENDBRANCH   1   2
BRANCH   1  17
ATOM     17  C   UNL     1       8.952  -0.256 -13.734  1.00  0.00     0.172 A 
ATOM     18  C   UNL     1       7.829   0.484 -13.337  1.00  0.00     0.205 A 
ATOM     19  C   UNL     1      10.055   0.397 -14.308  1.00  0.00     0.097 A 
ATOM     20  C   UNL     1       7.819   1.892 -13.503  1.00  0.00     0.188 A 
ATOM     21  C   UNL     1      10.062   1.785 -14.471  1.00  0.00     0.134 A 
ATOM     22  C   UNL     1       8.944   2.547 -14.068  1.00  0.00     0.111 A 
ATOM     23  O   UNL     1       6.754   2.604 -13.142  1.00  0.00    -0.452 OA
ATOM     24  C   UNL     1       8.891   3.948 -14.206  1.00  0.00     0.197 A 
ATOM     25  C   UNL     1       6.667   3.925 -13.274  1.00  0.00     0.138 A 
ATOM     26  C   UNL     1       7.749   4.637 -13.806  1.00  0.00     0.100 A 
ATOM     27  O   UNL     1       9.859   4.600 -14.683  1.00  0.00    -0.289 OA
BRANCH  18  28
ATOM     28  O   UNL     1       6.760  -0.243 -12.784  1.00  0.00    -0.490 OA
ATOM     29  C   UNL     1       5.557  -0.611 -13.449  1.00  0.00     0.278 C 
ENDBRANCH  18  28
BRANCH  21  30
ATOM     30  O   UNL     1      11.181   2.397 -15.038  1.00  0.00    -0.507 OA
ATOM     31  H   UNL     1      11.575   3.249 -14.656  1.00  0.00     0.293 HD
ENDBRANCH  21  30
BRANCH  25  32
ATOM     32  C   UNL     1       5.424   4.612 -12.842  1.00  0.00     0.017 A 
ATOM     33  C   UNL     1       4.315   3.854 -12.428  1.00  0.00     0.012 A 
ATOM     34  C   UNL     1       5.316   6.017 -12.860  1.00  0.00     0.012 A 
ATOM     35  C   UNL     1       3.134   4.483 -12.023  1.00  0.00     0.001 A 
ATOM     36  C   UNL     1       4.134   6.642 -12.453  1.00  0.00     0.001 A 
ATOM     37  C   UNL     1       3.045   5.876 -12.031  1.00  0.00     0.000 A 
ENDBRANCH  25  32
ENDBRANCH   1  17
TORSDOF 9
ENDMDL
MODEL 2
REMARK VINA RESULT:    -6.906      1.173      1.550
REMARK INTER + INTRA:         -11.120
REMARK INTER:                  -9.524
REMARK INTRA:                  -1.596
REMARK UNBOUND:                -1.388
REMARK SMILES COc1c(O[C@@H]2O[C@@H](C(=O)[O-])[C@@H](O)[C@H](O)[C@@H]2O)cc(O)c2c(=O)cc(-c3ccccc3)oc12
REMARK SMILES IDX 5 1 6 2 8 3 12 4 7 5 14 6 16 7 9 8 10 9 11 10 13 11 15 13
REMARK SMILES IDX 17 15 4 17 3 18 18 19 33 20 19 21 21 22 32 23 22 24 25 25
REMARK SMILES IDX 24 26 23 27 2 28 1 29 20 30 26 32 27 33 31 34 28 35 30 36
REMARK SMILES IDX 29 37
REMARK H PARENT 13 12 15 14 17 16 20 31
REMARK Flexibility Score: inf
ROOT
ATOM      1  O   UNL     1       8.966  -1.703 -13.055  1.00  0.00    -0.458 OA
ENDROOT
BRANCH   1   2
ATOM      2  C   UNL     1       9.581  -2.595 -12.114  1.00  0.00     0.339 C 
ATOM      3  C   UNL     1       9.745  -4.301 -13.717  1.00  0.00     0.199 C 
ATOM      4  C   UNL     1       8.752  -5.239 -12.994  1.00  0.00     0.180 C 
ATOM      5  O   UNL     1      10.450  -3.491 -12.789  1.00  0.00    -0.328 OA
ATOM      6  C   UNL     1       7.784  -4.427 -12.104  1.00  0.00     0.181 C 
ATOM      7  C   UNL     1       8.544  -3.376 -11.267  1.00  0.00     0.214 C 
BRANCH   3   8
ATOM      8  C   UNL     1      10.733  -5.107 -14.510  1.00  0.00     0.073 C 
ATOM      9  O   UNL     1      10.450  -6.282 -14.866  1.00  0.00    -0.547 OA
ATOM     10  O   UNL     1      11.987  -4.584 -14.807  1.00  0.00    -0.547 OA
ENDBRANCH   3   8
BRANCH   4  11
ATOM     11  O   UNL     1       9.464  -6.155 -12.198  1.00  0.00    -0.387 OA
ATOM     12  H   UNL     1      10.423  -5.903 -12.255  1.00  0.00     0.211 HD
ENDBRANCH   4  11
BRANCH   6  13
ATOM     13  O   UNL     1       6.737  -3.854 -12.852  1.00  0.00    -0.387 OA
ATOM     14  H   UNL     1       7.037  -2.974 -13.196  1.00  0.00     0.211 HD
ENDBRANCH   6  13
BRANCH   7  15
ATOM     15  O   UNL     1       7.628  -2.507 -10.652  1.00  0.00    -0.384 OA
ATOM     16  H   UNL     1       7.998  -1.590 -10.740  1.00  0.00     0.211 HD
ENDBRANCH   7  15
ENDBRANCH   1   2
BRANCH   1  17
ATOM     17  C   UNL     1       9.072  -0.301 -13.085  1.00  0.00     0.172 A 
ATOM     18  C   UNL     1       7.902   0.444 -12.884  1.00  0.00     0.205 A 
ATOM     19  C   UNL     1      10.292   0.356 -13.313  1.00  0.00     0.097 A 
ATOM     20  C   UNL     1       7.959   1.861 -12.897  1.00  0.00     0.188 A 
ATOM     21  C   UNL     1      10.364   1.752 -13.322  1.00  0.00     0.134 A 
ATOM     22  C   UNL     1       9.198   2.518 -13.112  1.00  0.00     0.111 A 
ATOM     23  O   UNL     1       6.853   2.580 -12.720  1.00  0.00    -0.452 OA
ATOM     24  C   UNL     1       9.206   3.928 -13.109  1.00  0.00     0.197 A 
ATOM     25  C   UNL     1       6.825   3.910 -12.728  1.00  0.00     0.138 A 
ATOM     26  C   UNL     1       8.016   4.623 -12.915  1.00  0.00     0.100 A 
ATOM     27  O   UNL     1      10.272   4.580 -13.276  1.00  0.00    -0.289 OA
BRANCH  18  28
ATOM     28  O   UNL     1       6.719  -0.286 -12.675  1.00  0.00    -0.490 OA
ATOM     29  C   UNL     1       5.690  -0.516 -13.631  1.00  0.00     0.278 C 
ENDBRANCH  18  28
BRANCH  21  30
ATOM     30  O   UNL     1      11.597   2.368 -13.545  1.00  0.00    -0.507 OA
ATOM     31  H   UNL     1      11.789   2.888 -14.393  1.00  0.00     0.293 HD
ENDBRANCH  21  30
BRANCH  25  32
ATOM     32  C   UNL     1       5.529   4.605 -12.527  1.00  0.00     0.017 A 
ATOM     33  C   UNL     1       4.392   3.867 -12.151  1.00  0.00     0.012 A 
ATOM     34  C   UNL     1       5.399   5.993 -12.729  1.00  0.00     0.012 A 
ATOM     35  C   UNL     1       3.162   4.504 -11.962  1.00  0.00     0.001 A 
ATOM     36  C   UNL     1       4.167   6.626 -12.538  1.00  0.00     0.001 A 
ATOM     37  C   UNL     1       3.050   5.882 -12.151  1.00  0.00     0.000 A 
ENDBRANCH  25  32
ENDBRANCH   1  17
TORSDOF 9
ENDMDL
MODEL 3
REMARK VINA RESULT:    -6.776      2.070      8.487
REMARK INTER + INTRA:         -10.937
REMARK INTER:                  -9.550
REMARK INTRA:                  -1.388
REMARK UNBOUND:                -1.388
REMARK SMILES COc1c(O[C@@H]2O[C@@H](C(=O)[O-])[C@@H](O)[C@H](O)[C@@H]2O)cc(O)c2c(=O)cc(-c3ccccc3)oc12
REMARK SMILES IDX 5 1 6 2 8 3 12 4 7 5 14 6 16 7 9 8 10 9 11 10 13 11 15 13
REMARK SMILES IDX 17 15 4 17 3 18 18 19 33 20 19 21 21 22 32 23 22 24 25 25
REMARK SMILES IDX 24 26 23 27 2 28 1 29 20 30 26 32 27 33 31 34 28 35 30 36
REMARK SMILES IDX 29 37
REMARK H PARENT 13 12 15 14 17 16 20 31
REMARK Flexibility Score: inf
ROOT
ATOM      1  O   UNL     1       6.600   2.356 -12.916  1.00  0.00    -0.458 OA
ENDROOT
BRANCH   1   2
ATOM      2  C   UNL     1       5.927   2.997 -14.009  1.00  0.00     0.339 C 
ATOM      3  C   UNL     1       6.489   5.131 -13.213  1.00  0.00     0.199 C 
ATOM      4  C   UNL     1       5.029   5.533 -12.907  1.00  0.00     0.180 C 
ATOM      5  O   UNL     1       6.552   4.234 -14.311  1.00  0.00    -0.328 OA
ATOM      6  C   UNL     1       4.158   4.279 -12.663  1.00  0.00     0.181 C 
ATOM      7  C   UNL     1       4.414   3.203 -13.739  1.00  0.00     0.214 C 
BRANCH   3   8
ATOM      8  C   UNL     1       7.305   6.351 -13.532  1.00  0.00     0.073 C 
ATOM      9  O   UNL     1       8.470   6.227 -13.997  1.00  0.00    -0.547 OA
ATOM     10  O   UNL     1       6.805   7.620 -13.264  1.00  0.00    -0.547 OA
ENDBRANCH   3   8
BRANCH   4  11
ATOM     11  O   UNL     1       4.505   6.264 -13.989  1.00  0.00    -0.387 OA
ATOM     12  H   UNL     1       4.847   5.838 -14.818  1.00  0.00     0.211 HD
ENDBRANCH   4  11
BRANCH   6  13
ATOM     13  O   UNL     1       4.320   3.773 -11.358  1.00  0.00    -0.387 OA
ATOM     14  H   UNL     1       4.103   4.490 -10.709  1.00  0.00     0.211 HD
ENDBRANCH   6  13
BRANCH   7  15
ATOM     15  O   UNL     1       3.793   2.001 -13.365  1.00  0.00    -0.384 OA
ATOM     16  H   UNL     1       3.027   2.242 -12.781  1.00  0.00     0.211 HD
ENDBRANCH   7  15
ENDBRANCH   1   2
BRANCH   1  17
ATOM     17  C   UNL     1       7.725   1.516 -12.991  1.00  0.00     0.172 A 
ATOM     18  C   UNL     1       7.500   0.144 -13.175  1.00  0.00     0.205 A 
ATOM     19  C   UNL     1       9.037   2.003 -12.881  1.00  0.00     0.097 A 
ATOM     20  C   UNL     1       8.602  -0.743 -13.264  1.00  0.00     0.188 A 
ATOM     21  C   UNL     1      10.133   1.141 -12.974  1.00  0.00     0.134 A 
ATOM     22  C   UNL     1       9.926  -0.242 -13.170  1.00  0.00     0.111 A 
ATOM     23  O   UNL     1       8.401  -2.049 -13.426  1.00  0.00    -0.452 OA
ATOM     24  C   UNL     1      10.989  -1.162 -13.272  1.00  0.00     0.197 A 
ATOM     25  C   UNL     1       9.383  -2.944 -13.510  1.00  0.00     0.138 A 
ATOM     26  C   UNL     1      10.714  -2.516 -13.445  1.00  0.00     0.100 A 
ATOM     27  O   UNL     1      12.191  -0.787 -13.214  1.00  0.00    -0.289 OA
BRANCH  18  28
ATOM     28  O   UNL     1       6.158  -0.267 -13.262  1.00  0.00    -0.490 OA
ATOM     29  C   UNL     1       5.492  -0.729 -14.431  1.00  0.00     0.278 C 
ENDBRANCH  18  28
BRANCH  21  30
ATOM     30  O   UNL     1      11.422   1.665 -12.868  1.00  0.00    -0.507 OA
ATOM     31  H   UNL     1      12.228   1.182 -13.247  1.00  0.00     0.293 HD
ENDBRANCH  21  30
BRANCH  25  32
ATOM     32  C   UNL     1       9.038  -4.378 -13.683  1.00  0.00     0.017 A 
ATOM     33  C   UNL     1       9.825  -5.365 -13.063  1.00  0.00     0.012 A 
ATOM     34  C   UNL     1       7.947  -4.781 -14.479  1.00  0.00     0.012 A 
ATOM     35  C   UNL     1       9.518  -6.720 -13.218  1.00  0.00     0.001 A 
ATOM     36  C   UNL     1       7.644  -6.138 -14.630  1.00  0.00     0.001 A 
ATOM     37  C   UNL     1       8.426  -7.106 -13.998  1.00  0.00     0.000 A 
ENDBRANCH  25  32
ENDBRANCH   1  17
TORSDOF 9
ENDMDL
MODEL 4
REMARK VINA RESULT:    -6.502     16.532     18.889
REMARK INTER + INTRA:         -10.551
REMARK INTER:                  -9.363
REMARK INTRA:                  -1.188
REMARK UNBOUND:                -1.388
REMARK SMILES COc1c(O[C@@H]2O[C@@H](C(=O)[O-])[C@@H](O)[C@H](O)[C@@H]2O)cc(O)c2c(=O)cc(-c3ccccc3)oc12
REMARK SMILES IDX 5 1 6 2 8 3 12 4 7 5 14 6 16 7 9 8 10 9 11 10 13 11 15 13
REMARK SMILES IDX 17 15 4 17 3 18 18 19 33 20 19 21 21 22 32 23 22 24 25 25
REMARK SMILES IDX 24 26 23 27 2 28 1 29 20 30 26 32 27 33 31 34 28 35 30 36
REMARK SMILES IDX 29 37
REMARK H PARENT 13 12 15 14 17 16 20 31
REMARK Flexibility Score: inf
ROOT
ATOM      1  O   UNL     1       8.760   4.789   3.796  1.00  0.00    -0.458 OA
ENDROOT
BRANCH   1   2
ATOM      2  C   UNL     1       8.489   5.676   4.890  1.00  0.00     0.339 C 
ATOM      3  C   UNL     1       6.401   6.270   3.998  1.00  0.00     0.199 C 
ATOM      4  C   UNL     1       6.798   7.739   3.734  1.00  0.00     0.180 C 
ATOM      5  O   UNL     1       7.092   5.749   5.124  1.00  0.00    -0.328 OA
ATOM      6  C   UNL     1       8.329   7.869   3.567  1.00  0.00     0.181 C 
ATOM      7  C   UNL     1       9.079   7.093   4.670  1.00  0.00     0.214 C 
BRANCH   3   8
ATOM      8  C   UNL     1       4.923   6.169   4.244  1.00  0.00     0.073 C 
ATOM      9  O   UNL     1       4.337   7.046   4.933  1.00  0.00    -0.547 OA
ATOM     10  O   UNL     1       4.204   5.081   3.764  1.00  0.00    -0.547 OA
ENDBRANCH   3   8
BRANCH   4  11
ATOM     11  O   UNL     1       6.374   8.542   4.808  1.00  0.00    -0.387 OA
ATOM     12  H   UNL     1       5.803   7.973   5.387  1.00  0.00     0.211 HD
ENDBRANCH   4  11
BRANCH   6  13
ATOM     13  O   UNL     1       8.751   7.496   2.276  1.00  0.00    -0.387 OA
ATOM     14  H   UNL     1       8.236   6.699   1.991  1.00  0.00     0.211 HD
ENDBRANCH   6  13
BRANCH   7  15
ATOM     15  O   UNL     1      10.448   7.035   4.363  1.00  0.00    -0.384 OA
ATOM     16  H   UNL     1      10.697   6.074   4.340  1.00  0.00     0.211 HD
ENDBRANCH   7  15
ENDBRANCH   1   2
BRANCH   1  17
ATOM     17  C   UNL     1       9.488   3.587   3.841  1.00  0.00     0.172 A 
ATOM     18  C   UNL     1       8.772   2.388   3.718  1.00  0.00     0.205 A 
ATOM     19  C   UNL     1      10.882   3.558   4.012  1.00  0.00     0.097 A 
ATOM     20  C   UNL     1       9.462   1.150   3.750  1.00  0.00     0.188 A 
ATOM     21  C   UNL     1      11.576   2.345   4.039  1.00  0.00     0.134 A 
ATOM     22  C   UNL     1      10.872   1.128   3.905  1.00  0.00     0.111 A 
ATOM     23  O   UNL     1       8.792   0.005   3.646  1.00  0.00    -0.452 OA
ATOM     24  C   UNL     1      11.515  -0.126   3.924  1.00  0.00     0.197 A 
ATOM     25  C   UNL     1       9.368  -1.195   3.677  1.00  0.00     0.138 A 
ATOM     26  C   UNL     1      10.759  -1.289   3.808  1.00  0.00     0.100 A 
ATOM     27  O   UNL     1      12.766  -0.223   4.042  1.00  0.00    -0.289 OA
BRANCH  18  28
ATOM     28  O   UNL     1       7.379   2.501   3.564  1.00  0.00    -0.490 OA
ATOM     29  C   UNL     1       6.406   2.395   4.597  1.00  0.00     0.278 C 
ENDBRANCH  18  28
BRANCH  21  30
ATOM     30  O   UNL     1      12.962   2.358   4.202  1.00  0.00    -0.507 OA
ATOM     31  H   UNL     1      13.397   2.172   5.098  1.00  0.00     0.293 HD
ENDBRANCH  21  30
BRANCH  25  32
ATOM     32  C   UNL     1       8.516  -2.406   3.559  1.00  0.00     0.017 A 
ATOM     33  C   UNL     1       8.761  -3.334   2.532  1.00  0.00     0.012 A 
ATOM     34  C   UNL     1       7.444  -2.639   4.443  1.00  0.00     0.012 A 
ATOM     35  C   UNL     1       7.968  -4.478   2.403  1.00  0.00     0.001 A 
ATOM     36  C   UNL     1       6.653  -3.784   4.310  1.00  0.00     0.001 A 
ATOM     37  C   UNL     1       6.917  -4.705   3.294  1.00  0.00     0.000 A 
ENDBRANCH  25  32
ENDBRANCH   1  17
TORSDOF 9
ENDMDL
MODEL 5
REMARK VINA RESULT:    -6.279      1.654      2.406
REMARK INTER + INTRA:         -10.237
REMARK INTER:                  -8.938
REMARK INTRA:                  -1.300
REMARK UNBOUND:                -1.388
REMARK SMILES COc1c(O[C@@H]2O[C@@H](C(=O)[O-])[C@@H](O)[C@H](O)[C@@H]2O)cc(O)c2c(=O)cc(-c3ccccc3)oc12
REMARK SMILES IDX 5 1 6 2 8 3 12 4 7 5 14 6 16 7 9 8 10 9 11 10 13 11 15 13
REMARK SMILES IDX 17 15 4 17 3 18 18 19 33 20 19 21 21 22 32 23 22 24 25 25
REMARK SMILES IDX 24 26 23 27 2 28 1 29 20 30 26 32 27 33 31 34 28 35 30 36
REMARK SMILES IDX 29 37
REMARK H PARENT 13 12 15 14 17 16 20 31
REMARK Flexibility Score: inf
ROOT
ATOM      1  O   UNL     1       8.426  -2.123 -13.252  1.00  0.00    -0.458 OA
ENDROOT
BRANCH   1   2
ATOM      2  C   UNL     1       8.537  -2.904 -14.451  1.00  0.00     0.339 C 
ATOM      3  C   UNL     1       6.494  -3.982 -14.035  1.00  0.00     0.199 C 
ATOM      4  C   UNL     1       7.134  -5.372 -13.826  1.00  0.00     0.180 C 
ATOM      5  O   UNL     1       7.247  -3.208 -14.957  1.00  0.00    -0.328 OA
ATOM      6  C   UNL     1       8.606  -5.234 -13.377  1.00  0.00     0.181 C 
ATOM      7  C   UNL     1       9.359  -4.202 -14.242  1.00  0.00     0.214 C 
BRANCH   3   8
ATOM      8  C   UNL     1       5.092  -4.129 -14.553  1.00  0.00     0.073 C 
ATOM      9  O   UNL     1       4.525  -3.160 -15.125  1.00  0.00    -0.547 OA
ATOM     10  O   UNL     1       4.392  -5.313 -14.355  1.00  0.00    -0.547 OA
ENDBRANCH   3   8
BRANCH   4  11
ATOM     11  O   UNL     1       7.077  -6.103 -15.027  1.00  0.00    -0.387 OA
ATOM     12  H   UNL     1       8.006  -6.162 -15.373  1.00  0.00     0.211 HD
ENDBRANCH   4  11
BRANCH   6  13
ATOM     13  O   UNL     1       8.711  -4.950 -12.001  1.00  0.00    -0.387 OA
ATOM     14  H   UNL     1       8.865  -3.977 -11.888  1.00  0.00     0.211 HD
ENDBRANCH   6  13
BRANCH   7  15
ATOM     15  O   UNL     1      10.612  -3.927 -13.671  1.00  0.00    -0.384 OA
ATOM     16  H   UNL     1      10.825  -4.685 -13.067  1.00  0.00     0.211 HD
ENDBRANCH   7  15
ENDBRANCH   1   2
BRANCH   1  17
ATOM     17  C   UNL     1       8.693  -0.750 -13.110  1.00  0.00     0.172 A 
ATOM     18  C   UNL     1       7.597   0.115 -12.981  1.00  0.00     0.205 A 
ATOM     19  C   UNL     1       9.998  -0.234 -13.101  1.00  0.00     0.097 A 
ATOM     20  C   UNL     1       7.814   1.508 -12.827  1.00  0.00     0.188 A 
ATOM     21  C   UNL     1      10.228   1.135 -12.943  1.00  0.00     0.134 A 
ATOM     22  C   UNL     1       9.137   2.020 -12.802  1.00  0.00     0.111 A 
ATOM     23  O   UNL     1       6.782   2.341 -12.717  1.00  0.00    -0.452 OA
ATOM     24  C   UNL     1       9.304   3.410 -12.639  1.00  0.00     0.197 A 
ATOM     25  C   UNL     1       6.906   3.659 -12.578  1.00  0.00     0.138 A 
ATOM     26  C   UNL     1       8.184   4.229 -12.526  1.00  0.00     0.100 A 
ATOM     27  O   UNL     1      10.449   3.935 -12.591  1.00  0.00    -0.289 OA
BRANCH  18  28
ATOM     28  O   UNL     1       6.321  -0.476 -13.013  1.00  0.00    -0.490 OA
ATOM     29  C   UNL     1       5.254  -0.130 -13.888  1.00  0.00     0.278 C 
ENDBRANCH  18  28
BRANCH  21  30
ATOM     30  O   UNL     1      11.541   1.608 -12.932  1.00  0.00    -0.507 OA
ATOM     31  H   UNL     1      11.926   2.097 -12.132  1.00  0.00     0.293 HD
ENDBRANCH  21  30
BRANCH  25  32
ATOM     32  C   UNL     1       5.681   4.491 -12.472  1.00  0.00     0.017 A 
ATOM     33  C   UNL     1       4.473   3.903 -12.057  1.00  0.00     0.012 A 
ATOM     34  C   UNL     1       5.691   5.860 -12.803  1.00  0.00     0.012 A 
ATOM     35  C   UNL     1       3.308   4.669 -11.955  1.00  0.00     0.001 A 
ATOM     36  C   UNL     1       4.523   6.622 -12.699  1.00  0.00     0.001 A 
ATOM     37  C   UNL     1       3.334   6.029 -12.272  1.00  0.00     0.000 A 
ENDBRANCH  25  32
ENDBRANCH   1  17
TORSDOF 9
ENDMDL
MODEL 6
REMARK VINA RESULT:    -6.154      3.076      9.025
REMARK INTER + INTRA:         -10.060
REMARK INTER:                  -8.672
REMARK INTRA:                  -1.388
REMARK UNBOUND:                -1.388
REMARK SMILES COc1c(O[C@@H]2O[C@@H](C(=O)[O-])[C@@H](O)[C@H](O)[C@@H]2O)cc(O)c2c(=O)cc(-c3ccccc3)oc12
REMARK SMILES IDX 5 1 6 2 8 3 12 4 7 5 14 6 16 7 9 8 10 9 11 10 13 11 15 13
REMARK SMILES IDX 17 15 4 17 3 18 18 19 33 20 19 21 21 22 32 23 22 24 25 25
REMARK SMILES IDX 24 26 23 27 2 28 1 29 20 30 26 32 27 33 31 34 28 35 30 36
REMARK SMILES IDX 29 37
REMARK H PARENT 13 12 15 14 17 16 20 31
REMARK Flexibility Score: inf
ROOT
ATOM      1  O   UNL     1       6.117   5.109 -13.954  1.00  0.00    -0.458 OA
ENDROOT
BRANCH   1   2
ATOM      2  C   UNL     1       6.596   5.899 -15.051  1.00  0.00     0.339 C 
ATOM      3  C   UNL     1       8.401   6.706 -13.789  1.00  0.00     0.199 C 
ATOM      4  C   UNL     1       7.899   8.167 -13.783  1.00  0.00     0.180 C 
ATOM      5  O   UNL     1       8.006   6.036 -14.976  1.00  0.00    -0.328 OA
ATOM      6  C   UNL     1       6.366   8.217 -13.975  1.00  0.00     0.181 C 
ATOM      7  C   UNL     1       5.917   7.291 -15.125  1.00  0.00     0.214 C 
BRANCH   3   8
ATOM      8  C   UNL     1       9.900   6.674 -13.687  1.00  0.00     0.073 C 
ATOM      9  O   UNL     1      10.525   7.683 -13.267  1.00  0.00    -0.547 OA
ATOM     10  O   UNL     1      10.608   5.556 -14.110  1.00  0.00    -0.547 OA
ENDBRANCH   3   8
BRANCH   4  11
ATOM     11  O   UNL     1       8.525   8.885 -14.817  1.00  0.00    -0.387 OA
ATOM     12  H   UNL     1       9.208   9.467 -14.393  1.00  0.00     0.211 HD
ENDBRANCH   4  11
BRANCH   6  13
ATOM     13  O   UNL     1       5.676   7.947 -12.777  1.00  0.00    -0.387 OA
ATOM     14  H   UNL     1       5.589   6.966 -12.674  1.00  0.00     0.211 HD
ENDBRANCH   6  13
BRANCH   7  15
ATOM     15  O   UNL     1       4.518   7.178 -15.125  1.00  0.00    -0.384 OA
ATOM     16  H   UNL     1       4.157   8.072 -15.363  1.00  0.00     0.211 HD
ENDBRANCH   7  15
ENDBRANCH   1   2
BRANCH   1  17
ATOM     17  C   UNL     1       5.569   3.816 -14.018  1.00  0.00     0.172 A 
ATOM     18  C   UNL     1       6.346   2.755 -13.532  1.00  0.00     0.205 A 
ATOM     19  C   UNL     1       4.295   3.564 -14.552  1.00  0.00     0.097 A 
ATOM     20  C   UNL     1       5.835   1.433 -13.568  1.00  0.00     0.188 A 
ATOM     21  C   UNL     1       3.775   2.268 -14.588  1.00  0.00     0.134 A 
ATOM     22  C   UNL     1       4.540   1.189 -14.093  1.00  0.00     0.111 A 
ATOM     23  O   UNL     1       6.568   0.416 -13.121  1.00  0.00    -0.452 OA
ATOM     24  C   UNL     1       4.071  -0.140 -14.101  1.00  0.00     0.197 A 
ATOM     25  C   UNL     1       6.160  -0.850 -13.130  1.00  0.00     0.138 A 
ATOM     26  C   UNL     1       4.884  -1.161 -13.616  1.00  0.00     0.100 A 
ATOM     27  O   UNL     1       2.924  -0.431 -14.536  1.00  0.00    -0.289 OA
BRANCH  18  28
ATOM     28  O   UNL     1       7.616   3.086 -13.026  1.00  0.00    -0.490 OA
ATOM     29  C   UNL     1       8.869   2.751 -13.610  1.00  0.00     0.278 C 
ENDBRANCH  18  28
BRANCH  21  30
ATOM     30  O   UNL     1       2.501   2.060 -15.119  1.00  0.00    -0.507 OA
ATOM     31  H   UNL     1       2.082   1.138 -15.158  1.00  0.00     0.293 HD
ENDBRANCH  21  30
BRANCH  25  32
ATOM     32  C   UNL     1       7.070  -1.904 -12.611  1.00  0.00     0.017 A 
ATOM     33  C   UNL     1       7.935  -1.614 -11.542  1.00  0.00     0.012 A 
ATOM     34  C   UNL     1       7.106  -3.190 -13.183  1.00  0.00     0.012 A 
ATOM     35  C   UNL     1       8.802  -2.591 -11.043  1.00  0.00     0.001 A 
ATOM     36  C   UNL     1       7.974  -4.165 -12.681  1.00  0.00     0.001 A 
ATOM     37  C   UNL     1       8.818  -3.867 -11.610  1.00  0.00     0.000 A 
ENDBRANCH  25  32
ENDBRANCH   1  17
TORSDOF 9
ENDMDL
MODEL 7
REMARK VINA RESULT:    -6.078      1.875      3.603
REMARK INTER + INTRA:          -9.954
REMARK INTER:                  -9.177
REMARK INTRA:                  -0.777
REMARK UNBOUND:                -1.388
REMARK SMILES COc1c(O[C@@H]2O[C@@H](C(=O)[O-])[C@@H](O)[C@H](O)[C@@H]2O)cc(O)c2c(=O)cc(-c3ccccc3)oc12
REMARK SMILES IDX 5 1 6 2 8 3 12 4 7 5 14 6 16 7 9 8 10 9 11 10 13 11 15 13
REMARK SMILES IDX 17 15 4 17 3 18 18 19 33 20 19 21 21 22 32 23 22 24 25 25
REMARK SMILES IDX 24 26 23 27 2 28 1 29 20 30 26 32 27 33 31 34 28 35 30 36
REMARK SMILES IDX 29 37
REMARK H PARENT 13 12 15 14 17 16 20 31
REMARK Flexibility Score: inf
ROOT
ATOM      1  O   UNL     1       7.927  -1.460 -13.571  1.00  0.00    -0.458 OA
ENDROOT
BRANCH   1   2
ATOM      2  C   UNL     1       8.637  -1.847 -12.386  1.00  0.00     0.339 C 
ATOM      3  C   UNL     1       9.328  -3.866 -13.361  1.00  0.00     0.199 C 
ATOM      4  C   UNL     1       8.510  -4.751 -12.394  1.00  0.00     0.180 C 
ATOM      5  O   UNL     1       9.744  -2.666 -12.726  1.00  0.00    -0.328 OA
ATOM      6  C   UNL     1       7.306  -3.967 -11.824  1.00  0.00     0.181 C 
ATOM      7  C   UNL     1       7.729  -2.560 -11.352  1.00  0.00     0.214 C 
BRANCH   3   8
ATOM      8  C   UNL     1      10.542  -4.610 -13.841  1.00  0.00     0.073 C 
ATOM      9  O   UNL     1      10.604  -5.862 -13.718  1.00  0.00    -0.547 OA
ATOM     10  O   UNL     1      11.625  -3.917 -14.369  1.00  0.00    -0.547 OA
ENDBRANCH   3   8
BRANCH   4  11
ATOM     11  O   UNL     1       9.333  -5.179 -11.337  1.00  0.00    -0.387 OA
ATOM     12  H   UNL     1      10.268  -5.160 -11.672  1.00  0.00     0.211 HD
ENDBRANCH   4  11
BRANCH   6  13
ATOM     13  O   UNL     1       6.231  -3.921 -12.733  1.00  0.00    -0.387 OA
ATOM     14  H   UNL     1       5.780  -3.043 -12.648  1.00  0.00     0.211 HD
ENDBRANCH   6  13
BRANCH   7  15
ATOM     15  O   UNL     1       6.588  -1.795 -11.060  1.00  0.00    -0.384 OA
ATOM     16  H   UNL     1       5.800  -2.351 -11.294  1.00  0.00     0.211 HD
ENDBRANCH   7  15
ENDBRANCH   1   2
BRANCH   1  17
ATOM     17  C   UNL     1       7.010  -0.402 -13.700  1.00  0.00     0.172 A 
ATOM     18  C   UNL     1       7.515   0.905 -13.658  1.00  0.00     0.205 A 
ATOM     19  C   UNL     1       5.631  -0.617 -13.859  1.00  0.00     0.097 A 
ATOM     20  C   UNL     1       6.631   2.005 -13.791  1.00  0.00     0.188 A 
ATOM     21  C   UNL     1       4.749   0.458 -13.999  1.00  0.00     0.134 A 
ATOM     22  C   UNL     1       5.241   1.781 -13.969  1.00  0.00     0.111 A 
ATOM     23  O   UNL     1       7.097   3.251 -13.740  1.00  0.00    -0.452 OA
ATOM     24  C   UNL     1       4.403   2.906 -14.105  1.00  0.00     0.197 A 
ATOM     25  C   UNL     1       6.329   4.334 -13.848  1.00  0.00     0.138 A 
ATOM     26  C   UNL     1       4.951   4.185 -14.046  1.00  0.00     0.100 A 
ATOM     27  O   UNL     1       3.161   2.784 -14.282  1.00  0.00    -0.289 OA
BRANCH  18  28
ATOM     28  O   UNL     1       8.903   1.037 -13.482  1.00  0.00    -0.490 OA
ATOM     29  C   UNL     1       9.868   1.239 -14.508  1.00  0.00     0.278 C 
ENDBRANCH  18  28
BRANCH  21  30
ATOM     30  O   UNL     1       3.387   0.204 -14.164  1.00  0.00    -0.507 OA
ATOM     31  H   UNL     1       2.841  -0.268 -13.452  1.00  0.00     0.293 HD
ENDBRANCH  21  30
BRANCH  25  32
ATOM     32  C   UNL     1       6.960   5.675 -13.768  1.00  0.00     0.017 A 
ATOM     33  C   UNL     1       8.362   5.787 -13.746  1.00  0.00     0.012 A 
ATOM     34  C   UNL     1       6.185   6.848 -13.688  1.00  0.00     0.012 A 
ATOM     35  C   UNL     1       8.974   7.041 -13.666  1.00  0.00     0.001 A 
ATOM     36  C   UNL     1       6.802   8.101 -13.608  1.00  0.00     0.001 A 
ATOM     37  C   UNL     1       8.195   8.198 -13.601  1.00  0.00     0.000 A 
ENDBRANCH  25  32
ENDBRANCH   1  17
TORSDOF 9
ENDMDL
MODEL 8
REMARK VINA RESULT:    -6.045      1.920      3.588
REMARK INTER + INTRA:          -9.907
REMARK INTER:                  -8.635
REMARK INTRA:                  -1.272
REMARK UNBOUND:                -1.388
REMARK SMILES COc1c(O[C@@H]2O[C@@H](C(=O)[O-])[C@@H](O)[C@H](O)[C@@H]2O)cc(O)c2c(=O)cc(-c3ccccc3)oc12
REMARK SMILES IDX 5 1 6 2 8 3 12 4 7 5 14 6 16 7 9 8 10 9 11 10 13 11 15 13
REMARK SMILES IDX 17 15 4 17 3 18 18 19 33 20 19 21 21 22 32 23 22 24 25 25
REMARK SMILES IDX 24 26 23 27 2 28 1 29 20 30 26 32 27 33 31 34 28 35 30 36
REMARK SMILES IDX 29 37
REMARK H PARENT 13 12 15 14 17 16 20 31
REMARK Flexibility Score: inf
ROOT
ATOM      1  O   UNL     1       7.681  -1.294 -12.880  1.00  0.00    -0.458 OA
ENDROOT
BRANCH   1   2
ATOM      2  C   UNL     1       8.596  -1.983 -13.744  1.00  0.00     0.339 C 
ATOM      3  C   UNL     1       7.340  -3.962 -13.631  1.00  0.00     0.199 C 
ATOM      4  C   UNL     1       8.437  -4.757 -12.887  1.00  0.00     0.180 C 
ATOM      5  O   UNL     1       7.911  -2.981 -14.484  1.00  0.00    -0.328 OA
ATOM      6  C   UNL     1       9.366  -3.801 -12.105  1.00  0.00     0.181 C 
ATOM      7  C   UNL     1       9.792  -2.600 -12.975  1.00  0.00     0.214 C 
BRANCH   3   8
ATOM      8  C   UNL     1       6.497  -4.893 -14.455  1.00  0.00     0.073 C 
ATOM      9  O   UNL     1       5.530  -4.442 -15.125  1.00  0.00    -0.547 OA
ATOM     10  O   UNL     1       6.740  -6.261 -14.438  1.00  0.00    -0.547 OA
ENDBRANCH   3   8
BRANCH   4  11
ATOM     11  O   UNL     1       9.195  -5.495 -13.813  1.00  0.00    -0.387 OA
ATOM     12  H   UNL     1       8.589  -6.176 -14.206  1.00  0.00     0.211 HD
ENDBRANCH   4  11
BRANCH   6  13
ATOM     13  O   UNL     1       8.795  -3.394 -10.883  1.00  0.00    -0.387 OA
ATOM     14  H   UNL     1       7.933  -2.942 -11.070  1.00  0.00     0.211 HD
ENDBRANCH   6  13
BRANCH   7  15
ATOM     15  O   UNL     1      10.437  -1.641 -12.178  1.00  0.00    -0.384 OA
ATOM     16  H   UNL     1      10.086  -0.754 -12.454  1.00  0.00     0.211 HD
ENDBRANCH   7  15
ENDBRANCH   1   2
BRANCH   1  17
ATOM     17  C   UNL     1       6.742  -0.316 -13.250  1.00  0.00     0.172 A 
ATOM     18  C   UNL     1       7.153   1.024 -13.219  1.00  0.00     0.205 A 
ATOM     19  C   UNL     1       5.430  -0.639 -13.632  1.00  0.00     0.097 A 
ATOM     20  C   UNL     1       6.244   2.047 -13.591  1.00  0.00     0.188 A 
ATOM     21  C   UNL     1       4.526   0.358 -14.008  1.00  0.00     0.134 A 
ATOM     22  C   UNL     1       4.925   1.712 -13.993  1.00  0.00     0.111 A 
ATOM     23  O   UNL     1       6.619   3.324 -13.554  1.00  0.00    -0.452 OA
ATOM     24  C   UNL     1       4.061   2.763 -14.361  1.00  0.00     0.197 A 
ATOM     25  C   UNL     1       5.821   4.339 -13.880  1.00  0.00     0.138 A 
ATOM     26  C   UNL     1       4.513   4.079 -14.305  1.00  0.00     0.100 A 
ATOM     27  O   UNL     1       2.881   2.541 -14.745  1.00  0.00    -0.289 OA
BRANCH  18  28
ATOM     28  O   UNL     1       8.476   1.267 -12.812  1.00  0.00    -0.490 OA
ATOM     29  C   UNL     1       9.571   1.601 -13.658  1.00  0.00     0.278 C 
ENDBRANCH  18  28
BRANCH  21  30
ATOM     30  O   UNL     1       3.233  -0.003 -14.390  1.00  0.00    -0.507 OA
ATOM     31  H   UNL     1       2.508  -0.195 -13.708  1.00  0.00     0.293 HD
ENDBRANCH  21  30
BRANCH  25  32
ATOM     32  C   UNL     1       6.347   5.725 -13.793  1.00  0.00     0.017 A 
ATOM     33  C   UNL     1       7.735   5.943 -13.740  1.00  0.00     0.012 A 
ATOM     34  C   UNL     1       5.484   6.837 -13.737  1.00  0.00     0.012 A 
ATOM     35  C   UNL     1       8.249   7.240 -13.653  1.00  0.00     0.001 A 
ATOM     36  C   UNL     1       6.002   8.132 -13.651  1.00  0.00     0.001 A 
ATOM     37  C   UNL     1       7.383   8.334 -13.614  1.00  0.00     0.000 A 
ENDBRANCH  25  32
ENDBRANCH   1  17
TORSDOF 9
ENDMDL
MODEL 9
REMARK VINA RESULT:    -5.992      2.530      8.328
REMARK INTER + INTRA:          -9.832
REMARK INTER:                  -8.425
REMARK INTRA:                  -1.407
REMARK UNBOUND:                -1.388
REMARK SMILES COc1c(O[C@@H]2O[C@@H](C(=O)[O-])[C@@H](O)[C@H](O)[C@@H]2O)cc(O)c2c(=O)cc(-c3ccccc3)oc12
REMARK SMILES IDX 5 1 6 2 8 3 12 4 7 5 14 6 16 7 9 8 10 9 11 10 13 11 15 13
REMARK SMILES IDX 17 15 4 17 3 18 18 19 33 20 19 21 21 22 32 23 22 24 25 25
REMARK SMILES IDX 24 26 23 27 2 28 1 29 20 30 26 32 27 33 31 34 28 35 30 36
REMARK SMILES IDX 29 37
REMARK H PARENT 13 12 15 14 17 16 20 31
REMARK Flexibility Score: inf
ROOT
ATOM      1  O   UNL     1       7.534   1.594 -13.128  1.00  0.00    -0.458 OA
ENDROOT
BRANCH   1   2
ATOM      2  C   UNL     1       7.964   2.685 -13.955  1.00  0.00     0.339 C 
ATOM      3  C   UNL     1      10.216   2.325 -13.400  1.00  0.00     0.199 C 
ATOM      4  C   UNL     1      10.369   3.666 -12.648  1.00  0.00     0.180 C 
ATOM      5  O   UNL     1       9.270   2.435 -14.452  1.00  0.00    -0.328 OA
ATOM      6  C   UNL     1       8.999   4.158 -12.126  1.00  0.00     0.181 C 
ATOM      7  C   UNL     1       7.914   4.048 -13.217  1.00  0.00     0.214 C 
BRANCH   3   8
ATOM      8  C   UNL     1      11.537   1.901 -13.975  1.00  0.00     0.073 C 
ATOM      9  O   UNL     1      11.574   1.212 -15.029  1.00  0.00    -0.547 OA
ATOM     10  O   UNL     1      12.721   2.215 -13.318  1.00  0.00    -0.547 OA
ENDBRANCH   3   8
BRANCH   4  11
ATOM     11  O   UNL     1      10.915   4.631 -13.512  1.00  0.00    -0.387 OA
ATOM     12  H   UNL     1      11.626   5.104 -13.004  1.00  0.00     0.211 HD
ENDBRANCH   4  11
BRANCH   6  13
ATOM     13  O   UNL     1       8.624   3.504 -10.936  1.00  0.00    -0.387 OA
ATOM     14  H   UNL     1       9.271   2.776 -10.756  1.00  0.00     0.211 HD
ENDBRANCH   6  13
BRANCH   7  15
ATOM     15  O   UNL     1       6.649   4.277 -12.654  1.00  0.00    -0.384 OA
ATOM     16  H   UNL     1       6.210   3.392 -12.560  1.00  0.00     0.211 HD
ENDBRANCH   7  15
ENDBRANCH   1   2
BRANCH   1  17
ATOM     17  C   UNL     1       6.858   0.434 -13.543  1.00  0.00     0.172 A 
ATOM     18  C   UNL     1       7.553  -0.783 -13.478  1.00  0.00     0.205 A 
ATOM     19  C   UNL     1       5.537   0.462 -14.018  1.00  0.00     0.097 A 
ATOM     20  C   UNL     1       6.911  -1.982 -13.879  1.00  0.00     0.188 A 
ATOM     21  C   UNL     1       4.889  -0.713 -14.409  1.00  0.00     0.134 A 
ATOM     22  C   UNL     1       5.570  -1.948 -14.341  1.00  0.00     0.111 A 
ATOM     23  O   UNL     1       7.564  -3.141 -13.834  1.00  0.00    -0.452 OA
ATOM     24  C   UNL     1       4.972  -3.166 -14.721  1.00  0.00     0.197 A 
ATOM     25  C   UNL     1       7.033  -4.305 -14.200  1.00  0.00     0.138 A 
ATOM     26  C   UNL     1       5.706  -4.347 -14.648  1.00  0.00     0.100 A 
ATOM     27  O   UNL     1       3.779  -3.216 -15.125  1.00  0.00    -0.289 OA
BRANCH  18  28
ATOM     28  O   UNL     1       8.876  -0.727 -13.006  1.00  0.00    -0.490 OA
ATOM     29  C   UNL     1       9.326  -1.115 -11.713  1.00  0.00     0.278 C 
ENDBRANCH  18  28
BRANCH  21  30
ATOM     30  O   UNL     1       3.573  -0.644 -14.868  1.00  0.00    -0.507 OA
ATOM     31  H   UNL     1       3.092   0.241 -14.984  1.00  0.00     0.293 HD
ENDBRANCH  21  30
BRANCH  25  32
ATOM     32  C   UNL     1       7.861  -5.534 -14.114  1.00  0.00     0.017 A 
ATOM     33  C   UNL     1       7.505  -6.669 -14.864  1.00  0.00     0.012 A 
ATOM     34  C   UNL     1       8.990  -5.602 -13.275  1.00  0.00     0.012 A 
ATOM     35  C   UNL     1       8.270  -7.837 -14.793  1.00  0.00     0.001 A 
ATOM     36  C   UNL     1       9.753  -6.772 -13.207  1.00  0.00     0.001 A 
ATOM     37  C   UNL     1       9.396  -7.887 -13.968  1.00  0.00     0.000 A 
ENDBRANCH  25  32
ENDBRANCH   1  17
TORSDOF 9
ENDMDL
