MODEL 1
REMARK VINA RESULT:    -3.838      0.000      0.000
REMARK INTER + INTRA:          -9.940
REMARK INTER:                  -7.428
REMARK INTRA:                  -2.512
REMARK UNBOUND:                -2.512
REMARK SMILES CCCCCCCCCCCCCCCCCC(=O)[O-]
REMARK SMILES IDX 10 1 11 2 12 3 13 4 14 5 15 6 16 7 17 8 18 9 19 10 20 11
REMARK SMILES IDX 9 12 8 13 7 14 6 15 5 16 4 17 3 18 2 19 1 20
REMARK H PARENT
REMARK Flexibility Score: inf
ROOT
ATOM      1  C   UNL     1     -18.695   5.782  17.410  1.00  0.00     0.000 C 
ENDROOT
BRANCH   1   2
ATOM      2  C   UNL     1     -18.183   6.374  18.733  1.00  0.00     0.000 C 
BRANCH   2   3
ATOM      3  C   UNL     1     -18.683   5.597  19.962  1.00  0.00     0.000 C 
BRANCH   3   4
ATOM      4  C   UNL     1     -18.686   4.072  19.747  1.00  0.00     0.000 C 
BRANCH   4   5
ATOM      5  C   UNL     1     -19.972   3.352  20.191  1.00  0.00     0.000 C 
BRANCH   5   6
ATOM      6  C   UNL     1     -21.251   4.108  19.791  1.00  0.00     0.000 C 
BRANCH   6   7
ATOM      7  C   UNL     1     -22.469   3.703  20.647  1.00  0.00     0.006 C 
BRANCH   7   8
ATOM      8  C   UNL     1     -22.292   2.358  21.372  1.00  0.00     0.053 C 
BRANCH   8   9
ATOM      9  C   UNL     1     -23.522   1.507  21.303  1.00  0.00     0.041 C 
ATOM     10  O   UNL     1     -23.467   0.353  20.803  1.00  0.00    -0.550 OA
ATOM     11  O   UNL     1     -24.734   1.998  21.775  1.00  0.00    -0.550 OA
ENDBRANCH   8   9
ENDBRANCH   7   8
ENDBRANCH   6   7
ENDBRANCH   5   6
ENDBRANCH   4   5
ENDBRANCH   3   4
ENDBRANCH   2   3
ENDBRANCH   1   2
BRANCH   1  12
ATOM     12  C   UNL     1     -18.948   6.858  16.340  1.00  0.00     0.000 C 
BRANCH  12  13
ATOM     13  C   UNL     1     -20.446   7.125  16.113  1.00  0.00    -0.000 C 
BRANCH  13  14
ATOM     14  C   UNL     1     -21.345   6.123  16.856  1.00  0.00    -0.000 C 
BRANCH  14  15
ATOM     15  C   UNL     1     -22.404   6.854  17.694  1.00  0.00    -0.000 C 
BRANCH  15  16
ATOM     16  C   UNL     1     -21.941   8.249  18.150  1.00  0.00    -0.000 C 
BRANCH  16  17
ATOM     17  C   UNL     1     -21.241   8.219  19.520  1.00  0.00    -0.000 C 
BRANCH  17  18
ATOM     18  C   UNL     1     -22.067   7.486  20.589  1.00  0.00    -0.000 C 
BRANCH  18  19
ATOM     19  C   UNL     1     -23.462   8.099  20.786  1.00  0.00    -0.003 C 
ATOM     20  C   UNL     1     -24.492   7.023  21.121  1.00  0.00     0.004 C 
ENDBRANCH  18  19
ENDBRANCH  17  18
ENDBRANCH  16  17
ENDBRANCH  15  16
ENDBRANCH  14  15
ENDBRANCH  13  14
ENDBRANCH  12  13
ENDBRANCH   1  12
TORSDOF 16
ENDMDL
MODEL 2
REMARK VINA RESULT:    -3.824      1.195      3.799
REMARK INTER + INTRA:          -9.913
REMARK INTER:                  -7.273
REMARK INTRA:                  -2.640
REMARK UNBOUND:                -2.512
REMARK SMILES CCCCCCCCCCCCCCCCCC(=O)[O-]
REMARK SMILES IDX 10 1 11 2 12 3 13 4 14 5 15 6 16 7 17 8 18 9 19 10 20 11
REMARK SMILES IDX 9 12 8 13 7 14 6 15 5 16 4 17 3 18 2 19 1 20
REMARK H PARENT
REMARK Flexibility Score: inf
ROOT
ATOM      1  C   UNL     1     -22.375   7.083  17.424  1.00  0.00     0.000 C 
ENDROOT
BRANCH   1   2
ATOM      2  C   UNL     1     -21.618   8.180  18.191  1.00  0.00     0.000 C 
BRANCH   2   3
ATOM      3  C   UNL     1     -22.511   8.920  19.201  1.00  0.00     0.000 C 
BRANCH   3   4
ATOM      4  C   UNL     1     -22.518   8.258  20.592  1.00  0.00     0.000 C 
BRANCH   4   5
ATOM      5  C   UNL     1     -23.766   7.414  20.907  1.00  0.00     0.000 C 
BRANCH   5   6
ATOM      6  C   UNL     1     -23.537   5.906  20.704  1.00  0.00     0.000 C 
BRANCH   6   7
ATOM      7  C   UNL     1     -23.781   5.093  21.993  1.00  0.00     0.006 C 
BRANCH   7   8
ATOM      8  C   UNL     1     -23.414   3.605  21.861  1.00  0.00     0.053 C 
BRANCH   8   9
ATOM      9  C   UNL     1     -24.338   2.720  22.637  1.00  0.00     0.041 C 
ATOM     10  O   UNL     1     -24.476   2.881  23.878  1.00  0.00    -0.550 OA
ATOM     11  O   UNL     1     -25.032   1.703  21.992  1.00  0.00    -0.550 OA
ENDBRANCH   8   9
ENDBRANCH   7   8
ENDBRANCH   6   7
ENDBRANCH   5   6
ENDBRANCH   4   5
ENDBRANCH   3   4
ENDBRANCH   2   3
ENDBRANCH   1   2
BRANCH   1  12
ATOM     12  C   UNL     1     -21.431   6.128  16.674  1.00  0.00     0.000 C 
BRANCH  12  13
ATOM     13  C   UNL     1     -20.299   6.870  15.943  1.00  0.00    -0.000 C 
BRANCH  13  14
ATOM     14  C   UNL     1     -18.937   6.175  16.101  1.00  0.00    -0.000 C 
BRANCH  14  15
ATOM     15  C   UNL     1     -18.149   6.772  17.277  1.00  0.00    -0.000 C 
BRANCH  15  16
ATOM     16  C   UNL     1     -18.157   5.863  18.519  1.00  0.00    -0.000 C 
BRANCH  16  17
ATOM     17  C   UNL     1     -18.778   6.550  19.748  1.00  0.00    -0.000 C 
BRANCH  17  18
ATOM     18  C   UNL     1     -19.825   5.670  20.450  1.00  0.00    -0.000 C 
BRANCH  18  19
ATOM     19  C   UNL     1     -20.285   4.489  19.583  1.00  0.00    -0.003 C 
ATOM     20  C   UNL     1     -20.072   3.162  20.306  1.00  0.00     0.004 C 
ENDBRANCH  18  19
ENDBRANCH  17  18
ENDBRANCH  16  17
ENDBRANCH  15  16
ENDBRANCH  14  15
ENDBRANCH  13  14
ENDBRANCH  12  13
ENDBRANCH   1  12
TORSDOF 16
ENDMDL
MODEL 3
REMARK VINA RESULT:    -3.814      1.981      4.412
REMARK INTER + INTRA:          -9.893
REMARK INTER:                  -7.376
REMARK INTRA:                  -2.517
REMARK UNBOUND:                -2.512
REMARK SMILES CCCCCCCCCCCCCCCCCC(=O)[O-]
REMARK SMILES IDX 10 1 11 2 12 3 13 4 14 5 15 6 16 7 17 8 18 9 19 10 20 11
REMARK SMILES IDX 9 12 8 13 7 14 6 15 5 16 4 17 3 18 2 19 1 20
REMARK H PARENT
REMARK Flexibility Score: inf
ROOT
ATOM      1  C   UNL     1     -23.558   8.097  20.473  1.00  0.00     0.000 C 
ENDROOT
BRANCH   1   2
ATOM      2  C   UNL     1     -24.051   6.768  21.067  1.00  0.00     0.000 C 
BRANCH   2   3
ATOM      3  C   UNL     1     -22.897   5.837  21.474  1.00  0.00     0.000 C 
BRANCH   3   4
ATOM      4  C   UNL     1     -23.274   4.345  21.393  1.00  0.00     0.000 C 
BRANCH   4   5
ATOM      5  C   UNL     1     -22.442   3.515  20.398  1.00  0.00     0.000 C 
BRANCH   5   6
ATOM      6  C   UNL     1     -21.159   4.232  19.945  1.00  0.00     0.000 C 
BRANCH   6   7
ATOM      7  C   UNL     1     -19.883   3.575  20.511  1.00  0.00     0.006 C 
BRANCH   7   8
ATOM      8  C   UNL     1     -19.997   2.050  20.675  1.00  0.00     0.053 C 
BRANCH   8   9
ATOM      9  C   UNL     1     -18.960   1.313  19.887  1.00  0.00     0.041 C 
ATOM     10  O   UNL     1     -19.005   0.057  19.799  1.00  0.00    -0.550 OA
ATOM     11  O   UNL     1     -17.933   2.011  19.265  1.00  0.00    -0.550 OA
ENDBRANCH   8   9
ENDBRANCH   7   8
ENDBRANCH   6   7
ENDBRANCH   5   6
ENDBRANCH   4   5
ENDBRANCH   3   4
ENDBRANCH   2   3
ENDBRANCH   1   2
BRANCH   1  12
ATOM     12  C   UNL     1     -22.085   8.037  20.032  1.00  0.00     0.000 C 
BRANCH  12  13
ATOM     13  C   UNL     1     -21.904   8.332  18.533  1.00  0.00    -0.000 C 
BRANCH  13  14
ATOM     14  C   UNL     1     -22.521   7.245  17.638  1.00  0.00    -0.000 C 
BRANCH  14  15
ATOM     15  C   UNL     1     -21.442   6.278  17.127  1.00  0.00    -0.000 C 
BRANCH  15  16
ATOM     16  C   UNL     1     -20.580   6.888  16.008  1.00  0.00    -0.000 C 
BRANCH  16  17
ATOM     17  C   UNL     1     -19.082   6.907  16.360  1.00  0.00    -0.000 C 
BRANCH  17  18
ATOM     18  C   UNL     1     -18.799   6.349  17.764  1.00  0.00    -0.000 C 
BRANCH  18  19
ATOM     19  C   UNL     1     -18.289   7.422  18.738  1.00  0.00    -0.003 C 
ATOM     20  C   UNL     1     -18.511   6.998  20.187  1.00  0.00     0.004 C 
ENDBRANCH  18  19
ENDBRANCH  17  18
ENDBRANCH  16  17
ENDBRANCH  15  16
ENDBRANCH  14  15
ENDBRANCH  13  14
ENDBRANCH  12  13
ENDBRANCH   1  12
TORSDOF 16
ENDMDL
MODEL 4
REMARK VINA RESULT:    -3.798      0.834      3.800
REMARK INTER + INTRA:          -9.863
REMARK INTER:                  -7.545
REMARK INTRA:                  -2.318
REMARK UNBOUND:                -2.512
REMARK SMILES CCCCCCCCCCCCCCCCCC(=O)[O-]
REMARK SMILES IDX 10 1 11 2 12 3 13 4 14 5 15 6 16 7 17 8 18 9 19 10 20 11
REMARK SMILES IDX 9 12 8 13 7 14 6 15 5 16 4 17 3 18 2 19 1 20
REMARK H PARENT
REMARK Flexibility Score: inf
ROOT
ATOM      1  C   UNL     1     -21.256   8.317  19.288  1.00  0.00     0.000 C 
ENDROOT
BRANCH   1   2
ATOM      2  C   UNL     1     -21.920   8.104  20.658  1.00  0.00     0.000 C 
BRANCH   2   3
ATOM      3  C   UNL     1     -23.456   8.087  20.576  1.00  0.00     0.000 C 
BRANCH   3   4
ATOM      4  C   UNL     1     -24.069   6.776  21.104  1.00  0.00     0.000 C 
BRANCH   4   5
ATOM      5  C   UNL     1     -23.052   5.730  21.595  1.00  0.00     0.000 C 
BRANCH   5   6
ATOM      6  C   UNL     1     -23.138   4.403  20.822  1.00  0.00     0.000 C 
BRANCH   6   7
ATOM      7  C   UNL     1     -22.915   3.175  21.730  1.00  0.00     0.006 C 
BRANCH   7   8
ATOM      8  C   UNL     1     -22.563   1.893  20.956  1.00  0.00     0.053 C 
BRANCH   8   9
ATOM      9  C   UNL     1     -23.554   0.796  21.191  1.00  0.00     0.041 C 
ATOM     10  O   UNL     1     -24.591   1.014  21.870  1.00  0.00    -0.550 OA
ATOM     11  O   UNL     1     -23.321  -0.473  20.675  1.00  0.00    -0.550 OA
ENDBRANCH   8   9
ENDBRANCH   7   8
ENDBRANCH   6   7
ENDBRANCH   5   6
ENDBRANCH   4   5
ENDBRANCH   3   4
ENDBRANCH   2   3
ENDBRANCH   1   2
BRANCH   1  12
ATOM     12  C   UNL     1     -22.162   7.893  18.120  1.00  0.00     0.000 C 
BRANCH  12  13
ATOM     13  C   UNL     1     -22.055   6.391  17.805  1.00  0.00    -0.000 C 
BRANCH  13  14
ATOM     14  C   UNL     1     -21.555   6.119  16.377  1.00  0.00    -0.000 C 
BRANCH  14  15
ATOM     15  C   UNL     1     -20.391   7.054  16.017  1.00  0.00    -0.000 C 
BRANCH  15  16
ATOM     16  C   UNL     1     -19.019   6.368  16.138  1.00  0.00    -0.000 C 
BRANCH  16  17
ATOM     17  C   UNL     1     -18.353   6.616  17.503  1.00  0.00    -0.000 C 
BRANCH  17  18
ATOM     18  C   UNL     1     -18.225   5.333  18.339  1.00  0.00    -0.000 C 
BRANCH  18  19
ATOM     19  C   UNL     1     -19.238   5.272  19.492  1.00  0.00    -0.003 C 
ATOM     20  C   UNL     1     -19.484   3.831  19.931  1.00  0.00     0.004 C 
ENDBRANCH  18  19
ENDBRANCH  17  18
ENDBRANCH  16  17
ENDBRANCH  15  16
ENDBRANCH  14  15
ENDBRANCH  13  14
ENDBRANCH  12  13
ENDBRANCH   1  12
TORSDOF 16
ENDMDL
MODEL 5
REMARK VINA RESULT:    -3.768      3.039      6.131
REMARK INTER + INTRA:          -9.804
REMARK INTER:                  -7.637
REMARK INTRA:                  -2.167
REMARK UNBOUND:                -2.512
REMARK SMILES CCCCCCCCCCCCCCCCCC(=O)[O-]
REMARK SMILES IDX 10 1 11 2 12 3 13 4 14 5 15 6 16 7 17 8 18 9 19 10 20 11
REMARK SMILES IDX 9 12 8 13 7 14 6 15 5 16 4 17 3 18 2 19 1 20
REMARK H PARENT
REMARK Flexibility Score: inf
ROOT
ATOM      1  C   UNL     1     -23.655   7.998  20.363  1.00  0.00     0.000 C 
ENDROOT
BRANCH   1   2
ATOM      2  C   UNL     1     -22.165   8.350  20.227  1.00  0.00     0.000 C 
BRANCH   2   3
ATOM      3  C   UNL     1     -21.727   8.519  18.764  1.00  0.00     0.000 C 
BRANCH   3   4
ATOM      4  C   UNL     1     -22.375   7.488  17.821  1.00  0.00     0.000 C 
BRANCH   4   5
ATOM      5  C   UNL     1     -21.426   6.397  17.293  1.00  0.00     0.000 C 
BRANCH   5   6
ATOM      6  C   UNL     1     -20.619   6.848  16.063  1.00  0.00     0.000 C 
BRANCH   6   7
ATOM      7  C   UNL     1     -19.109   6.570  16.212  1.00  0.00     0.006 C 
BRANCH   7   8
ATOM      8  C   UNL     1     -18.544   6.962  17.587  1.00  0.00     0.053 C 
BRANCH   8   9
ATOM      9  C   UNL     1     -17.576   5.950  18.116  1.00  0.00     0.041 C 
ATOM     10  O   UNL     1     -16.344   6.209  18.152  1.00  0.00    -0.550 OA
ATOM     11  O   UNL     1     -18.034   4.712  18.553  1.00  0.00    -0.550 OA
ENDBRANCH   8   9
ENDBRANCH   7   8
ENDBRANCH   6   7
ENDBRANCH   5   6
ENDBRANCH   4   5
ENDBRANCH   3   4
ENDBRANCH   2   3
ENDBRANCH   1   2
BRANCH   1  12
ATOM     12  C   UNL     1     -23.884   6.675  21.115  1.00  0.00     0.000 C 
BRANCH  12  13
ATOM     13  C   UNL     1     -22.626   5.791  21.152  1.00  0.00    -0.000 C 
BRANCH  13  14
ATOM     14  C   UNL     1     -22.759   4.535  20.275  1.00  0.00    -0.000 C 
BRANCH  14  15
ATOM     15  C   UNL     1     -21.681   3.500  20.633  1.00  0.00    -0.000 C 
BRANCH  15  16
ATOM     16  C   UNL     1     -22.259   2.264  21.343  1.00  0.00    -0.000 C 
BRANCH  16  17
ATOM     17  C   UNL     1     -23.796   2.288  21.413  1.00  0.00    -0.000 C 
BRANCH  17  18
ATOM     18  C   UNL     1     -24.322   2.226  22.856  1.00  0.00    -0.000 C 
BRANCH  18  19
ATOM     19  C   UNL     1     -24.734   3.603  23.398  1.00  0.00    -0.003 C 
ATOM     20  C   UNL     1     -23.679   4.155  24.353  1.00  0.00     0.004 C 
ENDBRANCH  18  19
ENDBRANCH  17  18
ENDBRANCH  16  17
ENDBRANCH  15  16
ENDBRANCH  14  15
ENDBRANCH  13  14
ENDBRANCH  12  13
ENDBRANCH   1  12
TORSDOF 16
ENDMDL
MODEL 6
REMARK VINA RESULT:    -3.759      1.196      4.004
REMARK INTER + INTRA:          -9.788
REMARK INTER:                  -7.478
REMARK INTRA:                  -2.310
REMARK UNBOUND:                -2.512
REMARK SMILES CCCCCCCCCCCCCCCCCC(=O)[O-]
REMARK SMILES IDX 10 1 11 2 12 3 13 4 14 5 15 6 16 7 17 8 18 9 19 10 20 11
REMARK SMILES IDX 9 12 8 13 7 14 6 15 5 16 4 17 3 18 2 19 1 20
REMARK H PARENT
REMARK Flexibility Score: inf
ROOT
ATOM      1  C   UNL     1     -22.410   8.328  20.557  1.00  0.00     0.000 C 
ENDROOT
BRANCH   1   2
ATOM      2  C   UNL     1     -23.885   7.984  20.824  1.00  0.00     0.000 C 
BRANCH   2   3
ATOM      3  C   UNL     1     -24.093   6.504  21.183  1.00  0.00     0.000 C 
BRANCH   3   4
ATOM      4  C   UNL     1     -22.778   5.700  21.199  1.00  0.00     0.000 C 
BRANCH   4   5
ATOM      5  C   UNL     1     -22.651   4.634  20.096  1.00  0.00     0.000 C 
BRANCH   5   6
ATOM      6  C   UNL     1     -21.217   4.096  19.946  1.00  0.00     0.000 C 
BRANCH   6   7
ATOM      7  C   UNL     1     -21.067   2.658  20.483  1.00  0.00     0.006 C 
BRANCH   7   8
ATOM      8  C   UNL     1     -22.394   2.031  20.944  1.00  0.00     0.053 C 
BRANCH   8   9
ATOM      9  C   UNL     1     -22.362   1.621  22.383  1.00  0.00     0.041 C 
ATOM     10  O   UNL     1     -21.337   1.069  22.861  1.00  0.00    -0.550 OA
ATOM     11  O   UNL     1     -23.473   1.833  23.191  1.00  0.00    -0.550 OA
ENDBRANCH   8   9
ENDBRANCH   7   8
ENDBRANCH   6   7
ENDBRANCH   5   6
ENDBRANCH   4   5
ENDBRANCH   3   4
ENDBRANCH   2   3
ENDBRANCH   1   2
BRANCH   1  12
ATOM     12  C   UNL     1     -22.194   8.968  19.175  1.00  0.00     0.000 C 
BRANCH  12  13
ATOM     13  C   UNL     1     -21.398   8.061  18.221  1.00  0.00    -0.000 C 
BRANCH  13  14
ATOM     14  C   UNL     1     -22.294   7.074  17.456  1.00  0.00    -0.000 C 
BRANCH  14  15
ATOM     15  C   UNL     1     -21.453   6.138  16.575  1.00  0.00    -0.000 C 
BRANCH  15  16
ATOM     16  C   UNL     1     -20.292   6.867  15.876  1.00  0.00    -0.000 C 
BRANCH  16  17
ATOM     17  C   UNL     1     -18.937   6.174  16.105  1.00  0.00    -0.000 C 
BRANCH  17  18
ATOM     18  C   UNL     1     -18.187   6.734  17.324  1.00  0.00    -0.000 C 
BRANCH  18  19
ATOM     19  C   UNL     1     -18.151   5.749  18.502  1.00  0.00    -0.003 C 
ATOM     20  C   UNL     1     -18.332   6.476  19.832  1.00  0.00     0.004 C 
ENDBRANCH  18  19
ENDBRANCH  17  18
ENDBRANCH  16  17
ENDBRANCH  15  16
ENDBRANCH  14  15
ENDBRANCH  13  14
ENDBRANCH  12  13
ENDBRANCH   1  12
TORSDOF 16
ENDMDL
MODEL 7
REMARK VINA RESULT:    -3.732      1.812      4.152
REMARK INTER + INTRA:          -9.736
REMARK INTER:                  -7.298
REMARK INTRA:                  -2.438
REMARK UNBOUND:                -2.512
REMARK SMILES CCCCCCCCCCCCCCCCCC(=O)[O-]
REMARK SMILES IDX 10 1 11 2 12 3 13 4 14 5 15 6 16 7 17 8 18 9 19 10 20 11
REMARK SMILES IDX 9 12 8 13 7 14 6 15 5 16 4 17 3 18 2 19 1 20
REMARK H PARENT
REMARK Flexibility Score: inf
ROOT
ATOM      1  C   UNL     1     -22.197   8.324  19.867  1.00  0.00     0.000 C 
ENDROOT
BRANCH   1   2
ATOM      2  C   UNL     1     -23.677   7.919  19.961  1.00  0.00     0.000 C 
BRANCH   2   3
ATOM      3  C   UNL     1     -23.944   6.906  21.087  1.00  0.00     0.000 C 
BRANCH   3   4
ATOM      4  C   UNL     1     -22.792   5.899  21.272  1.00  0.00     0.000 C 
BRANCH   4   5
ATOM      5  C   UNL     1     -22.829   4.684  20.328  1.00  0.00     0.000 C 
BRANCH   5   6
ATOM      6  C   UNL     1     -22.689   3.344  21.071  1.00  0.00     0.000 C 
BRANCH   6   7
ATOM      7  C   UNL     1     -23.950   2.986  21.886  1.00  0.00     0.006 C 
BRANCH   7   8
ATOM      8  C   UNL     1     -23.697   2.891  23.400  1.00  0.00     0.053 C 
BRANCH   8   9
ATOM      9  C   UNL     1     -24.217   4.083  24.141  1.00  0.00     0.041 C 
ATOM     10  O   UNL     1     -23.722   4.404  25.254  1.00  0.00    -0.550 OA
ATOM     11  O   UNL     1     -25.263   4.830  23.611  1.00  0.00    -0.550 OA
ENDBRANCH   8   9
ENDBRANCH   7   8
ENDBRANCH   6   7
ENDBRANCH   5   6
ENDBRANCH   4   5
ENDBRANCH   3   4
ENDBRANCH   2   3
ENDBRANCH   1   2
BRANCH   1  12
ATOM     12  C   UNL     1     -21.602   8.064  18.472  1.00  0.00     0.000 C 
BRANCH  12  13
ATOM     13  C   UNL     1     -22.434   7.064  17.651  1.00  0.00    -0.000 C 
BRANCH  13  14
ATOM     14  C   UNL     1     -21.587   6.286  16.631  1.00  0.00    -0.000 C 
BRANCH  14  15
ATOM     15  C   UNL     1     -20.358   7.102  16.202  1.00  0.00    -0.000 C 
BRANCH  15  16
ATOM     16  C   UNL     1     -19.063   6.272  16.208  1.00  0.00    -0.000 C 
BRANCH  16  17
ATOM     17  C   UNL     1     -18.079   6.721  17.302  1.00  0.00    -0.000 C 
BRANCH  17  18
ATOM     18  C   UNL     1     -17.845   5.639  18.367  1.00  0.00    -0.000 C 
BRANCH  18  19
ATOM     19  C   UNL     1     -19.125   5.275  19.135  1.00  0.00    -0.003 C 
ATOM     20  C   UNL     1     -19.160   5.960  20.498  1.00  0.00     0.004 C 
ENDBRANCH  18  19
ENDBRANCH  17  18
ENDBRANCH  16  17
ENDBRANCH  15  16
ENDBRANCH  14  15
ENDBRANCH  13  14
ENDBRANCH  12  13
ENDBRANCH   1  12
TORSDOF 16
ENDMDL
MODEL 8
REMARK VINA RESULT:    -3.724      1.451      3.740
REMARK INTER + INTRA:          -9.719
REMARK INTER:                  -6.884
REMARK INTRA:                  -2.835
REMARK UNBOUND:                -2.512
REMARK SMILES CCCCCCCCCCCCCCCCCC(=O)[O-]
REMARK SMILES IDX 10 1 11 2 12 3 13 4 14 5 15 6 16 7 17 8 18 9 19 10 20 11
REMARK SMILES IDX 9 12 8 13 7 14 6 15 5 16 4 17 3 18 2 19 1 20
REMARK H PARENT
REMARK Flexibility Score: inf
ROOT
ATOM      1  C   UNL     1     -21.437   6.129  16.557  1.00  0.00     0.000 C 
ENDROOT
BRANCH   1   2
ATOM      2  C   UNL     1     -22.388   6.786  17.570  1.00  0.00     0.000 C 
BRANCH   2   3
ATOM      3  C   UNL     1     -21.876   8.148  18.067  1.00  0.00     0.000 C 
BRANCH   3   4
ATOM      4  C   UNL     1     -22.683   8.692  19.262  1.00  0.00     0.000 C 
BRANCH   4   5
ATOM      5  C   UNL     1     -23.769   7.744  19.802  1.00  0.00     0.000 C 
BRANCH   5   6
ATOM      6  C   UNL     1     -23.373   7.073  21.128  1.00  0.00     0.000 C 
BRANCH   6   7
ATOM      7  C   UNL     1     -23.255   5.539  21.001  1.00  0.00     0.006 C 
BRANCH   7   8
ATOM      8  C   UNL     1     -23.321   4.803  22.350  1.00  0.00     0.053 C 
BRANCH   8   9
ATOM      9  C   UNL     1     -23.825   3.401  22.210  1.00  0.00     0.041 C 
ATOM     10  O   UNL     1     -23.439   2.682  21.251  1.00  0.00    -0.550 OA
ATOM     11  O   UNL     1     -24.735   2.894  23.130  1.00  0.00    -0.550 OA
ENDBRANCH   8   9
ENDBRANCH   7   8
ENDBRANCH   6   7
ENDBRANCH   5   6
ENDBRANCH   4   5
ENDBRANCH   3   4
ENDBRANCH   2   3
ENDBRANCH   1   2
BRANCH   1  12
ATOM     12  C   UNL     1     -20.377   7.108  16.022  1.00  0.00     0.000 C 
BRANCH  12  13
ATOM     13  C   UNL     1     -18.942   6.590  16.219  1.00  0.00    -0.000 C 
BRANCH  13  14
ATOM     14  C   UNL     1     -18.420   6.824  17.646  1.00  0.00    -0.000 C 
BRANCH  14  15
ATOM     15  C   UNL     1     -17.880   5.519  18.253  1.00  0.00    -0.000 C 
BRANCH  15  16
ATOM     16  C   UNL     1     -18.864   4.876  19.246  1.00  0.00    -0.000 C 
BRANCH  16  17
ATOM     17  C   UNL     1     -19.797   5.908  19.903  1.00  0.00    -0.000 C 
BRANCH  17  18
ATOM     18  C   UNL     1     -19.338   6.304  21.315  1.00  0.00    -0.000 C 
BRANCH  18  19
ATOM     19  C   UNL     1     -19.818   7.705  21.724  1.00  0.00    -0.003 C 
ATOM     20  C   UNL     1     -19.290   8.768  20.764  1.00  0.00     0.004 C 
ENDBRANCH  18  19
ENDBRANCH  17  18
ENDBRANCH  16  17
ENDBRANCH  15  16
ENDBRANCH  14  15
ENDBRANCH  13  14
ENDBRANCH  12  13
ENDBRANCH   1  12
TORSDOF 16
ENDMDL
MODEL 9
REMARK VINA RESULT:    -3.699      3.074      6.380
REMARK INTER + INTRA:          -9.670
REMARK INTER:                  -7.422
REMARK INTRA:                  -2.248
REMARK UNBOUND:                -2.512
REMARK SMILES CCCCCCCCCCCCCCCCCC(=O)[O-]
REMARK SMILES IDX 10 1 11 2 12 3 13 4 14 5 15 6 16 7 17 8 18 9 19 10 20 11
REMARK SMILES IDX 9 12 8 13 7 14 6 15 5 16 4 17 3 18 2 19 1 20
REMARK H PARENT
REMARK Flexibility Score: inf
ROOT
ATOM      1  C   UNL     1     -21.303   4.031  20.185  1.00  0.00     0.000 C 
ENDROOT
BRANCH   1   2
ATOM      2  C   UNL     1     -22.727   4.603  20.261  1.00  0.00     0.000 C 
BRANCH   2   3
ATOM      3  C   UNL     1     -22.951   5.474  21.509  1.00  0.00     0.000 C 
BRANCH   3   4
ATOM      4  C   UNL     1     -24.146   6.435  21.363  1.00  0.00     0.000 C 
BRANCH   4   5
ATOM      5  C   UNL     1     -23.863   7.710  20.548  1.00  0.00     0.000 C 
BRANCH   5   6
ATOM      6  C   UNL     1     -22.452   8.274  20.789  1.00  0.00     0.000 C 
BRANCH   6   7
ATOM      7  C   UNL     1     -21.647   8.430  19.482  1.00  0.00     0.006 C 
BRANCH   7   8
ATOM      8  C   UNL     1     -22.348   7.831  18.252  1.00  0.00     0.053 C 
BRANCH   8   9
ATOM      9  C   UNL     1     -21.443   6.942  17.457  1.00  0.00     0.041 C 
ATOM     10  O   UNL     1     -21.905   5.923  16.878  1.00  0.00    -0.550 OA
ATOM     11  O   UNL     1     -20.086   7.230  17.370  1.00  0.00    -0.550 OA
ENDBRANCH   8   9
ENDBRANCH   7   8
ENDBRANCH   6   7
ENDBRANCH   5   6
ENDBRANCH   4   5
ENDBRANCH   3   4
ENDBRANCH   2   3
ENDBRANCH   1   2
BRANCH   1  12
ATOM     12  C   UNL     1     -21.269   2.503  20.366  1.00  0.00     0.000 C 
BRANCH  12  13
ATOM     13  C   UNL     1     -21.943   2.048  21.672  1.00  0.00    -0.000 C 
BRANCH  13  14
ATOM     14  C   UNL     1     -22.485   0.612  21.590  1.00  0.00    -0.000 C 
BRANCH  14  15
ATOM     15  C   UNL     1     -24.009   0.591  21.780  1.00  0.00    -0.000 C 
BRANCH  15  16
ATOM     16  C   UNL     1     -24.614   2.002  21.884  1.00  0.00    -0.000 C 
BRANCH  16  17
ATOM     17  C   UNL     1     -25.275   2.261  23.250  1.00  0.00    -0.000 C 
BRANCH  17  18
ATOM     18  C   UNL     1     -24.293   2.841  24.280  1.00  0.00    -0.000 C 
BRANCH  18  19
ATOM     19  C   UNL     1     -24.657   4.269  24.710  1.00  0.00    -0.003 C 
ATOM     20  C   UNL     1     -26.074   4.630  24.269  1.00  0.00     0.004 C 
ENDBRANCH  18  19
ENDBRANCH  17  18
ENDBRANCH  16  17
ENDBRANCH  15  16
ENDBRANCH  14  15
ENDBRANCH  13  14
ENDBRANCH  12  13
ENDBRANCH   1  12
TORSDOF 16
ENDMDL
