MODEL 1
REMARK VINA RESULT:    -0.697      0.000      0.000
REMARK INTER + INTRA:          -2.006
REMARK INTER:                  -1.227
REMARK INTRA:                  -0.780
REMARK UNBOUND:                -0.780
REMARK SMILES CCCCCCC=CCCCCCCCC(=O)[O-]
REMARK SMILES IDX 10 1 11 2 12 3 13 4 14 5 15 6 16 7 17 8 18 9 9 10 8 11 7 12
REMARK SMILES IDX 6 13 5 14 4 15 3 16 2 17 1 18
REMARK H PARENT
REMARK Flexibility Score: inf
ROOT
ATOM      1  C   UNL     1     -10.745  -9.005  23.872  1.00  0.00     0.004 C 
ENDROOT
BRANCH   1   2
ATOM      2  C   UNL     1      -9.431  -8.768  23.111  1.00  0.00     0.000 C 
BRANCH   2   3
ATOM      3  C   UNL     1      -9.659  -8.192  21.704  1.00  0.00     0.000 C 
BRANCH   3   4
ATOM      4  C   UNL     1      -9.174  -9.131  20.584  1.00  0.00     0.000 C 
BRANCH   4   5
ATOM      5  C   UNL     1      -8.648  -8.426  19.321  1.00  0.00     0.006 C 
BRANCH   5   6
ATOM      6  C   UNL     1      -7.463  -9.155  18.676  1.00  0.00     0.053 C 
BRANCH   6   7
ATOM      7  C   UNL     1      -6.189  -8.416  18.939  1.00  0.00     0.041 C 
ATOM      8  O   UNL     1      -5.326  -8.297  18.030  1.00  0.00    -0.550 OA
ATOM      9  O   UNL     1      -5.933  -7.900  20.203  1.00  0.00    -0.550 OA
ENDBRANCH   6   7
ENDBRANCH   5   6
ENDBRANCH   4   5
ENDBRANCH   3   4
ENDBRANCH   2   3
ENDBRANCH   1   2
BRANCH   1  10
ATOM     10  C   UNL     1     -11.042  -7.905  24.901  1.00  0.00     0.027 C 
BRANCH  10  11
ATOM     11  C   UNL     1      -9.791  -7.128  25.224  1.00  0.00    -0.031 C 
ATOM     12  C   UNL     1      -9.766  -5.976  25.921  1.00  0.00    -0.031 C 
BRANCH  12  13
ATOM     13  C   UNL     1     -10.972  -5.337  26.564  1.00  0.00     0.027 C 
BRANCH  13  14
ATOM     14  C   UNL     1     -10.739  -5.042  28.053  1.00  0.00     0.004 C 
BRANCH  14  15
ATOM     15  C   UNL     1      -9.819  -6.086  28.712  1.00  0.00     0.000 C 
BRANCH  15  16
ATOM     16  C   UNL     1     -10.603  -7.233  29.368  1.00  0.00    -0.000 C 
BRANCH  16  17
ATOM     17  C   UNL     1     -11.636  -7.860  28.420  1.00  0.00    -0.003 C 
ATOM     18  C   UNL     1     -12.135  -9.198  28.958  1.00  0.00     0.004 C 
ENDBRANCH  16  17
ENDBRANCH  15  16
ENDBRANCH  14  15
ENDBRANCH  13  14
ENDBRANCH  12  13
ENDBRANCH  10  11
ENDBRANCH   1  10
TORSDOF 13
ENDMDL
MODEL 2
REMARK VINA RESULT:    -0.377     11.914     14.592
REMARK INTER + INTRA:          -1.443
REMARK INTER:                  -0.562
REMARK INTRA:                  -0.880
REMARK UNBOUND:                -0.780
REMARK SMILES CCCCCCC=CCCCCCCCC(=O)[O-]
REMARK SMILES IDX 10 1 11 2 12 3 13 4 14 5 15 6 16 7 17 8 18 9 9 10 8 11 7 12
REMARK SMILES IDX 6 13 5 14 4 15 3 16 2 17 1 18
REMARK H PARENT
REMARK Flexibility Score: inf
ROOT
ATOM      1  C   UNL     1      -7.847   1.138  13.057  1.00  0.00     0.004 C 
ENDROOT
BRANCH   1   2
ATOM      2  C   UNL     1      -9.179   0.409  13.298  1.00  0.00     0.000 C 
BRANCH   2   3
ATOM      3  C   UNL     1      -8.990  -0.955  13.981  1.00  0.00     0.000 C 
BRANCH   3   4
ATOM      4  C   UNL     1      -9.488  -2.131  13.120  1.00  0.00     0.000 C 
BRANCH   4   5
ATOM      5  C   UNL     1     -10.042  -3.330  13.910  1.00  0.00     0.006 C 
BRANCH   5   6
ATOM      6  C   UNL     1     -11.222  -4.016  13.208  1.00  0.00     0.053 C 
BRANCH   6   7
ATOM      7  C   UNL     1     -12.488  -3.786  13.970  1.00  0.00     0.041 C 
ATOM      8  O   UNL     1     -13.258  -4.749  14.225  1.00  0.00    -0.550 OA
ATOM      9  O   UNL     1     -12.844  -2.500  14.356  1.00  0.00    -0.550 OA
ENDBRANCH   6   7
ENDBRANCH   5   6
ENDBRANCH   4   5
ENDBRANCH   3   4
ENDBRANCH   2   3
ENDBRANCH   1   2
BRANCH   1  10
ATOM     10  C   UNL     1      -7.541   2.188  14.135  1.00  0.00     0.027 C 
BRANCH  10  11
ATOM     11  C   UNL     1      -8.790   2.546  14.898  1.00  0.00    -0.031 C 
ATOM     12  C   UNL     1      -8.823   3.358  15.972  1.00  0.00    -0.031 C 
BRANCH  12  13
ATOM     13  C   UNL     1      -7.631   4.105  16.519  1.00  0.00     0.027 C 
BRANCH  13  14
ATOM     14  C   UNL     1      -7.925   5.601  16.697  1.00  0.00     0.004 C 
BRANCH  14  15
ATOM     15  C   UNL     1      -8.780   6.163  15.547  1.00  0.00     0.000 C 
BRANCH  15  16
ATOM     16  C   UNL     1      -7.930   6.804  14.438  1.00  0.00    -0.000 C 
BRANCH  16  17
ATOM     17  C   UNL     1      -7.028   5.787  13.723  1.00  0.00    -0.003 C 
ATOM     18  C   UNL     1      -6.305   6.429  12.543  1.00  0.00     0.004 C 
ENDBRANCH  16  17
ENDBRANCH  15  16
ENDBRANCH  14  15
ENDBRANCH  13  14
ENDBRANCH  12  13
ENDBRANCH  10  11
ENDBRANCH   1  10
TORSDOF 13
ENDMDL
MODEL 3
REMARK VINA RESULT:    -0.118      3.815      8.674
REMARK INTER + INTRA:          -0.988
REMARK INTER:                   0.056
REMARK INTRA:                  -1.044
REMARK UNBOUND:                -0.780
REMARK SMILES CCCCCCC=CCCCCCCCC(=O)[O-]
REMARK SMILES IDX 10 1 11 2 12 3 13 4 14 5 15 6 16 7 17 8 18 9 9 10 8 11 7 12
REMARK SMILES IDX 6 13 5 14 4 15 3 16 2 17 1 18
REMARK H PARENT
REMARK Flexibility Score: inf
ROOT
ATOM      1  C   UNL     1      -9.983  -5.620  25.646  1.00  0.00     0.004 C 
ENDROOT
BRANCH   1   2
ATOM      2  C   UNL     1     -11.179  -5.320  26.565  1.00  0.00     0.000 C 
BRANCH   2   3
ATOM      3  C   UNL     1     -10.759  -4.637  27.876  1.00  0.00     0.000 C 
BRANCH   3   4
ATOM      4  C   UNL     1      -9.789  -5.490  28.714  1.00  0.00     0.000 C 
BRANCH   4   5
ATOM      5  C   UNL     1     -10.456  -6.558  29.601  1.00  0.00     0.006 C 
BRANCH   5   6
ATOM      6  C   UNL     1     -10.511  -7.939  28.936  1.00  0.00     0.053 C 
BRANCH   6   7
ATOM      7  C   UNL     1     -11.929  -8.389  28.784  1.00  0.00     0.041 C 
ATOM      8  O   UNL     1     -12.689  -7.822  27.955  1.00  0.00    -0.550 OA
ATOM      9  O   UNL     1     -12.428  -9.403  29.593  1.00  0.00    -0.550 OA
ENDBRANCH   6   7
ENDBRANCH   5   6
ENDBRANCH   4   5
ENDBRANCH   3   4
ENDBRANCH   2   3
ENDBRANCH   1   2
BRANCH   1  10
ATOM     10  C   UNL     1      -9.701  -7.123  25.511  1.00  0.00     0.027 C 
BRANCH  10  11
ATOM     11  C   UNL     1     -10.882  -7.832  24.898  1.00  0.00    -0.031 C 
ATOM     12  C   UNL     1     -10.822  -8.602  23.795  1.00  0.00    -0.031 C 
BRANCH  12  13
ATOM     13  C   UNL     1      -9.551  -8.948  23.058  1.00  0.00     0.027 C 
BRANCH  13  14
ATOM     14  C   UNL     1      -9.457  -8.225  21.707  1.00  0.00     0.004 C 
BRANCH  14  15
ATOM     15  C   UNL     1      -9.172  -9.197  20.548  1.00  0.00     0.000 C 
BRANCH  15  16
ATOM     16  C   UNL     1      -8.763  -8.472  19.257  1.00  0.00    -0.000 C 
BRANCH  16  17
ATOM     17  C   UNL     1      -7.666  -9.219  18.482  1.00  0.00    -0.003 C 
ATOM     18  C   UNL     1      -6.306  -8.560  18.684  1.00  0.00     0.004 C 
ENDBRANCH  16  17
ENDBRANCH  15  16
ENDBRANCH  14  15
ENDBRANCH  13  14
ENDBRANCH  12  13
ENDBRANCH  10  11
ENDBRANCH   1  10
TORSDOF 13
ENDMDL
MODEL 4
REMARK VINA RESULT:     0.183     12.276     15.157
REMARK INTER + INTRA:          -0.457
REMARK INTER:                   0.388
REMARK INTRA:                  -0.846
REMARK UNBOUND:                -0.780
REMARK SMILES CCCCCCC=CCCCCCCCC(=O)[O-]
REMARK SMILES IDX 10 1 11 2 12 3 13 4 14 5 15 6 16 7 17 8 18 9 9 10 8 11 7 12
REMARK SMILES IDX 6 13 5 14 4 15 3 16 2 17 1 18
REMARK H PARENT
REMARK Flexibility Score: inf
ROOT
ATOM      1  C   UNL     1      -8.705   3.023  15.197  1.00  0.00     0.004 C 
ENDROOT
BRANCH   1   2
ATOM      2  C   UNL     1      -8.630   3.457  16.669  1.00  0.00     0.000 C 
BRANCH   2   3
ATOM      3  C   UNL     1      -7.835   4.758  16.862  1.00  0.00     0.000 C 
BRANCH   3   4
ATOM      4  C   UNL     1      -8.675   6.021  16.594  1.00  0.00     0.000 C 
BRANCH   4   5
ATOM      5  C   UNL     1      -8.081   6.994  15.559  1.00  0.00     0.006 C 
BRANCH   5   6
ATOM      6  C   UNL     1      -8.244   6.504  14.114  1.00  0.00     0.053 C 
BRANCH   6   7
ATOM      7  C   UNL     1      -6.925   6.072  13.558  1.00  0.00     0.041 C 
ATOM      8  O   UNL     1      -6.311   5.096  14.064  1.00  0.00    -0.550 OA
ATOM      9  O   UNL     1      -6.347   6.779  12.510  1.00  0.00    -0.550 OA
ENDBRANCH   6   7
ENDBRANCH   5   6
ENDBRANCH   4   5
ENDBRANCH   3   4
ENDBRANCH   2   3
ENDBRANCH   1   2
BRANCH   1  10
ATOM     10  C   UNL     1      -7.825   1.801  14.893  1.00  0.00     0.027 C 
BRANCH  10  11
ATOM     11  C   UNL     1      -7.863   1.471  13.423  1.00  0.00    -0.031 C 
ATOM     12  C   UNL     1      -8.656   0.533  12.871  1.00  0.00    -0.031 C 
BRANCH  12  13
ATOM     13  C   UNL     1      -9.692  -0.265  13.623  1.00  0.00     0.027 C 
BRANCH  13  14
ATOM     14  C   UNL     1      -9.177  -1.662  14.000  1.00  0.00     0.004 C 
BRANCH  14  15
ATOM     15  C   UNL     1      -9.638  -2.738  13.002  1.00  0.00     0.000 C 
BRANCH  15  16
ATOM     16  C   UNL     1     -10.171  -4.000  13.698  1.00  0.00    -0.000 C 
BRANCH  16  17
ATOM     17  C   UNL     1     -11.542  -4.438  13.161  1.00  0.00    -0.003 C 
ATOM     18  C   UNL     1     -12.668  -3.954  14.069  1.00  0.00     0.004 C 
ENDBRANCH  16  17
ENDBRANCH  15  16
ENDBRANCH  14  15
ENDBRANCH  13  14
ENDBRANCH  12  13
ENDBRANCH  10  11
ENDBRANCH   1  10
TORSDOF 13
ENDMDL
MODEL 5
REMARK VINA RESULT:     0.253      3.737      8.537
REMARK INTER + INTRA:          -0.334
REMARK INTER:                   0.317
REMARK INTRA:                  -0.650
REMARK UNBOUND:                -0.780
REMARK SMILES CCCCCCC=CCCCCCCCC(=O)[O-]
REMARK SMILES IDX 10 1 11 2 12 3 13 4 14 5 15 6 16 7 17 8 18 9 9 10 8 11 7 12
REMARK SMILES IDX 6 13 5 14 4 15 3 16 2 17 1 18
REMARK H PARENT
REMARK Flexibility Score: inf
ROOT
ATOM      1  C   UNL     1     -10.606  -9.156  24.284  1.00  0.00     0.004 C 
ENDROOT
BRANCH   1   2
ATOM      2  C   UNL     1     -10.872  -7.682  24.630  1.00  0.00     0.000 C 
BRANCH   2   3
ATOM      3  C   UNL     1      -9.756  -7.066  25.490  1.00  0.00     0.000 C 
BRANCH   3   4
ATOM      4  C   UNL     1     -10.027  -5.597  25.863  1.00  0.00     0.000 C 
BRANCH   4   5
ATOM      5  C   UNL     1     -10.831  -5.389  27.159  1.00  0.00     0.006 C 
BRANCH   5   6
ATOM      6  C   UNL     1     -10.330  -6.257  28.321  1.00  0.00     0.053 C 
BRANCH   6   7
ATOM      7  C   UNL     1     -11.241  -7.423  28.533  1.00  0.00     0.041 C 
ATOM      8  O   UNL     1     -10.983  -8.276  29.423  1.00  0.00    -0.550 OA
ATOM      9  O   UNL     1     -12.351  -7.598  27.716  1.00  0.00    -0.550 OA
ENDBRANCH   6   7
ENDBRANCH   5   6
ENDBRANCH   4   5
ENDBRANCH   3   4
ENDBRANCH   2   3
ENDBRANCH   1   2
BRANCH   1  10
ATOM     10  C   UNL     1      -9.750  -9.324  23.020  1.00  0.00     0.027 C 
BRANCH  10  11
ATOM     11  C   UNL     1      -9.764  -8.062  22.197  1.00  0.00    -0.031 C 
ATOM     12  C   UNL     1      -9.411  -7.992  20.899  1.00  0.00    -0.031 C 
BRANCH  12  13
ATOM     13  C   UNL     1      -9.039  -9.180  20.047  1.00  0.00     0.027 C 
BRANCH  13  14
ATOM     14  C   UNL     1      -8.369  -8.755  18.733  1.00  0.00     0.004 C 
BRANCH  14  15
ATOM     15  C   UNL     1      -6.950  -9.335  18.592  1.00  0.00     0.000 C 
BRANCH  15  16
ATOM     16  C   UNL     1      -5.856  -8.281  18.824  1.00  0.00    -0.000 C 
BRANCH  16  17
ATOM     17  C   UNL     1      -6.052  -7.503  20.134  1.00  0.00    -0.003 C 
ATOM     18  C   UNL     1      -4.896  -7.750  21.098  1.00  0.00     0.004 C 
ENDBRANCH  16  17
ENDBRANCH  15  16
ENDBRANCH  14  15
ENDBRANCH  13  14
ENDBRANCH  12  13
ENDBRANCH  10  11
ENDBRANCH   1  10
TORSDOF 13
ENDMDL
MODEL 6
REMARK VINA RESULT:     0.430     11.799     14.198
REMARK INTER + INTRA:          -0.022
REMARK INTER:                   0.658
REMARK INTRA:                  -0.680
REMARK UNBOUND:                -0.780
REMARK SMILES CCCCCCC=CCCCCCCCC(=O)[O-]
REMARK SMILES IDX 10 1 11 2 12 3 13 4 14 5 15 6 16 7 17 8 18 9 9 10 8 11 7 12
REMARK SMILES IDX 6 13 5 14 4 15 3 16 2 17 1 18
REMARK H PARENT
REMARK Flexibility Score: inf
ROOT
ATOM      1  C   UNL     1      -8.905   0.659  12.664  1.00  0.00     0.004 C 
ENDROOT
BRANCH   1   2
ATOM      2  C   UNL     1      -9.799  -0.234  13.539  1.00  0.00     0.000 C 
BRANCH   2   3
ATOM      3  C   UNL     1      -9.101  -1.536  13.962  1.00  0.00     0.000 C 
BRANCH   3   4
ATOM      4  C   UNL     1      -9.488  -2.739  13.081  1.00  0.00     0.000 C 
BRANCH   4   5
ATOM      5  C   UNL     1     -10.212  -3.881  13.816  1.00  0.00     0.006 C 
BRANCH   5   6
ATOM      6  C   UNL     1     -11.528  -4.289  13.141  1.00  0.00     0.053 C 
BRANCH   6   7
ATOM      7  C   UNL     1     -12.691  -3.954  14.019  1.00  0.00     0.041 C 
ATOM      8  O   UNL     1     -13.493  -4.855  14.381  1.00  0.00    -0.550 OA
ATOM      9  O   UNL     1     -12.920  -2.637  14.397  1.00  0.00    -0.550 OA
ENDBRANCH   6   7
ENDBRANCH   5   6
ENDBRANCH   4   5
ENDBRANCH   3   4
ENDBRANCH   2   3
ENDBRANCH   1   2
BRANCH   1  10
ATOM     10  C   UNL     1      -7.581   1.028  13.350  1.00  0.00     0.027 C 
BRANCH  10  11
ATOM     11  C   UNL     1      -7.413   2.524  13.410  1.00  0.00    -0.031 C 
ATOM     12  C   UNL     1      -7.842   3.302  14.423  1.00  0.00    -0.031 C 
BRANCH  12  13
ATOM     13  C   UNL     1      -8.470   2.784  15.693  1.00  0.00     0.027 C 
BRANCH  13  14
ATOM     14  C   UNL     1      -8.431   3.828  16.818  1.00  0.00     0.004 C 
BRANCH  14  15
ATOM     15  C   UNL     1      -7.678   5.103  16.399  1.00  0.00     0.000 C 
BRANCH  15  16
ATOM     16  C   UNL     1      -8.609   6.315  16.243  1.00  0.00    -0.000 C 
BRANCH  16  17
ATOM     17  C   UNL     1      -8.458   7.007  14.880  1.00  0.00    -0.003 C 
ATOM     18  C   UNL     1      -7.451   6.273  14.001  1.00  0.00     0.004 C 
ENDBRANCH  16  17
ENDBRANCH  15  16
ENDBRANCH  14  15
ENDBRANCH  13  14
ENDBRANCH  12  13
ENDBRANCH  10  11
ENDBRANCH   1  10
TORSDOF 13
ENDMDL
MODEL 7
REMARK VINA RESULT:     0.724     12.037     14.488
REMARK INTER + INTRA:           0.494
REMARK INTER:                   1.571
REMARK INTRA:                  -1.077
REMARK UNBOUND:                -0.780
REMARK SMILES CCCCCCC=CCCCCCCCC(=O)[O-]
REMARK SMILES IDX 10 1 11 2 12 3 13 4 14 5 15 6 16 7 17 8 18 9 9 10 8 11 7 12
REMARK SMILES IDX 6 13 5 14 4 15 3 16 2 17 1 18
REMARK H PARENT
REMARK Flexibility Score: inf
ROOT
ATOM      1  C   UNL     1      -8.125   1.458  13.235  1.00  0.00     0.004 C 
ENDROOT
BRANCH   1   2
ATOM      2  C   UNL     1      -8.060   1.682  14.755  1.00  0.00     0.000 C 
BRANCH   2   3
ATOM      3  C   UNL     1      -9.039   2.766  15.235  1.00  0.00     0.000 C 
BRANCH   3   4
ATOM      4  C   UNL     1      -8.649   3.365  16.599  1.00  0.00     0.000 C 
BRANCH   4   5
ATOM      5  C   UNL     1      -7.605   4.494  16.543  1.00  0.00     0.006 C 
BRANCH   5   6
ATOM      6  C   UNL     1      -8.151   5.785  15.920  1.00  0.00     0.053 C 
BRANCH   6   7
ATOM      7  C   UNL     1      -7.574   5.993  14.556  1.00  0.00     0.041 C 
ATOM      8  O   UNL     1      -7.904   6.999  13.874  1.00  0.00    -0.550 OA
ATOM      9  O   UNL     1      -6.709   5.049  14.016  1.00  0.00    -0.550 OA
ENDBRANCH   6   7
ENDBRANCH   5   6
ENDBRANCH   4   5
ENDBRANCH   3   4
ENDBRANCH   2   3
ENDBRANCH   1   2
BRANCH   1  10
ATOM     10  C   UNL     1      -8.912   0.195  12.855  1.00  0.00     0.027 C 
BRANCH  10  11
ATOM     11  C   UNL     1      -8.992  -0.754  14.023  1.00  0.00    -0.031 C 
ATOM     12  C   UNL     1      -9.361  -2.046  13.934  1.00  0.00    -0.031 C 
BRANCH  12  13
ATOM     13  C   UNL     1      -9.660  -2.765  12.641  1.00  0.00     0.027 C 
BRANCH  13  14
ATOM     14  C   UNL     1     -10.209  -4.178  12.885  1.00  0.00     0.004 C 
BRANCH  14  15
ATOM     15  C   UNL     1     -11.197  -4.219  14.065  1.00  0.00     0.000 C 
BRANCH  15  16
ATOM     16  C   UNL     1     -12.640  -3.910  13.637  1.00  0.00    -0.000 C 
BRANCH  16  17
ATOM     17  C   UNL     1     -13.452  -3.224  14.746  1.00  0.00    -0.003 C 
ATOM     18  C   UNL     1     -13.422  -1.707  14.591  1.00  0.00     0.004 C 
ENDBRANCH  16  17
ENDBRANCH  15  16
ENDBRANCH  14  15
ENDBRANCH  13  14
ENDBRANCH  12  13
ENDBRANCH  10  11
ENDBRANCH   1  10
TORSDOF 13
ENDMDL
MODEL 8
REMARK VINA RESULT:     0.968     11.774     13.945
REMARK INTER + INTRA:           0.924
REMARK INTER:                   1.201
REMARK INTRA:                  -0.278
REMARK UNBOUND:                -0.780
REMARK SMILES CCCCCCC=CCCCCCCCC(=O)[O-]
REMARK SMILES IDX 10 1 11 2 12 3 13 4 14 5 15 6 16 7 17 8 18 9 9 10 8 11 7 12
REMARK SMILES IDX 6 13 5 14 4 15 3 16 2 17 1 18
REMARK H PARENT
REMARK Flexibility Score: inf
ROOT
ATOM      1  C   UNL     1      -8.962   0.401  12.470  1.00  0.00     0.004 C 
ENDROOT
BRANCH   1   2
ATOM      2  C   UNL     1      -9.692  -0.325  13.612  1.00  0.00     0.000 C 
BRANCH   2   3
ATOM      3  C   UNL     1      -9.065  -1.689  13.941  1.00  0.00     0.000 C 
BRANCH   3   4
ATOM      4  C   UNL     1      -9.558  -2.816  13.015  1.00  0.00     0.000 C 
BRANCH   4   5
ATOM      5  C   UNL     1     -10.268  -3.982  13.725  1.00  0.00     0.006 C 
BRANCH   5   6
ATOM      6  C   UNL     1     -11.629  -4.324  13.104  1.00  0.00     0.053 C 
BRANCH   6   7
ATOM      7  C   UNL     1     -12.738  -3.913  14.019  1.00  0.00     0.041 C 
ATOM      8  O   UNL     1     -13.559  -4.769  14.445  1.00  0.00    -0.550 OA
ATOM      9  O   UNL     1     -12.898  -2.577  14.364  1.00  0.00    -0.550 OA
ENDBRANCH   6   7
ENDBRANCH   5   6
ENDBRANCH   4   5
ENDBRANCH   3   4
ENDBRANCH   2   3
ENDBRANCH   1   2
BRANCH   1  10
ATOM     10  C   UNL     1      -7.833   1.312  12.972  1.00  0.00     0.027 C 
BRANCH  10  11
ATOM     11  C   UNL     1      -8.163   1.867  14.333  1.00  0.00    -0.031 C 
ATOM     12  C   UNL     1      -7.853   3.111  14.747  1.00  0.00    -0.031 C 
BRANCH  12  13
ATOM     13  C   UNL     1      -7.214   4.169  13.881  1.00  0.00     0.027 C 
BRANCH  13  14
ATOM     14  C   UNL     1      -7.051   5.500  14.628  1.00  0.00     0.004 C 
BRANCH  14  15
ATOM     15  C   UNL     1      -8.380   5.995  15.226  1.00  0.00     0.000 C 
BRANCH  15  16
ATOM     16  C   UNL     1      -8.357   6.035  16.762  1.00  0.00    -0.000 C 
BRANCH  16  17
ATOM     17  C   UNL     1      -7.516   4.903  17.371  1.00  0.00    -0.003 C 
ATOM     18  C   UNL     1      -8.384   3.693  17.702  1.00  0.00     0.004 C 
ENDBRANCH  16  17
ENDBRANCH  15  16
ENDBRANCH  14  15
ENDBRANCH  13  14
ENDBRANCH  12  13
ENDBRANCH  10  11
ENDBRANCH   1  10
TORSDOF 13
ENDMDL
MODEL 9
REMARK VINA RESULT:     0.981      3.034      8.454
REMARK INTER + INTRA:           0.946
REMARK INTER:                   1.432
REMARK INTRA:                  -0.485
REMARK UNBOUND:                -0.780
REMARK SMILES CCCCCCC=CCCCCCCCC(=O)[O-]
REMARK SMILES IDX 10 1 11 2 12 3 13 4 14 5 15 6 16 7 17 8 18 9 9 10 8 11 7 12
REMARK SMILES IDX 6 13 5 14 4 15 3 16 2 17 1 18
REMARK H PARENT
REMARK Flexibility Score: inf
ROOT
ATOM      1  C   UNL     1     -10.831  -8.980  23.795  1.00  0.00     0.004 C 
ENDROOT
BRANCH   1   2
ATOM      2  C   UNL     1     -10.659  -7.935  24.909  1.00  0.00     0.000 C 
BRANCH   2   3
ATOM      3  C   UNL     1     -11.182  -8.428  26.267  1.00  0.00     0.000 C 
BRANCH   3   4
ATOM      4  C   UNL     1     -11.695  -7.285  27.164  1.00  0.00     0.000 C 
BRANCH   4   5
ATOM      5  C   UNL     1     -10.856  -7.018  28.426  1.00  0.00     0.006 C 
BRANCH   5   6
ATOM      6  C   UNL     1     -10.058  -5.710  28.350  1.00  0.00     0.053 C 
BRANCH   6   7
ATOM      7  C   UNL     1     -10.426  -4.945  27.120  1.00  0.00     0.041 C 
ATOM      8  O   UNL     1     -11.387  -4.131  27.142  1.00  0.00    -0.550 OA
ATOM      9  O   UNL     1      -9.739  -5.164  25.932  1.00  0.00    -0.550 OA
ENDBRANCH   6   7
ENDBRANCH   5   6
ENDBRANCH   4   5
ENDBRANCH   3   4
ENDBRANCH   2   3
ENDBRANCH   1   2
BRANCH   1  10
ATOM     10  C   UNL     1      -9.561  -9.165  22.952  1.00  0.00     0.027 C 
BRANCH  10  11
ATOM     11  C   UNL     1      -9.479  -8.112  21.876  1.00  0.00    -0.031 C 
ATOM     12  C   UNL     1      -9.197  -8.362  20.583  1.00  0.00    -0.031 C 
BRANCH  12  13
ATOM     13  C   UNL     1      -9.012  -9.740  19.996  1.00  0.00     0.027 C 
BRANCH  13  14
ATOM     14  C   UNL     1      -8.200  -9.704  18.694  1.00  0.00     0.004 C 
BRANCH  14  15
ATOM     15  C   UNL     1      -7.378  -8.410  18.560  1.00  0.00     0.000 C 
BRANCH  15  16
ATOM     16  C   UNL     1      -5.884  -8.626  18.849  1.00  0.00    -0.000 C 
BRANCH  16  17
ATOM     17  C   UNL     1      -5.259  -7.462  19.632  1.00  0.00    -0.003 C 
ATOM     18  C   UNL     1      -5.305  -7.723  21.134  1.00  0.00     0.004 C 
ENDBRANCH  16  17
ENDBRANCH  15  16
ENDBRANCH  14  15
ENDBRANCH  13  14
ENDBRANCH  12  13
ENDBRANCH  10  11
ENDBRANCH   1  10
TORSDOF 13
ENDMDL
