MODEL 1
REMARK VINA RESULT:    -2.647      0.000      0.000
REMARK INTER + INTRA:          -3.133
REMARK INTER:                  -3.111
REMARK INTRA:                  -0.022
REMARK UNBOUND:                -0.022
REMARK SMILES CCCCC(=O)[O-]
REMARK SMILES IDX 4 1 5 2 6 3 7 4 3 5 2 6 1 7
REMARK H PARENT
REMARK Flexibility Score: inf
ROOT
ATOM      1  C   UNL     1       1.075   6.833  21.096  1.00  0.00     0.053 C 
ENDROOT
BRANCH   1   2
ATOM      2  C   UNL     1       0.626   8.135  21.684  1.00  0.00     0.041 C 
ATOM      3  O   UNL     1       1.446   9.080  21.833  1.00  0.00    -0.550 OA
ATOM      4  O   UNL     1      -0.704   8.316  22.041  1.00  0.00    -0.550 OA
ENDBRANCH   1   2
BRANCH   1   5
ATOM      5  C   UNL     1       2.218   6.201  21.906  1.00  0.00     0.006 C 
BRANCH   5   6
ATOM      6  C   UNL     1       3.160   5.312  21.076  1.00  0.00    -0.003 C 
ATOM      7  C   UNL     1       4.386   4.849  21.861  1.00  0.00     0.004 C 
ENDBRANCH   5   6
ENDBRANCH   1   5
TORSDOF 3
ENDMDL
MODEL 2
REMARK VINA RESULT:    -2.618     23.105     24.084
REMARK INTER + INTRA:          -3.100
REMARK INTER:                  -3.077
REMARK INTRA:                  -0.023
REMARK UNBOUND:                -0.022
REMARK SMILES CCCCC(=O)[O-]
REMARK SMILES IDX 4 1 5 2 6 3 7 4 3 5 2 6 1 7
REMARK H PARENT
REMARK Flexibility Score: inf
ROOT
ATOM      1  C   UNL     1      16.114  -9.888  12.671  1.00  0.00     0.053 C 
ENDROOT
BRANCH   1   2
ATOM      2  C   UNL     1      16.515  -9.462  14.049  1.00  0.00     0.041 C 
ATOM      3  O   UNL     1      17.731  -9.418  14.372  1.00  0.00    -0.550 OA
ATOM      4  O   UNL     1      15.545  -9.084  14.970  1.00  0.00    -0.550 OA
ENDBRANCH   1   2
BRANCH   1   5
ATOM      5  C   UNL     1      16.907  -9.142  11.587  1.00  0.00     0.006 C 
BRANCH   5   6
ATOM      6  C   UNL     1      16.835  -9.793  10.194  1.00  0.00    -0.003 C 
ATOM      7  C   UNL     1      15.405 -10.125   9.767  1.00  0.00     0.004 C 
ENDBRANCH   5   6
ENDBRANCH   1   5
TORSDOF 3
ENDMDL
MODEL 3
REMARK VINA RESULT:    -2.613     23.148     24.329
REMARK INTER + INTRA:          -3.094
REMARK INTER:                  -3.078
REMARK INTRA:                  -0.016
REMARK UNBOUND:                -0.022
REMARK SMILES CCCCC(=O)[O-]
REMARK SMILES IDX 4 1 5 2 6 3 7 4 3 5 2 6 1 7
REMARK H PARENT
REMARK Flexibility Score: inf
ROOT
ATOM      1  C   UNL     1      16.258  -8.985  11.569  1.00  0.00     0.053 C 
ENDROOT
BRANCH   1   2
ATOM      2  C   UNL     1      16.271  -9.724  10.267  1.00  0.00     0.041 C 
ATOM      3  O   UNL     1      15.191 -10.001   9.682  1.00  0.00    -0.550 OA
ATOM      4  O   UNL     1      17.480 -10.083   9.684  1.00  0.00    -0.550 OA
ENDBRANCH   1   2
BRANCH   1   5
ATOM      5  C   UNL     1      16.105  -9.935  12.767  1.00  0.00     0.006 C 
BRANCH   5   6
ATOM      6  C   UNL     1      16.711  -9.400  14.076  1.00  0.00    -0.003 C 
ATOM      7  C   UNL     1      15.669  -9.202  15.177  1.00  0.00     0.004 C 
ENDBRANCH   5   6
ENDBRANCH   1   5
TORSDOF 3
ENDMDL
MODEL 4
REMARK VINA RESULT:    -2.557     22.533     23.499
REMARK INTER + INTRA:          -3.027
REMARK INTER:                  -2.987
REMARK INTRA:                  -0.041
REMARK UNBOUND:                -0.022
REMARK SMILES CCCCC(=O)[O-]
REMARK SMILES IDX 4 1 5 2 6 3 7 4 3 5 2 6 1 7
REMARK H PARENT
REMARK Flexibility Score: inf
ROOT
ATOM      1  C   UNL     1      15.749  -9.333  13.739  1.00  0.00     0.053 C 
ENDROOT
BRANCH   1   2
ATOM      2  C   UNL     1      16.019  -9.349  15.213  1.00  0.00     0.041 C 
ATOM      3  O   UNL     1      17.149  -9.013  15.655  1.00  0.00    -0.550 OA
ATOM      4  O   UNL     1      15.012  -9.707  16.100  1.00  0.00    -0.550 OA
ENDBRANCH   1   2
BRANCH   1   5
ATOM      5  C   UNL     1      16.982  -9.758  12.926  1.00  0.00     0.006 C 
BRANCH   5   6
ATOM      6  C   UNL     1      17.307  -8.827  11.744  1.00  0.00    -0.003 C 
ATOM      7  C   UNL     1      18.797  -8.503  11.635  1.00  0.00     0.004 C 
ENDBRANCH   5   6
ENDBRANCH   1   5
TORSDOF 3
ENDMDL
MODEL 5
REMARK VINA RESULT:    -2.382     16.965     17.410
REMARK INTER + INTRA:          -2.822
REMARK INTER:                  -2.783
REMARK INTRA:                  -0.040
REMARK UNBOUND:                -0.022
REMARK SMILES CCCCC(=O)[O-]
REMARK SMILES IDX 4 1 5 2 6 3 7 4 3 5 2 6 1 7
REMARK H PARENT
REMARK Flexibility Score: inf
ROOT
ATOM      1  C   UNL     1       1.401   7.082   3.843  1.00  0.00     0.053 C 
ENDROOT
BRANCH   1   2
ATOM      2  C   UNL     1       0.823   8.263   4.561  1.00  0.00     0.041 C 
ATOM      3  O   UNL     1      -0.274   8.758   4.189  1.00  0.00    -0.550 OA
ATOM      4  O   UNL     1       1.481   8.799   5.661  1.00  0.00    -0.550 OA
ENDBRANCH   1   2
BRANCH   1   5
ATOM      5  C   UNL     1       0.345   5.998   3.578  1.00  0.00     0.006 C 
BRANCH   5   6
ATOM      6  C   UNL     1       0.369   4.837   4.586  1.00  0.00    -0.003 C 
ATOM      7  C   UNL     1      -0.979   4.125   4.706  1.00  0.00     0.004 C 
ENDBRANCH   5   6
ENDBRANCH   1   5
TORSDOF 3
ENDMDL
MODEL 6
REMARK VINA RESULT:    -2.378     17.679     18.164
REMARK INTER + INTRA:          -2.817
REMARK INTER:                  -2.755
REMARK INTRA:                  -0.062
REMARK UNBOUND:                -0.022
REMARK SMILES CCCCC(=O)[O-]
REMARK SMILES IDX 4 1 5 2 6 3 7 4 3 5 2 6 1 7
REMARK H PARENT
REMARK Flexibility Score: inf
ROOT
ATOM      1  C   UNL     1       1.376   6.378   2.806  1.00  0.00     0.053 C 
ENDROOT
BRANCH   1   2
ATOM      2  C   UNL     1       2.716   6.730   3.373  1.00  0.00     0.041 C 
ATOM      3  O   UNL     1       2.904   7.857   3.905  1.00  0.00    -0.550 OA
ATOM      4  O   UNL     1       3.750   5.804   3.342  1.00  0.00    -0.550 OA
ENDBRANCH   1   2
BRANCH   1   5
ATOM      5  C   UNL     1       0.318   6.196   3.905  1.00  0.00     0.006 C 
BRANCH   5   6
ATOM      6  C   UNL     1       0.362   4.823   4.600  1.00  0.00    -0.003 C 
ATOM      7  C   UNL     1      -1.007   4.149   4.675  1.00  0.00     0.004 C 
ENDBRANCH   5   6
ENDBRANCH   1   5
TORSDOF 3
ENDMDL
MODEL 7
REMARK VINA RESULT:    -2.368     17.664     18.149
REMARK INTER + INTRA:          -2.805
REMARK INTER:                  -2.747
REMARK INTRA:                  -0.059
REMARK UNBOUND:                -0.022
REMARK SMILES CCCCC(=O)[O-]
REMARK SMILES IDX 4 1 5 2 6 3 7 4 3 5 2 6 1 7
REMARK H PARENT
REMARK Flexibility Score: inf
ROOT
ATOM      1  C   UNL     1       1.341   6.393   2.806  1.00  0.00     0.053 C 
ENDROOT
BRANCH   1   2
ATOM      2  C   UNL     1       2.679   6.686   3.411  1.00  0.00     0.041 C 
ATOM      3  O   UNL     1       3.583   5.809   3.407  1.00  0.00    -0.550 OA
ATOM      4  O   UNL     1       2.938   7.938   3.954  1.00  0.00    -0.550 OA
ENDBRANCH   1   2
BRANCH   1   5
ATOM      5  C   UNL     1       0.261   6.178   3.878  1.00  0.00     0.006 C 
BRANCH   5   6
ATOM      6  C   UNL     1       0.322   4.803   4.566  1.00  0.00    -0.003 C 
ATOM      7  C   UNL     1      -1.046   4.128   4.668  1.00  0.00     0.004 C 
ENDBRANCH   5   6
ENDBRANCH   1   5
TORSDOF 3
ENDMDL
MODEL 8
REMARK VINA RESULT:    -2.133     17.433     17.893
REMARK INTER + INTRA:          -2.530
REMARK INTER:                  -2.514
REMARK INTRA:                  -0.016
REMARK UNBOUND:                -0.022
REMARK SMILES CCCCC(=O)[O-]
REMARK SMILES IDX 4 1 5 2 6 3 7 4 3 5 2 6 1 7
REMARK H PARENT
REMARK Flexibility Score: inf
ROOT
ATOM      1  C   UNL     1       0.800   5.801   4.115  1.00  0.00     0.053 C 
ENDROOT
BRANCH   1   2
ATOM      2  C   UNL     1      -0.387   4.962   3.752  1.00  0.00     0.041 C 
ATOM      3  O   UNL     1      -0.816   4.948   2.568  1.00  0.00    -0.550 OA
ATOM      4  O   UNL     1      -1.001   4.173   4.716  1.00  0.00    -0.550 OA
ENDBRANCH   1   2
BRANCH   1   5
ATOM      5  C   UNL     1       0.501   7.303   3.990  1.00  0.00     0.006 C 
BRANCH   5   6
ATOM      6  C   UNL     1       1.700   8.212   4.312  1.00  0.00    -0.003 C 
ATOM      7  C   UNL     1       1.488   9.054   5.570  1.00  0.00     0.004 C 
ENDBRANCH   5   6
ENDBRANCH   1   5
TORSDOF 3
ENDMDL
MODEL 9
REMARK VINA RESULT:    -2.075     17.780     18.137
REMARK INTER + INTRA:          -2.461
REMARK INTER:                  -2.410
REMARK INTRA:                  -0.051
REMARK UNBOUND:                -0.022
REMARK SMILES CCCCC(=O)[O-]
REMARK SMILES IDX 4 1 5 2 6 3 7 4 3 5 2 6 1 7
REMARK H PARENT
REMARK Flexibility Score: inf
ROOT
ATOM      1  C   UNL     1       0.816   5.262   4.501  1.00  0.00     0.053 C 
ENDROOT
BRANCH   1   2
ATOM      2  C   UNL     1      -0.530   4.731   4.115  1.00  0.00     0.041 C 
ATOM      3  O   UNL     1      -1.117   5.172   3.092  1.00  0.00    -0.550 OA
ATOM      4  O   UNL     1      -1.123   3.726   4.868  1.00  0.00    -0.550 OA
ENDBRANCH   1   2
BRANCH   1   5
ATOM      5  C   UNL     1       1.167   6.547   3.735  1.00  0.00     0.006 C 
BRANCH   5   6
ATOM      6  C   UNL     1       2.311   6.381   2.719  1.00  0.00    -0.003 C 
ATOM      7  C   UNL     1       3.674   6.187   3.383  1.00  0.00     0.004 C 
ENDBRANCH   5   6
ENDBRANCH   1   5
TORSDOF 3
ENDMDL
