MODEL 1
REMARK VINA RESULT:   136.619      0.000      0.000
REMARK INTER + INTRA:         160.150
REMARK INTER:                 160.580
REMARK INTRA:                  -0.430
REMARK UNBOUND:                -0.430
REMARK SMILES C=C(C)[C@H]1CC[C@@]2(CO)CC[C@]3(C)[C@@H](CC[C@@H]4[C@@]5(C)CC[C@H](O)C(C)(C)[C@H]5CC[C@@]43C)[C@@H]12
REMARK SMILES IDX 4 1 5 2 6 3 7 4 32 5 14 6 15 7 16 8 17 9 18 10 20 11 21 12
REMARK SMILES IDX 22 13 24 14 27 15 28 16 29 17 30 18 12 19 11 20 10 21 13 22
REMARK SMILES IDX 31 23 25 24 26 25 19 26 2 27 3 28 1 29 8 30 9 31 23 33
REMARK H PARENT 9 32 23 34
REMARK Flexibility Score: inf
ROOT
ATOM      1  C   UNL     1     -43.707  32.263 -20.887  1.00  0.00     0.018 C 
ATOM      2  C   UNL     1     -45.227  32.130 -20.755  1.00  0.00     0.009 C 
ATOM      3  C   UNL     1     -45.528  30.638 -20.664  1.00  0.00     0.010 C 
ATOM      4  C   UNL     1     -44.276  29.942 -20.062  1.00  0.00    -0.003 C 
ATOM      5  C   UNL     1     -43.153  31.029 -20.104  1.00  0.00     0.008 C 
ATOM      6  C   UNL     1     -41.671  30.505 -20.248  1.00  0.00    -0.000 C 
ATOM      7  C   UNL     1     -40.657  31.627 -20.436  1.00  0.00     0.005 C 
ATOM      8  C   UNL     1     -39.248  31.073 -20.387  1.00  0.00     0.005 C 
ATOM      9  C   UNL     1     -38.878  30.028 -21.514  1.00  0.00     0.002 C 
ATOM     10  C   UNL     1     -37.703  30.543 -22.492  1.00  0.00    -0.026 C 
ATOM     11  C   UNL     1     -36.927  29.362 -23.167  1.00  0.00     0.010 C 
ATOM     12  C   UNL     1     -35.874  29.803 -24.205  1.00  0.00     0.033 C 
ATOM     13  C   UNL     1     -36.454  30.728 -25.291  1.00  0.00     0.120 C 
ATOM     14  C   UNL     1     -37.242  31.948 -24.713  1.00  0.00    -0.006 C 
ATOM     15  C   UNL     1     -38.308  31.464 -23.622  1.00  0.00     0.003 C 
ATOM     16  C   UNL     1     -39.508  30.747 -24.315  1.00  0.00     0.005 C 
ATOM     17  C   UNL     1     -40.622  30.256 -23.391  1.00  0.00     0.008 C 
ATOM     18  C   UNL     1     -40.176  29.374 -22.192  1.00  0.00    -0.024 C 
ATOM     19  C   UNL     1     -41.395  29.202 -21.120  1.00  0.00    -0.024 C 
ATOM     20  C   UNL     1     -42.733  28.798 -21.823  1.00  0.00     0.008 C 
ATOM     21  C   UNL     1     -43.921  28.648 -20.866  1.00  0.00     0.010 C 
ATOM     22  C   UNL     1     -41.017  28.043 -20.127  1.00  0.00     0.012 C 
ATOM     23  C   UNL     1     -39.819  27.957 -22.778  1.00  0.00     0.012 C 
ATOM     24  C   UNL     1     -36.266  33.012 -24.133  1.00  0.00     0.014 C 
ATOM     25  C   UNL     1     -37.954  32.661 -25.901  1.00  0.00     0.014 C 
ATOM     26  C   UNL     1     -36.638  31.286 -21.604  1.00  0.00     0.012 C 
ENDROOT
BRANCH   1  27
ATOM     27  C   UNL     1     -43.279  32.527 -22.338  1.00  0.00    -0.077 C 
ATOM     28  C   UNL     1     -43.543  31.473 -23.390  1.00  0.00     0.039 C 
ATOM     29  C   UNL     1     -42.483  33.551 -22.692  1.00  0.00     0.008 C 
ENDBRANCH   1  27
BRANCH   4  30
ATOM     30  C   UNL     1     -44.579  29.520 -18.591  1.00  0.00     0.163 C 
BRANCH  30  31
ATOM     31  O   UNL     1     -44.439  28.134 -18.416  1.00  0.00    -0.396 OA
ATOM     32  H   UNL     1     -44.326  27.989 -17.441  1.00  0.00     0.210 HD
ENDBRANCH  30  31
ENDBRANCH   4  30
BRANCH  13  33
ATOM     33  O   UNL     1     -35.414  31.177 -26.125  1.00  0.00    -0.393 OA
ATOM     34  H   UNL     1     -35.828  31.453 -26.985  1.00  0.00     0.210 HD
ENDBRANCH  13  33
TORSDOF 4
ENDMDL
MODEL 2
REMARK VINA RESULT:   136.789      9.214     12.818
REMARK INTER + INTRA:         160.349
REMARK INTER:                 160.594
REMARK INTRA:                  -0.245
REMARK UNBOUND:                -0.430
REMARK SMILES C=C(C)[C@H]1CC[C@@]2(CO)CC[C@]3(C)[C@@H](CC[C@@H]4[C@@]5(C)CC[C@H](O)C(C)(C)[C@H]5CC[C@@]43C)[C@@H]12
REMARK SMILES IDX 4 1 5 2 6 3 7 4 32 5 14 6 15 7 16 8 17 9 18 10 20 11 21 12
REMARK SMILES IDX 22 13 24 14 27 15 28 16 29 17 30 18 12 19 11 20 10 21 13 22
REMARK SMILES IDX 31 23 25 24 26 25 19 26 2 27 3 28 1 29 8 30 9 31 23 33
REMARK H PARENT 9 32 23 34
REMARK Flexibility Score: inf
ROOT
ATOM      1  C   UNL     1     -30.411  30.165 -20.489  1.00  0.00     0.018 C 
ATOM      2  C   UNL     1     -31.266  30.936 -21.498  1.00  0.00     0.009 C 
ATOM      3  C   UNL     1     -32.381  31.607 -20.703  1.00  0.00     0.010 C 
ATOM      4  C   UNL     1     -31.856  31.834 -19.258  1.00  0.00    -0.003 C 
ATOM      5  C   UNL     1     -30.536  31.001 -19.174  1.00  0.00     0.008 C 
ATOM      6  C   UNL     1     -30.146  30.442 -17.751  1.00  0.00    -0.000 C 
ATOM      7  C   UNL     1     -28.936  29.517 -17.784  1.00  0.00     0.005 C 
ATOM      8  C   UNL     1     -28.508  29.162 -16.375  1.00  0.00     0.005 C 
ATOM      9  C   UNL     1     -29.571  28.374 -15.509  1.00  0.00     0.002 C 
ATOM     10  C   UNL     1     -29.076  26.896 -15.093  1.00  0.00    -0.026 C 
ATOM     11  C   UNL     1     -29.779  26.375 -13.795  1.00  0.00     0.010 C 
ATOM     12  C   UNL     1     -29.430  24.917 -13.423  1.00  0.00     0.033 C 
ATOM     13  C   UNL     1     -29.678  23.930 -14.577  1.00  0.00     0.120 C 
ATOM     14  C   UNL     1     -29.004  24.361 -15.921  1.00  0.00    -0.006 C 
ATOM     15  C   UNL     1     -29.362  25.881 -16.267  1.00  0.00     0.003 C 
ATOM     16  C   UNL     1     -30.848  25.999 -16.730  1.00  0.00     0.005 C 
ATOM     17  C   UNL     1     -31.321  27.398 -17.123  1.00  0.00     0.008 C 
ATOM     18  C   UNL     1     -31.060  28.524 -16.083  1.00  0.00    -0.024 C 
ATOM     19  C   UNL     1     -31.303  29.993 -16.755  1.00  0.00    -0.024 C 
ATOM     20  C   UNL     1     -32.661  30.059 -17.530  1.00  0.00     0.008 C 
ATOM     21  C   UNL     1     -32.930  31.409 -18.204  1.00  0.00     0.010 C 
ATOM     22  C   UNL     1     -31.370  31.056 -15.599  1.00  0.00     0.012 C 
ATOM     23  C   UNL     1     -32.106  28.323 -14.924  1.00  0.00     0.012 C 
ATOM     24  C   UNL     1     -27.466  24.128 -15.868  1.00  0.00     0.014 C 
ATOM     25  C   UNL     1     -29.517  23.405 -17.039  1.00  0.00     0.014 C 
ATOM     26  C   UNL     1     -27.549  26.992 -14.728  1.00  0.00     0.012 C 
ENDROOT
BRANCH   1  27
ATOM     27  C   UNL     1     -30.731  28.663 -20.496  1.00  0.00    -0.077 C 
ATOM     28  C   UNL     1     -29.870  27.728 -21.317  1.00  0.00     0.039 C 
ATOM     29  C   UNL     1     -31.868  28.155 -19.992  1.00  0.00     0.008 C 
ENDBRANCH   1  27
BRANCH   4  30
ATOM     30  C   UNL     1     -31.563  33.353 -19.051  1.00  0.00     0.163 C 
BRANCH  30  31
ATOM     31  O   UNL     1     -32.187  33.843 -17.893  1.00  0.00    -0.396 OA
ATOM     32  H   UNL     1     -31.573  34.526 -17.516  1.00  0.00     0.210 HD
ENDBRANCH  30  31
ENDBRANCH   4  30
BRANCH  13  33
ATOM     33  O   UNL     1     -29.228  22.651 -14.202  1.00  0.00    -0.393 OA
ATOM     34  H   UNL     1     -29.963  22.221 -13.689  1.00  0.00     0.210 HD
ENDBRANCH  13  33
TORSDOF 4
ENDMDL
MODEL 3
REMARK VINA RESULT:   137.504      2.754      6.771
REMARK INTER + INTRA:         161.189
REMARK INTER:                 160.723
REMARK INTRA:                   0.466
REMARK UNBOUND:                -0.430
REMARK SMILES C=C(C)[C@H]1CC[C@@]2(CO)CC[C@]3(C)[C@@H](CC[C@@H]4[C@@]5(C)CC[C@H](O)C(C)(C)[C@H]5CC[C@@]43C)[C@@H]12
REMARK SMILES IDX 4 1 5 2 6 3 7 4 32 5 14 6 15 7 16 8 17 9 18 10 20 11 21 12
REMARK SMILES IDX 22 13 24 14 27 15 28 16 29 17 30 18 12 19 11 20 10 21 13 22
REMARK SMILES IDX 31 23 25 24 26 25 19 26 2 27 3 28 1 29 8 30 9 31 23 33
REMARK H PARENT 9 32 23 34
REMARK Flexibility Score: inf
ROOT
ATOM      1  C   UNL     1     -37.142  29.361 -19.107  1.00  0.00     0.018 C 
ATOM      2  C   UNL     1     -36.229  28.540 -18.191  1.00  0.00     0.009 C 
ATOM      3  C   UNL     1     -36.135  27.147 -18.803  1.00  0.00     0.010 C 
ATOM      4  C   UNL     1     -36.369  27.289 -20.332  1.00  0.00    -0.003 C 
ATOM      5  C   UNL     1     -36.901  28.746 -20.524  1.00  0.00     0.008 C 
ATOM      6  C   UNL     1     -37.866  28.987 -21.749  1.00  0.00    -0.000 C 
ATOM      7  C   UNL     1     -38.459  30.391 -21.775  1.00  0.00     0.005 C 
ATOM      8  C   UNL     1     -39.227  30.612 -23.062  1.00  0.00     0.005 C 
ATOM      9  C   UNL     1     -40.471  29.665 -23.295  1.00  0.00     0.002 C 
ATOM     10  C   UNL     1     -41.871  30.464 -23.349  1.00  0.00    -0.026 C 
ATOM     11  C   UNL     1     -42.967  29.694 -24.161  1.00  0.00     0.010 C 
ATOM     12  C   UNL     1     -44.360  30.359 -24.140  1.00  0.00     0.033 C 
ATOM     13  C   UNL     1     -44.871  30.634 -22.714  1.00  0.00     0.120 C 
ATOM     14  C   UNL     1     -43.845  31.411 -21.825  1.00  0.00    -0.006 C 
ATOM     15  C   UNL     1     -42.406  30.716 -21.886  1.00  0.00     0.003 C 
ATOM     16  C   UNL     1     -42.413  29.380 -21.079  1.00  0.00     0.005 C 
ATOM     17  C   UNL     1     -41.088  28.619 -21.027  1.00  0.00     0.008 C 
ATOM     18  C   UNL     1     -40.407  28.339 -22.396  1.00  0.00    -0.024 C 
ATOM     19  C   UNL     1     -38.871  27.830 -22.179  1.00  0.00    -0.024 C 
ATOM     20  C   UNL     1     -38.783  26.690 -21.110  1.00  0.00     0.008 C 
ATOM     21  C   UNL     1     -37.358  26.191 -20.846  1.00  0.00     0.010 C 
ATOM     22  C   UNL     1     -38.353  27.238 -23.540  1.00  0.00     0.012 C 
ATOM     23  C   UNL     1     -41.227  27.184 -23.084  1.00  0.00     0.012 C 
ATOM     24  C   UNL     1     -43.779  32.910 -22.240  1.00  0.00     0.014 C 
ATOM     25  C   UNL     1     -44.392  31.422 -20.366  1.00  0.00     0.014 C 
ATOM     26  C   UNL     1     -41.626  31.798 -24.147  1.00  0.00     0.012 C 
ENDROOT
BRANCH   1  27
ATOM     27  C   UNL     1     -38.562  29.485 -18.538  1.00  0.00    -0.077 C 
ATOM     28  C   UNL     1     -39.547  30.420 -19.206  1.00  0.00     0.039 C 
ATOM     29  C   UNL     1     -38.920  28.980 -17.345  1.00  0.00     0.008 C 
ENDBRANCH   1  27
BRANCH   4  30
ATOM     30  C   UNL     1     -35.013  27.094 -21.080  1.00  0.00     0.163 C 
BRANCH  30  31
ATOM     31  O   UNL     1     -34.824  25.756 -21.458  1.00  0.00    -0.396 OA
ATOM     32  H   UNL     1     -34.168  25.377 -20.817  1.00  0.00     0.210 HD
ENDBRANCH  30  31
ENDBRANCH   4  30
BRANCH  13  33
ATOM     33  O   UNL     1     -46.084  31.343 -22.781  1.00  0.00    -0.393 OA
ATOM     34  H   UNL     1     -45.855  32.307 -22.858  1.00  0.00     0.210 HD
ENDBRANCH  13  33
TORSDOF 4
ENDMDL
MODEL 4
REMARK VINA RESULT:   137.608      2.550      4.208
REMARK INTER + INTRA:         161.311
REMARK INTER:                 161.910
REMARK INTRA:                  -0.598
REMARK UNBOUND:                -0.430
REMARK SMILES C=C(C)[C@H]1CC[C@@]2(CO)CC[C@]3(C)[C@@H](CC[C@@H]4[C@@]5(C)CC[C@H](O)C(C)(C)[C@H]5CC[C@@]43C)[C@@H]12
REMARK SMILES IDX 4 1 5 2 6 3 7 4 32 5 14 6 15 7 16 8 17 9 18 10 20 11 21 12
REMARK SMILES IDX 22 13 24 14 27 15 28 16 29 17 30 18 12 19 11 20 10 21 13 22
REMARK SMILES IDX 31 23 25 24 26 25 19 26 2 27 3 28 1 29 8 30 9 31 23 33
REMARK H PARENT 9 32 23 34
REMARK Flexibility Score: inf
ROOT
ATOM      1  C   UNL     1     -44.507  30.810 -24.180  1.00  0.00     0.018 C 
ATOM      2  C   UNL     1     -46.029  30.978 -24.177  1.00  0.00     0.009 C 
ATOM      3  C   UNL     1     -46.411  31.470 -22.785  1.00  0.00     0.010 C 
ATOM      4  C   UNL     1     -45.188  32.234 -22.205  1.00  0.00    -0.003 C 
ATOM      5  C   UNL     1     -44.007  31.896 -23.173  1.00  0.00     0.008 C 
ATOM      6  C   UNL     1     -42.560  31.895 -22.544  1.00  0.00    -0.000 C 
ATOM      7  C   UNL     1     -41.489  31.408 -23.512  1.00  0.00     0.005 C 
ATOM      8  C   UNL     1     -40.112  31.600 -22.911  1.00  0.00     0.005 C 
ATOM      9  C   UNL     1     -39.822  30.797 -21.581  1.00  0.00     0.002 C 
ATOM     10  C   UNL     1     -38.639  29.712 -21.743  1.00  0.00    -0.026 C 
ATOM     11  C   UNL     1     -37.942  29.380 -20.381  1.00  0.00     0.010 C 
ATOM     12  C   UNL     1     -36.885  28.258 -20.463  1.00  0.00     0.033 C 
ATOM     13  C   UNL     1     -37.433  26.964 -21.093  1.00  0.00     0.120 C 
ATOM     14  C   UNL     1     -38.142  27.193 -22.467  1.00  0.00    -0.006 C 
ATOM     15  C   UNL     1     -39.212  28.378 -22.359  1.00  0.00     0.003 C 
ATOM     16  C   UNL     1     -40.463  27.907 -21.553  1.00  0.00     0.005 C 
ATOM     17  C   UNL     1     -41.586  28.934 -21.395  1.00  0.00     0.008 C 
ATOM     18  C   UNL     1     -41.166  30.325 -20.845  1.00  0.00    -0.024 C 
ATOM     19  C   UNL     1     -42.373  31.407 -21.041  1.00  0.00    -0.024 C 
ATOM     20  C   UNL     1     -43.744  30.844 -20.540  1.00  0.00     0.008 C 
ATOM     21  C   UNL     1     -44.921  31.809 -20.724  1.00  0.00     0.010 C 
ATOM     22  C   UNL     1     -42.041  32.675 -20.171  1.00  0.00     0.012 C 
ATOM     23  C   UNL     1     -40.899  30.143 -19.304  1.00  0.00     0.012 C 
ATOM     24  C   UNL     1     -37.098  27.461 -23.590  1.00  0.00     0.014 C 
ATOM     25  C   UNL     1     -38.835  25.859 -22.874  1.00  0.00     0.014 C 
ATOM     26  C   UNL     1     -37.518  30.363 -22.635  1.00  0.00     0.012 C 
ENDROOT
BRANCH   1  27
ATOM     27  C   UNL     1     -44.093  29.341 -24.018  1.00  0.00    -0.077 C 
ATOM     28  C   UNL     1     -42.865  28.835 -24.743  1.00  0.00     0.039 C 
ATOM     29  C   UNL     1     -44.882  28.416 -23.444  1.00  0.00     0.008 C 
ENDBRANCH   1  27
BRANCH   4  30
ATOM     30  C   UNL     1     -45.487  33.766 -22.213  1.00  0.00     0.163 C 
BRANCH  30  31
ATOM     31  O   UNL     1     -46.410  34.103 -23.215  1.00  0.00    -0.396 OA
ATOM     32  H   UNL     1     -47.185  33.494 -23.093  1.00  0.00     0.210 HD
ENDBRANCH  30  31
ENDBRANCH   4  30
BRANCH  13  33
ATOM     33  O   UNL     1     -36.386  26.036 -21.240  1.00  0.00    -0.393 OA
ATOM     34  H   UNL     1     -36.086  25.788 -20.325  1.00  0.00     0.210 HD
ENDBRANCH  13  33
TORSDOF 4
ENDMDL
MODEL 5
REMARK VINA RESULT:   138.418      2.585      6.792
REMARK INTER + INTRA:         162.263
REMARK INTER:                 163.062
REMARK INTRA:                  -0.798
REMARK UNBOUND:                -0.430
REMARK SMILES C=C(C)[C@H]1CC[C@@]2(CO)CC[C@]3(C)[C@@H](CC[C@@H]4[C@@]5(C)CC[C@H](O)C(C)(C)[C@H]5CC[C@@]43C)[C@@H]12
REMARK SMILES IDX 4 1 5 2 6 3 7 4 32 5 14 6 15 7 16 8 17 9 18 10 20 11 21 12
REMARK SMILES IDX 22 13 24 14 27 15 28 16 29 17 30 18 12 19 11 20 10 21 13 22
REMARK SMILES IDX 31 23 25 24 26 25 19 26 2 27 3 28 1 29 8 30 9 31 23 33
REMARK H PARENT 9 32 23 34
REMARK Flexibility Score: inf
ROOT
ATOM      1  C   UNL     1     -39.511  25.981 -21.215  1.00  0.00     0.018 C 
ATOM      2  C   UNL     1     -38.579  24.830 -21.605  1.00  0.00     0.009 C 
ATOM      3  C   UNL     1     -37.412  25.453 -22.364  1.00  0.00     0.010 C 
ATOM      4  C   UNL     1     -37.255  26.916 -21.865  1.00  0.00    -0.003 C 
ATOM      5  C   UNL     1     -38.550  27.199 -21.036  1.00  0.00     0.008 C 
ATOM      6  C   UNL     1     -39.046  28.697 -20.995  1.00  0.00    -0.000 C 
ATOM      7  C   UNL     1     -40.391  28.861 -20.299  1.00  0.00     0.005 C 
ATOM      8  C   UNL     1     -40.721  30.331 -20.136  1.00  0.00     0.005 C 
ATOM      9  C   UNL     1     -40.879  31.155 -21.476  1.00  0.00     0.002 C 
ATOM     10  C   UNL     1     -42.367  31.743 -21.684  1.00  0.00    -0.026 C 
ATOM     11  C   UNL     1     -42.384  33.008 -22.607  1.00  0.00     0.010 C 
ATOM     12  C   UNL     1     -43.797  33.537 -22.936  1.00  0.00     0.033 C 
ATOM     13  C   UNL     1     -44.719  32.454 -23.524  1.00  0.00     0.120 C 
ATOM     14  C   UNL     1     -44.775  31.150 -22.664  1.00  0.00    -0.006 C 
ATOM     15  C   UNL     1     -43.299  30.640 -22.317  1.00  0.00     0.003 C 
ATOM     16  C   UNL     1     -42.624  30.027 -23.584  1.00  0.00     0.005 C 
ATOM     17  C   UNL     1     -41.214  29.470 -23.391  1.00  0.00     0.008 C 
ATOM     18  C   UNL     1     -40.186  30.428 -22.726  1.00  0.00    -0.024 C 
ATOM     19  C   UNL     1     -38.844  29.612 -22.282  1.00  0.00    -0.024 C 
ATOM     20  C   UNL     1     -38.306  28.706 -23.440  1.00  0.00     0.008 C 
ATOM     21  C   UNL     1     -37.060  27.895 -23.070  1.00  0.00     0.010 C 
ATOM     22  C   UNL     1     -37.721  30.659 -21.945  1.00  0.00     0.012 C 
ATOM     23  C   UNL     1     -39.788  31.495 -23.814  1.00  0.00     0.012 C 
ATOM     24  C   UNL     1     -45.626  31.371 -21.379  1.00  0.00     0.014 C 
ATOM     25  C   UNL     1     -45.553  30.074 -23.480  1.00  0.00     0.014 C 
ATOM     26  C   UNL     1     -42.879  32.244 -20.283  1.00  0.00     0.012 C 
ENDROOT
BRANCH   1  27
ATOM     27  C   UNL     1     -40.728  26.073 -22.147  1.00  0.00    -0.077 C 
ATOM     28  C   UNL     1     -42.116  25.913 -21.568  1.00  0.00     0.039 C 
ATOM     29  C   UNL     1     -40.626  26.066 -23.487  1.00  0.00     0.008 C 
ENDBRANCH   1  27
BRANCH   4  30
ATOM     30  C   UNL     1     -35.987  27.018 -20.960  1.00  0.00     0.163 C 
BRANCH  30  31
ATOM     31  O   UNL     1     -35.120  25.935 -21.168  1.00  0.00    -0.396 OA
ATOM     32  H   UNL     1     -34.335  26.298 -21.654  1.00  0.00     0.210 HD
ENDBRANCH  30  31
ENDBRANCH   4  30
BRANCH  13  33
ATOM     33  O   UNL     1     -46.014  32.980 -23.686  1.00  0.00    -0.393 OA
ATOM     34  H   UNL     1     -46.081  33.310 -24.621  1.00  0.00     0.210 HD
ENDBRANCH  13  33
TORSDOF 4
ENDMDL
MODEL 6
REMARK VINA RESULT:   138.576      7.731     10.697
REMARK INTER + INTRA:         162.449
REMARK INTER:                 163.190
REMARK INTRA:                  -0.740
REMARK UNBOUND:                -0.430
REMARK SMILES C=C(C)[C@H]1CC[C@@]2(CO)CC[C@]3(C)[C@@H](CC[C@@H]4[C@@]5(C)CC[C@H](O)C(C)(C)[C@H]5CC[C@@]43C)[C@@H]12
REMARK SMILES IDX 4 1 5 2 6 3 7 4 32 5 14 6 15 7 16 8 17 9 18 10 20 11 21 12
REMARK SMILES IDX 22 13 24 14 27 15 28 16 29 17 30 18 12 19 11 20 10 21 13 22
REMARK SMILES IDX 31 23 25 24 26 25 19 26 2 27 3 28 1 29 8 30 9 31 23 33
REMARK H PARENT 9 32 23 34
REMARK Flexibility Score: inf
ROOT
ATOM      1  C   UNL     1     -41.326  23.452 -11.304  1.00  0.00     0.018 C 
ATOM      2  C   UNL     1     -41.407  24.155  -9.946  1.00  0.00     0.009 C 
ATOM      3  C   UNL     1     -42.303  25.374 -10.139  1.00  0.00     0.010 C 
ATOM      4  C   UNL     1     -43.275  25.061 -11.310  1.00  0.00    -0.003 C 
ATOM      5  C   UNL     1     -42.704  23.765 -11.972  1.00  0.00     0.008 C 
ATOM      6  C   UNL     1     -42.982  23.581 -13.514  1.00  0.00    -0.000 C 
ATOM      7  C   UNL     1     -42.263  22.377 -14.111  1.00  0.00     0.005 C 
ATOM      8  C   UNL     1     -42.711  22.155 -15.541  1.00  0.00     0.005 C 
ATOM      9  C   UNL     1     -42.399  23.329 -16.552  1.00  0.00     0.002 C 
ATOM     10  C   UNL     1     -41.382  22.896 -17.728  1.00  0.00    -0.026 C 
ATOM     11  C   UNL     1     -41.546  23.776 -19.013  1.00  0.00     0.010 C 
ATOM     12  C   UNL     1     -40.514  23.481 -20.123  1.00  0.00     0.033 C 
ATOM     13  C   UNL     1     -39.060  23.560 -19.624  1.00  0.00     0.120 C 
ATOM     14  C   UNL     1     -38.794  22.702 -18.344  1.00  0.00    -0.006 C 
ATOM     15  C   UNL     1     -39.892  23.009 -17.222  1.00  0.00     0.003 C 
ATOM     16  C   UNL     1     -39.644  24.414 -16.588  1.00  0.00     0.005 C 
ATOM     17  C   UNL     1     -40.607  24.828 -15.475  1.00  0.00     0.008 C 
ATOM     18  C   UNL     1     -42.122  24.721 -15.807  1.00  0.00    -0.024 C 
ATOM     19  C   UNL     1     -43.018  24.868 -14.450  1.00  0.00    -0.024 C 
ATOM     20  C   UNL     1     -42.577  26.102 -13.594  1.00  0.00     0.008 C 
ATOM     21  C   UNL     1     -43.368  26.274 -12.293  1.00  0.00     0.010 C 
ATOM     22  C   UNL     1     -44.514  25.102 -14.873  1.00  0.00     0.012 C 
ATOM     23  C   UNL     1     -42.463  25.922 -16.767  1.00  0.00     0.012 C 
ATOM     24  C   UNL     1     -38.737  21.187 -18.695  1.00  0.00     0.014 C 
ATOM     25  C   UNL     1     -37.365  23.048 -17.827  1.00  0.00     0.014 C 
ATOM     26  C   UNL     1     -41.766  21.437 -18.173  1.00  0.00     0.012 C 
ENDROOT
BRANCH   1  27
ATOM     27  C   UNL     1     -40.012  23.765 -12.034  1.00  0.00    -0.077 C 
ATOM     28  C   UNL     1     -39.035  22.643 -12.311  1.00  0.00     0.039 C 
ATOM     29  C   UNL     1     -39.574  25.017 -12.248  1.00  0.00     0.008 C 
ENDBRANCH   1  27
BRANCH   4  30
ATOM     30  C   UNL     1     -44.704  24.803 -10.737  1.00  0.00     0.163 C 
BRANCH  30  31
ATOM     31  O   UNL     1     -44.746  25.011  -9.350  1.00  0.00    -0.396 OA
ATOM     32  H   UNL     1     -44.197  24.290  -8.946  1.00  0.00     0.210 HD
ENDBRANCH  30  31
ENDBRANCH   4  30
BRANCH  13  33
ATOM     33  O   UNL     1     -38.190  23.166 -20.656  1.00  0.00    -0.393 OA
ATOM     34  H   UNL     1     -37.426  22.694 -20.231  1.00  0.00     0.210 HD
ENDBRANCH  13  33
TORSDOF 4
ENDMDL
