MODEL 1
REMARK VINA RESULT:    -4.141      0.000      0.000
REMARK INTER + INTRA:          -8.594
REMARK INTER:                  -7.287
REMARK INTRA:                  -1.307
REMARK UNBOUND:                -1.307
REMARK SMILES CCCCCCC=CCCCCCCCC(=O)[O-]
REMARK SMILES IDX 10 1 11 2 12 3 13 4 14 5 15 6 16 7 17 8 18 9 9 10 8 11 7 12
REMARK SMILES IDX 6 13 5 14 4 15 3 16 2 17 1 18
REMARK H PARENT
REMARK Flexibility Score: inf
ROOT
ATOM      1  C   UNL     1      11.250  14.861  30.341  1.00  0.00     0.004 C 
ENDROOT
BRANCH   1   2
ATOM      2  C   UNL     1       9.890  14.169  30.187  1.00  0.00     0.000 C 
BRANCH   2   3
ATOM      3  C   UNL     1       9.093  14.778  29.023  1.00  0.00     0.000 C 
BRANCH   3   4
ATOM      4  C   UNL     1       9.828  14.669  27.679  1.00  0.00     0.000 C 
BRANCH   4   5
ATOM      5  C   UNL     1       9.244  15.605  26.607  1.00  0.00     0.006 C 
BRANCH   5   6
ATOM      6  C   UNL     1       8.336  16.685  27.212  1.00  0.00     0.053 C 
BRANCH   6   7
ATOM      7  C   UNL     1       8.441  17.982  26.470  1.00  0.00     0.041 C 
ATOM      8  O   UNL     1       8.250  19.072  27.071  1.00  0.00    -0.550 OA
ATOM      9  O   UNL     1       8.780  17.989  25.123  1.00  0.00    -0.550 OA
ENDBRANCH   6   7
ENDBRANCH   5   6
ENDBRANCH   4   5
ENDBRANCH   3   4
ENDBRANCH   2   3
ENDBRANCH   1   2
BRANCH   1  10
ATOM     10  C   UNL     1      12.398  13.854  30.202  1.00  0.00     0.027 C 
BRANCH  10  11
ATOM     11  C   UNL     1      13.703  14.550  29.928  1.00  0.00    -0.031 C 
ATOM     12  C   UNL     1      14.317  14.448  28.740  1.00  0.00    -0.031 C 
BRANCH  12  13
ATOM     13  C   UNL     1      15.618  15.151  28.460  1.00  0.00     0.027 C 
BRANCH  13  14
ATOM     14  C   UNL     1      16.166  15.883  29.694  1.00  0.00     0.004 C 
BRANCH  14  15
ATOM     15  C   UNL     1      17.519  15.312  30.156  1.00  0.00     0.000 C 
BRANCH  15  16
ATOM     16  C   UNL     1      17.383  14.448  31.428  1.00  0.00    -0.000 C 
BRANCH  16  17
ATOM     17  C   UNL     1      17.063  12.972  31.137  1.00  0.00    -0.003 C 
ATOM     18  C   UNL     1      15.852  12.459  31.913  1.00  0.00     0.004 C 
ENDBRANCH  16  17
ENDBRANCH  15  16
ENDBRANCH  14  15
ENDBRANCH  13  14
ENDBRANCH  12  13
ENDBRANCH  10  11
ENDBRANCH   1  10
TORSDOF 13
ENDMDL
MODEL 2
REMARK VINA RESULT:    -4.060      3.481      6.618
REMARK INTER + INTRA:          -8.452
REMARK INTER:                  -6.458
REMARK INTRA:                  -1.994
REMARK UNBOUND:                -1.307
REMARK SMILES CCCCCCC=CCCCCCCCC(=O)[O-]
REMARK SMILES IDX 10 1 11 2 12 3 13 4 14 5 15 6 16 7 17 8 18 9 9 10 8 11 7 12
REMARK SMILES IDX 6 13 5 14 4 15 3 16 2 17 1 18
REMARK H PARENT
REMARK Flexibility Score: inf
ROOT
ATOM      1  C   UNL     1      17.599  13.039  31.391  1.00  0.00     0.004 C 
ENDROOT
BRANCH   1   2
ATOM      2  C   UNL     1      17.507  14.563  31.535  1.00  0.00     0.000 C 
BRANCH   2   3
ATOM      3  C   UNL     1      17.560  15.249  30.162  1.00  0.00     0.000 C 
BRANCH   3   4
ATOM      4  C   UNL     1      16.244  15.955  29.799  1.00  0.00     0.000 C 
BRANCH   4   5
ATOM      5  C   UNL     1      15.669  15.480  28.454  1.00  0.00     0.006 C 
BRANCH   5   6
ATOM      6  C   UNL     1      16.747  14.884  27.539  1.00  0.00     0.053 C 
BRANCH   6   7
ATOM      7  C   UNL     1      16.903  15.671  26.274  1.00  0.00     0.041 C 
ATOM      8  O   UNL     1      15.990  16.452  25.898  1.00  0.00    -0.550 OA
ATOM      9  O   UNL     1      18.069  15.566  25.527  1.00  0.00    -0.550 OA
ENDBRANCH   6   7
ENDBRANCH   5   6
ENDBRANCH   4   5
ENDBRANCH   3   4
ENDBRANCH   2   3
ENDBRANCH   1   2
BRANCH   1  10
ATOM     10  C   UNL     1      16.263  12.372  31.740  1.00  0.00     0.027 C 
BRANCH  10  11
ATOM     11  C   UNL     1      15.391  12.227  30.524  1.00  0.00    -0.031 C 
ATOM     12  C   UNL     1      14.085  12.536  30.555  1.00  0.00    -0.031 C 
BRANCH  12  13
ATOM     13  C   UNL     1      13.213  12.401  29.336  1.00  0.00     0.027 C 
BRANCH  13  14
ATOM     14  C   UNL     1      12.446  13.693  29.018  1.00  0.00     0.004 C 
BRANCH  14  15
ATOM     15  C   UNL     1      12.426  14.665  30.211  1.00  0.00     0.000 C 
BRANCH  15  16
ATOM     16  C   UNL     1      10.998  15.142  30.551  1.00  0.00    -0.000 C 
BRANCH  16  17
ATOM     17  C   UNL     1      10.368  14.397  31.740  1.00  0.00    -0.003 C 
ATOM     18  C   UNL     1      11.389  13.986  32.798  1.00  0.00     0.004 C 
ENDBRANCH  16  17
ENDBRANCH  15  16
ENDBRANCH  14  15
ENDBRANCH  13  14
ENDBRANCH  12  13
ENDBRANCH  10  11
ENDBRANCH   1  10
TORSDOF 13
ENDMDL
MODEL 3
REMARK VINA RESULT:    -4.047      5.152      8.529
REMARK INTER + INTRA:          -8.430
REMARK INTER:                  -6.370
REMARK INTRA:                  -2.060
REMARK UNBOUND:                -1.307
REMARK SMILES CCCCCCC=CCCCCCCCC(=O)[O-]
REMARK SMILES IDX 10 1 11 2 12 3 13 4 14 5 15 6 16 7 17 8 18 9 9 10 8 11 7 12
REMARK SMILES IDX 6 13 5 14 4 15 3 16 2 17 1 18
REMARK H PARENT
REMARK Flexibility Score: inf
ROOT
ATOM      1  C   UNL     1      15.995  15.791  28.945  1.00  0.00     0.004 C 
ENDROOT
BRANCH   1   2
ATOM      2  C   UNL     1      16.776  15.638  30.255  1.00  0.00     0.000 C 
BRANCH   2   3
ATOM      3  C   UNL     1      18.097  14.888  30.023  1.00  0.00     0.000 C 
BRANCH   3   4
ATOM      4  C   UNL     1      18.147  13.536  30.750  1.00  0.00     0.000 C 
BRANCH   4   5
ATOM      5  C   UNL     1      17.406  13.559  32.097  1.00  0.00     0.006 C 
BRANCH   5   6
ATOM      6  C   UNL     1      17.101  12.146  32.615  1.00  0.00     0.053 C 
BRANCH   6   7
ATOM      7  C   UNL     1      17.812  11.859  33.902  1.00  0.00     0.041 C 
ATOM      8  O   UNL     1      18.818  12.540  34.235  1.00  0.00    -0.550 OA
ATOM      9  O   UNL     1      17.346  10.861  34.748  1.00  0.00    -0.550 OA
ENDBRANCH   6   7
ENDBRANCH   5   6
ENDBRANCH   4   5
ENDBRANCH   3   4
ENDBRANCH   2   3
ENDBRANCH   1   2
BRANCH   1  10
ATOM     10  C   UNL     1      14.913  14.711  28.820  1.00  0.00     0.027 C 
BRANCH  10  11
ATOM     11  C   UNL     1      14.390  14.304  30.169  1.00  0.00    -0.031 C 
ATOM     12  C   UNL     1      14.073  13.030  30.445  1.00  0.00    -0.031 C 
BRANCH  12  13
ATOM     13  C   UNL     1      13.557  12.619  31.798  1.00  0.00     0.027 C 
BRANCH  13  14
ATOM     14  C   UNL     1      12.023  12.625  31.867  1.00  0.00     0.004 C 
BRANCH  14  15
ATOM     15  C   UNL     1      11.476  13.910  32.515  1.00  0.00     0.000 C 
BRANCH  15  16
ATOM     16  C   UNL     1      10.913  14.895  31.468  1.00  0.00    -0.000 C 
BRANCH  16  17
ATOM     17  C   UNL     1      10.476  14.217  30.159  1.00  0.00    -0.003 C 
ATOM     18  C   UNL     1      10.816  15.038  28.917  1.00  0.00     0.004 C 
ENDBRANCH  16  17
ENDBRANCH  15  16
ENDBRANCH  14  15
ENDBRANCH  13  14
ENDBRANCH  12  13
ENDBRANCH  10  11
ENDBRANCH   1  10
TORSDOF 13
ENDMDL
MODEL 4
REMARK VINA RESULT:    -4.015      1.903      2.900
REMARK INTER + INTRA:          -8.373
REMARK INTER:                  -6.717
REMARK INTRA:                  -1.656
REMARK UNBOUND:                -1.307
REMARK SMILES CCCCCCC=CCCCCCCCC(=O)[O-]
REMARK SMILES IDX 10 1 11 2 12 3 13 4 14 5 15 6 16 7 17 8 18 9 9 10 8 11 7 12
REMARK SMILES IDX 6 13 5 14 4 15 3 16 2 17 1 18
REMARK H PARENT
REMARK Flexibility Score: inf
ROOT
ATOM      1  C   UNL     1      12.166  12.184  31.893  1.00  0.00     0.004 C 
ENDROOT
BRANCH   1   2
ATOM      2  C   UNL     1      11.529  13.081  32.962  1.00  0.00     0.000 C 
BRANCH   2   3
ATOM      3  C   UNL     1      11.250  14.485  32.405  1.00  0.00     0.000 C 
BRANCH   3   4
ATOM      4  C   UNL     1      10.333  14.464  31.173  1.00  0.00     0.000 C 
BRANCH   4   5
ATOM      5  C   UNL     1      10.931  15.223  29.976  1.00  0.00     0.006 C 
BRANCH   5   6
ATOM      6  C   UNL     1      10.620  14.536  28.640  1.00  0.00     0.053 C 
BRANCH   6   7
ATOM      7  C   UNL     1       9.317  14.999  28.064  1.00  0.00     0.041 C 
ATOM      8  O   UNL     1       8.334  14.214  28.008  1.00  0.00    -0.550 OA
ATOM      9  O   UNL     1       9.179  16.307  27.616  1.00  0.00    -0.550 OA
ENDBRANCH   6   7
ENDBRANCH   5   6
ENDBRANCH   4   5
ENDBRANCH   3   4
ENDBRANCH   2   3
ENDBRANCH   1   2
BRANCH   1  10
ATOM     10  C   UNL     1      13.647  12.530  31.696  1.00  0.00     0.027 C 
BRANCH  10  11
ATOM     11  C   UNL     1      13.924  12.952  30.280  1.00  0.00    -0.031 C 
ATOM     12  C   UNL     1      14.262  14.215  29.977  1.00  0.00    -0.031 C 
BRANCH  12  13
ATOM     13  C   UNL     1      14.550  14.638  28.562  1.00  0.00     0.027 C 
BRANCH  13  14
ATOM     14  C   UNL     1      15.815  15.501  28.453  1.00  0.00     0.004 C 
BRANCH  14  15
ATOM     15  C   UNL     1      16.338  15.941  29.832  1.00  0.00     0.000 C 
BRANCH  15  16
ATOM     16  C   UNL     1      17.666  15.247  30.201  1.00  0.00    -0.000 C 
BRANCH  16  17
ATOM     17  C   UNL     1      17.497  14.082  31.191  1.00  0.00    -0.003 C 
ATOM     18  C   UNL     1      18.485  14.137  32.354  1.00  0.00     0.004 C 
ENDBRANCH  16  17
ENDBRANCH  15  16
ENDBRANCH  14  15
ENDBRANCH  13  14
ENDBRANCH  12  13
ENDBRANCH  10  11
ENDBRANCH   1  10
TORSDOF 13
ENDMDL
MODEL 5
REMARK VINA RESULT:    -3.992      2.772      5.352
REMARK INTER + INTRA:          -8.333
REMARK INTER:                  -6.749
REMARK INTRA:                  -1.584
REMARK UNBOUND:                -1.307
REMARK SMILES CCCCCCC=CCCCCCCCC(=O)[O-]
REMARK SMILES IDX 10 1 11 2 12 3 13 4 14 5 15 6 16 7 17 8 18 9 9 10 8 11 7 12
REMARK SMILES IDX 6 13 5 14 4 15 3 16 2 17 1 18
REMARK H PARENT
REMARK Flexibility Score: inf
ROOT
ATOM      1  C   UNL     1      16.182  11.894  31.906  1.00  0.00     0.004 C 
ENDROOT
BRANCH   1   2
ATOM      2  C   UNL     1      15.219  11.399  32.991  1.00  0.00     0.000 C 
BRANCH   2   3
ATOM      3  C   UNL     1      13.771  11.790  32.661  1.00  0.00     0.000 C 
BRANCH   3   4
ATOM      4  C   UNL     1      13.652  12.574  31.346  1.00  0.00     0.000 C 
BRANCH   4   5
ATOM      5  C   UNL     1      12.376  13.430  31.279  1.00  0.00     0.006 C 
BRANCH   5   6
ATOM      6  C   UNL     1      12.528  14.626  30.329  1.00  0.00     0.053 C 
BRANCH   6   7
ATOM      7  C   UNL     1      11.706  14.459  29.088  1.00  0.00     0.041 C 
ATOM      8  O   UNL     1      12.018  13.587  28.234  1.00  0.00    -0.550 OA
ATOM      9  O   UNL     1      10.579  15.246  28.887  1.00  0.00    -0.550 OA
ENDBRANCH   6   7
ENDBRANCH   5   6
ENDBRANCH   4   5
ENDBRANCH   3   4
ENDBRANCH   2   3
ENDBRANCH   1   2
BRANCH   1  10
ATOM     10  C   UNL     1      17.346  12.682  32.520  1.00  0.00     0.027 C 
BRANCH  10  11
ATOM     11  C   UNL     1      17.563  13.984  31.800  1.00  0.00    -0.031 C 
ATOM     12  C   UNL     1      16.698  14.428  30.876  1.00  0.00    -0.031 C 
BRANCH  12  13
ATOM     13  C   UNL     1      16.909  15.736  30.161  1.00  0.00     0.027 C 
BRANCH  13  14
ATOM     14  C   UNL     1      15.900  15.951  29.023  1.00  0.00     0.004 C 
BRANCH  14  15
ATOM     15  C   UNL     1      15.601  14.649  28.258  1.00  0.00     0.000 C 
BRANCH  15  16
ATOM     16  C   UNL     1      16.331  14.591  26.899  1.00  0.00    -0.000 C 
BRANCH  16  17
ATOM     17  C   UNL     1      16.550  15.973  26.260  1.00  0.00    -0.003 C 
ATOM     18  C   UNL     1      16.022  16.061  24.831  1.00  0.00     0.004 C 
ENDBRANCH  16  17
ENDBRANCH  15  16
ENDBRANCH  14  15
ENDBRANCH  13  14
ENDBRANCH  12  13
ENDBRANCH  10  11
ENDBRANCH   1  10
TORSDOF 13
ENDMDL
MODEL 6
REMARK VINA RESULT:    -3.974      3.322      5.631
REMARK INTER + INTRA:          -8.300
REMARK INTER:                  -6.123
REMARK INTRA:                  -2.178
REMARK UNBOUND:                -1.307
REMARK SMILES CCCCCCC=CCCCCCCCC(=O)[O-]
REMARK SMILES IDX 10 1 11 2 12 3 13 4 14 5 15 6 16 7 17 8 18 9 9 10 8 11 7 12
REMARK SMILES IDX 6 13 5 14 4 15 3 16 2 17 1 18
REMARK H PARENT
REMARK Flexibility Score: inf
ROOT
ATOM      1  C   UNL     1      17.244  15.371  30.637  1.00  0.00     0.004 C 
ENDROOT
BRANCH   1   2
ATOM      2  C   UNL     1      17.185  13.851  30.826  1.00  0.00     0.000 C 
BRANCH   2   3
ATOM      3  C   UNL     1      15.841  13.425  31.436  1.00  0.00     0.000 C 
BRANCH   3   4
ATOM      4  C   UNL     1      15.178  12.272  30.667  1.00  0.00     0.000 C 
BRANCH   4   5
ATOM      5  C   UNL     1      13.809  12.660  30.083  1.00  0.00     0.006 C 
BRANCH   5   6
ATOM      6  C   UNL     1      13.098  13.726  30.928  1.00  0.00     0.053 C 
BRANCH   6   7
ATOM      7  C   UNL     1      12.122  14.521  30.117  1.00  0.00     0.041 C 
ATOM      8  O   UNL     1      12.169  14.488  28.859  1.00  0.00    -0.550 OA
ATOM      9  O   UNL     1      11.142  15.275  30.749  1.00  0.00    -0.550 OA
ENDBRANCH   6   7
ENDBRANCH   5   6
ENDBRANCH   4   5
ENDBRANCH   3   4
ENDBRANCH   2   3
ENDBRANCH   1   2
BRANCH   1  10
ATOM     10  C   UNL     1      16.019  15.878  29.865  1.00  0.00     0.027 C 
BRANCH  10  11
ATOM     11  C   UNL     1      16.201  15.708  28.382  1.00  0.00    -0.031 C 
ATOM     12  C   UNL     1      15.395  14.913  27.663  1.00  0.00    -0.031 C 
BRANCH  12  13
ATOM     13  C   UNL     1      15.569  14.748  26.177  1.00  0.00     0.027 C 
BRANCH  13  14
ATOM     14  C   UNL     1      16.369  15.899  25.549  1.00  0.00     0.004 C 
BRANCH  14  15
ATOM     15  C   UNL     1      17.684  15.414  24.914  1.00  0.00     0.000 C 
BRANCH  15  16
ATOM     16  C   UNL     1      18.875  15.516  25.890  1.00  0.00    -0.000 C 
BRANCH  16  17
ATOM     17  C   UNL     1      19.273  14.169  26.516  1.00  0.00    -0.003 C 
ATOM     18  C   UNL     1      19.616  14.278  28.000  1.00  0.00     0.004 C 
ENDBRANCH  16  17
ENDBRANCH  15  16
ENDBRANCH  14  15
ENDBRANCH  13  14
ENDBRANCH  12  13
ENDBRANCH  10  11
ENDBRANCH   1  10
TORSDOF 13
ENDMDL
MODEL 7
REMARK VINA RESULT:    -3.962      4.066      7.034
REMARK INTER + INTRA:          -8.279
REMARK INTER:                  -6.344
REMARK INTRA:                  -1.935
REMARK UNBOUND:                -1.307
REMARK SMILES CCCCCCC=CCCCCCCCC(=O)[O-]
REMARK SMILES IDX 10 1 11 2 12 3 13 4 14 5 15 6 16 7 17 8 18 9 9 10 8 11 7 12
REMARK SMILES IDX 6 13 5 14 4 15 3 16 2 17 1 18
REMARK H PARENT
REMARK Flexibility Score: inf
ROOT
ATOM      1  C   UNL     1      16.702  13.270  30.822  1.00  0.00     0.004 C 
ENDROOT
BRANCH   1   2
ATOM      2  C   UNL     1      17.317  14.598  31.277  1.00  0.00     0.000 C 
BRANCH   2   3
ATOM      3  C   UNL     1      16.905  15.744  30.341  1.00  0.00     0.000 C 
BRANCH   3   4
ATOM      4  C   UNL     1      15.687  15.392  29.472  1.00  0.00     0.000 C 
BRANCH   4   5
ATOM      5  C   UNL     1      15.933  15.651  27.976  1.00  0.00     0.006 C 
BRANCH   5   6
ATOM      6  C   UNL     1      16.282  14.365  27.214  1.00  0.00     0.053 C 
BRANCH   6   7
ATOM      7  C   UNL     1      17.762  14.188  27.068  1.00  0.00     0.041 C 
ATOM      8  O   UNL     1      18.534  15.173  27.208  1.00  0.00    -0.550 OA
ATOM      9  O   UNL     1      18.291  12.931  26.808  1.00  0.00    -0.550 OA
ENDBRANCH   6   7
ENDBRANCH   5   6
ENDBRANCH   4   5
ENDBRANCH   3   4
ENDBRANCH   2   3
ENDBRANCH   1   2
BRANCH   1  10
ATOM     10  C   UNL     1      16.424  12.353  32.020  1.00  0.00     0.027 C 
BRANCH  10  11
ATOM     11  C   UNL     1      14.952  12.096  32.180  1.00  0.00    -0.031 C 
ATOM     12  C   UNL     1      14.041  12.742  31.436  1.00  0.00    -0.031 C 
BRANCH  12  13
ATOM     13  C   UNL     1      12.567  12.480  31.588  1.00  0.00     0.027 C 
BRANCH  13  14
ATOM     14  C   UNL     1      11.745  13.775  31.661  1.00  0.00     0.004 C 
BRANCH  14  15
ATOM     15  C   UNL     1      12.107  14.756  30.531  1.00  0.00     0.000 C 
BRANCH  15  16
ATOM     16  C   UNL     1      10.990  14.861  29.471  1.00  0.00    -0.000 C 
BRANCH  16  17
ATOM     17  C   UNL     1      11.218  13.959  28.246  1.00  0.00    -0.003 C 
ATOM     18  C   UNL     1      12.687  13.600  28.032  1.00  0.00     0.004 C 
ENDBRANCH  16  17
ENDBRANCH  15  16
ENDBRANCH  14  15
ENDBRANCH  13  14
ENDBRANCH  12  13
ENDBRANCH  10  11
ENDBRANCH   1  10
TORSDOF 13
ENDMDL
MODEL 8
REMARK VINA RESULT:    -3.940      3.291      5.165
REMARK INTER + INTRA:          -8.241
REMARK INTER:                  -5.786
REMARK INTRA:                  -2.455
REMARK UNBOUND:                -1.307
REMARK SMILES CCCCCCC=CCCCCCCCC(=O)[O-]
REMARK SMILES IDX 10 1 11 2 12 3 13 4 14 5 15 6 16 7 17 8 18 9 9 10 8 11 7 12
REMARK SMILES IDX 6 13 5 14 4 15 3 16 2 17 1 18
REMARK H PARENT
REMARK Flexibility Score: inf
ROOT
ATOM      1  C   UNL     1      16.968  12.142  31.785  1.00  0.00     0.004 C 
ENDROOT
BRANCH   1   2
ATOM      2  C   UNL     1      15.799  11.760  32.701  1.00  0.00     0.000 C 
BRANCH   2   3
ATOM      3  C   UNL     1      14.542  11.435  31.880  1.00  0.00     0.000 C 
BRANCH   3   4
ATOM      4  C   UNL     1      13.657  12.666  31.635  1.00  0.00     0.000 C 
BRANCH   4   5
ATOM      5  C   UNL     1      13.498  12.992  30.140  1.00  0.00     0.006 C 
BRANCH   5   6
ATOM      6  C   UNL     1      12.824  14.353  29.912  1.00  0.00     0.053 C 
BRANCH   6   7
ATOM      7  C   UNL     1      11.387  14.341  30.335  1.00  0.00     0.041 C 
ATOM      8  O   UNL     1      10.963  15.192  31.160  1.00  0.00    -0.550 OA
ATOM      9  O   UNL     1      10.509  13.410  29.795  1.00  0.00    -0.550 OA
ENDBRANCH   6   7
ENDBRANCH   5   6
ENDBRANCH   4   5
ENDBRANCH   3   4
ENDBRANCH   2   3
ENDBRANCH   1   2
BRANCH   1  10
ATOM     10  C   UNL     1      17.741  13.340  32.350  1.00  0.00     0.027 C 
BRANCH  10  11
ATOM     11  C   UNL     1      17.675  14.520  31.420  1.00  0.00    -0.031 C 
ATOM     12  C   UNL     1      16.562  14.808  30.729  1.00  0.00    -0.031 C 
BRANCH  12  13
ATOM     13  C   UNL     1      16.491  15.994  29.805  1.00  0.00     0.027 C 
BRANCH  13  14
ATOM     14  C   UNL     1      15.970  15.619  28.410  1.00  0.00     0.004 C 
BRANCH  14  15
ATOM     15  C   UNL     1      16.861  14.571  27.720  1.00  0.00     0.000 C 
BRANCH  15  16
ATOM     16  C   UNL     1      16.134  13.223  27.528  1.00  0.00    -0.000 C 
BRANCH  16  17
ATOM     17  C   UNL     1      16.887  12.027  28.137  1.00  0.00    -0.003 C 
ATOM     18  C   UNL     1      15.979  10.836  28.432  1.00  0.00     0.004 C 
ENDBRANCH  16  17
ENDBRANCH  15  16
ENDBRANCH  14  15
ENDBRANCH  13  14
ENDBRANCH  12  13
ENDBRANCH  10  11
ENDBRANCH   1  10
TORSDOF 13
ENDMDL
MODEL 9
REMARK VINA RESULT:    -3.869      5.067      8.393
REMARK INTER + INTRA:          -8.115
REMARK INTER:                  -5.954
REMARK INTRA:                  -2.161
REMARK UNBOUND:                -1.307
REMARK SMILES CCCCCCC=CCCCCCCCC(=O)[O-]
REMARK SMILES IDX 10 1 11 2 12 3 13 4 14 5 15 6 16 7 17 8 18 9 9 10 8 11 7 12
REMARK SMILES IDX 6 13 5 14 4 15 3 16 2 17 1 18
REMARK H PARENT
REMARK Flexibility Score: inf
ROOT
ATOM      1  C   UNL     1      16.745  13.742  31.190  1.00  0.00     0.004 C 
ENDROOT
BRANCH   1   2
ATOM      2  C   UNL     1      17.731  13.136  32.196  1.00  0.00     0.000 C 
BRANCH   2   3
ATOM      3  C   UNL     1      18.813  14.154  32.587  1.00  0.00     0.000 C 
BRANCH   3   4
ATOM      4  C   UNL     1      20.214  13.743  32.112  1.00  0.00     0.000 C 
BRANCH   4   5
ATOM      5  C   UNL     1      20.483  14.134  30.649  1.00  0.00     0.006 C 
BRANCH   5   6
ATOM      6  C   UNL     1      20.781  12.913  29.768  1.00  0.00     0.053 C 
BRANCH   6   7
ATOM      7  C   UNL     1      19.800  12.784  28.643  1.00  0.00     0.041 C 
ATOM      8  O   UNL     1      20.015  13.366  27.546  1.00  0.00    -0.550 OA
ATOM      9  O   UNL     1      18.665  11.998  28.794  1.00  0.00    -0.550 OA
ENDBRANCH   6   7
ENDBRANCH   5   6
ENDBRANCH   4   5
ENDBRANCH   3   4
ENDBRANCH   2   3
ENDBRANCH   1   2
BRANCH   1  10
ATOM     10  C   UNL     1      17.049  15.225  30.947  1.00  0.00     0.027 C 
BRANCH  10  11
ATOM     11  C   UNL     1      16.538  15.674  29.606  1.00  0.00    -0.031 C 
ATOM     12  C   UNL     1      16.927  15.076  28.470  1.00  0.00    -0.031 C 
BRANCH  12  13
ATOM     13  C   UNL     1      16.409  15.518  27.127  1.00  0.00     0.027 C 
BRANCH  13  14
ATOM     14  C   UNL     1      15.215  14.676  26.654  1.00  0.00     0.004 C 
BRANCH  14  15
ATOM     15  C   UNL     1      15.250  13.247  27.223  1.00  0.00     0.000 C 
BRANCH  15  16
ATOM     16  C   UNL     1      13.979  12.910  28.032  1.00  0.00    -0.000 C 
BRANCH  16  17
ATOM     17  C   UNL     1      13.270  14.148  28.606  1.00  0.00    -0.003 C 
ATOM     18  C   UNL     1      13.187  14.137  30.131  1.00  0.00     0.004 C 
ENDBRANCH  16  17
ENDBRANCH  15  16
ENDBRANCH  14  15
ENDBRANCH  13  14
ENDBRANCH  12  13
ENDBRANCH  10  11
ENDBRANCH   1  10
TORSDOF 13
ENDMDL
