MODEL 1
REMARK VINA RESULT:    -6.397      0.000      0.000
REMARK INTER + INTRA:          -7.615
REMARK INTER:                  -7.332
REMARK INTRA:                  -0.282
REMARK UNBOUND:                -0.282
REMARK SMILES O=C1C[C@@H](c2ccc(O)cc2)Oc2cc(O)cc(O)c21
REMARK SMILES IDX 3 1 4 2 12 3 13 4 14 5 15 6 17 7 18 8 20 9 2 10 1 11 5 12
REMARK SMILES IDX 6 13 11 14 7 15 10 16 8 17 9 18 19 20 16 22
REMARK H PARENT 9 19 19 21 16 23
REMARK Flexibility Score: inf
ROOT
ATOM      1  C   UNL     1      24.210  15.813   3.633  1.00  0.00     0.131 C 
ATOM      2  C   UNL     1      23.258  16.341   4.717  1.00  0.00     0.211 C 
ATOM      3  O   UNL     1      21.899  16.050   4.377  1.00  0.00    -0.484 OA
ATOM      4  C   UNL     1      21.510  14.840   3.787  1.00  0.00     0.138 A 
ATOM      5  C   UNL     1      20.152  14.516   3.739  1.00  0.00     0.093 A 
ATOM      6  C   UNL     1      19.733  13.312   3.173  1.00  0.00     0.123 A 
ATOM      7  C   UNL     1      20.676  12.438   2.623  1.00  0.00     0.093 A 
ATOM      8  C   UNL     1      22.039  12.759   2.624  1.00  0.00     0.133 A 
ATOM      9  C   UNL     1      22.473  13.962   3.243  1.00  0.00     0.102 A 
ATOM     10  C   UNL     1      23.894  14.372   3.363  1.00  0.00     0.174 C 
ATOM     11  O   UNL     1      24.834  13.536   3.298  1.00  0.00    -0.294 OA
ENDROOT
BRANCH   2  12
ATOM     12  C   UNL     1      23.438  17.826   4.907  1.00  0.00    -0.007 A 
ATOM     13  C   UNL     1      24.015  18.613   3.894  1.00  0.00     0.011 A 
ATOM     14  C   UNL     1      23.082  18.431   6.125  1.00  0.00     0.011 A 
ATOM     15  C   UNL     1      24.207  19.984   4.088  1.00  0.00     0.046 A 
ATOM     16  C   UNL     1      23.277  19.803   6.316  1.00  0.00     0.046 A 
ATOM     17  C   UNL     1      23.837  20.583   5.299  1.00  0.00     0.115 A 
BRANCH  17  18
ATOM     18  O   UNL     1      24.024  21.949   5.503  1.00  0.00    -0.508 OA
ATOM     19  H   UNL     1      23.386  22.634   5.118  1.00  0.00     0.293 HD
ENDBRANCH  17  18
ENDBRANCH   2  12
BRANCH   8  20
ATOM     20  O   UNL     1      22.906  11.878   1.975  1.00  0.00    -0.507 OA
ATOM     21  H   UNL     1      23.362  12.076   1.097  1.00  0.00     0.293 HD
ENDBRANCH   8  20
BRANCH   6  22
ATOM     22  O   UNL     1      18.376  12.996   3.155  1.00  0.00    -0.508 OA
ATOM     23  H   UNL     1      17.685  13.606   3.575  1.00  0.00     0.293 HD
ENDBRANCH   6  22
TORSDOF 4
ENDMDL
MODEL 2
REMARK VINA RESULT:    -5.795      1.644      6.532
REMARK INTER + INTRA:          -6.924
REMARK INTER:                  -6.617
REMARK INTRA:                  -0.307
REMARK UNBOUND:                -0.282
REMARK SMILES O=C1C[C@@H](c2ccc(O)cc2)Oc2cc(O)cc(O)c21
REMARK SMILES IDX 3 1 4 2 12 3 13 4 14 5 15 6 17 7 18 8 20 9 2 10 1 11 5 12
REMARK SMILES IDX 6 13 11 14 7 15 10 16 8 17 9 18 19 20 16 22
REMARK H PARENT 9 19 19 21 16 23
REMARK Flexibility Score: inf
ROOT
ATOM      1  C   UNL     1      22.852  14.561   3.396  1.00  0.00     0.131 C 
ATOM      2  C   UNL     1      21.545  15.284   3.039  1.00  0.00     0.211 C 
ATOM      3  O   UNL     1      21.283  16.339   3.968  1.00  0.00    -0.484 OA
ATOM      4  C   UNL     1      22.294  17.166   4.476  1.00  0.00     0.138 A 
ATOM      5  C   UNL     1      21.937  18.336   5.152  1.00  0.00     0.093 A 
ATOM      6  C   UNL     1      22.919  19.187   5.656  1.00  0.00     0.123 A 
ATOM      7  C   UNL     1      24.269  18.853   5.511  1.00  0.00     0.093 A 
ATOM      8  C   UNL     1      24.651  17.666   4.873  1.00  0.00     0.133 A 
ATOM      9  C   UNL     1      23.654  16.821   4.316  1.00  0.00     0.102 A 
ATOM     10  C   UNL     1      23.944  15.577   3.561  1.00  0.00     0.174 C 
ATOM     11  O   UNL     1      25.059  15.378   3.012  1.00  0.00    -0.294 OA
ENDROOT
BRANCH   2  12
ATOM     12  C   UNL     1      20.389  14.314   3.017  1.00  0.00    -0.007 A 
ATOM     13  C   UNL     1      20.172  13.485   1.902  1.00  0.00     0.011 A 
ATOM     14  C   UNL     1      19.482  14.270   4.090  1.00  0.00     0.011 A 
ATOM     15  C   UNL     1      19.082  12.609   1.875  1.00  0.00     0.046 A 
ATOM     16  C   UNL     1      18.393  13.394   4.059  1.00  0.00     0.046 A 
ATOM     17  C   UNL     1      18.190  12.561   2.955  1.00  0.00     0.115 A 
BRANCH  17  18
ATOM     18  O   UNL     1      17.100  11.693   2.938  1.00  0.00    -0.508 OA
ATOM     19  H   UNL     1      16.154  12.030   3.065  1.00  0.00     0.293 HD
ENDBRANCH  17  18
ENDBRANCH   2  12
BRANCH   8  20
ATOM     20  O   UNL     1      26.013  17.360   4.850  1.00  0.00    -0.507 OA
ATOM     21  H   UNL     1      26.381  16.421   4.827  1.00  0.00     0.293 HD
ENDBRANCH   8  20
BRANCH   6  22
ATOM     22  O   UNL     1      22.544  20.361   6.307  1.00  0.00    -0.508 OA
ATOM     23  H   UNL     1      21.972  20.343   7.142  1.00  0.00     0.293 HD
ENDBRANCH   6  22
TORSDOF 4
ENDMDL
MODEL 3
REMARK VINA RESULT:    -5.751      1.404      2.990
REMARK INTER + INTRA:          -6.874
REMARK INTER:                  -6.589
REMARK INTRA:                  -0.285
REMARK UNBOUND:                -0.282
REMARK SMILES O=C1C[C@@H](c2ccc(O)cc2)Oc2cc(O)cc(O)c21
REMARK SMILES IDX 3 1 4 2 12 3 13 4 14 5 15 6 17 7 18 8 20 9 2 10 1 11 5 12
REMARK SMILES IDX 6 13 11 14 7 15 10 16 8 17 9 18 19 20 16 22
REMARK H PARENT 9 19 19 21 16 23
REMARK Flexibility Score: inf
ROOT
ATOM      1  C   UNL     1      21.557  16.053   4.009  1.00  0.00     0.131 C 
ATOM      2  C   UNL     1      22.701  16.753   3.261  1.00  0.00     0.211 C 
ATOM      3  O   UNL     1      23.844  15.896   3.175  1.00  0.00    -0.484 OA
ATOM      4  C   UNL     1      23.739  14.519   2.937  1.00  0.00     0.138 A 
ATOM      5  C   UNL     1      24.888  13.802   2.592  1.00  0.00     0.093 A 
ATOM      6  C   UNL     1      24.814  12.433   2.334  1.00  0.00     0.123 A 
ATOM      7  C   UNL     1      23.589  11.769   2.452  1.00  0.00     0.093 A 
ATOM      8  C   UNL     1      22.432  12.459   2.835  1.00  0.00     0.133 A 
ATOM      9  C   UNL     1      22.494  13.861   3.051  1.00  0.00     0.102 A 
ATOM     10  C   UNL     1      21.322  14.705   3.393  1.00  0.00     0.174 C 
ATOM     11  O   UNL     1      20.145  14.342   3.132  1.00  0.00    -0.294 OA
ENDROOT
BRANCH   2  12
ATOM     12  C   UNL     1      23.073  18.045   3.945  1.00  0.00    -0.007 A 
ATOM     13  C   UNL     1      23.852  19.008   3.280  1.00  0.00     0.011 A 
ATOM     14  C   UNL     1      22.690  18.275   5.278  1.00  0.00     0.011 A 
ATOM     15  C   UNL     1      24.219  20.191   3.930  1.00  0.00     0.046 A 
ATOM     16  C   UNL     1      23.060  19.458   5.925  1.00  0.00     0.046 A 
ATOM     17  C   UNL     1      23.822  20.420   5.253  1.00  0.00     0.115 A 
BRANCH  17  18
ATOM     18  O   UNL     1      24.182  21.595   5.910  1.00  0.00    -0.508 OA
ATOM     19  H   UNL     1      24.082  21.692   6.913  1.00  0.00     0.293 HD
ENDBRANCH  17  18
ENDBRANCH   2  12
BRANCH   8  20
ATOM     20  O   UNL     1      21.269  11.708   3.019  1.00  0.00    -0.507 OA
ATOM     21  H   UNL     1      20.974  10.964   2.405  1.00  0.00     0.293 HD
ENDBRANCH   8  20
BRANCH   6  22
ATOM     22  O   UNL     1      25.966  11.740   1.969  1.00  0.00    -0.508 OA
ATOM     23  H   UNL     1      26.570  12.071   1.226  1.00  0.00     0.293 HD
ENDBRANCH   6  22
TORSDOF 4
ENDMDL
MODEL 4
REMARK VINA RESULT:    -5.601      2.767      5.271
REMARK INTER + INTRA:          -6.702
REMARK INTER:                  -6.395
REMARK INTRA:                  -0.307
REMARK UNBOUND:                -0.282
REMARK SMILES O=C1C[C@@H](c2ccc(O)cc2)Oc2cc(O)cc(O)c21
REMARK SMILES IDX 3 1 4 2 12 3 13 4 14 5 15 6 17 7 18 8 20 9 2 10 1 11 5 12
REMARK SMILES IDX 6 13 11 14 7 15 10 16 8 17 9 18 19 20 16 22
REMARK H PARENT 9 19 19 21 16 23
REMARK Flexibility Score: inf
ROOT
ATOM      1  C   UNL     1      21.135  14.370   3.670  1.00  0.00     0.131 C 
ATOM      2  C   UNL     1      20.641  15.754   3.224  1.00  0.00     0.211 C 
ATOM      3  O   UNL     1      21.717  16.697   3.224  1.00  0.00    -0.484 OA
ATOM      4  C   UNL     1      23.010  16.367   2.798  1.00  0.00     0.138 A 
ATOM      5  C   UNL     1      23.929  17.393   2.565  1.00  0.00     0.093 A 
ATOM      6  C   UNL     1      25.219  17.099   2.125  1.00  0.00     0.123 A 
ATOM      7  C   UNL     1      25.605  15.767   1.946  1.00  0.00     0.093 A 
ATOM      8  C   UNL     1      24.714  14.719   2.212  1.00  0.00     0.133 A 
ATOM      9  C   UNL     1      23.385  15.018   2.614  1.00  0.00     0.102 A 
ATOM     10  C   UNL     1      22.338  13.994   2.856  1.00  0.00     0.174 C 
ATOM     11  O   UNL     1      22.407  12.841   2.354  1.00  0.00    -0.294 OA
ENDROOT
BRANCH   2  12
ATOM     12  C   UNL     1      19.528  16.237   4.122  1.00  0.00    -0.007 A 
ATOM     13  C   UNL     1      18.782  15.326   4.891  1.00  0.00     0.011 A 
ATOM     14  C   UNL     1      19.189  17.601   4.156  1.00  0.00     0.011 A 
ATOM     15  C   UNL     1      17.733  15.775   5.698  1.00  0.00     0.046 A 
ATOM     16  C   UNL     1      18.138  18.046   4.964  1.00  0.00     0.046 A 
ATOM     17  C   UNL     1      17.410  17.138   5.738  1.00  0.00     0.115 A 
BRANCH  17  18
ATOM     18  O   UNL     1      16.365  17.597   6.539  1.00  0.00    -0.508 OA
ATOM     19  H   UNL     1      16.020  17.054   7.320  1.00  0.00     0.293 HD
ENDBRANCH  17  18
ENDBRANCH   2  12
BRANCH   8  20
ATOM     20  O   UNL     1      25.204  13.416   2.097  1.00  0.00    -0.507 OA
ATOM     21  H   UNL     1      25.484  12.993   1.225  1.00  0.00     0.293 HD
ENDBRANCH   8  20
BRANCH   6  22
ATOM     22  O   UNL     1      26.114  18.138   1.875  1.00  0.00    -0.508 OA
ATOM     23  H   UNL     1      25.827  19.108   1.929  1.00  0.00     0.293 HD
ENDBRANCH   6  22
TORSDOF 4
ENDMDL
MODEL 5
REMARK VINA RESULT:    -5.360      1.259      3.025
REMARK INTER + INTRA:          -6.426
REMARK INTER:                  -6.129
REMARK INTRA:                  -0.297
REMARK UNBOUND:                -0.282
REMARK SMILES O=C1C[C@@H](c2ccc(O)cc2)Oc2cc(O)cc(O)c21
REMARK SMILES IDX 3 1 4 2 12 3 13 4 14 5 15 6 17 7 18 8 20 9 2 10 1 11 5 12
REMARK SMILES IDX 6 13 11 14 7 15 10 16 8 17 9 18 19 20 16 22
REMARK H PARENT 9 19 19 21 16 23
REMARK Flexibility Score: inf
ROOT
ATOM      1  C   UNL     1      20.514  16.636   4.864  1.00  0.00     0.131 C 
ATOM      2  C   UNL     1      21.557  17.073   3.825  1.00  0.00     0.211 C 
ATOM      3  O   UNL     1      22.406  15.977   3.474  1.00  0.00    -0.484 OA
ATOM      4  C   UNL     1      21.926  14.670   3.314  1.00  0.00     0.138 A 
ATOM      5  C   UNL     1      22.747  13.716   2.707  1.00  0.00     0.093 A 
ATOM      6  C   UNL     1      22.293  12.411   2.519  1.00  0.00     0.123 A 
ATOM      7  C   UNL     1      21.020  12.047   2.969  1.00  0.00     0.093 A 
ATOM      8  C   UNL     1      20.194  12.975   3.616  1.00  0.00     0.133 A 
ATOM      9  C   UNL     1      20.635  14.317   3.765  1.00  0.00     0.102 A 
ATOM     10  C   UNL     1      19.821  15.399   4.372  1.00  0.00     0.174 C 
ATOM     11  O   UNL     1      18.565  15.330   4.435  1.00  0.00    -0.294 OA
ENDROOT
BRANCH   2  12
ATOM     12  C   UNL     1      22.383  18.221   4.350  1.00  0.00    -0.007 A 
ATOM     13  C   UNL     1      22.070  18.823   5.582  1.00  0.00     0.011 A 
ATOM     14  C   UNL     1      23.443  18.738   3.585  1.00  0.00     0.011 A 
ATOM     15  C   UNL     1      22.821  19.906   6.049  1.00  0.00     0.046 A 
ATOM     16  C   UNL     1      24.191  19.822   4.055  1.00  0.00     0.046 A 
ATOM     17  C   UNL     1      23.885  20.407   5.288  1.00  0.00     0.115 A 
BRANCH  17  18
ATOM     18  O   UNL     1      24.639  21.486   5.744  1.00  0.00    -0.508 OA
ATOM     19  H   UNL     1      25.649  21.490   5.680  1.00  0.00     0.293 HD
ENDBRANCH  17  18
ENDBRANCH   2  12
BRANCH   8  20
ATOM     20  O   UNL     1      18.976  12.511   4.117  1.00  0.00    -0.507 OA
ATOM     21  H   UNL     1      18.076  12.772   3.744  1.00  0.00     0.293 HD
ENDBRANCH   8  20
BRANCH   6  22
ATOM     22  O   UNL     1      23.117  11.480   1.890  1.00  0.00    -0.508 OA
ATOM     23  H   UNL     1      23.045  11.294   0.897  1.00  0.00     0.293 HD
ENDBRANCH   6  22
TORSDOF 4
ENDMDL
MODEL 6
REMARK VINA RESULT:    -5.241      3.973      7.968
REMARK INTER + INTRA:          -6.289
REMARK INTER:                  -5.978
REMARK INTRA:                  -0.311
REMARK UNBOUND:                -0.282
REMARK SMILES O=C1C[C@@H](c2ccc(O)cc2)Oc2cc(O)cc(O)c21
REMARK SMILES IDX 3 1 4 2 12 3 13 4 14 5 15 6 17 7 18 8 20 9 2 10 1 11 5 12
REMARK SMILES IDX 6 13 11 14 7 15 10 16 8 17 9 18 19 20 16 22
REMARK H PARENT 9 19 19 21 16 23
REMARK Flexibility Score: inf
ROOT
ATOM      1  C   UNL     1      24.792  19.726   7.799  1.00  0.00     0.131 C 
ATOM      2  C   UNL     1      23.380  19.752   7.196  1.00  0.00     0.211 C 
ATOM      3  O   UNL     1      22.420  19.273   8.142  1.00  0.00    -0.484 OA
ATOM      4  C   UNL     1      22.485  19.584   9.507  1.00  0.00     0.138 A 
ATOM      5  C   UNL     1      21.376  19.319  10.315  1.00  0.00     0.093 A 
ATOM      6  C   UNL     1      21.403  19.632  11.674  1.00  0.00     0.123 A 
ATOM      7  C   UNL     1      22.557  20.186  12.237  1.00  0.00     0.093 A 
ATOM      8  C   UNL     1      23.694  20.424  11.455  1.00  0.00     0.133 A 
ATOM      9  C   UNL     1      23.653  20.152  10.061  1.00  0.00     0.102 A 
ATOM     10  C   UNL     1      24.771  20.428   9.125  1.00  0.00     0.174 C 
ATOM     11  O   UNL     1      25.668  21.270   9.391  1.00  0.00    -0.294 OA
ENDROOT
BRANCH   2  12
ATOM     12  C   UNL     1      23.323  18.923   5.936  1.00  0.00    -0.007 A 
ATOM     13  C   UNL     1      22.697  17.664   5.935  1.00  0.00     0.011 A 
ATOM     14  C   UNL     1      23.947  19.378   4.762  1.00  0.00     0.011 A 
ATOM     15  C   UNL     1      22.674  16.887   4.773  1.00  0.00     0.046 A 
ATOM     16  C   UNL     1      23.923  18.598   3.601  1.00  0.00     0.046 A 
ATOM     17  C   UNL     1      23.285  17.354   3.602  1.00  0.00     0.115 A 
BRANCH  17  18
ATOM     18  O   UNL     1      23.269  16.588   2.438  1.00  0.00    -0.508 OA
ATOM     19  H   UNL     1      22.411  16.181   2.085  1.00  0.00     0.293 HD
ENDBRANCH  17  18
ENDBRANCH   2  12
BRANCH   8  20
ATOM     20  O   UNL     1      24.835  20.894  12.108  1.00  0.00    -0.507 OA
ATOM     21  H   UNL     1      24.865  21.143  13.085  1.00  0.00     0.293 HD
ENDBRANCH   8  20
BRANCH   6  22
ATOM     22  O   UNL     1      20.280  19.380  12.459  1.00  0.00    -0.508 OA
ATOM     23  H   UNL     1      20.363  19.114  13.433  1.00  0.00     0.293 HD
ENDBRANCH   6  22
TORSDOF 4
ENDMDL
MODEL 7
REMARK VINA RESULT:    -5.237      2.234      3.878
REMARK INTER + INTRA:          -6.285
REMARK INTER:                  -5.993
REMARK INTRA:                  -0.292
REMARK UNBOUND:                -0.282
REMARK SMILES O=C1C[C@@H](c2ccc(O)cc2)Oc2cc(O)cc(O)c21
REMARK SMILES IDX 3 1 4 2 12 3 13 4 14 5 15 6 17 7 18 8 20 9 2 10 1 11 5 12
REMARK SMILES IDX 6 13 11 14 7 15 10 16 8 17 9 18 19 20 16 22
REMARK H PARENT 9 19 19 21 16 23
REMARK Flexibility Score: inf
ROOT
ATOM      1  C   UNL     1      22.021  17.716   5.204  1.00  0.00     0.131 C 
ATOM      2  C   UNL     1      23.425  18.318   5.050  1.00  0.00     0.211 C 
ATOM      3  O   UNL     1      24.371  17.305   4.697  1.00  0.00    -0.484 OA
ATOM      4  C   UNL     1      24.071  16.271   3.800  1.00  0.00     0.138 A 
ATOM      5  C   UNL     1      25.114  15.490   3.294  1.00  0.00     0.093 A 
ATOM      6  C   UNL     1      24.850  14.464   2.387  1.00  0.00     0.123 A 
ATOM      7  C   UNL     1      23.532  14.195   2.007  1.00  0.00     0.093 A 
ATOM      8  C   UNL     1      22.467  14.938   2.531  1.00  0.00     0.133 A 
ATOM      9  C   UNL     1      22.736  16.015   3.417  1.00  0.00     0.102 A 
ATOM     10  C   UNL     1      21.696  16.911   3.980  1.00  0.00     0.174 C 
ATOM     11  O   UNL     1      20.573  17.054   3.429  1.00  0.00    -0.294 OA
ENDROOT
BRANCH   2  12
ATOM     12  C   UNL     1      23.853  19.006   6.323  1.00  0.00    -0.007 A 
ATOM     13  C   UNL     1      23.018  18.998   7.456  1.00  0.00     0.011 A 
ATOM     14  C   UNL     1      25.068  19.710   6.373  1.00  0.00     0.011 A 
ATOM     15  C   UNL     1      23.406  19.662   8.623  1.00  0.00     0.046 A 
ATOM     16  C   UNL     1      25.452  20.373   7.543  1.00  0.00     0.046 A 
ATOM     17  C   UNL     1      24.626  20.350   8.670  1.00  0.00     0.115 A 
BRANCH  17  18
ATOM     18  O   UNL     1      25.022  21.015   9.829  1.00  0.00    -0.508 OA
ATOM     19  H   UNL     1      25.024  22.026   9.883  1.00  0.00     0.293 HD
ENDBRANCH  17  18
ENDBRANCH   2  12
BRANCH   8  20
ATOM     20  O   UNL     1      21.174  14.549   2.172  1.00  0.00    -0.507 OA
ATOM     21  H   UNL     1      20.924  13.613   1.889  1.00  0.00     0.293 HD
ENDBRANCH   8  20
BRANCH   6  22
ATOM     22  O   UNL     1      25.905  13.711   1.875  1.00  0.00    -0.508 OA
ATOM     23  H   UNL     1      25.760  13.022   1.148  1.00  0.00     0.293 HD
ENDBRANCH   6  22
TORSDOF 4
ENDMDL
MODEL 8
REMARK VINA RESULT:    -4.897      5.852      9.208
REMARK INTER + INTRA:          -5.895
REMARK INTER:                  -5.579
REMARK INTRA:                  -0.316
REMARK UNBOUND:                -0.282
REMARK SMILES O=C1C[C@@H](c2ccc(O)cc2)Oc2cc(O)cc(O)c21
REMARK SMILES IDX 3 1 4 2 12 3 13 4 14 5 15 6 17 7 18 8 20 9 2 10 1 11 5 12
REMARK SMILES IDX 6 13 11 14 7 15 10 16 8 17 9 18 19 20 16 22
REMARK H PARENT 9 19 19 21 16 23
REMARK Flexibility Score: inf
ROOT
ATOM      1  C   UNL     1      22.232  20.435  11.775  1.00  0.00     0.131 C 
ATOM      2  C   UNL     1      21.536  19.198  11.188  1.00  0.00     0.211 C 
ATOM      3  O   UNL     1      21.672  19.173   9.764  1.00  0.00    -0.484 OA
ATOM      4  C   UNL     1      22.852  19.552   9.111  1.00  0.00     0.138 A 
ATOM      5  C   UNL     1      23.006  19.242   7.757  1.00  0.00     0.093 A 
ATOM      6  C   UNL     1      24.175  19.592   7.082  1.00  0.00     0.123 A 
ATOM      7  C   UNL     1      25.186  20.284   7.756  1.00  0.00     0.093 A 
ATOM      8  C   UNL     1      25.037  20.641   9.102  1.00  0.00     0.133 A 
ATOM      9  C   UNL     1      23.869  20.244   9.805  1.00  0.00     0.102 A 
ATOM     10  C   UNL     1      23.634  20.506  11.247  1.00  0.00     0.174 C 
ATOM     11  O   UNL     1      24.583  20.732  12.044  1.00  0.00    -0.294 OA
ENDROOT
BRANCH   2  12
ATOM     12  C   UNL     1      20.077  19.175  11.571  1.00  0.00    -0.007 A 
ATOM     13  C   UNL     1      19.078  19.174  10.581  1.00  0.00     0.011 A 
ATOM     14  C   UNL     1      19.700  19.212  12.924  1.00  0.00     0.011 A 
ATOM     15  C   UNL     1      17.727  19.183  10.942  1.00  0.00     0.046 A 
ATOM     16  C   UNL     1      18.348  19.222  13.281  1.00  0.00     0.046 A 
ATOM     17  C   UNL     1      17.359  19.205  12.293  1.00  0.00     0.115 A 
BRANCH  17  18
ATOM     18  O   UNL     1      16.016  19.214  12.663  1.00  0.00    -0.508 OA
ATOM     19  H   UNL     1      15.499  20.080  12.756  1.00  0.00     0.293 HD
ENDBRANCH  17  18
ENDBRANCH   2  12
BRANCH   8  20
ATOM     20  O   UNL     1      26.051  21.410   9.677  1.00  0.00    -0.507 OA
ATOM     21  H   UNL     1      26.302  22.337   9.369  1.00  0.00     0.293 HD
ENDBRANCH   8  20
BRANCH   6  22
ATOM     22  O   UNL     1      24.320  19.254   5.738  1.00  0.00    -0.508 OA
ATOM     23  H   UNL     1      23.698  19.624   5.029  1.00  0.00     0.293 HD
ENDBRANCH   6  22
TORSDOF 4
ENDMDL
MODEL 9
REMARK VINA RESULT:    -4.871      1.675      6.870
REMARK INTER + INTRA:          -5.866
REMARK INTER:                  -5.580
REMARK INTRA:                  -0.285
REMARK UNBOUND:                -0.282
REMARK SMILES O=C1C[C@@H](c2ccc(O)cc2)Oc2cc(O)cc(O)c21
REMARK SMILES IDX 3 1 4 2 12 3 13 4 14 5 15 6 17 7 18 8 20 9 2 10 1 11 5 12
REMARK SMILES IDX 6 13 11 14 7 15 10 16 8 17 9 18 19 20 16 22
REMARK H PARENT 9 19 19 21 16 23
REMARK Flexibility Score: inf
ROOT
ATOM      1  C   UNL     1      23.753  17.328   2.886  1.00  0.00     0.131 C 
ATOM      2  C   UNL     1      22.589  16.637   3.611  1.00  0.00     0.211 C 
ATOM      3  O   UNL     1      22.638  16.909   5.015  1.00  0.00    -0.484 OA
ATOM      4  C   UNL     1      22.992  18.163   5.529  1.00  0.00     0.138 A 
ATOM      5  C   UNL     1      22.752  18.434   6.879  1.00  0.00     0.093 A 
ATOM      6  C   UNL     1      23.078  19.678   7.418  1.00  0.00     0.123 A 
ATOM      7  C   UNL     1      23.677  20.650   6.610  1.00  0.00     0.093 A 
ATOM      8  C   UNL     1      23.964  20.388   5.264  1.00  0.00     0.133 A 
ATOM      9  C   UNL     1      23.588  19.139   4.700  1.00  0.00     0.102 A 
ATOM     10  C   UNL     1      23.779  18.777   3.274  1.00  0.00     0.174 C 
ATOM     11  O   UNL     1      23.909  19.653   2.378  1.00  0.00    -0.294 OA
ENDROOT
BRANCH   2  12
ATOM     12  C   UNL     1      22.621  15.148   3.370  1.00  0.00    -0.007 A 
ATOM     13  C   UNL     1      23.824  14.429   3.489  1.00  0.00     0.011 A 
ATOM     14  C   UNL     1      21.455  14.471   2.969  1.00  0.00     0.011 A 
ATOM     15  C   UNL     1      23.853  13.054   3.235  1.00  0.00     0.046 A 
ATOM     16  C   UNL     1      21.489  13.096   2.715  1.00  0.00     0.046 A 
ATOM     17  C   UNL     1      22.685  12.384   2.850  1.00  0.00     0.115 A 
BRANCH  17  18
ATOM     18  O   UNL     1      22.703  11.014   2.594  1.00  0.00    -0.508 OA
ATOM     19  H   UNL     1      23.524  10.452   2.780  1.00  0.00     0.293 HD
ENDBRANCH  17  18
ENDBRANCH   2  12
BRANCH   8  20
ATOM     20  O   UNL     1      24.644  21.375   4.549  1.00  0.00    -0.507 OA
ATOM     21  H   UNL     1      24.202  22.189   4.148  1.00  0.00     0.293 HD
ENDBRANCH   8  20
BRANCH   6  22
ATOM     22  O   UNL     1      22.810  19.937   8.760  1.00  0.00    -0.508 OA
ATOM     23  H   UNL     1      23.532  19.865   9.467  1.00  0.00     0.293 HD
ENDBRANCH   6  22
TORSDOF 4
ENDMDL
