MODEL 1
REMARK VINA RESULT:    -5.639      0.000      0.000
REMARK INTER + INTRA:          -6.415
REMARK INTER:                  -6.133
REMARK INTRA:                  -0.281
REMARK UNBOUND:                -0.281
REMARK SMILES CC(=O)c1cc(C)ccc1O
REMARK SMILES IDX 7 1 6 2 5 3 4 4 10 5 9 6 8 7 2 8 3 9 1 10 11 11
REMARK H PARENT 11 12
REMARK Flexibility Score: inf
ROOT
ATOM      1  C   UNL     1      -0.285  29.628  57.489  1.00  0.00     0.044 C 
ATOM      2  C   UNL     1       0.937  29.149  56.762  1.00  0.00    -0.050 A 
ATOM      3  C   UNL     1       1.980  28.529  57.464  1.00  0.00     0.019 A 
ATOM      4  C   UNL     1       3.122  28.050  56.794  1.00  0.00     0.059 A 
ATOM      5  C   UNL     1       3.185  28.168  55.385  1.00  0.00     0.126 A 
ATOM      6  C   UNL     1       2.133  28.778  54.688  1.00  0.00     0.047 A 
ATOM      7  C   UNL     1       1.015  29.260  55.368  1.00  0.00     0.007 A 
ENDROOT
BRANCH   4   8
ATOM      8  C   UNL     1       4.209  27.421  57.591  1.00  0.00     0.163 C 
ATOM      9  O   UNL     1       5.400  27.503  57.185  1.00  0.00    -0.294 OA
ATOM     10  C   UNL     1       3.945  26.684  58.870  1.00  0.00     0.093 C 
ENDBRANCH   4   8
BRANCH   5  11
ATOM     11  O   UNL     1       4.271  27.663  54.672  1.00  0.00    -0.507 OA
ATOM     12  H   UNL     1       4.179  26.869  54.051  1.00  0.00     0.293 HD
ENDBRANCH   5  11
TORSDOF 2
ENDMDL
MODEL 2
REMARK VINA RESULT:    -5.233      1.764      3.738
REMARK INTER + INTRA:          -5.973
REMARK INTER:                  -5.702
REMARK INTRA:                  -0.271
REMARK UNBOUND:                -0.281
REMARK SMILES CC(=O)c1cc(C)ccc1O
REMARK SMILES IDX 7 1 6 2 5 3 4 4 10 5 9 6 8 7 2 8 3 9 1 10 11 11
REMARK H PARENT 11 12
REMARK Flexibility Score: inf
ROOT
ATOM      1  C   UNL     1       4.288  26.954  58.754  1.00  0.00     0.044 C 
ATOM      2  C   UNL     1       3.766  27.540  57.475  1.00  0.00    -0.050 A 
ATOM      3  C   UNL     1       2.464  28.058  57.415  1.00  0.00     0.019 A 
ATOM      4  C   UNL     1       1.968  28.636  56.231  1.00  0.00     0.059 A 
ATOM      5  C   UNL     1       2.820  28.722  55.104  1.00  0.00     0.126 A 
ATOM      6  C   UNL     1       4.124  28.214  55.175  1.00  0.00     0.047 A 
ATOM      7  C   UNL     1       4.597  27.632  56.352  1.00  0.00     0.007 A 
ENDROOT
BRANCH   4   8
ATOM      8  C   UNL     1       0.572  29.149  56.216  1.00  0.00     0.163 C 
ATOM      9  O   UNL     1      -0.053  29.210  55.121  1.00  0.00    -0.294 OA
ATOM     10  C   UNL     1      -0.131  29.604  57.459  1.00  0.00     0.093 C 
ENDBRANCH   4   8
BRANCH   5  11
ATOM     11  O   UNL     1       2.391  29.332  53.926  1.00  0.00    -0.507 OA
ATOM     12  H   UNL     1       2.756  30.226  53.624  1.00  0.00     0.293 HD
ENDBRANCH   5  11
TORSDOF 2
ENDMDL
MODEL 3
REMARK VINA RESULT:    -4.892      1.399      3.080
REMARK INTER + INTRA:          -5.602
REMARK INTER:                  -5.305
REMARK INTRA:                  -0.297
REMARK UNBOUND:                -0.281
REMARK SMILES CC(=O)c1cc(C)ccc1O
REMARK SMILES IDX 7 1 6 2 5 3 4 4 10 5 9 6 8 7 2 8 3 9 1 10 11 11
REMARK H PARENT 11 12
REMARK Flexibility Score: inf
ROOT
ATOM      1  C   UNL     1       0.408  28.925  57.137  1.00  0.00     0.044 C 
ATOM      2  C   UNL     1       1.837  28.495  56.983  1.00  0.00    -0.050 A 
ATOM      3  C   UNL     1       2.578  28.896  55.862  1.00  0.00     0.019 A 
ATOM      4  C   UNL     1       3.929  28.524  55.715  1.00  0.00     0.059 A 
ATOM      5  C   UNL     1       4.543  27.766  56.740  1.00  0.00     0.126 A 
ATOM      6  C   UNL     1       3.799  27.379  57.863  1.00  0.00     0.047 A 
ATOM      7  C   UNL     1       2.459  27.744  57.988  1.00  0.00     0.007 A 
ENDROOT
BRANCH   4   8
ATOM      8  C   UNL     1       4.661  28.959  54.495  1.00  0.00     0.163 C 
ATOM      9  O   UNL     1       5.694  29.674  54.616  1.00  0.00    -0.294 OA
ATOM     10  C   UNL     1       4.220  28.579  53.114  1.00  0.00     0.093 C 
ENDBRANCH   4   8
BRANCH   5  11
ATOM     11  O   UNL     1       5.890  27.418  56.663  1.00  0.00    -0.507 OA
ATOM     12  H   UNL     1       6.209  26.634  56.106  1.00  0.00     0.293 HD
ENDBRANCH   5  11
TORSDOF 2
ENDMDL
MODEL 4
REMARK VINA RESULT:    -4.717      1.752      3.575
REMARK INTER + INTRA:          -5.412
REMARK INTER:                  -5.127
REMARK INTRA:                  -0.285
REMARK UNBOUND:                -0.281
REMARK SMILES CC(=O)c1cc(C)ccc1O
REMARK SMILES IDX 7 1 6 2 5 3 4 4 10 5 9 6 8 7 2 8 3 9 1 10 11 11
REMARK H PARENT 11 12
REMARK Flexibility Score: inf
ROOT
ATOM      1  C   UNL     1       4.088  26.999  58.642  1.00  0.00     0.044 C 
ATOM      2  C   UNL     1       3.445  27.724  57.496  1.00  0.00    -0.050 A 
ATOM      3  C   UNL     1       4.182  28.010  56.338  1.00  0.00     0.019 A 
ATOM      4  C   UNL     1       3.587  28.665  55.243  1.00  0.00     0.059 A 
ATOM      5  C   UNL     1       2.213  28.999  55.312  1.00  0.00     0.126 A 
ATOM      6  C   UNL     1       1.479  28.699  56.468  1.00  0.00     0.047 A 
ATOM      7  C   UNL     1       2.087  28.061  57.550  1.00  0.00     0.007 A 
ENDROOT
BRANCH   4   8
ATOM      8  C   UNL     1       4.421  28.965  54.049  1.00  0.00     0.163 C 
ATOM      9  O   UNL     1       4.140  28.420  52.946  1.00  0.00    -0.294 OA
ATOM     10  C   UNL     1       5.594  29.896  54.100  1.00  0.00     0.093 C 
ENDBRANCH   4   8
BRANCH   5  11
ATOM     11  O   UNL     1       1.567  29.602  54.234  1.00  0.00    -0.507 OA
ATOM     12  H   UNL     1       0.575  29.801  54.249  1.00  0.00     0.293 HD
ENDBRANCH   5  11
TORSDOF 2
ENDMDL
MODEL 5
REMARK VINA RESULT:    -4.532      9.153     10.957
REMARK INTER + INTRA:          -5.210
REMARK INTER:                  -4.936
REMARK INTRA:                  -0.275
REMARK UNBOUND:                -0.281
REMARK SMILES CC(=O)c1cc(C)ccc1O
REMARK SMILES IDX 7 1 6 2 5 3 4 4 10 5 9 6 8 7 2 8 3 9 1 10 11 11
REMARK H PARENT 11 12
REMARK Flexibility Score: inf
ROOT
ATOM      1  C   UNL     1      -4.099  31.503  60.123  1.00  0.00     0.044 C 
ATOM      2  C   UNL     1      -5.214  30.951  59.285  1.00  0.00    -0.050 A 
ATOM      3  C   UNL     1      -6.400  31.680  59.117  1.00  0.00     0.019 A 
ATOM      4  C   UNL     1      -7.446  31.189  58.313  1.00  0.00     0.059 A 
ATOM      5  C   UNL     1      -7.267  29.958  57.639  1.00  0.00     0.126 A 
ATOM      6  C   UNL     1      -6.074  29.240  57.801  1.00  0.00     0.047 A 
ATOM      7  C   UNL     1      -5.053  29.733  58.612  1.00  0.00     0.007 A 
ENDROOT
BRANCH   4   8
ATOM      8  C   UNL     1      -8.691  31.994  58.188  1.00  0.00     0.163 C 
ATOM      9  O   UNL     1      -8.991  32.499  57.072  1.00  0.00    -0.294 OA
ATOM     10  C   UNL     1      -9.613  32.232  59.345  1.00  0.00     0.093 C 
ENDBRANCH   4   8
BRANCH   5  11
ATOM     11  O   UNL     1      -8.253  29.456  56.791  1.00  0.00    -0.507 OA
ATOM     12  H   UNL     1      -8.426  28.462  56.702  1.00  0.00     0.293 HD
ENDBRANCH   5  11
TORSDOF 2
ENDMDL
MODEL 6
REMARK VINA RESULT:    -4.476      8.955     10.435
REMARK INTER + INTRA:          -5.150
REMARK INTER:                  -4.912
REMARK INTRA:                  -0.238
REMARK UNBOUND:                -0.281
REMARK SMILES CC(=O)c1cc(C)ccc1O
REMARK SMILES IDX 7 1 6 2 5 3 4 4 10 5 9 6 8 7 2 8 3 9 1 10 11 11
REMARK H PARENT 11 12
REMARK Flexibility Score: inf
ROOT
ATOM      1  C   UNL     1      -4.410  31.131  59.769  1.00  0.00     0.044 C 
ATOM      2  C   UNL     1      -5.661  30.911  58.972  1.00  0.00    -0.050 A 
ATOM      3  C   UNL     1      -5.864  29.699  58.295  1.00  0.00     0.019 A 
ATOM      4  C   UNL     1      -7.044  29.466  57.563  1.00  0.00     0.059 A 
ATOM      5  C   UNL     1      -8.048  30.463  57.552  1.00  0.00     0.126 A 
ATOM      6  C   UNL     1      -7.844  31.667  58.241  1.00  0.00     0.047 A 
ATOM      7  C   UNL     1      -6.663  31.888  58.951  1.00  0.00     0.007 A 
ENDROOT
BRANCH   4   8
ATOM      8  C   UNL     1      -7.197  28.172  56.845  1.00  0.00     0.163 C 
ATOM      9  O   UNL     1      -7.163  28.157  55.584  1.00  0.00    -0.294 OA
ATOM     10  C   UNL     1      -7.393  26.872  57.565  1.00  0.00     0.093 C 
ENDBRANCH   4   8
BRANCH   5  11
ATOM     11  O   UNL     1      -9.255  30.258  56.885  1.00  0.00    -0.507 OA
ATOM     12  H   UNL     1     -10.139  30.226  57.378  1.00  0.00     0.293 HD
ENDBRANCH   5  11
TORSDOF 2
ENDMDL
MODEL 7
REMARK VINA RESULT:    -4.456      2.816      4.848
REMARK INTER + INTRA:          -5.128
REMARK INTER:                  -4.835
REMARK INTRA:                  -0.293
REMARK UNBOUND:                -0.281
REMARK SMILES CC(=O)c1cc(C)ccc1O
REMARK SMILES IDX 7 1 6 2 5 3 4 4 10 5 9 6 8 7 2 8 3 9 1 10 11 11
REMARK H PARENT 11 12
REMARK Flexibility Score: inf
ROOT
ATOM      1  C   UNL     1       4.371  27.750  55.778  1.00  0.00     0.044 C 
ATOM      2  C   UNL     1       3.026  28.284  56.173  1.00  0.00    -0.050 A 
ATOM      3  C   UNL     1       2.204  28.905  55.221  1.00  0.00     0.019 A 
ATOM      4  C   UNL     1       0.928  29.388  55.568  1.00  0.00     0.059 A 
ATOM      5  C   UNL     1       0.468  29.204  56.893  1.00  0.00     0.126 A 
ATOM      6  C   UNL     1       1.289  28.572  57.837  1.00  0.00     0.047 A 
ATOM      7  C   UNL     1       2.556  28.110  57.480  1.00  0.00     0.007 A 
ENDROOT
BRANCH   4   8
ATOM      8  C   UNL     1       0.108  30.058  54.524  1.00  0.00     0.163 C 
ATOM      9  O   UNL     1      -1.010  29.566  54.207  1.00  0.00    -0.294 OA
ATOM     10  C   UNL     1       0.558  31.305  53.824  1.00  0.00     0.093 C 
ENDBRANCH   4   8
BRANCH   5  11
ATOM     11  O   UNL     1      -0.808  29.620  57.272  1.00  0.00    -0.507 OA
ATOM     12  H   UNL     1      -1.108  30.581  57.171  1.00  0.00     0.293 HD
ENDBRANCH   5  11
TORSDOF 2
ENDMDL
MODEL 8
REMARK VINA RESULT:    -4.443      2.165      4.148
REMARK INTER + INTRA:          -5.114
REMARK INTER:                  -4.851
REMARK INTRA:                  -0.263
REMARK UNBOUND:                -0.281
REMARK SMILES CC(=O)c1cc(C)ccc1O
REMARK SMILES IDX 7 1 6 2 5 3 4 4 10 5 9 6 8 7 2 8 3 9 1 10 11 11
REMARK H PARENT 11 12
REMARK Flexibility Score: inf
ROOT
ATOM      1  C   UNL     1       4.152  28.815  53.054  1.00  0.00     0.044 C 
ATOM      2  C   UNL     1       3.724  28.577  54.472  1.00  0.00    -0.050 A 
ATOM      3  C   UNL     1       2.380  28.737  54.841  1.00  0.00     0.019 A 
ATOM      4  C   UNL     1       1.957  28.493  56.162  1.00  0.00     0.059 A 
ATOM      5  C   UNL     1       2.906  28.044  57.110  1.00  0.00     0.126 A 
ATOM      6  C   UNL     1       4.245  27.874  56.732  1.00  0.00     0.047 A 
ATOM      7  C   UNL     1       4.651  28.133  55.422  1.00  0.00     0.007 A 
ENDROOT
BRANCH   4   8
ATOM      8  C   UNL     1       0.524  28.700  56.504  1.00  0.00     0.163 C 
ATOM      9  O   UNL     1       0.017  28.054  57.461  1.00  0.00    -0.294 OA
ATOM     10  C   UNL     1      -0.353  29.654  55.750  1.00  0.00     0.093 C 
ENDBRANCH   4   8
BRANCH   5  11
ATOM     11  O   UNL     1       2.525  27.739  58.416  1.00  0.00    -0.507 OA
ATOM     12  H   UNL     1       1.554  27.608  58.673  1.00  0.00     0.293 HD
ENDBRANCH   5  11
TORSDOF 2
ENDMDL
MODEL 9
REMARK VINA RESULT:    -4.225      8.907     10.233
REMARK INTER + INTRA:          -4.877
REMARK INTER:                  -4.609
REMARK INTRA:                  -0.268
REMARK UNBOUND:                -0.281
REMARK SMILES CC(=O)c1cc(C)ccc1O
REMARK SMILES IDX 7 1 6 2 5 3 4 4 10 5 9 6 8 7 2 8 3 9 1 10 11 11
REMARK H PARENT 11 12
REMARK Flexibility Score: inf
ROOT
ATOM      1  C   UNL     1      -8.666  32.762  57.712  1.00  0.00     0.044 C 
ATOM      2  C   UNL     1      -7.693  31.653  57.984  1.00  0.00    -0.050 A 
ATOM      3  C   UNL     1      -7.875  30.393  57.396  1.00  0.00     0.019 A 
ATOM      4  C   UNL     1      -6.957  29.349  57.619  1.00  0.00     0.059 A 
ATOM      5  C   UNL     1      -5.818  29.602  58.421  1.00  0.00     0.126 A 
ATOM      6  C   UNL     1      -5.636  30.868  58.995  1.00  0.00     0.047 A 
ATOM      7  C   UNL     1      -6.562  31.888  58.775  1.00  0.00     0.007 A 
ENDROOT
BRANCH   4   8
ATOM      8  C   UNL     1      -7.211  28.026  56.989  1.00  0.00     0.163 C 
ATOM      9  O   UNL     1      -7.439  27.025  57.723  1.00  0.00    -0.294 OA
ATOM     10  C   UNL     1      -7.205  27.828  55.503  1.00  0.00     0.093 C 
ENDBRANCH   4   8
BRANCH   5  11
ATOM     11  O   UNL     1      -4.855  28.616  58.629  1.00  0.00    -0.507 OA
ATOM     12  H   UNL     1      -4.046  28.775  59.216  1.00  0.00     0.293 HD
ENDBRANCH   5  11
TORSDOF 2
ENDMDL
