MODEL 1
REMARK VINA RESULT:    -3.635      0.000      0.000
REMARK INTER + INTRA:          -4.933
REMARK INTER:                  -4.803
REMARK INTRA:                  -0.130
REMARK UNBOUND:                -0.130
REMARK SMILES CCCCCCCO
REMARK SMILES IDX 5 1 4 2 3 3 2 4 1 5 6 6 7 7 8 8
REMARK H PARENT 8 9
REMARK Flexibility Score: inf
ROOT
ATOM      1  C   UNL     1       8.414 -26.209  53.305  1.00  0.00     0.002 C 
ENDROOT
BRANCH   1   2
ATOM      2  C   UNL     1       8.211 -26.331  51.786  1.00  0.00     0.000 C 
BRANCH   2   3
ATOM      3  C   UNL     1       9.230 -27.273  51.127  1.00  0.00    -0.000 C 
BRANCH   3   4
ATOM      4  C   UNL     1       9.017 -28.743  51.516  1.00  0.00    -0.003 C 
ATOM      5  C   UNL     1      10.347 -29.431  51.813  1.00  0.00     0.004 C 
ENDBRANCH   3   4
ENDBRANCH   2   3
ENDBRANCH   1   2
BRANCH   1   6
ATOM      6  C   UNL     1       8.219 -24.760  53.769  1.00  0.00     0.028 C 
BRANCH   6   7
ATOM      7  C   UNL     1       8.883 -24.504  55.126  1.00  0.00     0.156 C 
BRANCH   7   8
ATOM      8  O   UNL     1       9.949 -25.390  55.337  1.00  0.00    -0.396 OA
ATOM      9  H   UNL     1      10.491 -25.386  54.505  1.00  0.00     0.210 HD
ENDBRANCH   7   8
ENDBRANCH   6   7
ENDBRANCH   1   6
TORSDOF 6
ENDMDL
MODEL 2
REMARK VINA RESULT:    -3.625      0.866      1.564
REMARK INTER + INTRA:          -4.920
REMARK INTER:                  -4.754
REMARK INTRA:                  -0.166
REMARK UNBOUND:                -0.130
REMARK SMILES CCCCCCCO
REMARK SMILES IDX 5 1 4 2 3 3 2 4 1 5 6 6 7 7 8 8
REMARK H PARENT 8 9
REMARK Flexibility Score: inf
ROOT
ATOM      1  C   UNL     1       8.445 -26.332  53.376  1.00  0.00     0.002 C 
ENDROOT
BRANCH   1   2
ATOM      2  C   UNL     1       8.223 -26.605  51.880  1.00  0.00     0.000 C 
BRANCH   2   3
ATOM      3  C   UNL     1       8.967 -27.856  51.390  1.00  0.00    -0.000 C 
BRANCH   3   4
ATOM      4  C   UNL     1      10.125 -27.523  50.437  1.00  0.00    -0.003 C 
ATOM      5  C   UNL     1       9.861 -26.221  49.686  1.00  0.00     0.004 C 
ENDBRANCH   3   4
ENDBRANCH   2   3
ENDBRANCH   1   2
BRANCH   1   6
ATOM      6  C   UNL     1       8.269 -24.842  53.693  1.00  0.00     0.028 C 
BRANCH   6   7
ATOM      7  C   UNL     1       8.987 -24.447  54.988  1.00  0.00     0.156 C 
BRANCH   7   8
ATOM      8  O   UNL     1       9.949 -25.406  55.340  1.00  0.00    -0.396 OA
ATOM      9  H   UNL     1      10.383 -25.082  56.171  1.00  0.00     0.210 HD
ENDBRANCH   7   8
ENDBRANCH   6   7
ENDBRANCH   1   6
TORSDOF 6
ENDMDL
MODEL 3
REMARK VINA RESULT:    -3.601      2.382      4.648
REMARK INTER + INTRA:          -4.889
REMARK INTER:                  -4.481
REMARK INTRA:                  -0.408
REMARK UNBOUND:                -0.130
REMARK SMILES CCCCCCCO
REMARK SMILES IDX 5 1 4 2 3 3 2 4 1 5 6 6 7 7 8 8
REMARK H PARENT 8 9
REMARK Flexibility Score: inf
ROOT
ATOM      1  C   UNL     1       8.447 -24.567  52.654  1.00  0.00     0.002 C 
ENDROOT
BRANCH   1   2
ATOM      2  C   UNL     1       8.072 -23.292  53.426  1.00  0.00     0.000 C 
BRANCH   2   3
ATOM      3  C   UNL     1       9.300 -22.546  53.968  1.00  0.00    -0.000 C 
BRANCH   3   4
ATOM      4  C   UNL     1       9.291 -22.422  55.499  1.00  0.00    -0.003 C 
ATOM      5  C   UNL     1       8.018 -23.022  56.091  1.00  0.00     0.004 C 
ENDBRANCH   3   4
ENDBRANCH   2   3
ENDBRANCH   1   2
BRANCH   1   6
ATOM      6  C   UNL     1       8.383 -25.798  53.567  1.00  0.00     0.028 C 
BRANCH   6   7
ATOM      7  C   UNL     1       9.781 -26.279  53.971  1.00  0.00     0.156 C 
BRANCH   7   8
ATOM      8  O   UNL     1      10.132 -25.789  55.238  1.00  0.00    -0.396 OA
ATOM      9  H   UNL     1       9.291 -25.725  55.761  1.00  0.00     0.210 HD
ENDBRANCH   7   8
ENDBRANCH   6   7
ENDBRANCH   1   6
TORSDOF 6
ENDMDL
MODEL 4
REMARK VINA RESULT:    -3.472      1.057      1.763
REMARK INTER + INTRA:          -4.717
REMARK INTER:                  -4.503
REMARK INTRA:                  -0.214
REMARK UNBOUND:                -0.130
REMARK SMILES CCCCCCCO
REMARK SMILES IDX 5 1 4 2 3 3 2 4 1 5 6 6 7 7 8 8
REMARK H PARENT 8 9
REMARK Flexibility Score: inf
ROOT
ATOM      1  C   UNL     1       8.039 -23.509  52.968  1.00  0.00     0.002 C 
ENDROOT
BRANCH   1   2
ATOM      2  C   UNL     1       8.880 -24.490  52.136  1.00  0.00     0.000 C 
BRANCH   2   3
ATOM      3  C   UNL     1       8.127 -25.790  51.817  1.00  0.00    -0.000 C 
BRANCH   3   4
ATOM      4  C   UNL     1       8.762 -27.021  52.480  1.00  0.00    -0.003 C 
ATOM      5  C   UNL     1       8.851 -28.189  51.502  1.00  0.00     0.004 C 
ENDBRANCH   3   4
ENDBRANCH   2   3
ENDBRANCH   1   2
BRANCH   1   6
ATOM      6  C   UNL     1       7.874 -24.013  54.407  1.00  0.00     0.028 C 
BRANCH   6   7
ATOM      7  C   UNL     1       9.185 -23.920  55.196  1.00  0.00     0.156 C 
BRANCH   7   8
ATOM      8  O   UNL     1       9.720 -25.195  55.430  1.00  0.00    -0.396 OA
ATOM      9  H   UNL     1      10.694 -25.072  55.575  1.00  0.00     0.210 HD
ENDBRANCH   7   8
ENDBRANCH   6   7
ENDBRANCH   1   6
TORSDOF 6
ENDMDL
MODEL 5
REMARK VINA RESULT:    -3.445      1.776      2.237
REMARK INTER + INTRA:          -4.682
REMARK INTER:                  -4.477
REMARK INTRA:                  -0.206
REMARK UNBOUND:                -0.130
REMARK SMILES CCCCCCCO
REMARK SMILES IDX 5 1 4 2 3 3 2 4 1 5 6 6 7 7 8 8
REMARK H PARENT 8 9
REMARK Flexibility Score: inf
ROOT
ATOM      1  C   UNL     1       9.126 -25.180  54.105  1.00  0.00     0.002 C 
ENDROOT
BRANCH   1   2
ATOM      2  C   UNL     1       8.206 -26.113  53.303  1.00  0.00     0.000 C 
BRANCH   2   3
ATOM      3  C   UNL     1       8.270 -25.852  51.791  1.00  0.00    -0.000 C 
BRANCH   3   4
ATOM      4  C   UNL     1       9.164 -26.859  51.053  1.00  0.00    -0.003 C 
ATOM      5  C   UNL     1       8.967 -28.271  51.596  1.00  0.00     0.004 C 
ENDBRANCH   3   4
ENDBRANCH   2   3
ENDBRANCH   1   2
BRANCH   1   6
ATOM      6  C   UNL     1       8.307 -24.207  54.962  1.00  0.00     0.028 C 
BRANCH   6   7
ATOM      7  C   UNL     1       8.069 -22.876  54.241  1.00  0.00     0.156 C 
BRANCH   7   8
ATOM      8  O   UNL     1       6.816 -22.867  53.607  1.00  0.00    -0.396 OA
ATOM      9  H   UNL     1       6.915 -23.400  52.776  1.00  0.00     0.210 HD
ENDBRANCH   7   8
ENDBRANCH   6   7
ENDBRANCH   1   6
TORSDOF 6
ENDMDL
MODEL 6
REMARK VINA RESULT:    -3.331      2.483      2.923
REMARK INTER + INTRA:          -4.532
REMARK INTER:                  -4.344
REMARK INTRA:                  -0.187
REMARK UNBOUND:                -0.130
REMARK SMILES CCCCCCCO
REMARK SMILES IDX 5 1 4 2 3 3 2 4 1 5 6 6 7 7 8 8
REMARK H PARENT 8 9
REMARK Flexibility Score: inf
ROOT
ATOM      1  C   UNL     1       9.054 -24.782  54.892  1.00  0.00     0.002 C 
ENDROOT
BRANCH   1   2
ATOM      2  C   UNL     1       8.662 -25.713  53.734  1.00  0.00     0.000 C 
BRANCH   2   3
ATOM      3  C   UNL     1       9.792 -26.678  53.342  1.00  0.00    -0.000 C 
BRANCH   3   4
ATOM      4  C   UNL     1      10.693 -27.049  54.530  1.00  0.00    -0.003 C 
ATOM      5  C   UNL     1      10.592 -28.537  54.854  1.00  0.00     0.004 C 
ENDBRANCH   3   4
ENDBRANCH   2   3
ENDBRANCH   1   2
BRANCH   1   6
ATOM      6  C   UNL     1       8.994 -23.312  54.456  1.00  0.00     0.028 C 
BRANCH   6   7
ATOM      7  C   UNL     1       8.040 -23.108  53.274  1.00  0.00     0.156 C 
BRANCH   7   8
ATOM      8  O   UNL     1       6.731 -22.874  53.722  1.00  0.00    -0.396 OA
ATOM      9  H   UNL     1       6.489 -23.641  54.304  1.00  0.00     0.210 HD
ENDBRANCH   7   8
ENDBRANCH   6   7
ENDBRANCH   1   6
TORSDOF 6
ENDMDL
MODEL 7
REMARK VINA RESULT:    -3.313      1.925      3.447
REMARK INTER + INTRA:          -4.507
REMARK INTER:                  -4.138
REMARK INTRA:                  -0.369
REMARK UNBOUND:                -0.130
REMARK SMILES CCCCCCCO
REMARK SMILES IDX 5 1 4 2 3 3 2 4 1 5 6 6 7 7 8 8
REMARK H PARENT 8 9
REMARK Flexibility Score: inf
ROOT
ATOM      1  C   UNL     1       8.395 -26.375  53.295  1.00  0.00     0.002 C 
ENDROOT
BRANCH   1   2
ATOM      2  C   UNL     1       8.261 -25.366  52.143  1.00  0.00     0.000 C 
BRANCH   2   3
ATOM      3  C   UNL     1       8.277 -23.908  52.628  1.00  0.00    -0.000 C 
BRANCH   3   4
ATOM      4  C   UNL     1       9.668 -23.266  52.527  1.00  0.00    -0.003 C 
ATOM      5  C   UNL     1      10.467 -23.862  51.372  1.00  0.00     0.004 C 
ENDBRANCH   3   4
ENDBRANCH   2   3
ENDBRANCH   1   2
BRANCH   1   6
ATOM      6  C   UNL     1       9.767 -27.061  53.264  1.00  0.00     0.028 C 
BRANCH   6   7
ATOM      7  C   UNL     1      10.510 -26.906  54.595  1.00  0.00     0.156 C 
BRANCH   7   8
ATOM      8  O   UNL     1      10.169 -25.697  55.221  1.00  0.00    -0.396 OA
ATOM      9  H   UNL     1       9.896 -25.925  56.148  1.00  0.00     0.210 HD
ENDBRANCH   7   8
ENDBRANCH   6   7
ENDBRANCH   1   6
TORSDOF 6
ENDMDL
MODEL 8
REMARK VINA RESULT:    -3.273      3.433      6.688
REMARK INTER + INTRA:          -4.454
REMARK INTER:                  -4.257
REMARK INTRA:                  -0.198
REMARK UNBOUND:                -0.130
REMARK SMILES CCCCCCCO
REMARK SMILES IDX 5 1 4 2 3 3 2 4 1 5 6 6 7 7 8 8
REMARK H PARENT 8 9
REMARK Flexibility Score: inf
ROOT
ATOM      1  C   UNL     1       8.269 -23.263  56.098  1.00  0.00     0.002 C 
ENDROOT
BRANCH   1   2
ATOM      2  C   UNL     1       9.412 -22.367  55.594  1.00  0.00     0.000 C 
BRANCH   2   3
ATOM      3  C   UNL     1       9.158 -20.876  55.861  1.00  0.00    -0.000 C 
BRANCH   3   4
ATOM      4  C   UNL     1       8.110 -20.642  56.960  1.00  0.00    -0.003 C 
ATOM      5  C   UNL     1       8.713 -19.889  58.143  1.00  0.00     0.004 C 
ENDBRANCH   3   4
ENDBRANCH   2   3
ENDBRANCH   1   2
BRANCH   1   6
ATOM      6  C   UNL     1       7.438 -23.803  54.927  1.00  0.00     0.028 C 
BRANCH   6   7
ATOM      7  C   UNL     1       8.265 -24.719  54.019  1.00  0.00     0.156 C 
BRANCH   7   8
ATOM      8  O   UNL     1       7.906 -24.548  52.673  1.00  0.00    -0.396 OA
ATOM      9  H   UNL     1       7.167 -25.187  52.494  1.00  0.00     0.210 HD
ENDBRANCH   7   8
ENDBRANCH   6   7
ENDBRANCH   1   6
TORSDOF 6
ENDMDL
MODEL 9
REMARK VINA RESULT:    -3.201      1.487      1.979
REMARK INTER + INTRA:          -4.360
REMARK INTER:                  -4.070
REMARK INTRA:                  -0.290
REMARK UNBOUND:                -0.130
REMARK SMILES CCCCCCCO
REMARK SMILES IDX 5 1 4 2 3 3 2 4 1 5 6 6 7 7 8 8
REMARK H PARENT 8 9
REMARK Flexibility Score: inf
ROOT
ATOM      1  C   UNL     1       9.116 -26.499  52.133  1.00  0.00     0.002 C 
ENDROOT
BRANCH   1   2
ATOM      2  C   UNL     1       9.095 -28.026  51.964  1.00  0.00     0.000 C 
BRANCH   2   3
ATOM      3  C   UNL     1      10.443 -28.678  52.304  1.00  0.00    -0.000 C 
BRANCH   3   4
ATOM      4  C   UNL     1      10.534 -29.121  53.772  1.00  0.00    -0.003 C 
ATOM      5  C   UNL     1      11.576 -28.304  54.530  1.00  0.00     0.004 C 
ENDBRANCH   3   4
ENDBRANCH   2   3
ENDBRANCH   1   2
BRANCH   1   6
ATOM      6  C   UNL     1       8.403 -26.081  53.426  1.00  0.00     0.028 C 
BRANCH   6   7
ATOM      7  C   UNL     1       9.129 -24.929  54.128  1.00  0.00     0.156 C 
BRANCH   7   8
ATOM      8  O   UNL     1       9.807 -25.384  55.269  1.00  0.00    -0.396 OA
ATOM      9  H   UNL     1      10.677 -25.744  54.957  1.00  0.00     0.210 HD
ENDBRANCH   7   8
ENDBRANCH   6   7
ENDBRANCH   1   6
TORSDOF 6
ENDMDL
