MODEL 1
REMARK VINA RESULT:    -4.686      0.000      0.000
REMARK INTER + INTRA:          -7.343
REMARK INTER:                  -6.467
REMARK INTRA:                  -0.877
REMARK UNBOUND:                -0.877
REMARK SMILES OC[C@H](O)C(O)[C@@H](O)CO
REMARK SMILES IDX 5 1 7 2 9 3 10 4 8 6 3 8 2 9 1 10 4 12 6 14
REMARK H PARENT 10 5 8 7 1 11 4 13 6 15
REMARK Flexibility Score: inf
ROOT
ATOM      1  C   UNL     1      11.453   5.822  27.382  1.00  0.00     0.176 C 
ENDROOT
BRANCH   1   2
ATOM      2  C   UNL     1      12.998   5.637  27.352  1.00  0.00     0.171 C 
BRANCH   2   3
ATOM      3  C   UNL     1      13.493   5.080  26.003  1.00  0.00     0.190 C 
BRANCH   3   4
ATOM      4  O   UNL     1      13.127   3.734  25.873  1.00  0.00    -0.394 OA
ATOM      5  H   UNL     1      12.838   3.616  24.931  1.00  0.00     0.210 HD
ENDBRANCH   3   4
ENDBRANCH   2   3
BRANCH   2   6
ATOM      6  O   UNL     1      13.449   4.833  28.413  1.00  0.00    -0.388 OA
ATOM      7  H   UNL     1      13.585   3.914  28.065  1.00  0.00     0.211 HD
ENDBRANCH   2   6
ENDBRANCH   1   2
BRANCH   1   8
ATOM      8  C   UNL     1      10.704   4.844  28.332  1.00  0.00     0.171 C 
BRANCH   8   9
ATOM      9  C   UNL     1       9.702   3.934  27.600  1.00  0.00     0.190 C 
BRANCH   9  10
ATOM     10  O   UNL     1      10.375   3.054  26.744  1.00  0.00    -0.394 OA
ATOM     11  H   UNL     1       9.675   2.615  26.193  1.00  0.00     0.210 HD
ENDBRANCH   9  10
ENDBRANCH   8   9
BRANCH   8  12
ATOM     12  O   UNL     1      10.039   5.560  29.342  1.00  0.00    -0.388 OA
ATOM     13  H   UNL     1      10.409   5.249  30.210  1.00  0.00     0.211 HD
ENDBRANCH   8  12
ENDBRANCH   1   8
BRANCH   1  14
ATOM     14  O   UNL     1      10.905   5.767  26.087  1.00  0.00    -0.388 OA
ATOM     15  H   UNL     1      10.148   6.406  26.045  1.00  0.00     0.211 HD
ENDBRANCH   1  14
TORSDOF 9
ENDMDL
MODEL 2
REMARK VINA RESULT:    -4.439      1.904      3.367
REMARK INTER + INTRA:          -7.002
REMARK INTER:                  -6.181
REMARK INTRA:                  -0.821
REMARK UNBOUND:                -0.877
REMARK SMILES OC[C@H](O)C(O)[C@@H](O)CO
REMARK SMILES IDX 5 1 7 2 9 3 10 4 8 6 3 8 2 9 1 10 4 12 6 14
REMARK H PARENT 10 5 8 7 1 11 4 13 6 15
REMARK Flexibility Score: inf
ROOT
ATOM      1  C   UNL     1       9.637   5.659  29.418  1.00  0.00     0.176 C 
ENDROOT
BRANCH   1   2
ATOM      2  C   UNL     1      10.147   4.366  30.120  1.00  0.00     0.171 C 
BRANCH   2   3
ATOM      3  C   UNL     1      11.536   4.557  30.758  1.00  0.00     0.190 C 
BRANCH   3   4
ATOM      4  O   UNL     1      12.517   4.645  29.761  1.00  0.00    -0.394 OA
ATOM      5  H   UNL     1      12.053   4.470  28.901  1.00  0.00     0.210 HD
ENDBRANCH   3   4
ENDBRANCH   2   3
BRANCH   2   6
ATOM      6  O   UNL     1      10.153   3.265  29.246  1.00  0.00    -0.388 OA
ATOM      7  H   UNL     1       9.999   2.445  29.783  1.00  0.00     0.211 HD
ENDBRANCH   2   6
ENDBRANCH   1   2
BRANCH   1   8
ATOM      8  C   UNL     1       9.390   5.510  27.889  1.00  0.00     0.171 C 
BRANCH   8   9
ATOM      9  C   UNL     1      10.648   5.768  27.042  1.00  0.00     0.190 C 
BRANCH   9  10
ATOM     10  O   UNL     1      11.424   4.606  26.951  1.00  0.00    -0.394 OA
ATOM     11  H   UNL     1      11.976   4.578  27.775  1.00  0.00     0.210 HD
ENDBRANCH   9  10
ENDBRANCH   8   9
BRANCH   8  12
ATOM     12  O   UNL     1       8.359   6.371  27.477  1.00  0.00    -0.388 OA
ATOM     13  H   UNL     1       8.703   7.299  27.565  1.00  0.00     0.211 HD
ENDBRANCH   8  12
ENDBRANCH   1   8
BRANCH   1  14
ATOM     14  O   UNL     1      10.489   6.750  29.674  1.00  0.00    -0.388 OA
ATOM     15  H   UNL     1       9.938   7.495  30.028  1.00  0.00     0.211 HD
ENDBRANCH   1  14
TORSDOF 9
ENDMDL
MODEL 3
REMARK VINA RESULT:    -4.436     14.238     15.256
REMARK INTER + INTRA:          -6.999
REMARK INTER:                  -6.543
REMARK INTRA:                  -0.456
REMARK UNBOUND:                -0.877
REMARK SMILES OC[C@H](O)C(O)[C@@H](O)CO
REMARK SMILES IDX 5 1 7 2 9 3 10 4 8 6 3 8 2 9 1 10 4 12 6 14
REMARK H PARENT 10 5 8 7 1 11 4 13 6 15
REMARK Flexibility Score: inf
ROOT
ATOM      1  C   UNL     1       6.425   6.969  13.485  1.00  0.00     0.176 C 
ENDROOT
BRANCH   1   2
ATOM      2  C   UNL     1       5.319   6.370  12.567  1.00  0.00     0.171 C 
BRANCH   2   3
ATOM      3  C   UNL     1       5.582   6.653  11.076  1.00  0.00     0.190 C 
BRANCH   3   4
ATOM      4  O   UNL     1       6.260   7.870  10.928  1.00  0.00    -0.394 OA
ATOM      5  H   UNL     1       7.186   7.710  11.249  1.00  0.00     0.210 HD
ENDBRANCH   3   4
ENDBRANCH   2   3
BRANCH   2   6
ATOM      6  O   UNL     1       4.038   6.815  12.936  1.00  0.00    -0.388 OA
ATOM      7  H   UNL     1       3.409   6.052  12.843  1.00  0.00     0.211 HD
ENDBRANCH   2   6
ENDBRANCH   1   2
BRANCH   1   8
ATOM      8  C   UNL     1       6.832   6.064  14.683  1.00  0.00     0.171 C 
BRANCH   8   9
ATOM      9  C   UNL     1       7.600   4.801  14.257  1.00  0.00     0.190 C 
BRANCH   9  10
ATOM     10  O   UNL     1       7.255   3.718  15.075  1.00  0.00    -0.394 OA
ATOM     11  H   UNL     1       7.051   4.101  15.968  1.00  0.00     0.210 HD
ENDBRANCH   9  10
ENDBRANCH   8   9
BRANCH   8  12
ATOM     12  O   UNL     1       5.694   5.696  15.422  1.00  0.00    -0.388 OA
ATOM     13  H   UNL     1       5.951   5.721  16.381  1.00  0.00     0.211 HD
ENDBRANCH   8  12
ENDBRANCH   1   8
BRANCH   1  14
ATOM     14  O   UNL     1       6.073   8.255  13.937  1.00  0.00    -0.388 OA
ATOM     15  H   UNL     1       6.902   8.720  14.220  1.00  0.00     0.211 HD
ENDBRANCH   1  14
TORSDOF 9
ENDMDL
MODEL 4
REMARK VINA RESULT:    -4.421     13.276     14.373
REMARK INTER + INTRA:          -6.978
REMARK INTER:                  -6.269
REMARK INTRA:                  -0.709
REMARK UNBOUND:                -0.877
REMARK SMILES OC[C@H](O)C(O)[C@@H](O)CO
REMARK SMILES IDX 5 1 7 2 9 3 10 4 8 6 3 8 2 9 1 10 4 12 6 14
REMARK H PARENT 10 5 8 7 1 11 4 13 6 15
REMARK Flexibility Score: inf
ROOT
ATOM      1  C   UNL     1       6.323   6.228  15.178  1.00  0.00     0.176 C 
ENDROOT
BRANCH   1   2
ATOM      2  C   UNL     1       4.816   6.555  14.961  1.00  0.00     0.171 C 
BRANCH   2   3
ATOM      3  C   UNL     1       3.956   6.179  16.183  1.00  0.00     0.190 C 
BRANCH   3   4
ATOM      4  O   UNL     1       3.860   4.786  16.295  1.00  0.00    -0.394 OA
ATOM      5  H   UNL     1       3.033   4.607  16.815  1.00  0.00     0.210 HD
ENDBRANCH   3   4
ENDBRANCH   2   3
BRANCH   2   6
ATOM      6  O   UNL     1       4.313   5.948  13.797  1.00  0.00    -0.388 OA
ATOM      7  H   UNL     1       3.827   5.125  14.065  1.00  0.00     0.211 HD
ENDBRANCH   2   6
ENDBRANCH   1   2
BRANCH   1   8
ATOM      8  C   UNL     1       7.266   6.749  14.055  1.00  0.00     0.171 C 
BRANCH   8   9
ATOM      9  C   UNL     1       7.927   5.621  13.245  1.00  0.00     0.190 C 
BRANCH   9  10
ATOM     10  O   UNL     1       6.953   4.798  12.666  1.00  0.00    -0.394 OA
ATOM     11  H   UNL     1       7.005   4.955  11.688  1.00  0.00     0.210 HD
ENDBRANCH   9  10
ENDBRANCH   8   9
BRANCH   8  12
ATOM     12  O   UNL     1       8.258   7.582  14.601  1.00  0.00    -0.388 OA
ATOM     13  H   UNL     1       8.314   8.385  14.019  1.00  0.00     0.211 HD
ENDBRANCH   8  12
ENDBRANCH   1   8
BRANCH   1  14
ATOM     14  O   UNL     1       6.523   4.851  15.388  1.00  0.00    -0.388 OA
ATOM     15  H   UNL     1       6.174   4.622  16.288  1.00  0.00     0.211 HD
ENDBRANCH   1  14
TORSDOF 9
ENDMDL
MODEL 5
REMARK VINA RESULT:    -4.417      1.850      3.352
REMARK INTER + INTRA:          -6.973
REMARK INTER:                  -6.175
REMARK INTRA:                  -0.797
REMARK UNBOUND:                -0.877
REMARK SMILES OC[C@H](O)C(O)[C@@H](O)CO
REMARK SMILES IDX 5 1 7 2 9 3 10 4 8 6 3 8 2 9 1 10 4 12 6 14
REMARK H PARENT 10 5 8 7 1 11 4 13 6 15
REMARK Flexibility Score: inf
ROOT
ATOM      1  C   UNL     1       9.563   4.535  28.991  1.00  0.00     0.176 C 
ENDROOT
BRANCH   1   2
ATOM      2  C   UNL     1       9.362   5.201  27.598  1.00  0.00     0.171 C 
BRANCH   2   3
ATOM      3  C   UNL     1      10.696   5.633  26.960  1.00  0.00     0.190 C 
BRANCH   3   4
ATOM      4  O   UNL     1      11.548   4.529  26.827  1.00  0.00    -0.394 OA
ATOM      5  H   UNL     1      10.959   3.732  26.764  1.00  0.00     0.210 HD
ENDBRANCH   3   4
ENDBRANCH   2   3
BRANCH   2   6
ATOM      6  O   UNL     1       8.471   6.285  27.661  1.00  0.00    -0.388 OA
ATOM      7  H   UNL     1       8.195   6.402  28.607  1.00  0.00     0.211 HD
ENDBRANCH   2   6
ENDBRANCH   1   2
BRANCH   1   8
ATOM      8  C   UNL     1      10.437   5.358  29.981  1.00  0.00     0.171 C 
BRANCH   8   9
ATOM      9  C   UNL     1      11.619   4.559  30.556  1.00  0.00     0.190 C 
BRANCH   9  10
ATOM     10  O   UNL     1      12.721   4.628  29.694  1.00  0.00    -0.394 OA
ATOM     11  H   UNL     1      13.118   5.528  29.824  1.00  0.00     0.210 HD
ENDBRANCH   9  10
ENDBRANCH   8   9
BRANCH   8  12
ATOM     12  O   UNL     1       9.646   5.852  31.033  1.00  0.00    -0.388 OA
ATOM     13  H   UNL     1       9.979   5.432  31.868  1.00  0.00     0.211 HD
ENDBRANCH   8  12
ENDBRANCH   1   8
BRANCH   1  14
ATOM     14  O   UNL     1      10.062   3.225  28.865  1.00  0.00    -0.388 OA
ATOM     15  H   UNL     1      10.349   3.094  27.925  1.00  0.00     0.211 HD
ENDBRANCH   1  14
TORSDOF 9
ENDMDL
MODEL 6
REMARK VINA RESULT:    -4.364      0.740      3.137
REMARK INTER + INTRA:          -6.899
REMARK INTER:                  -6.442
REMARK INTRA:                  -0.457
REMARK UNBOUND:                -0.877
REMARK SMILES OC[C@H](O)C(O)[C@@H](O)CO
REMARK SMILES IDX 5 1 7 2 9 3 10 4 8 6 3 8 2 9 1 10 4 12 6 14
REMARK H PARENT 10 5 8 7 1 11 4 13 6 15
REMARK Flexibility Score: inf
ROOT
ATOM      1  C   UNL     1      11.538   5.898  27.455  1.00  0.00     0.176 C 
ENDROOT
BRANCH   1   2
ATOM      2  C   UNL     1      10.761   4.881  28.341  1.00  0.00     0.171 C 
BRANCH   2   3
ATOM      3  C   UNL     1       9.725   4.076  27.534  1.00  0.00     0.190 C 
BRANCH   3   4
ATOM      4  O   UNL     1      10.367   3.098  26.763  1.00  0.00    -0.394 OA
ATOM      5  H   UNL     1      11.333   3.326  26.778  1.00  0.00     0.210 HD
ENDBRANCH   3   4
ENDBRANCH   2   3
BRANCH   2   6
ATOM      6  O   UNL     1      10.152   5.507  29.442  1.00  0.00    -0.388 OA
ATOM      7  H   UNL     1       9.191   5.260  29.442  1.00  0.00     0.211 HD
ENDBRANCH   2   6
ENDBRANCH   1   2
BRANCH   1   8
ATOM      8  C   UNL     1      13.070   5.642  27.367  1.00  0.00     0.171 C 
BRANCH   8   9
ATOM      9  C   UNL     1      13.515   5.079  26.007  1.00  0.00     0.190 C 
BRANCH   9  10
ATOM     10  O   UNL     1      13.126   3.738  25.881  1.00  0.00    -0.394 OA
ATOM     11  H   UNL     1      13.166   3.529  24.912  1.00  0.00     0.210 HD
ENDBRANCH   9  10
ENDBRANCH   8   9
BRANCH   8  12
ATOM     12  O   UNL     1      13.477   4.772  28.393  1.00  0.00    -0.388 OA
ATOM     13  H   UNL     1      13.929   5.327  29.082  1.00  0.00     0.211 HD
ENDBRANCH   8  12
ENDBRANCH   1   8
BRANCH   1  14
ATOM     14  O   UNL     1      11.283   7.223  27.854  1.00  0.00    -0.388 OA
ATOM     15  H   UNL     1      10.383   7.252  28.269  1.00  0.00     0.211 HD
ENDBRANCH   1  14
TORSDOF 9
ENDMDL
MODEL 7
REMARK VINA RESULT:    -4.322      1.248      3.627
REMARK INTER + INTRA:          -6.842
REMARK INTER:                  -6.114
REMARK INTRA:                  -0.727
REMARK UNBOUND:                -0.877
REMARK SMILES OC[C@H](O)C(O)[C@@H](O)CO
REMARK SMILES IDX 5 1 7 2 9 3 10 4 8 6 3 8 2 9 1 10 4 12 6 14
REMARK H PARENT 10 5 8 7 1 11 4 13 6 15
REMARK Flexibility Score: inf
ROOT
ATOM      1  C   UNL     1      11.496   5.526  27.813  1.00  0.00     0.176 C 
ENDROOT
BRANCH   1   2
ATOM      2  C   UNL     1      10.216   4.653  27.656  1.00  0.00     0.171 C 
BRANCH   2   3
ATOM      3  C   UNL     1       9.493   4.431  28.998  1.00  0.00     0.190 C 
BRANCH   3   4
ATOM      4  O   UNL     1      10.113   3.400  29.715  1.00  0.00    -0.394 OA
ATOM      5  H   UNL     1      11.045   3.350  29.377  1.00  0.00     0.210 HD
ENDBRANCH   3   4
ENDBRANCH   2   3
BRANCH   2   6
ATOM      6  O   UNL     1      10.496   3.422  27.037  1.00  0.00    -0.388 OA
ATOM      7  H   UNL     1      10.909   2.825  27.713  1.00  0.00     0.211 HD
ENDBRANCH   2   6
ENDBRANCH   1   2
BRANCH   1   8
ATOM      8  C   UNL     1      12.186   5.907  26.472  1.00  0.00     0.171 C 
BRANCH   8   9
ATOM      9  C   UNL     1      13.474   5.111  26.203  1.00  0.00     0.190 C 
BRANCH   9  10
ATOM     10  O   UNL     1      13.169   3.784  25.874  1.00  0.00    -0.394 OA
ATOM     11  H   UNL     1      13.450   3.662  24.930  1.00  0.00     0.210 HD
ENDBRANCH   9  10
ENDBRANCH   8   9
BRANCH   8  12
ATOM     12  O   UNL     1      12.469   7.284  26.445  1.00  0.00    -0.388 OA
ATOM     13  H   UNL     1      13.456   7.376  26.391  1.00  0.00     0.211 HD
ENDBRANCH   8  12
ENDBRANCH   1   8
BRANCH   1  14
ATOM     14  O   UNL     1      12.419   4.926  28.689  1.00  0.00    -0.388 OA
ATOM     15  H   UNL     1      13.302   5.354  28.546  1.00  0.00     0.211 HD
ENDBRANCH   1  14
TORSDOF 9
ENDMDL
MODEL 8
REMARK VINA RESULT:    -4.321     14.682     15.953
REMARK INTER + INTRA:          -6.840
REMARK INTER:                  -6.342
REMARK INTRA:                  -0.498
REMARK UNBOUND:                -0.877
REMARK SMILES OC[C@H](O)C(O)[C@@H](O)CO
REMARK SMILES IDX 5 1 7 2 9 3 10 4 8 6 3 8 2 9 1 10 4 12 6 14
REMARK H PARENT 10 5 8 7 1 11 4 13 6 15
REMARK Flexibility Score: inf
ROOT
ATOM      1  C   UNL     1       6.913   6.321  12.896  1.00  0.00     0.176 C 
ENDROOT
BRANCH   1   2
ATOM      2  C   UNL     1       5.629   6.659  13.709  1.00  0.00     0.171 C 
BRANCH   2   3
ATOM      3  C   UNL     1       5.823   6.445  15.222  1.00  0.00     0.190 C 
BRANCH   3   4
ATOM      4  O   UNL     1       6.399   5.191  15.462  1.00  0.00    -0.394 OA
ATOM      5  H   UNL     1       7.063   5.327  16.188  1.00  0.00     0.210 HD
ENDBRANCH   3   4
ENDBRANCH   2   3
BRANCH   2   6
ATOM      6  O   UNL     1       4.514   5.937  13.247  1.00  0.00    -0.388 OA
ATOM      7  H   UNL     1       4.438   5.110  13.789  1.00  0.00     0.211 HD
ENDBRANCH   2   6
ENDBRANCH   1   2
BRANCH   1   8
ATOM      8  C   UNL     1       7.067   7.117  11.569  1.00  0.00     0.171 C 
BRANCH   8   9
ATOM      9  C   UNL     1       7.774   8.471  11.751  1.00  0.00     0.190 C 
BRANCH   9  10
ATOM     10  O   UNL     1       7.134   9.463  10.997  1.00  0.00    -0.394 OA
ATOM     11  H   UNL     1       7.824  10.152  10.806  1.00  0.00     0.210 HD
ENDBRANCH   9  10
ENDBRANCH   8   9
BRANCH   8  12
ATOM     12  O   UNL     1       5.809   7.319  10.974  1.00  0.00    -0.388 OA
ATOM     13  H   UNL     1       5.732   8.290  10.782  1.00  0.00     0.211 HD
ENDBRANCH   8  12
ENDBRANCH   1   8
BRANCH   1  14
ATOM     14  O   UNL     1       7.017   4.938  12.655  1.00  0.00    -0.388 OA
ATOM     15  H   UNL     1       6.114   4.596  12.427  1.00  0.00     0.211 HD
ENDBRANCH   1  14
TORSDOF 9
ENDMDL
MODEL 9
REMARK VINA RESULT:    -4.291      1.156      1.685
REMARK INTER + INTRA:          -6.799
REMARK INTER:                  -6.304
REMARK INTRA:                  -0.495
REMARK UNBOUND:                -0.877
REMARK SMILES OC[C@H](O)C(O)[C@@H](O)CO
REMARK SMILES IDX 5 1 7 2 9 3 10 4 8 6 3 8 2 9 1 10 4 12 6 14
REMARK H PARENT 10 5 8 7 1 11 4 13 6 15
REMARK Flexibility Score: inf
ROOT
ATOM      1  C   UNL     1      12.524   5.036  28.157  1.00  0.00     0.176 C 
ENDROOT
BRANCH   1   2
ATOM      2  C   UNL     1      13.287   6.008  27.210  1.00  0.00     0.171 C 
BRANCH   2   3
ATOM      3  C   UNL     1      13.552   5.386  25.825  1.00  0.00     0.190 C 
BRANCH   3   4
ATOM      4  O   UNL     1      13.333   4.003  25.867  1.00  0.00    -0.394 OA
ATOM      5  H   UNL     1      12.788   3.786  25.067  1.00  0.00     0.210 HD
ENDBRANCH   3   4
ENDBRANCH   2   3
BRANCH   2   6
ATOM      6  O   UNL     1      14.487   6.461  27.785  1.00  0.00    -0.388 OA
ATOM      7  H   UNL     1      15.226   5.896  27.441  1.00  0.00     0.211 HD
ENDBRANCH   2   6
ENDBRANCH   1   2
BRANCH   1   8
ATOM      8  C   UNL     1      11.018   5.374  28.353  1.00  0.00     0.171 C 
BRANCH   8   9
ATOM      9  C   UNL     1      10.113   4.772  27.264  1.00  0.00     0.190 C 
BRANCH   9  10
ATOM     10  O   UNL     1      10.573   3.502  26.893  1.00  0.00    -0.394 OA
ATOM     11  H   UNL     1       9.826   3.070  26.403  1.00  0.00     0.210 HD
ENDBRANCH   9  10
ENDBRANCH   8   9
BRANCH   8  12
ATOM     12  O   UNL     1      10.835   6.767  28.401  1.00  0.00    -0.388 OA
ATOM     13  H   UNL     1      10.444   6.977  29.289  1.00  0.00     0.211 HD
ENDBRANCH   8  12
ENDBRANCH   1   8
BRANCH   1  14
ATOM     14  O   UNL     1      13.169   4.923  29.402  1.00  0.00    -0.388 OA
ATOM     15  H   UNL     1      12.483   4.721  30.088  1.00  0.00     0.211 HD
ENDBRANCH   1  14
TORSDOF 9
ENDMDL
