MODEL 1
REMARK VINA RESULT:    -3.310      0.000      0.000
REMARK INTER + INTRA:          -5.040
REMARK INTER:                  -5.052
REMARK INTRA:                   0.012
REMARK UNBOUND:                 0.012
REMARK SMILES CC1=CCC[C@@H](C)C(=O)C[C@H](C(C)C)C(=O)C1
REMARK SMILES IDX 8 1 9 2 6 3 7 4 5 5 4 6 3 7 2 8 1 9 10 11 11 12 15 13 16 14
REMARK SMILES IDX 17 15 12 17 13 18 14 19
REMARK H PARENT
REMARK Flexibility Score: 70.00
ROOT
ATOM      1  C   UNL     1      87.105  37.336  25.554  1.00  0.00     0.136 C 
ATOM      2  O   UNL     1      87.825  37.235  24.569  1.00  0.00    -0.299 OA
ENDROOT
BRANCH   1   3
ATOM      3  C   UNL     1      87.575  38.151  26.743  1.00  0.00     0.053 C 
ATOM      4  C   UNL     1      89.035  38.586  26.555  1.00  0.00     0.016 C 
BRANCH   3   5
ATOM      5  C   UNL     1      87.401  37.342  28.048  1.00  0.00     0.015 C 
BRANCH   5   6
ATOM      6  C   UNL     1      86.028  37.585  28.705  1.00  0.00     0.028 C 
BRANCH   6   7
ATOM      7  C   UNL     1      85.577  36.383  29.495  1.00  0.00    -0.028 C 
ATOM      8  C   UNL     1      84.778  35.397  29.025  1.00  0.00    -0.070 CG0
ATOM      9  C   UNL     1      84.477  34.236  29.939  1.00  0.00     0.039 C 
ATOM     10  G   UNL     1      84.185  35.398  27.625  1.00  0.00     0.000 G0
ENDBRANCH   6   7
ENDBRANCH   5   6
ENDBRANCH   3   5
ENDBRANCH   1   3
BRANCH   1  11
ATOM     11  C   UNL     1      85.762  36.645  25.559  1.00  0.00     0.087 C 
BRANCH  11  12
ATOM     12  C   UNL     1      85.890  35.100  25.608  1.00  0.00     0.066 C 
BRANCH  12  13
ATOM     13  C   UNL     1      84.981  34.513  26.682  1.00  0.00     0.140 C 
ATOM     14  O   UNL     1      84.848  33.299  26.739  1.00  0.00    -0.299 OA
BRANCH  13  15
ATOM     15  C   UNL     1      84.187  35.388  27.626  1.00  0.00     0.106 CG0
ATOM     16  G   UNL     1      84.773  35.400  29.029  1.00  0.00     0.000 G0
ENDBRANCH  13  15
ENDBRANCH  12  13
BRANCH  12  17
ATOM     17  C   UNL     1      85.649  34.423  24.219  1.00  0.00    -0.006 C 
ATOM     18  C   UNL     1      86.971  33.902  23.622  1.00  0.00     0.008 C 
ATOM     19  C   UNL     1      84.993  35.377  23.206  1.00  0.00     0.008 C 
ENDBRANCH  12  17
ENDBRANCH  11  12
ENDBRANCH   1  11
TORSDOF 1
ENDMDL
MODEL 2
REMARK VINA RESULT:    -3.243      1.969      4.361
REMARK INTER + INTRA:          -4.936
REMARK INTER:                  -4.894
REMARK INTRA:                  -0.042
REMARK UNBOUND:                 0.012
REMARK SMILES CC1=CCC[C@@H](C)C(=O)C[C@H](C(C)C)C(=O)C1
REMARK SMILES IDX 8 1 9 2 6 3 7 4 5 5 4 6 3 7 2 8 1 9 10 11 11 12 15 13 16 14
REMARK SMILES IDX 17 15 12 17 13 18 14 19
REMARK H PARENT
REMARK Flexibility Score: 70.00
ROOT
ATOM      1  C   UNL     1      87.055  37.407  27.854  1.00  0.00     0.136 C 
ATOM      2  O   UNL     1      87.266  38.243  28.724  1.00  0.00    -0.299 OA
ENDROOT
BRANCH   1   3
ATOM      3  C   UNL     1      87.811  37.486  26.542  1.00  0.00     0.053 C 
ATOM      4  C   UNL     1      88.738  38.709  26.527  1.00  0.00     0.016 C 
BRANCH   3   5
ATOM      5  C   UNL     1      86.821  37.526  25.356  1.00  0.00     0.015 C 
BRANCH   5   6
ATOM      6  C   UNL     1      86.779  36.191  24.588  1.00  0.00     0.028 C 
BRANCH   6   7
ATOM      7  C   UNL     1      85.417  35.942  23.993  1.00  0.00    -0.028 C 
ATOM      8  C   UNL     1      84.351  35.450  24.667  1.00  0.00    -0.070 CG0
ATOM      9  C   UNL     1      83.044  35.323  23.925  1.00  0.00     0.039 C 
ATOM     10  G   UNL     1      84.405  35.035  26.129  1.00  0.00     0.000 G0
ENDBRANCH   6   7
ENDBRANCH   5   6
ENDBRANCH   3   5
ENDBRANCH   1   3
BRANCH   1  11
ATOM     11  C   UNL     1      86.045  36.314  28.112  1.00  0.00     0.087 C 
BRANCH  11  12
ATOM     12  C   UNL     1      84.584  36.832  28.059  1.00  0.00     0.066 C 
BRANCH  12  13
ATOM     13  C   UNL     1      83.760  36.036  27.053  1.00  0.00     0.140 C 
ATOM     14  O   UNL     1      82.546  36.185  27.040  1.00  0.00    -0.299 OA
BRANCH  13  15
ATOM     15  C   UNL     1      84.390  35.020  26.127  1.00  0.00     0.106 CG0
ATOM     16  G   UNL     1      84.348  35.462  24.673  1.00  0.00     0.000 G0
ENDBRANCH  13  15
ENDBRANCH  12  13
BRANCH  12  17
ATOM     17  C   UNL     1      83.897  36.868  29.463  1.00  0.00    -0.006 C 
ATOM     18  C   UNL     1      83.564  38.314  29.878  1.00  0.00     0.008 C 
ATOM     19  C   UNL     1      84.767  36.229  30.559  1.00  0.00     0.008 C 
ENDBRANCH  12  17
ENDBRANCH  11  12
ENDBRANCH   1  11
TORSDOF 1
ENDMDL
MODEL 3
REMARK VINA RESULT:    -3.153      9.089     10.225
REMARK INTER + INTRA:          -4.800
REMARK INTER:                  -4.610
REMARK INTRA:                  -0.190
REMARK UNBOUND:                 0.012
REMARK SMILES CC1=CCC[C@@H](C)C(=O)C[C@H](C(C)C)C(=O)C1
REMARK SMILES IDX 8 1 9 2 6 3 7 4 5 5 4 6 3 7 2 8 1 9 10 11 11 12 15 13 16 14
REMARK SMILES IDX 17 15 12 17 13 18 14 19
REMARK H PARENT
REMARK Flexibility Score: 70.00
ROOT
ATOM      1  C   UNL     1      80.689  43.499  27.934  1.00  0.00     0.136 C 
ATOM      2  O   UNL     1      80.016  43.053  28.854  1.00  0.00    -0.299 OA
ENDROOT
BRANCH   1   3
ATOM      3  C   UNL     1      80.794  44.999  27.741  1.00  0.00     0.053 C 
ATOM      4  C   UNL     1      81.582  45.636  28.895  1.00  0.00     0.016 C 
BRANCH   3   5
ATOM      5  C   UNL     1      79.384  45.622  27.622  1.00  0.00     0.015 C 
BRANCH   5   6
ATOM      6  C   UNL     1      78.642  45.144  26.359  1.00  0.00     0.028 C 
BRANCH   6   7
ATOM      7  C   UNL     1      79.343  45.597  25.105  1.00  0.00    -0.028 C 
ATOM      8  C   UNL     1      79.675  44.796  24.066  1.00  0.00    -0.070 CG0
ATOM      9  C   UNL     1      80.321  45.434  22.861  1.00  0.00     0.039 C 
ATOM     10  G   UNL     1      79.417  43.298  24.050  1.00  0.00     0.000 G0
ENDBRANCH   6   7
ENDBRANCH   5   6
ENDBRANCH   3   5
ENDBRANCH   1   3
BRANCH   1  11
ATOM     11  C   UNL     1      81.402  42.539  27.010  1.00  0.00     0.087 C 
BRANCH  11  12
ATOM     12  C   UNL     1      80.436  41.846  26.015  1.00  0.00     0.066 C 
BRANCH  12  13
ATOM     13  C   UNL     1      80.540  42.474  24.629  1.00  0.00     0.140 C 
ATOM     14  O   UNL     1      81.592  42.369  24.014  1.00  0.00    -0.299 OA
BRANCH  13  15
ATOM     15  C   UNL     1      79.411  43.281  24.028  1.00  0.00     0.106 CG0
ATOM     16  G   UNL     1      79.685  44.776  24.072  1.00  0.00     0.000 G0
ENDBRANCH  13  15
ENDBRANCH  12  13
BRANCH  12  17
ATOM     17  C   UNL     1      80.626  40.296  25.958  1.00  0.00    -0.006 C 
ATOM     18  C   UNL     1      79.833  39.684  24.787  1.00  0.00     0.008 C 
ATOM     19  C   UNL     1      80.193  39.603  27.262  1.00  0.00     0.008 C 
ENDBRANCH  12  17
ENDBRANCH  11  12
ENDBRANCH   1  11
TORSDOF 1
ENDMDL
MODEL 4
REMARK VINA RESULT:    -3.041      2.090      4.439
REMARK INTER + INTRA:          -4.629
REMARK INTER:                  -4.376
REMARK INTRA:                  -0.253
REMARK UNBOUND:                 0.012
REMARK SMILES CC1=CCC[C@@H](C)C(=O)C[C@H](C(C)C)C(=O)C1
REMARK SMILES IDX 8 1 9 2 6 3 7 4 5 5 4 6 3 7 2 8 1 9 10 11 11 12 15 13 16 14
REMARK SMILES IDX 17 15 12 17 13 18 14 19
REMARK H PARENT
REMARK Flexibility Score: 70.00
ROOT
ATOM      1  C   UNL     1      85.992  36.303  26.088  1.00  0.00     0.136 C 
ATOM      2  O   UNL     1      86.603  37.310  25.756  1.00  0.00    -0.299 OA
ENDROOT
BRANCH   1   3
ATOM      3  C   UNL     1      85.371  35.420  25.023  1.00  0.00     0.053 C 
ATOM      4  C   UNL     1      86.460  34.794  24.139  1.00  0.00     0.016 C 
BRANCH   3   5
ATOM      5  C   UNL     1      84.367  36.232  24.173  1.00  0.00     0.015 C 
BRANCH   5   6
ATOM      6  C   UNL     1      83.226  36.820  25.026  1.00  0.00     0.028 C 
BRANCH   6   7
ATOM      7  C   UNL     1      82.297  35.742  25.521  1.00  0.00    -0.028 C 
ATOM      8  C   UNL     1      81.852  35.621  26.793  1.00  0.00    -0.070 CG0
ATOM      9  C   UNL     1      80.875  34.513  27.096  1.00  0.00     0.039 C 
ATOM     10  G   UNL     1      82.275  36.551  27.918  1.00  0.00     0.000 G0
ENDBRANCH   6   7
ENDBRANCH   5   6
ENDBRANCH   3   5
ENDBRANCH   1   3
BRANCH   1  11
ATOM     11  C   UNL     1      85.872  35.963  27.554  1.00  0.00     0.087 C 
BRANCH  11  12
ATOM     12  C   UNL     1      84.866  36.882  28.295  1.00  0.00     0.066 C 
BRANCH  12  13
ATOM     13  C   UNL     1      83.564  36.143  28.584  1.00  0.00     0.140 C 
ATOM     14  O   UNL     1      83.595  35.161  29.312  1.00  0.00    -0.299 OA
BRANCH  13  15
ATOM     15  C   UNL     1      82.255  36.543  27.940  1.00  0.00     0.106 CG0
ATOM     16  G   UNL     1      81.865  35.613  26.802  1.00  0.00     0.000 G0
ENDBRANCH  13  15
ENDBRANCH  12  13
BRANCH  12  17
ATOM     17  C   UNL     1      85.462  37.521  29.592  1.00  0.00    -0.006 C 
ATOM     18  C   UNL     1      84.524  38.605  30.156  1.00  0.00     0.008 C 
ATOM     19  C   UNL     1      86.849  38.144  29.355  1.00  0.00     0.008 C 
ENDBRANCH  12  17
ENDBRANCH  11  12
ENDBRANCH   1  11
TORSDOF 1
ENDMDL
MODEL 5
REMARK VINA RESULT:    -3.031      3.479      6.055
REMARK INTER + INTRA:          -4.613
REMARK INTER:                  -4.382
REMARK INTRA:                  -0.231
REMARK UNBOUND:                 0.012
REMARK SMILES CC1=CCC[C@@H](C)C(=O)C[C@H](C(C)C)C(=O)C1
REMARK SMILES IDX 8 1 9 2 6 3 7 4 5 5 4 6 3 7 2 8 1 9 10 11 11 12 15 13 16 14
REMARK SMILES IDX 17 15 12 17 13 18 14 19
REMARK H PARENT
REMARK Flexibility Score: 70.00
ROOT
ATOM      1  C   UNL     1      84.519  34.479  32.491  1.00  0.00     0.136 C 
ATOM      2  O   UNL     1      84.482  35.249  33.442  1.00  0.00    -0.299 OA
ENDROOT
BRANCH   1   3
ATOM      3  C   UNL     1      85.185  33.126  32.647  1.00  0.00     0.053 C 
ATOM      4  C   UNL     1      84.495  32.310  33.749  1.00  0.00     0.016 C 
BRANCH   3   5
ATOM      5  C   UNL     1      86.690  33.304  32.950  1.00  0.00     0.015 C 
BRANCH   5   6
ATOM      6  C   UNL     1      87.563  33.113  31.693  1.00  0.00     0.028 C 
BRANCH   6   7
ATOM      7  C   UNL     1      87.013  32.030  30.802  1.00  0.00    -0.028 C 
ATOM      8  C   UNL     1      86.553  32.215  29.543  1.00  0.00    -0.070 CG0
ATOM      9  C   UNL     1      86.095  31.002  28.773  1.00  0.00     0.039 C 
ATOM     10  G   UNL     1      86.489  33.576  28.869  1.00  0.00     0.000 G0
ENDBRANCH   6   7
ENDBRANCH   5   6
ENDBRANCH   3   5
ENDBRANCH   1   3
BRANCH   1  11
ATOM     11  C   UNL     1      83.894  34.898  31.181  1.00  0.00     0.087 C 
BRANCH  11  12
ATOM     12  C   UNL     1      84.951  35.334  30.133  1.00  0.00     0.066 C 
BRANCH  12  13
ATOM     13  C   UNL     1      85.142  34.256  29.072  1.00  0.00     0.140 C 
ATOM     14  O   UNL     1      84.171  33.890  28.425  1.00  0.00    -0.299 OA
BRANCH  13  15
ATOM     15  C   UNL     1      86.476  33.578  28.849  1.00  0.00     0.106 CG0
ATOM     16  G   UNL     1      86.549  32.216  29.522  1.00  0.00     0.000 G0
ENDBRANCH  13  15
ENDBRANCH  12  13
BRANCH  12  17
ATOM     17  C   UNL     1      84.636  36.723  29.489  1.00  0.00    -0.006 C 
ATOM     18  C   UNL     1      85.933  37.474  29.132  1.00  0.00     0.008 C 
ATOM     19  C   UNL     1      83.786  37.617  30.408  1.00  0.00     0.008 C 
ENDBRANCH  12  17
ENDBRANCH  11  12
ENDBRANCH   1  11
TORSDOF 1
ENDMDL
MODEL 6
REMARK VINA RESULT:    -3.018      2.964      5.168
REMARK INTER + INTRA:          -4.594
REMARK INTER:                  -4.512
REMARK INTRA:                  -0.082
REMARK UNBOUND:                 0.012
REMARK SMILES CC1=CCC[C@@H](C)C(=O)C[C@H](C(C)C)C(=O)C1
REMARK SMILES IDX 8 1 9 2 6 3 7 4 5 5 4 6 3 7 2 8 1 9 10 11 11 12 15 13 16 14
REMARK SMILES IDX 17 15 12 17 13 18 14 19
REMARK H PARENT
REMARK Flexibility Score: 70.00
ROOT
ATOM      1  C   UNL     1      85.869  35.705  28.119  1.00  0.00     0.136 C 
ATOM      2  O   UNL     1      86.107  36.556  27.272  1.00  0.00    -0.299 OA
ENDROOT
BRANCH   1   3
ATOM      3  C   UNL     1      85.656  34.265  27.694  1.00  0.00     0.053 C 
ATOM      4  C   UNL     1      84.192  34.032  27.296  1.00  0.00     0.016 C 
BRANCH   3   5
ATOM      5  C   UNL     1      86.082  33.305  28.827  1.00  0.00     0.015 C 
BRANCH   5   6
ATOM      6  C   UNL     1      84.984  32.276  29.161  1.00  0.00     0.028 C 
BRANCH   6   7
ATOM      7  C   UNL     1      84.906  32.017  30.643  1.00  0.00    -0.028 C 
ATOM      8  C   UNL     1      84.174  32.739  31.523  1.00  0.00    -0.070 CG0
ATOM      9  C   UNL     1      84.166  32.298  32.965  1.00  0.00     0.039 C 
ATOM     10  G   UNL     1      83.355  33.958  31.127  1.00  0.00     0.000 G0
ENDBRANCH   6   7
ENDBRANCH   5   6
ENDBRANCH   3   5
ENDBRANCH   1   3
BRANCH   1  11
ATOM     11  C   UNL     1      85.794  36.112  29.572  1.00  0.00     0.087 C 
BRANCH  11  12
ATOM     12  C   UNL     1      84.335  36.193  30.090  1.00  0.00     0.066 C 
BRANCH  12  13
ATOM     13  C   UNL     1      84.125  35.257  31.275  1.00  0.00     0.140 C 
ATOM     14  O   UNL     1      84.656  35.531  32.342  1.00  0.00    -0.299 OA
BRANCH  13  15
ATOM     15  C   UNL     1      83.345  33.967  31.149  1.00  0.00     0.106 CG0
ATOM     16  G   UNL     1      84.179  32.751  31.519  1.00  0.00     0.000 G0
ENDBRANCH  13  15
ENDBRANCH  12  13
BRANCH  12  17
ATOM     17  C   UNL     1      83.886  37.652  30.426  1.00  0.00    -0.006 C 
ATOM     18  C   UNL     1      82.669  38.066  29.576  1.00  0.00     0.008 C 
ATOM     19  C   UNL     1      85.011  38.678  30.208  1.00  0.00     0.008 C 
ENDBRANCH  12  17
ENDBRANCH  11  12
ENDBRANCH   1  11
TORSDOF 1
ENDMDL
MODEL 7
REMARK VINA RESULT:    -2.903      1.926      2.932
REMARK INTER + INTRA:          -4.418
REMARK INTER:                  -4.369
REMARK INTRA:                  -0.049
REMARK UNBOUND:                 0.012
REMARK SMILES CC1=CCC[C@@H](C)C(=O)C[C@H](C(C)C)C(=O)C1
REMARK SMILES IDX 8 1 9 2 6 3 7 4 5 5 4 6 3 7 2 8 1 9 10 11 11 12 15 13 16 14
REMARK SMILES IDX 17 15 12 17 13 18 14 19
REMARK H PARENT
REMARK Flexibility Score: 70.00
ROOT
ATOM      1  C   UNL     1      86.126  36.708  27.319  1.00  0.00     0.136 C 
ATOM      2  O   UNL     1      87.182  37.248  27.622  1.00  0.00    -0.299 OA
ENDROOT
BRANCH   1   3
ATOM      3  C   UNL     1      85.252  36.112  28.406  1.00  0.00     0.053 C 
ATOM      4  C   UNL     1      84.875  37.182  29.441  1.00  0.00     0.016 C 
BRANCH   3   5
ATOM      5  C   UNL     1      85.972  34.921  29.078  1.00  0.00     0.015 C 
BRANCH   5   6
ATOM      6  C   UNL     1      85.206  33.597  28.890  1.00  0.00     0.028 C 
BRANCH   6   7
ATOM      7  C   UNL     1      83.807  33.839  28.386  1.00  0.00    -0.028 C 
ATOM      8  C   UNL     1      83.409  33.706  27.099  1.00  0.00    -0.070 CG0
ATOM      9  C   UNL     1      81.951  33.929  26.785  1.00  0.00     0.039 C 
ATOM     10  G   UNL     1      84.352  33.330  25.967  1.00  0.00     0.000 G0
ENDBRANCH   6   7
ENDBRANCH   5   6
ENDBRANCH   3   5
ENDBRANCH   1   3
BRANCH   1  11
ATOM     11  C   UNL     1      85.717  36.650  25.866  1.00  0.00     0.087 C 
BRANCH  11  12
ATOM     12  C   UNL     1      85.987  35.262  25.229  1.00  0.00     0.066 C 
BRANCH  12  13
ATOM     13  C   UNL     1      84.689  34.478  25.062  1.00  0.00     0.140 C 
ATOM     14  O   UNL     1      83.886  34.846  24.217  1.00  0.00    -0.299 OA
BRANCH  13  15
ATOM     15  C   UNL     1      84.337  33.311  25.957  1.00  0.00     0.106 CG0
ATOM     16  G   UNL     1      83.409  33.714  27.092  1.00  0.00     0.000 G0
ENDBRANCH  13  15
ENDBRANCH  12  13
BRANCH  12  17
ATOM     17  C   UNL     1      86.781  35.350  23.886  1.00  0.00    -0.006 C 
ATOM     18  C   UNL     1      87.340  33.972  23.483  1.00  0.00     0.008 C 
ATOM     19  C   UNL     1      87.945  36.353  23.957  1.00  0.00     0.008 C 
ENDBRANCH  12  17
ENDBRANCH  11  12
ENDBRANCH   1  11
TORSDOF 1
ENDMDL
MODEL 8
REMARK VINA RESULT:    -2.874      3.420      5.197
REMARK INTER + INTRA:          -4.374
REMARK INTER:                  -4.248
REMARK INTRA:                  -0.126
REMARK UNBOUND:                 0.012
REMARK SMILES CC1=CCC[C@@H](C)C(=O)C[C@H](C(C)C)C(=O)C1
REMARK SMILES IDX 8 1 9 2 6 3 7 4 5 5 4 6 3 7 2 8 1 9 10 11 11 12 15 13 16 14
REMARK SMILES IDX 17 15 12 17 13 18 14 19
REMARK H PARENT
REMARK Flexibility Score: 70.00
ROOT
ATOM      1  C   UNL     1      83.486  37.666  29.832  1.00  0.00     0.136 C 
ATOM      2  O   UNL     1      83.946  38.604  30.472  1.00  0.00    -0.299 OA
ENDROOT
BRANCH   1   3
ATOM      3  C   UNL     1      84.252  36.360  29.764  1.00  0.00     0.053 C 
ATOM      4  C   UNL     1      84.263  35.669  31.135  1.00  0.00     0.016 C 
BRANCH   3   5
ATOM      5  C   UNL     1      85.691  36.610  29.258  1.00  0.00     0.015 C 
BRANCH   5   6
ATOM      6  C   UNL     1      85.751  36.757  27.725  1.00  0.00     0.028 C 
BRANCH   6   7
ATOM      7  C   UNL     1      85.112  35.580  27.034  1.00  0.00    -0.028 C 
ATOM      8  C   UNL     1      84.088  35.656  26.153  1.00  0.00    -0.070 CG0
ATOM      9  C   UNL     1      83.613  34.377  25.510  1.00  0.00     0.039 C 
ATOM     10  G   UNL     1      83.408  36.962  25.773  1.00  0.00     0.000 G0
ENDBRANCH   6   7
ENDBRANCH   5   6
ENDBRANCH   3   5
ENDBRANCH   1   3
BRANCH   1  11
ATOM     11  C   UNL     1      82.160  37.835  29.128  1.00  0.00     0.087 C 
BRANCH  11  12
ATOM     12  C   UNL     1      82.318  38.417  27.699  1.00  0.00     0.066 C 
BRANCH  12  13
ATOM     13  C   UNL     1      82.236  37.314  26.650  1.00  0.00     0.140 C 
ATOM     14  O   UNL     1      81.210  36.653  26.572  1.00  0.00    -0.299 OA
BRANCH  13  15
ATOM     15  C   UNL     1      83.406  36.966  25.757  1.00  0.00     0.106 CG0
ATOM     16  G   UNL     1      84.064  35.654  26.154  1.00  0.00     0.000 G0
ENDBRANCH  13  15
ENDBRANCH  12  13
BRANCH  12  17
ATOM     17  C   UNL     1      81.312  39.574  27.395  1.00  0.00    -0.006 C 
ATOM     18  C   UNL     1      81.248  39.869  25.885  1.00  0.00     0.008 C 
ATOM     19  C   UNL     1      81.671  40.874  28.137  1.00  0.00     0.008 C 
ENDBRANCH  12  17
ENDBRANCH  11  12
ENDBRANCH   1  11
TORSDOF 1
ENDMDL
MODEL 9
REMARK VINA RESULT:    -2.731      3.470      5.192
REMARK INTER + INTRA:          -4.155
REMARK INTER:                  -3.928
REMARK INTRA:                  -0.227
REMARK UNBOUND:                 0.012
REMARK SMILES CC1=CCC[C@@H](C)C(=O)C[C@H](C(C)C)C(=O)C1
REMARK SMILES IDX 8 1 9 2 6 3 7 4 5 5 4 6 3 7 2 8 1 9 10 11 11 12 15 13 16 14
REMARK SMILES IDX 17 15 12 17 13 18 14 19
REMARK H PARENT
REMARK Flexibility Score: 70.00
ROOT
ATOM      1  C   UNL     1      82.409  37.447  25.333  1.00  0.00     0.136 C 
ATOM      2  O   UNL     1      82.447  38.649  25.557  1.00  0.00    -0.299 OA
ENDROOT
BRANCH   1   3
ATOM      3  C   UNL     1      83.060  36.483  26.307  1.00  0.00     0.053 C 
ATOM      4  C   UNL     1      82.449  36.638  27.707  1.00  0.00     0.016 C 
BRANCH   3   5
ATOM      5  C   UNL     1      84.588  36.710  26.342  1.00  0.00     0.015 C 
BRANCH   5   6
ATOM      6  C   UNL     1      85.331  35.821  25.325  1.00  0.00     0.028 C 
BRANCH   6   7
ATOM      7  C   UNL     1      84.651  34.487  25.160  1.00  0.00    -0.028 C 
ATOM      8  C   UNL     1      84.164  34.000  23.995  1.00  0.00    -0.070 CG0
ATOM      9  C   UNL     1      83.567  32.615  24.004  1.00  0.00     0.039 C 
ATOM     10  G   UNL     1      84.204  34.770  22.686  1.00  0.00     0.000 G0
ENDBRANCH   6   7
ENDBRANCH   5   6
ENDBRANCH   3   5
ENDBRANCH   1   3
BRANCH   1  11
ATOM     11  C   UNL     1      81.710  36.950  24.089  1.00  0.00     0.087 C 
BRANCH  11  12
ATOM     12  C   UNL     1      82.650  36.912  22.856  1.00  0.00     0.066 C 
BRANCH  12  13
ATOM     13  C   UNL     1      82.898  35.477  22.405  1.00  0.00     0.140 C 
ATOM     14  O   UNL     1      81.993  34.872  21.849  1.00  0.00    -0.299 OA
BRANCH  13  15
ATOM     15  C   UNL     1      84.199  34.760  22.690  1.00  0.00     0.106 CG0
ATOM     16  G   UNL     1      84.158  33.991  24.001  1.00  0.00     0.000 G0
ENDBRANCH  13  15
ENDBRANCH  12  13
BRANCH  12  17
ATOM     17  C   UNL     1      82.147  37.806  21.677  1.00  0.00    -0.006 C 
ATOM     18  C   UNL     1      83.128  37.757  20.489  1.00  0.00     0.008 C 
ATOM     19  C   UNL     1      81.951  39.273  22.094  1.00  0.00     0.008 C 
ENDBRANCH  12  17
ENDBRANCH  11  12
ENDBRANCH   1  11
TORSDOF 1
ENDMDL
