MODEL 1
REMARK VINA RESULT:    -0.752      0.000      0.000
REMARK INTER + INTRA:          -3.520
REMARK INTER:                  -1.720
REMARK INTRA:                  -1.800
REMARK UNBOUND:                -1.800
REMARK SMILES CCCCCCCCCCCCCCCCCCCCCCCC(=O)[O-]
REMARK SMILES IDX 13 1 14 2 15 3 16 4 17 5 18 6 19 7 20 8 21 9 22 10 23 11
REMARK SMILES IDX 24 12 25 13 26 14 12 15 11 16 10 17 9 18 8 19 7 20 6 21 5 22
REMARK SMILES IDX 4 23 3 24 2 25 1 26
REMARK H PARENT
REMARK Flexibility Score: inf
ROOT
ATOM      1  C   UNL     1      14.669   4.378  15.690  1.00  0.00     0.000 C 
ENDROOT
BRANCH   1   2
ATOM      2  C   UNL     1      14.898   5.412  14.577  1.00  0.00     0.000 C 
BRANCH   2   3
ATOM      3  C   UNL     1      13.805   6.492  14.544  1.00  0.00     0.000 C 
BRANCH   3   4
ATOM      4  C   UNL     1      14.317   7.866  15.000  1.00  0.00     0.000 C 
BRANCH   4   5
ATOM      5  C   UNL     1      13.196   8.758  15.563  1.00  0.00     0.000 C 
BRANCH   5   6
ATOM      6  C   UNL     1      12.875   9.953  14.640  1.00  0.00     0.000 C 
BRANCH   6   7
ATOM      7  C   UNL     1      12.741  11.292  15.394  1.00  0.00     0.000 C 
BRANCH   7   8
ATOM      8  C   UNL     1      11.800  12.315  14.730  1.00  0.00     0.000 C 
BRANCH   8   9
ATOM      9  C   UNL     1      11.804  12.284  13.188  1.00  0.00     0.000 C 
BRANCH   9  10
ATOM     10  C   UNL     1      12.816  13.264  12.556  1.00  0.00     0.006 C 
BRANCH  10  11
ATOM     11  C   UNL     1      13.270  14.349  13.543  1.00  0.00     0.053 C 
BRANCH  11  12
ATOM     12  C   UNL     1      13.294  15.692  12.880  1.00  0.00     0.041 C 
ATOM     13  O   UNL     1      13.995  16.623  13.356  1.00  0.00    -0.550 OA
ATOM     14  O   UNL     1      12.508  15.925  11.756  1.00  0.00    -0.550 OA
ENDBRANCH  11  12
ENDBRANCH  10  11
ENDBRANCH   9  10
ENDBRANCH   8   9
ENDBRANCH   7   8
ENDBRANCH   6   7
ENDBRANCH   5   6
ENDBRANCH   4   5
ENDBRANCH   3   4
ENDBRANCH   2   3
ENDBRANCH   1   2
BRANCH   1  15
ATOM     15  C   UNL     1      13.235   4.420  16.249  1.00  0.00     0.000 C 
BRANCH  15  16
ATOM     16  C   UNL     1      13.139   3.780  17.651  1.00  0.00     0.000 C 
BRANCH  16  17
ATOM     17  C   UNL     1      12.537   4.711  18.717  1.00  0.00     0.000 C 
BRANCH  17  18
ATOM     18  C   UNL     1      12.500   6.181  18.273  1.00  0.00    -0.000 C 
BRANCH  18  19
ATOM     19  C   UNL     1      13.757   6.973  18.682  1.00  0.00    -0.000 C 
BRANCH  19  20
ATOM     20  C   UNL     1      14.610   6.330  19.794  1.00  0.00    -0.000 C 
BRANCH  20  21
ATOM     21  C   UNL     1      15.857   7.155  20.153  1.00  0.00    -0.000 C 
BRANCH  21  22
ATOM     22  C   UNL     1      16.913   6.322  20.895  1.00  0.00    -0.000 C 
BRANCH  22  23
ATOM     23  C   UNL     1      16.519   6.042  22.355  1.00  0.00    -0.000 C 
BRANCH  23  24
ATOM     24  C   UNL     1      17.432   4.999  23.022  1.00  0.00    -0.000 C 
BRANCH  24  25
ATOM     25  C   UNL     1      18.876   5.495  23.189  1.00  0.00    -0.003 C 
ATOM     26  C   UNL     1      19.812   4.344  23.544  1.00  0.00     0.004 C 
ENDBRANCH  24  25
ENDBRANCH  23  24
ENDBRANCH  22  23
ENDBRANCH  21  22
ENDBRANCH  20  21
ENDBRANCH  19  20
ENDBRANCH  18  19
ENDBRANCH  17  18
ENDBRANCH  16  17
ENDBRANCH  15  16
ENDBRANCH   1  15
TORSDOF 22
ENDMDL
MODEL 2
REMARK VINA RESULT:    -0.521      3.208      5.512
REMARK INTER + INTRA:          -2.992
REMARK INTER:                  -1.329
REMARK INTRA:                  -1.662
REMARK UNBOUND:                -1.800
REMARK SMILES CCCCCCCCCCCCCCCCCCCCCCCC(=O)[O-]
REMARK SMILES IDX 13 1 14 2 15 3 16 4 17 5 18 6 19 7 20 8 21 9 22 10 23 11
REMARK SMILES IDX 24 12 25 13 26 14 12 15 11 16 10 17 9 18 8 19 7 20 6 21 5 22
REMARK SMILES IDX 4 23 3 24 2 25 1 26
REMARK H PARENT
REMARK Flexibility Score: inf
ROOT
ATOM      1  C   UNL     1      12.154   6.197  17.295  1.00  0.00     0.000 C 
ENDROOT
BRANCH   1   2
ATOM      2  C   UNL     1      12.658   7.556  16.780  1.00  0.00     0.000 C 
BRANCH   2   3
ATOM      3  C   UNL     1      13.235   7.468  15.359  1.00  0.00     0.000 C 
BRANCH   3   4
ATOM      4  C   UNL     1      13.934   8.764  14.924  1.00  0.00     0.000 C 
BRANCH   4   5
ATOM      5  C   UNL     1      13.208  10.024  15.428  1.00  0.00     0.000 C 
BRANCH   5   6
ATOM      6  C   UNL     1      12.397  10.723  14.316  1.00  0.00     0.000 C 
BRANCH   6   7
ATOM      7  C   UNL     1      12.210  12.236  14.550  1.00  0.00     0.000 C 
BRANCH   7   8
ATOM      8  C   UNL     1      12.942  12.793  15.785  1.00  0.00     0.000 C 
BRANCH   8   9
ATOM      9  C   UNL     1      13.621  14.161  15.565  1.00  0.00     0.000 C 
BRANCH   9  10
ATOM     10  C   UNL     1      12.773  15.140  14.724  1.00  0.00     0.006 C 
BRANCH  10  11
ATOM     11  C   UNL     1      13.623  15.926  13.715  1.00  0.00     0.053 C 
BRANCH  11  12
ATOM     12  C   UNL     1      13.216  15.598  12.311  1.00  0.00     0.041 C 
ATOM     13  O   UNL     1      13.317  16.463  11.402  1.00  0.00    -0.550 OA
ATOM     14  O   UNL     1      12.688  14.346  12.017  1.00  0.00    -0.550 OA
ENDBRANCH  11  12
ENDBRANCH  10  11
ENDBRANCH   9  10
ENDBRANCH   8   9
ENDBRANCH   7   8
ENDBRANCH   6   7
ENDBRANCH   5   6
ENDBRANCH   4   5
ENDBRANCH   3   4
ENDBRANCH   2   3
ENDBRANCH   1   2
BRANCH   1  15
ATOM     15  C   UNL     1      12.701   5.856  18.693  1.00  0.00     0.000 C 
BRANCH  15  16
ATOM     16  C   UNL     1      11.972   4.651  19.324  1.00  0.00     0.000 C 
BRANCH  16  17
ATOM     17  C   UNL     1      12.712   3.314  19.142  1.00  0.00     0.000 C 
BRANCH  17  18
ATOM     18  C   UNL     1      12.490   2.693  17.755  1.00  0.00    -0.000 C 
BRANCH  18  19
ATOM     19  C   UNL     1      13.749   2.723  16.866  1.00  0.00    -0.000 C 
BRANCH  19  20
ATOM     20  C   UNL     1      13.725   3.753  15.720  1.00  0.00    -0.000 C 
BRANCH  20  21
ATOM     21  C   UNL     1      15.096   4.396  15.455  1.00  0.00    -0.000 C 
BRANCH  21  22
ATOM     22  C   UNL     1      15.142   5.139  14.111  1.00  0.00    -0.000 C 
BRANCH  22  23
ATOM     23  C   UNL     1      16.353   4.730  13.256  1.00  0.00    -0.000 C 
BRANCH  23  24
ATOM     24  C   UNL     1      15.940   4.132  11.900  1.00  0.00    -0.000 C 
BRANCH  24  25
ATOM     25  C   UNL     1      14.661   4.769  11.335  1.00  0.00    -0.003 C 
ATOM     26  C   UNL     1      13.675   3.700  10.875  1.00  0.00     0.004 C 
ENDBRANCH  24  25
ENDBRANCH  23  24
ENDBRANCH  22  23
ENDBRANCH  21  22
ENDBRANCH  20  21
ENDBRANCH  19  20
ENDBRANCH  18  19
ENDBRANCH  17  18
ENDBRANCH  16  17
ENDBRANCH  15  16
ENDBRANCH   1  15
TORSDOF 22
ENDMDL
MODEL 3
REMARK VINA RESULT:    -0.389      3.386      5.485
REMARK INTER + INTRA:          -2.690
REMARK INTER:                  -0.507
REMARK INTRA:                  -2.183
REMARK UNBOUND:                -1.800
REMARK SMILES CCCCCCCCCCCCCCCCCCCCCCCC(=O)[O-]
REMARK SMILES IDX 13 1 14 2 15 3 16 4 17 5 18 6 19 7 20 8 21 9 22 10 23 11
REMARK SMILES IDX 24 12 25 13 26 14 12 15 11 16 10 17 9 18 8 19 7 20 6 21 5 22
REMARK SMILES IDX 4 23 3 24 2 25 1 26
REMARK H PARENT
REMARK Flexibility Score: inf
ROOT
ATOM      1  C   UNL     1      13.471   7.708  16.176  1.00  0.00     0.000 C 
ENDROOT
BRANCH   1   2
ATOM      2  C   UNL     1      12.987   8.565  14.995  1.00  0.00     0.000 C 
BRANCH   2   3
ATOM      3  C   UNL     1      13.143  10.070  15.259  1.00  0.00     0.000 C 
BRANCH   3   4
ATOM      4  C   UNL     1      12.031  10.903  14.604  1.00  0.00     0.000 C 
BRANCH   4   5
ATOM      5  C   UNL     1      11.866  12.287  15.258  1.00  0.00     0.000 C 
BRANCH   5   6
ATOM      6  C   UNL     1      13.202  12.852  15.787  1.00  0.00     0.000 C 
BRANCH   6   7
ATOM      7  C   UNL     1      13.775  13.987  14.915  1.00  0.00     0.000 C 
BRANCH   7   8
ATOM      8  C   UNL     1      12.916  15.264  14.870  1.00  0.00     0.000 C 
BRANCH   8   9
ATOM      9  C   UNL     1      12.983  16.037  13.537  1.00  0.00     0.000 C 
BRANCH   9  10
ATOM     10  C   UNL     1      13.316  15.141  12.323  1.00  0.00     0.006 C 
BRANCH  10  11
ATOM     11  C   UNL     1      12.056  14.566  11.661  1.00  0.00     0.053 C 
BRANCH  11  12
ATOM     12  C   UNL     1      12.075  13.069  11.699  1.00  0.00     0.041 C 
ATOM     13  O   UNL     1      10.998  12.418  11.650  1.00  0.00    -0.550 OA
ATOM     14  O   UNL     1      13.283  12.393  11.829  1.00  0.00    -0.550 OA
ENDBRANCH  11  12
ENDBRANCH  10  11
ENDBRANCH   9  10
ENDBRANCH   8   9
ENDBRANCH   7   8
ENDBRANCH   6   7
ENDBRANCH   5   6
ENDBRANCH   4   5
ENDBRANCH   3   4
ENDBRANCH   2   3
ENDBRANCH   1   2
BRANCH   1  15
ATOM     15  C   UNL     1      12.319   6.968  16.879  1.00  0.00     0.000 C 
BRANCH  15  16
ATOM     16  C   UNL     1      12.687   6.559  18.322  1.00  0.00     0.000 C 
BRANCH  16  17
ATOM     17  C   UNL     1      12.896   5.045  18.502  1.00  0.00     0.000 C 
BRANCH  17  18
ATOM     18  C   UNL     1      12.624   4.248  17.217  1.00  0.00    -0.000 C 
BRANCH  18  19
ATOM     19  C   UNL     1      13.797   3.338  16.805  1.00  0.00    -0.000 C 
BRANCH  19  20
ATOM     20  C   UNL     1      14.812   3.969  15.831  1.00  0.00    -0.000 C 
BRANCH  20  21
ATOM     21  C   UNL     1      14.146   4.761  14.693  1.00  0.00    -0.000 C 
BRANCH  21  22
ATOM     22  C   UNL     1      15.174   5.465  13.794  1.00  0.00    -0.000 C 
BRANCH  22  23
ATOM     23  C   UNL     1      15.151   4.935  12.351  1.00  0.00    -0.000 C 
BRANCH  23  24
ATOM     24  C   UNL     1      16.340   4.008  12.046  1.00  0.00    -0.000 C 
BRANCH  24  25
ATOM     25  C   UNL     1      17.499   4.182  13.040  1.00  0.00    -0.003 C 
ATOM     26  C   UNL     1      18.769   3.516  12.522  1.00  0.00     0.004 C 
ENDBRANCH  24  25
ENDBRANCH  23  24
ENDBRANCH  22  23
ENDBRANCH  21  22
ENDBRANCH  20  21
ENDBRANCH  19  20
ENDBRANCH  18  19
ENDBRANCH  17  18
ENDBRANCH  16  17
ENDBRANCH  15  16
ENDBRANCH   1  15
TORSDOF 22
ENDMDL
MODEL 4
REMARK VINA RESULT:    -0.224      0.968      1.981
REMARK INTER + INTRA:          -2.311
REMARK INTER:                  -0.139
REMARK INTRA:                  -2.173
REMARK UNBOUND:                -1.800
REMARK SMILES CCCCCCCCCCCCCCCCCCCCCCCC(=O)[O-]
REMARK SMILES IDX 13 1 14 2 15 3 16 4 17 5 18 6 19 7 20 8 21 9 22 10 23 11
REMARK SMILES IDX 24 12 25 13 26 14 12 15 11 16 10 17 9 18 8 19 7 20 6 21 5 22
REMARK SMILES IDX 4 23 3 24 2 25 1 26
REMARK H PARENT
REMARK Flexibility Score: inf
ROOT
ATOM      1  C   UNL     1      14.057   4.630  15.839  1.00  0.00     0.000 C 
ENDROOT
BRANCH   1   2
ATOM      2  C   UNL     1      14.730   5.110  14.543  1.00  0.00     0.000 C 
BRANCH   2   3
ATOM      3  C   UNL     1      14.404   6.577  14.221  1.00  0.00     0.000 C 
BRANCH   3   4
ATOM      4  C   UNL     1      13.579   7.256  15.325  1.00  0.00     0.000 C 
BRANCH   4   5
ATOM      5  C   UNL     1      13.796   8.779  15.371  1.00  0.00     0.000 C 
BRANCH   5   6
ATOM      6  C   UNL     1      12.480   9.567  15.199  1.00  0.00     0.000 C 
BRANCH   6   7
ATOM      7  C   UNL     1      12.652  10.885  14.417  1.00  0.00     0.000 C 
BRANCH   7   8
ATOM      8  C   UNL     1      12.056  12.127  15.106  1.00  0.00     0.000 C 
BRANCH   8   9
ATOM      9  C   UNL     1      13.099  13.067  15.746  1.00  0.00     0.000 C 
BRANCH   9  10
ATOM     10  C   UNL     1      13.200  14.440  15.045  1.00  0.00     0.006 C 
BRANCH  10  11
ATOM     11  C   UNL     1      13.342  14.307  13.522  1.00  0.00     0.053 C 
BRANCH  11  12
ATOM     12  C   UNL     1      13.363  15.656  12.873  1.00  0.00     0.041 C 
ATOM     13  O   UNL     1      13.669  16.679  13.541  1.00  0.00    -0.550 OA
ATOM     14  O   UNL     1      13.004  15.788  11.536  1.00  0.00    -0.550 OA
ENDBRANCH  11  12
ENDBRANCH  10  11
ENDBRANCH   9  10
ENDBRANCH   8   9
ENDBRANCH   7   8
ENDBRANCH   6   7
ENDBRANCH   5   6
ENDBRANCH   4   5
ENDBRANCH   3   4
ENDBRANCH   2   3
ENDBRANCH   1   2
BRANCH   1  15
ATOM     15  C   UNL     1      14.788   3.434  16.475  1.00  0.00     0.000 C 
BRANCH  15  16
ATOM     16  C   UNL     1      13.821   2.501  17.237  1.00  0.00     0.000 C 
BRANCH  16  17
ATOM     17  C   UNL     1      12.488   3.168  17.617  1.00  0.00     0.000 C 
BRANCH  17  18
ATOM     18  C   UNL     1      12.250   3.203  19.135  1.00  0.00    -0.000 C 
BRANCH  18  19
ATOM     19  C   UNL     1      12.299   4.625  19.726  1.00  0.00    -0.000 C 
BRANCH  19  20
ATOM     20  C   UNL     1      12.209   5.771  18.699  1.00  0.00    -0.000 C 
BRANCH  20  21
ATOM     21  C   UNL     1      13.308   6.832  18.879  1.00  0.00    -0.000 C 
BRANCH  21  22
ATOM     22  C   UNL     1      14.663   6.211  19.249  1.00  0.00    -0.000 C 
BRANCH  22  23
ATOM     23  C   UNL     1      15.553   7.179  20.047  1.00  0.00    -0.000 C 
BRANCH  23  24
ATOM     24  C   UNL     1      16.718   6.462  20.751  1.00  0.00    -0.000 C 
BRANCH  24  25
ATOM     25  C   UNL     1      16.462   6.243  22.250  1.00  0.00    -0.003 C 
ATOM     26  C   UNL     1      17.426   5.211  22.825  1.00  0.00     0.004 C 
ENDBRANCH  24  25
ENDBRANCH  23  24
ENDBRANCH  22  23
ENDBRANCH  21  22
ENDBRANCH  20  21
ENDBRANCH  19  20
ENDBRANCH  18  19
ENDBRANCH  17  18
ENDBRANCH  16  17
ENDBRANCH  15  16
ENDBRANCH   1  15
TORSDOF 22
ENDMDL
MODEL 5
REMARK VINA RESULT:    -0.213      4.925     10.158
REMARK INTER + INTRA:          -2.286
REMARK INTER:                  -0.264
REMARK INTRA:                  -2.022
REMARK UNBOUND:                -1.800
REMARK SMILES CCCCCCCCCCCCCCCCCCCCCCCC(=O)[O-]
REMARK SMILES IDX 13 1 14 2 15 3 16 4 17 5 18 6 19 7 20 8 21 9 22 10 23 11
REMARK SMILES IDX 24 12 25 13 26 14 12 15 11 16 10 17 9 18 8 19 7 20 6 21 5 22
REMARK SMILES IDX 4 23 3 24 2 25 1 26
REMARK H PARENT
REMARK Flexibility Score: inf
ROOT
ATOM      1  C   UNL     1      13.081   7.722  15.384  1.00  0.00     0.000 C 
ENDROOT
BRANCH   1   2
ATOM      2  C   UNL     1      13.062   7.405  16.888  1.00  0.00     0.000 C 
BRANCH   2   3
ATOM      3  C   UNL     1      12.113   6.246  17.232  1.00  0.00     0.000 C 
BRANCH   3   4
ATOM      4  C   UNL     1      12.544   5.484  18.494  1.00  0.00     0.000 C 
BRANCH   4   5
ATOM      5  C   UNL     1      12.677   3.970  18.253  1.00  0.00     0.000 C 
BRANCH   5   6
ATOM      6  C   UNL     1      13.096   3.638  16.804  1.00  0.00     0.000 C 
BRANCH   6   7
ATOM      7  C   UNL     1      14.522   3.062  16.694  1.00  0.00     0.000 C 
BRANCH   7   8
ATOM      8  C   UNL     1      15.478   3.872  15.799  1.00  0.00     0.000 C 
BRANCH   8   9
ATOM      9  C   UNL     1      14.779   4.862  14.845  1.00  0.00     0.000 C 
BRANCH   9  10
ATOM     10  C   UNL     1      15.457   4.966  13.461  1.00  0.00     0.006 C 
BRANCH  10  11
ATOM     11  C   UNL     1      16.970   4.719  13.535  1.00  0.00     0.053 C 
BRANCH  11  12
ATOM     12  C   UNL     1      17.435   3.926  12.352  1.00  0.00     0.041 C 
ATOM     13  O   UNL     1      16.635   3.645  11.421  1.00  0.00    -0.550 OA
ATOM     14  O   UNL     1      18.745   3.464  12.299  1.00  0.00    -0.550 OA
ENDBRANCH  11  12
ENDBRANCH  10  11
ENDBRANCH   9  10
ENDBRANCH   8   9
ENDBRANCH   7   8
ENDBRANCH   6   7
ENDBRANCH   5   6
ENDBRANCH   4   5
ENDBRANCH   3   4
ENDBRANCH   2   3
ENDBRANCH   1   2
BRANCH   1  15
ATOM     15  C   UNL     1      13.632   9.128  15.084  1.00  0.00     0.000 C 
BRANCH  15  16
ATOM     16  C   UNL     1      12.504  10.166  14.898  1.00  0.00     0.000 C 
BRANCH  16  17
ATOM     17  C   UNL     1      13.001  11.621  14.861  1.00  0.00     0.000 C 
BRANCH  17  18
ATOM     18  C   UNL     1      11.915  12.634  15.256  1.00  0.00    -0.000 C 
BRANCH  18  19
ATOM     19  C   UNL     1      12.483  13.923  15.880  1.00  0.00    -0.000 C 
BRANCH  19  20
ATOM     20  C   UNL     1      13.587  14.622  15.062  1.00  0.00    -0.000 C 
BRANCH  20  21
ATOM     21  C   UNL     1      13.068  15.811  14.237  1.00  0.00    -0.000 C 
BRANCH  21  22
ATOM     22  C   UNL     1      13.876  16.023  12.947  1.00  0.00    -0.000 C 
BRANCH  22  23
ATOM     23  C   UNL     1      12.985  16.040  11.693  1.00  0.00    -0.000 C 
BRANCH  23  24
ATOM     24  C   UNL     1      11.976  14.879  11.673  1.00  0.00    -0.000 C 
BRANCH  24  25
ATOM     25  C   UNL     1      12.651  13.504  11.775  1.00  0.00    -0.003 C 
ATOM     26  C   UNL     1      11.656  12.383  11.493  1.00  0.00     0.004 C 
ENDBRANCH  24  25
ENDBRANCH  23  24
ENDBRANCH  22  23
ENDBRANCH  21  22
ENDBRANCH  20  21
ENDBRANCH  19  20
ENDBRANCH  18  19
ENDBRANCH  17  18
ENDBRANCH  16  17
ENDBRANCH  15  16
ENDBRANCH   1  15
TORSDOF 22
ENDMDL
MODEL 6
REMARK VINA RESULT:    -0.182      1.507      2.797
REMARK INTER + INTRA:          -2.215
REMARK INTER:                  -0.513
REMARK INTRA:                  -1.702
REMARK UNBOUND:                -1.800
REMARK SMILES CCCCCCCCCCCCCCCCCCCCCCCC(=O)[O-]
REMARK SMILES IDX 13 1 14 2 15 3 16 4 17 5 18 6 19 7 20 8 21 9 22 10 23 11
REMARK SMILES IDX 24 12 25 13 26 14 12 15 11 16 10 17 9 18 8 19 7 20 6 21 5 22
REMARK SMILES IDX 4 23 3 24 2 25 1 26
REMARK H PARENT
REMARK Flexibility Score: inf
ROOT
ATOM      1  C   UNL     1      14.037   7.993  15.138  1.00  0.00     0.000 C 
ENDROOT
BRANCH   1   2
ATOM      2  C   UNL     1      12.888   8.941  15.518  1.00  0.00     0.000 C 
BRANCH   2   3
ATOM      3  C   UNL     1      12.898  10.236  14.692  1.00  0.00     0.000 C 
BRANCH   3   4
ATOM      4  C   UNL     1      11.565  10.994  14.766  1.00  0.00     0.000 C 
BRANCH   4   5
ATOM      5  C   UNL     1      11.747  12.475  15.146  1.00  0.00     0.000 C 
BRANCH   5   6
ATOM      6  C   UNL     1      13.229  12.847  15.370  1.00  0.00     0.000 C 
BRANCH   6   7
ATOM      7  C   UNL     1      13.448  14.346  15.660  1.00  0.00     0.000 C 
BRANCH   7   8
ATOM      8  C   UNL     1      12.737  15.303  14.684  1.00  0.00     0.000 C 
BRANCH   8   9
ATOM      9  C   UNL     1      13.643  15.878  13.576  1.00  0.00     0.000 C 
BRANCH   9  10
ATOM     10  C   UNL     1      13.261  15.399  12.159  1.00  0.00     0.006 C 
BRANCH  10  11
ATOM     11  C   UNL     1      11.955  14.593  12.149  1.00  0.00     0.053 C 
BRANCH  11  12
ATOM     12  C   UNL     1      12.216  13.166  11.778  1.00  0.00     0.041 C 
ATOM     13  O   UNL     1      11.339  12.496  11.170  1.00  0.00    -0.550 OA
ATOM     14  O   UNL     1      13.416  12.563  12.140  1.00  0.00    -0.550 OA
ENDBRANCH  11  12
ENDBRANCH  10  11
ENDBRANCH   9  10
ENDBRANCH   8   9
ENDBRANCH   7   8
ENDBRANCH   6   7
ENDBRANCH   5   6
ENDBRANCH   4   5
ENDBRANCH   3   4
ENDBRANCH   2   3
ENDBRANCH   1   2
BRANCH   1  15
ATOM     15  C   UNL     1      13.774   6.541  15.577  1.00  0.00     0.000 C 
BRANCH  15  16
ATOM     16  C   UNL     1      12.549   6.429  16.510  1.00  0.00     0.000 C 
BRANCH  16  17
ATOM     17  C   UNL     1      12.528   5.143  17.353  1.00  0.00     0.000 C 
BRANCH  17  18
ATOM     18  C   UNL     1      12.749   5.408  18.851  1.00  0.00    -0.000 C 
BRANCH  18  19
ATOM     19  C   UNL     1      13.524   6.709  19.131  1.00  0.00    -0.000 C 
BRANCH  19  20
ATOM     20  C   UNL     1      15.059   6.569  19.170  1.00  0.00    -0.000 C 
BRANCH  20  21
ATOM     21  C   UNL     1      15.700   7.272  20.378  1.00  0.00    -0.000 C 
BRANCH  21  22
ATOM     22  C   UNL     1      16.852   6.456  20.984  1.00  0.00    -0.000 C 
BRANCH  22  23
ATOM     23  C   UNL     1      16.496   5.869  22.360  1.00  0.00    -0.000 C 
BRANCH  23  24
ATOM     24  C   UNL     1      17.728   5.702  23.265  1.00  0.00    -0.000 C 
BRANCH  24  25
ATOM     25  C   UNL     1      18.459   4.370  23.033  1.00  0.00    -0.003 C 
ATOM     26  C   UNL     1      19.862   4.405  23.630  1.00  0.00     0.004 C 
ENDBRANCH  24  25
ENDBRANCH  23  24
ENDBRANCH  22  23
ENDBRANCH  21  22
ENDBRANCH  20  21
ENDBRANCH  19  20
ENDBRANCH  18  19
ENDBRANCH  17  18
ENDBRANCH  16  17
ENDBRANCH  15  16
ENDBRANCH   1  15
TORSDOF 22
ENDMDL
MODEL 7
REMARK VINA RESULT:    -0.140      4.749      9.731
REMARK INTER + INTRA:          -2.120
REMARK INTER:                  -0.695
REMARK INTRA:                  -1.425
REMARK UNBOUND:                -1.800
REMARK SMILES CCCCCCCCCCCCCCCCCCCCCCCC(=O)[O-]
REMARK SMILES IDX 13 1 14 2 15 3 16 4 17 5 18 6 19 7 20 8 21 9 22 10 23 11
REMARK SMILES IDX 24 12 25 13 26 14 12 15 11 16 10 17 9 18 8 19 7 20 6 21 5 22
REMARK SMILES IDX 4 23 3 24 2 25 1 26
REMARK H PARENT
REMARK Flexibility Score: inf
ROOT
ATOM      1  C   UNL     1      12.469   7.135  18.065  1.00  0.00     0.000 C 
ENDROOT
BRANCH   1   2
ATOM      2  C   UNL     1      12.974   5.832  18.705  1.00  0.00     0.000 C 
BRANCH   2   3
ATOM      3  C   UNL     1      11.838   4.835  18.981  1.00  0.00     0.000 C 
BRANCH   3   4
ATOM      4  C   UNL     1      12.354   3.468  19.455  1.00  0.00     0.000 C 
BRANCH   4   5
ATOM      5  C   UNL     1      12.511   2.463  18.300  1.00  0.00     0.000 C 
BRANCH   5   6
ATOM      6  C   UNL     1      13.050   3.123  17.013  1.00  0.00     0.000 C 
BRANCH   6   7
ATOM      7  C   UNL     1      14.548   2.853  16.765  1.00  0.00     0.000 C 
BRANCH   7   8
ATOM      8  C   UNL     1      15.303   3.996  16.060  1.00  0.00     0.000 C 
BRANCH   8   9
ATOM      9  C   UNL     1      14.521   4.670  14.914  1.00  0.00     0.000 C 
BRANCH   9  10
ATOM     10  C   UNL     1      15.399   5.022  13.694  1.00  0.00     0.006 C 
BRANCH  10  11
ATOM     11  C   UNL     1      16.856   4.572  13.876  1.00  0.00     0.053 C 
BRANCH  11  12
ATOM     12  C   UNL     1      17.401   4.011  12.599  1.00  0.00     0.041 C 
ATOM     13  O   UNL     1      16.659   3.897  11.588  1.00  0.00    -0.550 OA
ATOM     14  O   UNL     1      18.720   3.577  12.540  1.00  0.00    -0.550 OA
ENDBRANCH  11  12
ENDBRANCH  10  11
ENDBRANCH   9  10
ENDBRANCH   8   9
ENDBRANCH   7   8
ENDBRANCH   6   7
ENDBRANCH   5   6
ENDBRANCH   4   5
ENDBRANCH   3   4
ENDBRANCH   2   3
ENDBRANCH   1   2
BRANCH   1  15
ATOM     15  C   UNL     1      12.332   7.026  16.535  1.00  0.00     0.000 C 
BRANCH  15  16
ATOM     16  C   UNL     1      13.615   7.476  15.804  1.00  0.00     0.000 C 
BRANCH  16  17
ATOM     17  C   UNL     1      13.382   8.600  14.779  1.00  0.00     0.000 C 
BRANCH  17  18
ATOM     18  C   UNL     1      12.818   9.880  15.415  1.00  0.00    -0.000 C 
BRANCH  18  19
ATOM     19  C   UNL     1      12.489  10.978  14.384  1.00  0.00    -0.000 C 
BRANCH  19  20
ATOM     20  C   UNL     1      11.877  12.267  14.965  1.00  0.00    -0.000 C 
BRANCH  20  21
ATOM     21  C   UNL     1      12.864  13.068  15.832  1.00  0.00    -0.000 C 
BRANCH  21  22
ATOM     22  C   UNL     1      12.963  14.538  15.395  1.00  0.00    -0.000 C 
BRANCH  22  23
ATOM     23  C   UNL     1      13.607  14.695  14.007  1.00  0.00    -0.000 C 
BRANCH  23  24
ATOM     24  C   UNL     1      13.607  16.154  13.521  1.00  0.00    -0.000 C 
BRANCH  24  25
ATOM     25  C   UNL     1      13.261  16.283  12.030  1.00  0.00    -0.003 C 
ATOM     26  C   UNL     1      12.468  15.073  11.545  1.00  0.00     0.004 C 
ENDBRANCH  24  25
ENDBRANCH  23  24
ENDBRANCH  22  23
ENDBRANCH  21  22
ENDBRANCH  20  21
ENDBRANCH  19  20
ENDBRANCH  18  19
ENDBRANCH  17  18
ENDBRANCH  16  17
ENDBRANCH  15  16
ENDBRANCH   1  15
TORSDOF 22
ENDMDL
MODEL 8
REMARK VINA RESULT:     0.016      3.232      5.504
REMARK INTER + INTRA:          -1.763
REMARK INTER:                  -0.611
REMARK INTRA:                  -1.151
REMARK UNBOUND:                -1.800
REMARK SMILES CCCCCCCCCCCCCCCCCCCCCCCC(=O)[O-]
REMARK SMILES IDX 13 1 14 2 15 3 16 4 17 5 18 6 19 7 20 8 21 9 22 10 23 11
REMARK SMILES IDX 24 12 25 13 26 14 12 15 11 16 10 17 9 18 8 19 7 20 6 21 5 22
REMARK SMILES IDX 4 23 3 24 2 25 1 26
REMARK H PARENT
REMARK Flexibility Score: inf
ROOT
ATOM      1  C   UNL     1      12.802   5.526  18.425  1.00  0.00     0.000 C 
ENDROOT
BRANCH   1   2
ATOM      2  C   UNL     1      11.955   5.877  17.191  1.00  0.00     0.000 C 
BRANCH   2   3
ATOM      3  C   UNL     1      12.200   7.312  16.699  1.00  0.00     0.000 C 
BRANCH   3   4
ATOM      4  C   UNL     1      13.610   7.506  16.122  1.00  0.00     0.000 C 
BRANCH   4   5
ATOM      5  C   UNL     1      13.623   8.442  14.899  1.00  0.00     0.000 C 
BRANCH   5   6
ATOM      6  C   UNL     1      13.242   9.892  15.263  1.00  0.00     0.000 C 
BRANCH   6   7
ATOM      7  C   UNL     1      11.962  10.387  14.559  1.00  0.00     0.000 C 
BRANCH   7   8
ATOM      8  C   UNL     1      11.923  11.901  14.279  1.00  0.00     0.000 C 
BRANCH   8   9
ATOM      9  C   UNL     1      12.563  12.773  15.379  1.00  0.00     0.000 C 
BRANCH   9  10
ATOM     10  C   UNL     1      13.310  14.007  14.829  1.00  0.00     0.006 C 
BRANCH  10  11
ATOM     11  C   UNL     1      13.259  14.082  13.296  1.00  0.00     0.053 C 
BRANCH  11  12
ATOM     12  C   UNL     1      13.300  15.506  12.834  1.00  0.00     0.041 C 
ATOM     13  O   UNL     1      12.930  15.807  11.668  1.00  0.00    -0.550 OA
ATOM     14  O   UNL     1      13.785  16.497  13.681  1.00  0.00    -0.550 OA
ENDBRANCH  11  12
ENDBRANCH  10  11
ENDBRANCH   9  10
ENDBRANCH   8   9
ENDBRANCH   7   8
ENDBRANCH   6   7
ENDBRANCH   5   6
ENDBRANCH   4   5
ENDBRANCH   3   4
ENDBRANCH   2   3
ENDBRANCH   1   2
BRANCH   1  15
ATOM     15  C   UNL     1      12.221   4.343  19.222  1.00  0.00     0.000 C 
BRANCH  15  16
ATOM     16  C   UNL     1      12.551   2.984  18.569  1.00  0.00     0.000 C 
BRANCH  16  17
ATOM     17  C   UNL     1      12.935   3.088  17.083  1.00  0.00     0.000 C 
BRANCH  17  18
ATOM     18  C   UNL     1      14.441   2.901  16.841  1.00  0.00    -0.000 C 
BRANCH  18  19
ATOM     19  C   UNL     1      15.079   4.059  16.050  1.00  0.00    -0.000 C 
BRANCH  19  20
ATOM     20  C   UNL     1      14.314   4.494  14.784  1.00  0.00    -0.000 C 
BRANCH  20  21
ATOM     21  C   UNL     1      15.217   5.160  13.731  1.00  0.00    -0.000 C 
BRANCH  21  22
ATOM     22  C   UNL     1      14.664   5.004  12.306  1.00  0.00    -0.000 C 
BRANCH  22  23
ATOM     23  C   UNL     1      15.214   3.756  11.596  1.00  0.00    -0.000 C 
BRANCH  23  24
ATOM     24  C   UNL     1      16.613   3.987  11.000  1.00  0.00    -0.000 C 
BRANCH  24  25
ATOM     25  C   UNL     1      17.721   3.282  11.796  1.00  0.00    -0.003 C 
ATOM     26  C   UNL     1      18.104   4.087  13.034  1.00  0.00     0.004 C 
ENDBRANCH  24  25
ENDBRANCH  23  24
ENDBRANCH  22  23
ENDBRANCH  21  22
ENDBRANCH  20  21
ENDBRANCH  19  20
ENDBRANCH  18  19
ENDBRANCH  17  18
ENDBRANCH  16  17
ENDBRANCH  15  16
ENDBRANCH   1  15
TORSDOF 22
ENDMDL
MODEL 9
REMARK VINA RESULT:     0.221      4.769      9.733
REMARK INTER + INTRA:          -1.294
REMARK INTER:                   0.619
REMARK INTRA:                  -1.913
REMARK UNBOUND:                -1.800
REMARK SMILES CCCCCCCCCCCCCCCCCCCCCCCC(=O)[O-]
REMARK SMILES IDX 13 1 14 2 15 3 16 4 17 5 18 6 19 7 20 8 21 9 22 10 23 11
REMARK SMILES IDX 24 12 25 13 26 14 12 15 11 16 10 17 9 18 8 19 7 20 6 21 5 22
REMARK SMILES IDX 4 23 3 24 2 25 1 26
REMARK H PARENT
REMARK Flexibility Score: inf
ROOT
ATOM      1  C   UNL     1      12.901   6.777  16.091  1.00  0.00     0.000 C 
ENDROOT
BRANCH   1   2
ATOM      2  C   UNL     1      12.548   7.079  17.556  1.00  0.00     0.000 C 
BRANCH   2   3
ATOM      3  C   UNL     1      13.210   6.095  18.534  1.00  0.00     0.000 C 
BRANCH   3   4
ATOM      4  C   UNL     1      12.227   5.045  19.072  1.00  0.00     0.000 C 
BRANCH   4   5
ATOM      5  C   UNL     1      12.594   3.615  18.638  1.00  0.00     0.000 C 
BRANCH   5   6
ATOM      6  C   UNL     1      12.849   3.507  17.120  1.00  0.00     0.000 C 
BRANCH   6   7
ATOM      7  C   UNL     1      14.267   3.015  16.768  1.00  0.00     0.000 C 
BRANCH   7   8
ATOM      8  C   UNL     1      15.149   4.051  16.046  1.00  0.00     0.000 C 
BRANCH   8   9
ATOM      9  C   UNL     1      14.700   4.385  14.608  1.00  0.00     0.000 C 
BRANCH   9  10
ATOM     10  C   UNL     1      15.734   5.216  13.818  1.00  0.00     0.006 C 
BRANCH  10  11
ATOM     11  C   UNL     1      16.330   4.434  12.639  1.00  0.00     0.053 C 
BRANCH  11  12
ATOM     12  C   UNL     1      17.752   4.057  12.918  1.00  0.00     0.041 C 
ATOM     13  O   UNL     1      18.217   4.150  14.085  1.00  0.00    -0.550 OA
ATOM     14  O   UNL     1      18.577   3.640  11.879  1.00  0.00    -0.550 OA
ENDBRANCH  11  12
ENDBRANCH  10  11
ENDBRANCH   9  10
ENDBRANCH   8   9
ENDBRANCH   7   8
ENDBRANCH   6   7
ENDBRANCH   5   6
ENDBRANCH   4   5
ENDBRANCH   3   4
ENDBRANCH   2   3
ENDBRANCH   1   2
BRANCH   1  15
ATOM     15  C   UNL     1      13.561   7.975  15.384  1.00  0.00     0.000 C 
BRANCH  15  16
ATOM     16  C   UNL     1      12.533   9.061  15.000  1.00  0.00     0.000 C 
BRANCH  16  17
ATOM     17  C   UNL     1      12.932  10.478  15.447  1.00  0.00     0.000 C 
BRANCH  17  18
ATOM     18  C   UNL     1      12.910  11.496  14.297  1.00  0.00    -0.000 C 
BRANCH  18  19
ATOM     19  C   UNL     1      11.486  11.892  13.862  1.00  0.00    -0.000 C 
BRANCH  19  20
ATOM     20  C   UNL     1      11.335  12.295  12.382  1.00  0.00    -0.000 C 
BRANCH  20  21
ATOM     21  C   UNL     1      12.549  13.067  11.838  1.00  0.00    -0.000 C 
BRANCH  21  22
ATOM     22  C   UNL     1      12.372  14.589  11.955  1.00  0.00    -0.000 C 
BRANCH  22  23
ATOM     23  C   UNL     1      13.577  15.269  12.628  1.00  0.00    -0.000 C 
BRANCH  23  24
ATOM     24  C   UNL     1      13.184  16.032  13.905  1.00  0.00    -0.000 C 
BRANCH  24  25
ATOM     25  C   UNL     1      12.709  15.100  15.031  1.00  0.00    -0.003 C 
ATOM     26  C   UNL     1      13.858  14.242  15.551  1.00  0.00     0.004 C 
ENDBRANCH  24  25
ENDBRANCH  23  24
ENDBRANCH  22  23
ENDBRANCH  21  22
ENDBRANCH  20  21
ENDBRANCH  19  20
ENDBRANCH  18  19
ENDBRANCH  17  18
ENDBRANCH  16  17
ENDBRANCH  15  16
ENDBRANCH   1  15
TORSDOF 22
ENDMDL
