MODEL 1
REMARK VINA RESULT:    -3.359      0.000      0.000
REMARK INTER + INTRA:          -4.046
REMARK INTER:                  -3.948
REMARK INTRA:                  -0.098
REMARK UNBOUND:                -0.098
REMARK SMILES O=C([O-])CCC(=O)[O-]
REMARK SMILES IDX 4 1 2 2 1 3 3 4 5 5 6 6 7 7 8 8
REMARK H PARENT
REMARK Flexibility Score: inf
ROOT
ATOM      1  C   UNL     1       5.751  -5.338   1.419  1.00  0.00     0.059 C 
ENDROOT
BRANCH   1   2
ATOM      2  C   UNL     1       6.751  -6.392   1.787  1.00  0.00     0.042 C 
ATOM      3  O   UNL     1       7.193  -7.180   0.911  1.00  0.00    -0.550 OA
ATOM      4  O   UNL     1       7.224  -6.476   3.091  1.00  0.00    -0.550 OA
ENDBRANCH   1   2
BRANCH   1   5
ATOM      5  C   UNL     1       4.582  -5.301   2.410  1.00  0.00     0.059 C 
BRANCH   5   6
ATOM      6  C   UNL     1       4.471  -3.968   3.085  1.00  0.00     0.042 C 
ATOM      7  O   UNL     1       4.975  -3.792   4.225  1.00  0.00    -0.550 OA
ATOM      8  O   UNL     1       3.776  -2.933   2.472  1.00  0.00    -0.550 OA
ENDBRANCH   5   6
ENDBRANCH   1   5
TORSDOF 3
ENDMDL
MODEL 2
REMARK VINA RESULT:    -3.331     16.903     18.410
REMARK INTER + INTRA:          -4.013
REMARK INTER:                  -3.906
REMARK INTRA:                  -0.108
REMARK UNBOUND:                -0.098
REMARK SMILES O=C([O-])CCC(=O)[O-]
REMARK SMILES IDX 4 1 2 2 1 3 3 4 5 5 6 6 7 7 8 8
REMARK H PARENT
REMARK Flexibility Score: inf
ROOT
ATOM      1  C   UNL     1      12.698 -16.110  13.673  1.00  0.00     0.059 C 
ENDROOT
BRANCH   1   2
ATOM      2  C   UNL     1      11.270 -15.679  13.828  1.00  0.00     0.042 C 
ATOM      3  O   UNL     1      10.828 -15.346  14.958  1.00  0.00    -0.550 OA
ATOM      4  O   UNL     1      10.441 -15.607  12.715  1.00  0.00    -0.550 OA
ENDBRANCH   1   2
BRANCH   1   5
ATOM      5  C   UNL     1      12.981 -17.406  14.440  1.00  0.00     0.059 C 
BRANCH   5   6
ATOM      6  C   UNL     1      13.877 -17.167  15.616  1.00  0.00     0.042 C 
ATOM      7  O   UNL     1      14.923 -17.852  15.765  1.00  0.00    -0.550 OA
ATOM      8  O   UNL     1      13.536 -16.218  16.570  1.00  0.00    -0.550 OA
ENDBRANCH   5   6
ENDBRANCH   1   5
TORSDOF 3
ENDMDL
MODEL 3
REMARK VINA RESULT:    -3.314      2.223      3.131
REMARK INTER + INTRA:          -3.993
REMARK INTER:                  -3.895
REMARK INTRA:                  -0.098
REMARK UNBOUND:                -0.098
REMARK SMILES O=C([O-])CCC(=O)[O-]
REMARK SMILES IDX 4 1 2 2 1 3 3 4 5 5 6 6 7 7 8 8
REMARK H PARENT
REMARK Flexibility Score: inf
ROOT
ATOM      1  C   UNL     1       4.704  -4.060   1.809  1.00  0.00     0.059 C 
ENDROOT
BRANCH   1   2
ATOM      2  C   UNL     1       3.657  -4.937   1.191  1.00  0.00     0.042 C 
ATOM      3  O   UNL     1       3.902  -6.150   0.959  1.00  0.00    -0.550 OA
ATOM      4  O   UNL     1       2.398  -4.422   0.908  1.00  0.00    -0.550 OA
ENDBRANCH   1   2
BRANCH   1   5
ATOM      5  C   UNL     1       4.263  -3.537   3.180  1.00  0.00     0.059 C 
BRANCH   5   6
ATOM      6  C   UNL     1       5.036  -4.176   4.291  1.00  0.00     0.042 C 
ATOM      7  O   UNL     1       5.270  -3.537   5.350  1.00  0.00    -0.550 OA
ATOM      8  O   UNL     1       5.535  -5.464   4.141  1.00  0.00    -0.550 OA
ENDBRANCH   5   6
ENDBRANCH   1   5
TORSDOF 3
ENDMDL
MODEL 4
REMARK VINA RESULT:    -3.299     16.515     17.859
REMARK INTER + INTRA:          -3.975
REMARK INTER:                  -3.859
REMARK INTRA:                  -0.116
REMARK UNBOUND:                -0.098
REMARK SMILES O=C([O-])CCC(=O)[O-]
REMARK SMILES IDX 4 1 2 2 1 3 3 4 5 5 6 6 7 7 8 8
REMARK H PARENT
REMARK Flexibility Score: inf
ROOT
ATOM      1  C   UNL     1      11.614 -14.403  15.882  1.00  0.00     0.059 C 
ENDROOT
BRANCH   1   2
ATOM      2  C   UNL     1      12.427 -14.941  17.020  1.00  0.00     0.042 C 
ATOM      3  O   UNL     1      12.272 -14.483  18.182  1.00  0.00    -0.550 OA
ATOM      4  O   UNL     1      13.327 -15.977  16.802  1.00  0.00    -0.550 OA
ENDBRANCH   1   2
BRANCH   1   5
ATOM      5  C   UNL     1      10.969 -15.530  15.068  1.00  0.00     0.059 C 
BRANCH   5   6
ATOM      6  C   UNL     1      11.412 -15.502  13.637  1.00  0.00     0.042 C 
ATOM      7  O   UNL     1      10.560 -15.498  12.710  1.00  0.00    -0.550 OA
ATOM      8  O   UNL     1      12.765 -15.524  13.327  1.00  0.00    -0.550 OA
ENDBRANCH   5   6
ENDBRANCH   1   5
TORSDOF 3
ENDMDL
MODEL 5
REMARK VINA RESULT:    -3.280     17.252     18.685
REMARK INTER + INTRA:          -3.953
REMARK INTER:                  -3.837
REMARK INTRA:                  -0.116
REMARK UNBOUND:                -0.098
REMARK SMILES O=C([O-])CCC(=O)[O-]
REMARK SMILES IDX 4 1 2 2 1 3 3 4 5 5 6 6 7 7 8 8
REMARK H PARENT
REMARK Flexibility Score: inf
ROOT
ATOM      1  C   UNL     1      11.350 -15.343  15.529  1.00  0.00     0.059 C 
ENDROOT
BRANCH   1   2
ATOM      2  C   UNL     1      11.552 -14.168  16.437  1.00  0.00     0.042 C 
ATOM      3  O   UNL     1      11.265 -13.007  16.045  1.00  0.00    -0.550 OA
ATOM      4  O   UNL     1      12.019 -14.362  17.731  1.00  0.00    -0.550 OA
ENDBRANCH   1   2
BRANCH   1   5
ATOM      5  C   UNL     1      12.618 -15.663  14.731  1.00  0.00     0.059 C 
BRANCH   5   6
ATOM      6  C   UNL     1      13.411 -16.762  15.370  1.00  0.00     0.042 C 
ATOM      7  O   UNL     1      14.175 -16.510  16.339  1.00  0.00    -0.550 OA
ATOM      8  O   UNL     1      13.339 -18.055  14.869  1.00  0.00    -0.550 OA
ENDBRANCH   5   6
ENDBRANCH   1   5
TORSDOF 3
ENDMDL
MODEL 6
REMARK VINA RESULT:    -3.272     16.892     18.172
REMARK INTER + INTRA:          -3.943
REMARK INTER:                  -3.835
REMARK INTRA:                  -0.108
REMARK UNBOUND:                -0.098
REMARK SMILES O=C([O-])CCC(=O)[O-]
REMARK SMILES IDX 4 1 2 2 1 3 3 4 5 5 6 6 7 7 8 8
REMARK H PARENT
REMARK Flexibility Score: inf
ROOT
ATOM      1  C   UNL     1      13.010 -17.362  14.380  1.00  0.00     0.059 C 
ENDROOT
BRANCH   1   2
ATOM      2  C   UNL     1      13.866 -17.197  15.600  1.00  0.00     0.042 C 
ATOM      3  O   UNL     1      14.977 -17.784  15.679  1.00  0.00    -0.550 OA
ATOM      4  O   UNL     1      13.453 -16.361  16.630  1.00  0.00    -0.550 OA
ENDBRANCH   1   2
BRANCH   1   5
ATOM      5  C   UNL     1      12.759 -16.022  13.682  1.00  0.00     0.059 C 
BRANCH   5   6
ATOM      6  C   UNL     1      11.331 -15.590  13.809  1.00  0.00     0.042 C 
ATOM      7  O   UNL     1      10.591 -15.541  12.792  1.00  0.00    -0.550 OA
ATOM      8  O   UNL     1      10.828 -15.203  15.044  1.00  0.00    -0.550 OA
ENDBRANCH   5   6
ENDBRANCH   1   5
TORSDOF 3
ENDMDL
MODEL 7
REMARK VINA RESULT:    -3.269     17.813     19.356
REMARK INTER + INTRA:          -3.940
REMARK INTER:                  -3.904
REMARK INTRA:                  -0.037
REMARK UNBOUND:                -0.098
REMARK SMILES O=C([O-])CCC(=O)[O-]
REMARK SMILES IDX 4 1 2 2 1 3 3 4 5 5 6 6 7 7 8 8
REMARK H PARENT
REMARK Flexibility Score: inf
ROOT
ATOM      1  C   UNL     1      12.544 -15.488  15.691  1.00  0.00     0.059 C 
ENDROOT
BRANCH   1   2
ATOM      2  C   UNL     1      12.016 -14.502  16.690  1.00  0.00     0.042 C 
ATOM      3  O   UNL     1      12.151 -14.716  17.923  1.00  0.00    -0.550 OA
ATOM      4  O   UNL     1      11.412 -13.329  16.257  1.00  0.00    -0.550 OA
ENDBRANCH   1   2
BRANCH   1   5
ATOM      5  C   UNL     1      13.717 -16.293  16.261  1.00  0.00     0.059 C 
BRANCH   5   6
ATOM      6  C   UNL     1      14.113 -17.414  15.349  1.00  0.00     0.042 C 
ATOM      7  O   UNL     1      13.233 -18.158  14.841  1.00  0.00    -0.550 OA
ATOM      8  O   UNL     1      15.455 -17.662  15.093  1.00  0.00    -0.550 OA
ENDBRANCH   5   6
ENDBRANCH   1   5
TORSDOF 3
ENDMDL
MODEL 8
REMARK VINA RESULT:    -3.264     16.560     17.805
REMARK INTER + INTRA:          -3.935
REMARK INTER:                  -3.816
REMARK INTRA:                  -0.119
REMARK UNBOUND:                -0.098
REMARK SMILES O=C([O-])CCC(=O)[O-]
REMARK SMILES IDX 4 1 2 2 1 3 3 4 5 5 6 6 7 7 8 8
REMARK H PARENT
REMARK Flexibility Score: inf
ROOT
ATOM      1  C   UNL     1      10.947 -15.504  15.085  1.00  0.00     0.059 C 
ENDROOT
BRANCH   1   2
ATOM      2  C   UNL     1      11.358 -15.562  13.644  1.00  0.00     0.042 C 
ATOM      3  O   UNL     1      10.489 -15.522  12.735  1.00  0.00    -0.550 OA
ATOM      4  O   UNL     1      12.705 -15.619  13.308  1.00  0.00    -0.550 OA
ENDBRANCH   1   2
BRANCH   1   5
ATOM      5  C   UNL     1      11.758 -14.460  15.860  1.00  0.00     0.059 C 
BRANCH   5   6
ATOM      6  C   UNL     1      12.531 -15.082  16.982  1.00  0.00     0.042 C 
ATOM      7  O   UNL     1      13.365 -15.995  16.747  1.00  0.00    -0.550 OA
ATOM      8  O   UNL     1      12.300 -14.682  18.292  1.00  0.00    -0.550 OA
ENDBRANCH   5   6
ENDBRANCH   1   5
TORSDOF 3
ENDMDL
MODEL 9
REMARK VINA RESULT:    -3.258     17.853     18.956
REMARK INTER + INTRA:          -3.928
REMARK INTER:                  -3.891
REMARK INTRA:                  -0.037
REMARK UNBOUND:                -0.098
REMARK SMILES O=C([O-])CCC(=O)[O-]
REMARK SMILES IDX 4 1 2 2 1 3 3 4 5 5 6 6 7 7 8 8
REMARK H PARENT
REMARK Flexibility Score: inf
ROOT
ATOM      1  C   UNL     1      13.794 -16.252  16.207  1.00  0.00     0.059 C 
ENDROOT
BRANCH   1   2
ATOM      2  C   UNL     1      14.118 -17.432  15.342  1.00  0.00     0.042 C 
ATOM      3  O   UNL     1      13.193 -18.123  14.840  1.00  0.00    -0.550 OA
ATOM      4  O   UNL     1      15.442 -17.743  15.058  1.00  0.00    -0.550 OA
ENDBRANCH   1   2
BRANCH   1   5
ATOM      5  C   UNL     1      12.466 -15.604  15.801  1.00  0.00     0.059 C 
BRANCH   5   6
ATOM      6  C   UNL     1      12.051 -14.539  16.769  1.00  0.00     0.042 C 
ATOM      7  O   UNL     1      12.217 -14.708  18.006  1.00  0.00    -0.550 OA
ATOM      8  O   UNL     1      11.443 -13.378  16.309  1.00  0.00    -0.550 OA
ENDBRANCH   5   6
ENDBRANCH   1   5
TORSDOF 3
ENDMDL
