MODEL 1
REMARK VINA RESULT:    -3.938      0.000      0.000
REMARK INTER + INTRA:          -6.249
REMARK INTER:                  -5.549
REMARK INTRA:                  -0.700
REMARK UNBOUND:                -0.700
REMARK SMILES C=CCCCCCCC(=O)[O-]
REMARK SMILES IDX 6 1 7 2 8 3 9 4 10 5 11 6 5 7 4 8 3 9 2 10 1 11
REMARK H PARENT
REMARK Flexibility Score: inf
ROOT
ATOM      1  C   UNL     1      22.291  24.698  24.246  1.00  0.00     0.000 C 
ENDROOT
BRANCH   1   2
ATOM      2  C   UNL     1      20.788  24.847  24.535  1.00  0.00     0.006 C 
BRANCH   2   3
ATOM      3  C   UNL     1      20.201  26.118  23.907  1.00  0.00     0.053 C 
BRANCH   3   4
ATOM      4  C   UNL     1      19.278  26.831  24.847  1.00  0.00     0.041 C 
ATOM      5  O   UNL     1      19.671  27.150  26.000  1.00  0.00    -0.550 OA
ATOM      6  O   UNL     1      17.974  27.116  24.462  1.00  0.00    -0.550 OA
ENDBRANCH   3   4
ENDBRANCH   2   3
ENDBRANCH   1   2
BRANCH   1   7
ATOM      7  C   UNL     1      22.688  25.266  22.875  1.00  0.00     0.000 C 
BRANCH   7   8
ATOM      8  C   UNL     1      22.671  24.205  21.765  1.00  0.00     0.004 C 
BRANCH   8   9
ATOM      9  C   UNL     1      22.205  24.810  20.435  1.00  0.00     0.027 C 
BRANCH   9  10
ATOM     10  C   UNL     1      20.704  24.830  20.340  1.00  0.00    -0.035 C 
ATOM     11  C   UNL     1      19.956  23.830  20.813  1.00  0.00     0.004 C 
ENDBRANCH   9  10
ENDBRANCH   8   9
ENDBRANCH   7   8
ENDBRANCH   1   7
TORSDOF 7
ENDMDL
MODEL 2
REMARK VINA RESULT:    -3.797      1.383      2.581
REMARK INTER + INTRA:          -6.051
REMARK INTER:                  -5.455
REMARK INTRA:                  -0.595
REMARK UNBOUND:                -0.700
REMARK SMILES C=CCCCCCCC(=O)[O-]
REMARK SMILES IDX 6 1 7 2 8 3 9 4 10 5 11 6 5 7 4 8 3 9 2 10 1 11
REMARK H PARENT
REMARK Flexibility Score: inf
ROOT
ATOM      1  C   UNL     1      19.742  26.546  21.710  1.00  0.00     0.000 C 
ENDROOT
BRANCH   1   2
ATOM      2  C   UNL     1      19.168  25.724  22.877  1.00  0.00     0.006 C 
BRANCH   2   3
ATOM      3  C   UNL     1      18.422  26.602  23.891  1.00  0.00     0.053 C 
BRANCH   3   4
ATOM      4  C   UNL     1      19.231  26.833  25.131  1.00  0.00     0.041 C 
ATOM      5  O   UNL     1      20.325  26.231  25.294  1.00  0.00    -0.550 OA
ATOM      6  O   UNL     1      18.763  27.689  26.119  1.00  0.00    -0.550 OA
ENDBRANCH   3   4
ENDBRANCH   2   3
ENDBRANCH   1   2
BRANCH   1   7
ATOM      7  C   UNL     1      21.278  26.528  21.674  1.00  0.00     0.000 C 
BRANCH   7   8
ATOM      8  C   UNL     1      21.839  25.356  20.855  1.00  0.00     0.004 C 
BRANCH   8   9
ATOM      9  C   UNL     1      22.684  24.427  21.735  1.00  0.00     0.027 C 
BRANCH   9  10
ATOM     10  C   UNL     1      22.789  24.954  23.140  1.00  0.00    -0.035 C 
ATOM     11  C   UNL     1      22.812  24.138  24.198  1.00  0.00     0.004 C 
ENDBRANCH   9  10
ENDBRANCH   8   9
ENDBRANCH   7   8
ENDBRANCH   1   7
TORSDOF 7
ENDMDL
MODEL 3
REMARK VINA RESULT:    -3.743      1.267      1.924
REMARK INTER + INTRA:          -5.975
REMARK INTER:                  -5.141
REMARK INTRA:                  -0.834
REMARK UNBOUND:                -0.700
REMARK SMILES C=CCCCCCCC(=O)[O-]
REMARK SMILES IDX 6 1 7 2 8 3 9 4 10 5 11 6 5 7 4 8 3 9 2 10 1 11
REMARK H PARENT
REMARK Flexibility Score: inf
ROOT
ATOM      1  C   UNL     1      22.624  24.773  23.574  1.00  0.00     0.000 C 
ENDROOT
BRANCH   1   2
ATOM      2  C   UNL     1      21.615  24.224  24.598  1.00  0.00     0.006 C 
BRANCH   2   3
ATOM      3  C   UNL     1      20.172  24.286  24.079  1.00  0.00     0.053 C 
BRANCH   3   4
ATOM      4  C   UNL     1      19.469  25.528  24.533  1.00  0.00     0.041 C 
ATOM      5  O   UNL     1      18.308  25.787  24.118  1.00  0.00    -0.550 OA
ATOM      6  O   UNL     1      20.106  26.416  25.390  1.00  0.00    -0.550 OA
ENDBRANCH   3   4
ENDBRANCH   2   3
ENDBRANCH   1   2
BRANCH   1   7
ATOM      7  C   UNL     1      22.532  24.061  22.215  1.00  0.00     0.000 C 
BRANCH   7   8
ATOM      8  C   UNL     1      22.433  25.043  21.038  1.00  0.00     0.004 C 
BRANCH   8   9
ATOM      9  C   UNL     1      21.012  25.063  20.459  1.00  0.00     0.027 C 
BRANCH   9  10
ATOM     10  C   UNL     1      20.246  26.266  20.936  1.00  0.00    -0.035 C 
ATOM     11  C   UNL     1      20.856  27.307  21.510  1.00  0.00     0.004 C 
ENDBRANCH   9  10
ENDBRANCH   8   9
ENDBRANCH   7   8
ENDBRANCH   1   7
TORSDOF 7
ENDMDL
MODEL 4
REMARK VINA RESULT:    -3.741      2.323      3.566
REMARK INTER + INTRA:          -5.972
REMARK INTER:                  -5.258
REMARK INTRA:                  -0.714
REMARK UNBOUND:                -0.700
REMARK SMILES C=CCCCCCCC(=O)[O-]
REMARK SMILES IDX 6 1 7 2 8 3 9 4 10 5 11 6 5 7 4 8 3 9 2 10 1 11
REMARK H PARENT
REMARK Flexibility Score: inf
ROOT
ATOM      1  C   UNL     1      22.512  24.742  20.842  1.00  0.00     0.000 C 
ENDROOT
BRANCH   1   2
ATOM      2  C   UNL     1      22.699  23.771  22.021  1.00  0.00     0.006 C 
BRANCH   2   3
ATOM      3  C   UNL     1      21.643  23.978  23.115  1.00  0.00     0.053 C 
BRANCH   3   4
ATOM      4  C   UNL     1      22.149  24.851  24.222  1.00  0.00     0.041 C 
ATOM      5  O   UNL     1      21.345  25.533  24.909  1.00  0.00    -0.550 OA
ATOM      6  O   UNL     1      23.513  24.935  24.475  1.00  0.00    -0.550 OA
ENDBRANCH   3   4
ENDBRANCH   2   3
ENDBRANCH   1   2
BRANCH   1   7
ATOM      7  C   UNL     1      21.073  24.744  20.302  1.00  0.00     0.000 C 
BRANCH   7   8
ATOM      8  C   UNL     1      20.899  23.836  19.076  1.00  0.00     0.004 C 
BRANCH   8   9
ATOM      9  C   UNL     1      20.234  22.509  19.466  1.00  0.00     0.027 C 
BRANCH   9  10
ATOM     10  C   UNL     1      21.243  21.396  19.546  1.00  0.00    -0.035 C 
ATOM     11  C   UNL     1      21.317  20.588  20.607  1.00  0.00     0.004 C 
ENDBRANCH   9  10
ENDBRANCH   8   9
ENDBRANCH   7   8
ENDBRANCH   1   7
TORSDOF 7
ENDMDL
MODEL 5
REMARK VINA RESULT:    -3.733      0.914      1.080
REMARK INTER + INTRA:          -5.961
REMARK INTER:                  -5.239
REMARK INTRA:                  -0.722
REMARK UNBOUND:                -0.700
REMARK SMILES C=CCCCCCCC(=O)[O-]
REMARK SMILES IDX 6 1 7 2 8 3 9 4 10 5 11 6 5 7 4 8 3 9 2 10 1 11
REMARK H PARENT
REMARK Flexibility Score: inf
ROOT
ATOM      1  C   UNL     1      22.287  24.454  23.921  1.00  0.00     0.000 C 
ENDROOT
BRANCH   1   2
ATOM      2  C   UNL     1      20.967  24.724  24.663  1.00  0.00     0.006 C 
BRANCH   2   3
ATOM      3  C   UNL     1      20.035  25.649  23.869  1.00  0.00     0.053 C 
BRANCH   3   4
ATOM      4  C   UNL     1      19.319  26.618  24.759  1.00  0.00     0.041 C 
ATOM      5  O   UNL     1      19.831  26.971  25.853  1.00  0.00    -0.550 OA
ATOM      6  O   UNL     1      18.071  27.108  24.394  1.00  0.00    -0.550 OA
ENDBRANCH   3   4
ENDBRANCH   2   3
ENDBRANCH   1   2
BRANCH   1   7
ATOM      7  C   UNL     1      22.501  25.405  22.732  1.00  0.00     0.000 C 
BRANCH   7   8
ATOM      8  C   UNL     1      22.653  24.661  21.398  1.00  0.00     0.004 C 
BRANCH   8   9
ATOM      9  C   UNL     1      22.364  23.164  21.569  1.00  0.00     0.027 C 
BRANCH   9  10
ATOM     10  C   UNL     1      21.059  22.783  20.927  1.00  0.00    -0.035 C 
ATOM     11  C   UNL     1      20.045  22.280  21.637  1.00  0.00     0.004 C 
ENDBRANCH   9  10
ENDBRANCH   8   9
ENDBRANCH   7   8
ENDBRANCH   1   7
TORSDOF 7
ENDMDL
MODEL 6
REMARK VINA RESULT:    -3.732      1.475      2.391
REMARK INTER + INTRA:          -5.959
REMARK INTER:                  -5.428
REMARK INTRA:                  -0.532
REMARK UNBOUND:                -0.700
REMARK SMILES C=CCCCCCCC(=O)[O-]
REMARK SMILES IDX 6 1 7 2 8 3 9 4 10 5 11 6 5 7 4 8 3 9 2 10 1 11
REMARK H PARENT
REMARK Flexibility Score: inf
ROOT
ATOM      1  C   UNL     1      20.546  25.828  21.050  1.00  0.00     0.000 C 
ENDROOT
BRANCH   1   2
ATOM      2  C   UNL     1      20.395  26.867  22.175  1.00  0.00     0.006 C 
BRANCH   2   3
ATOM      3  C   UNL     1      19.331  26.457  23.203  1.00  0.00     0.053 C 
BRANCH   3   4
ATOM      4  C   UNL     1      19.850  26.539  24.606  1.00  0.00     0.041 C 
ATOM      5  O   UNL     1      20.770  25.769  24.987  1.00  0.00    -0.550 OA
ATOM      6  O   UNL     1      19.295  27.445  25.501  1.00  0.00    -0.550 OA
ENDBRANCH   3   4
ENDBRANCH   2   3
ENDBRANCH   1   2
BRANCH   1   7
ATOM      7  C   UNL     1      21.997  25.353  20.875  1.00  0.00     0.000 C 
BRANCH   7   8
ATOM      8  C   UNL     1      22.670  25.000  22.210  1.00  0.00     0.004 C 
BRANCH   8   9
ATOM      9  C   UNL     1      22.562  23.497  22.497  1.00  0.00     0.027 C 
BRANCH   9  10
ATOM     10  C   UNL     1      22.741  22.688  21.242  1.00  0.00    -0.035 C 
ATOM     11  C   UNL     1      21.941  21.660  20.946  1.00  0.00     0.004 C 
ENDBRANCH   9  10
ENDBRANCH   8   9
ENDBRANCH   7   8
ENDBRANCH   1   7
TORSDOF 7
ENDMDL
MODEL 7
REMARK VINA RESULT:    -3.717     11.971     13.136
REMARK INTER + INTRA:          -5.939
REMARK INTER:                  -5.288
REMARK INTRA:                  -0.651
REMARK UNBOUND:                -0.700
REMARK SMILES C=CCCCCCCC(=O)[O-]
REMARK SMILES IDX 6 1 7 2 8 3 9 4 10 5 11 6 5 7 4 8 3 9 2 10 1 11
REMARK H PARENT
REMARK Flexibility Score: inf
ROOT
ATOM      1  C   UNL     1      30.991  35.048  22.079  1.00  0.00     0.000 C 
ENDROOT
BRANCH   1   2
ATOM      2  C   UNL     1      29.858  36.030  21.732  1.00  0.00     0.006 C 
BRANCH   2   3
ATOM      3  C   UNL     1      28.636  35.317  21.137  1.00  0.00     0.053 C 
BRANCH   3   4
ATOM      4  C   UNL     1      28.034  34.342  22.102  1.00  0.00     0.041 C 
ATOM      5  O   UNL     1      27.901  33.132  21.781  1.00  0.00    -0.550 OA
ATOM      6  O   UNL     1      27.591  34.776  23.346  1.00  0.00    -0.550 OA
ENDBRANCH   3   4
ENDBRANCH   2   3
ENDBRANCH   1   2
BRANCH   1   7
ATOM      7  C   UNL     1      31.840  34.670  20.856  1.00  0.00     0.000 C 
BRANCH   7   8
ATOM      8  C   UNL     1      31.793  33.168  20.543  1.00  0.00     0.004 C 
BRANCH   8   9
ATOM      9  C   UNL     1      31.382  32.362  21.782  1.00  0.00     0.027 C 
BRANCH   9  10
ATOM     10  C   UNL     1      32.569  31.685  22.410  1.00  0.00    -0.035 C 
ATOM     11  C   UNL     1      32.910  31.898  23.684  1.00  0.00     0.004 C 
ENDBRANCH   9  10
ENDBRANCH   8   9
ENDBRANCH   7   8
ENDBRANCH   1   7
TORSDOF 7
ENDMDL
MODEL 8
REMARK VINA RESULT:    -3.585      9.971     10.734
REMARK INTER + INTRA:          -5.753
REMARK INTER:                  -5.406
REMARK INTRA:                  -0.347
REMARK UNBOUND:                -0.700
REMARK SMILES C=CCCCCCCC(=O)[O-]
REMARK SMILES IDX 6 1 7 2 8 3 9 4 10 5 11 6 5 7 4 8 3 9 2 10 1 11
REMARK H PARENT
REMARK Flexibility Score: inf
ROOT
ATOM      1  C   UNL     1      27.801  32.856  19.921  1.00  0.00     0.000 C 
ENDROOT
BRANCH   1   2
ATOM      2  C   UNL     1      28.306  33.359  21.285  1.00  0.00     0.006 C 
BRANCH   2   3
ATOM      3  C   UNL     1      27.670  34.700  21.678  1.00  0.00     0.053 C 
BRANCH   3   4
ATOM      4  C   UNL     1      28.095  35.138  23.046  1.00  0.00     0.041 C 
ATOM      5  O   UNL     1      29.102  35.880  23.190  1.00  0.00    -0.550 OA
ATOM      6  O   UNL     1      27.397  34.703  24.165  1.00  0.00    -0.550 OA
ENDBRANCH   3   4
ENDBRANCH   2   3
ENDBRANCH   1   2
BRANCH   1   7
ATOM      7  C   UNL     1      26.328  32.419  19.961  1.00  0.00     0.000 C 
BRANCH   7   8
ATOM      8  C   UNL     1      25.425  33.300  19.086  1.00  0.00     0.004 C 
BRANCH   8   9
ATOM      9  C   UNL     1      24.239  33.843  19.895  1.00  0.00     0.027 C 
BRANCH   9  10
ATOM     10  C   UNL     1      22.979  33.081  19.594  1.00  0.00    -0.035 C 
ATOM     11  C   UNL     1      22.379  32.319  20.513  1.00  0.00     0.004 C 
ENDBRANCH   9  10
ENDBRANCH   8   9
ENDBRANCH   7   8
ENDBRANCH   1   7
TORSDOF 7
ENDMDL
MODEL 9
REMARK VINA RESULT:    -3.558      1.685      2.800
REMARK INTER + INTRA:          -5.715
REMARK INTER:                  -4.878
REMARK INTRA:                  -0.836
REMARK UNBOUND:                -0.700
REMARK SMILES C=CCCCCCCC(=O)[O-]
REMARK SMILES IDX 6 1 7 2 8 3 9 4 10 5 11 6 5 7 4 8 3 9 2 10 1 11
REMARK H PARENT
REMARK Flexibility Score: inf
ROOT
ATOM      1  C   UNL     1      18.972  23.569  21.835  1.00  0.00     0.000 C 
ENDROOT
BRANCH   1   2
ATOM      2  C   UNL     1      18.892  24.499  23.059  1.00  0.00     0.006 C 
BRANCH   2   3
ATOM      3  C   UNL     1      19.995  24.203  24.084  1.00  0.00     0.053 C 
BRANCH   3   4
ATOM      4  C   UNL     1      20.836  25.411  24.363  1.00  0.00     0.041 C 
ATOM      5  O   UNL     1      22.023  25.279  24.761  1.00  0.00    -0.550 OA
ATOM      6  O   UNL     1      20.298  26.683  24.214  1.00  0.00    -0.550 OA
ENDBRANCH   3   4
ENDBRANCH   2   3
ENDBRANCH   1   2
BRANCH   1   7
ATOM      7  C   UNL     1      20.063  22.497  21.979  1.00  0.00     0.000 C 
BRANCH   7   8
ATOM      8  C   UNL     1      21.158  22.618  20.909  1.00  0.00     0.004 C 
BRANCH   8   9
ATOM      9  C   UNL     1      22.507  22.978  21.544  1.00  0.00     0.027 C 
BRANCH   9  10
ATOM     10  C   UNL     1      22.779  24.454  21.446  1.00  0.00    -0.035 C 
ATOM     11  C   UNL     1      22.034  25.258  20.683  1.00  0.00     0.004 C 
ENDBRANCH   9  10
ENDBRANCH   8   9
ENDBRANCH   7   8
ENDBRANCH   1   7
TORSDOF 7
ENDMDL
