MODEL 1
REMARK VINA RESULT:    -6.106      0.000      0.000
REMARK INTER + INTRA:         -10.636
REMARK INTER:                  -8.248
REMARK INTRA:                  -2.388
REMARK UNBOUND:                -2.388
REMARK SMILES CC[C@@H](CC[C@H](C)[C@@H]1CC[C@H]2[C@H]3CC(=O)C4=CC(=O)CC[C@]4(C)[C@H]3CC[C@@]21C)C(C)C
REMARK SMILES IDX 4 1 3 2 2 3 1 4 29 5 30 6 31 7 5 8 6 9 7 10 8 11 9 12 27 13
REMARK SMILES IDX 10 14 11 15 26 16 28 17 12 18 25 19 24 20 13 21 22 22 14 23
REMARK SMILES IDX 16 24 21 25 23 26 15 27 17 28 20 29 18 30 19 31
REMARK H PARENT
REMARK Flexibility Score: inf
ROOT
ATOM      1  C   UNL     1     -13.508  29.110  17.974  1.00  0.00     0.004 C 
ENDROOT
BRANCH   1   2
ATOM      2  C   UNL     1     -14.325  29.702  19.156  1.00  0.00    -0.009 C 
BRANCH   2   3
ATOM      3  C   UNL     1     -15.064  28.585  19.948  1.00  0.00     0.000 C 
ATOM      4  C   UNL     1     -14.308  27.256  19.977  1.00  0.00     0.004 C 
ENDBRANCH   2   3
BRANCH   2   5
ATOM      5  C   UNL     1     -15.203  30.929  18.710  1.00  0.00    -0.014 C 
ATOM      6  C   UNL     1     -16.723  30.721  18.844  1.00  0.00     0.007 C 
ATOM      7  C   UNL     1     -14.785  32.223  19.425  1.00  0.00     0.007 C 
ENDBRANCH   2   5
ENDBRANCH   1   2
BRANCH   1   8
ATOM      8  C   UNL     1     -14.265  29.054  16.629  1.00  0.00     0.004 C 
BRANCH   8   9
ATOM      9  C   UNL     1     -14.218  27.664  15.933  1.00  0.00    -0.011 C 
ATOM     10  C   UNL     1     -13.360  27.749  14.650  1.00  0.00     0.008 C 
BRANCH   9  11
ATOM     11  C   UNL     1     -15.642  27.065  15.575  1.00  0.00    -0.002 C 
ATOM     12  C   UNL     1     -16.867  27.926  16.018  1.00  0.00     0.005 C 
ATOM     13  C   UNL     1     -15.969  25.666  16.221  1.00  0.00    -0.026 C 
ATOM     14  C   UNL     1     -17.443  27.297  17.296  1.00  0.00     0.005 C 
ATOM     15  C   UNL     1     -16.538  26.103  17.576  1.00  0.00    -0.001 C 
ATOM     16  C   UNL     1     -14.794  24.683  16.497  1.00  0.00     0.007 C 
ATOM     17  C   UNL     1     -17.012  24.964  15.295  1.00  0.00     0.012 C 
ATOM     18  C   UNL     1     -17.025  24.984  18.532  1.00  0.00     0.004 C 
ATOM     19  C   UNL     1     -15.220  23.492  17.387  1.00  0.00     0.005 C 
ATOM     20  C   UNL     1     -15.914  23.902  18.725  1.00  0.00     0.003 C 
ATOM     21  C   UNL     1     -18.395  24.346  18.249  1.00  0.00     0.085 C 
ATOM     22  C   UNL     1     -16.369  22.664  19.640  1.00  0.00    -0.000 C 
ATOM     23  C   UNL     1     -18.797  23.557  19.456  1.00  0.00     0.159 C 
ATOM     24  C   UNL     1     -17.749  22.899  20.275  1.00  0.00     0.005 C 
ATOM     25  C   UNL     1     -15.298  22.473  20.761  1.00  0.00     0.020 C 
ATOM     26  C   UNL     1     -16.500  21.342  18.834  1.00  0.00     0.017 C 
ATOM     27  O   UNL     1     -20.019  23.448  19.750  1.00  0.00    -0.295 OA
ATOM     28  C   UNL     1     -18.060  22.413  21.492  1.00  0.00     0.055 C 
ATOM     29  C   UNL     1     -15.694  21.431  21.812  1.00  0.00     0.081 C 
ATOM     30  C   UNL     1     -17.078  21.692  22.318  1.00  0.00     0.156 C 
ATOM     31  O   UNL     1     -17.420  21.256  23.449  1.00  0.00    -0.295 OA
ENDBRANCH   9  11
ENDBRANCH   8   9
ENDBRANCH   1   8
TORSDOF 6
ENDMDL
MODEL 2
REMARK VINA RESULT:    -6.001      2.821      6.170
REMARK INTER + INTRA:         -10.493
REMARK INTER:                  -7.473
REMARK INTRA:                  -3.020
REMARK UNBOUND:                -2.388
REMARK SMILES CC[C@@H](CC[C@H](C)[C@@H]1CC[C@H]2[C@H]3CC(=O)C4=CC(=O)CC[C@]4(C)[C@H]3CC[C@@]21C)C(C)C
REMARK SMILES IDX 4 1 3 2 2 3 1 4 29 5 30 6 31 7 5 8 6 9 7 10 8 11 9 12 27 13
REMARK SMILES IDX 10 14 11 15 26 16 28 17 12 18 25 19 24 20 13 21 22 22 14 23
REMARK SMILES IDX 16 24 21 25 23 26 15 27 17 28 20 29 18 30 19 31
REMARK H PARENT
REMARK Flexibility Score: inf
ROOT
ATOM      1  C   UNL     1     -14.712  24.767  13.151  1.00  0.00     0.004 C 
ENDROOT
BRANCH   1   2
ATOM      2  C   UNL     1     -14.929  26.249  13.568  1.00  0.00    -0.009 C 
BRANCH   2   3
ATOM      3  C   UNL     1     -15.632  27.056  12.439  1.00  0.00     0.000 C 
ATOM      4  C   UNL     1     -16.997  27.613  12.845  1.00  0.00     0.004 C 
ENDBRANCH   2   3
BRANCH   2   5
ATOM      5  C   UNL     1     -13.624  26.891  14.167  1.00  0.00    -0.014 C 
ATOM      6  C   UNL     1     -13.800  28.314  14.727  1.00  0.00     0.007 C 
ATOM      7  C   UNL     1     -12.973  25.986  15.225  1.00  0.00     0.007 C 
ENDBRANCH   2   5
ENDBRANCH   1   2
BRANCH   1   8
ATOM      8  C   UNL     1     -15.906  23.832  13.445  1.00  0.00     0.004 C 
BRANCH   8   9
ATOM      9  C   UNL     1     -15.774  23.036  14.775  1.00  0.00    -0.011 C 
ATOM     10  C   UNL     1     -15.722  21.520  14.475  1.00  0.00     0.008 C 
BRANCH   9  11
ATOM     11  C   UNL     1     -16.926  23.325  15.826  1.00  0.00    -0.002 C 
ATOM     12  C   UNL     1     -18.205  24.015  15.252  1.00  0.00     0.005 C 
ATOM     13  C   UNL     1     -16.534  24.286  17.011  1.00  0.00    -0.026 C 
ATOM     14  C   UNL     1     -18.137  25.505  15.620  1.00  0.00     0.005 C 
ATOM     15  C   UNL     1     -16.823  25.653  16.378  1.00  0.00    -0.001 C 
ATOM     16  C   UNL     1     -15.057  24.294  17.502  1.00  0.00     0.007 C 
ATOM     17  C   UNL     1     -17.468  23.937  18.214  1.00  0.00     0.012 C 
ATOM     18  C   UNL     1     -16.589  26.904  17.262  1.00  0.00     0.004 C 
ATOM     19  C   UNL     1     -14.761  25.477  18.454  1.00  0.00     0.005 C 
ATOM     20  C   UNL     1     -15.156  26.878  17.886  1.00  0.00     0.003 C 
ATOM     21  C   UNL     1     -17.658  27.250  18.312  1.00  0.00     0.085 C 
ATOM     22  C   UNL     1     -14.862  28.102  18.883  1.00  0.00    -0.000 C 
ATOM     23  C   UNL     1     -17.398  28.641  18.799  1.00  0.00     0.159 C 
ATOM     24  C   UNL     1     -16.000  29.135  18.870  1.00  0.00     0.005 C 
ATOM     25  C   UNL     1     -13.529  28.780  18.434  1.00  0.00     0.020 C 
ATOM     26  C   UNL     1     -14.726  27.648  20.362  1.00  0.00     0.017 C 
ATOM     27  O   UNL     1     -18.365  29.368  19.155  1.00  0.00    -0.295 OA
ATOM     28  C   UNL     1     -15.764  30.449  19.050  1.00  0.00     0.055 C 
ATOM     29  C   UNL     1     -13.215  30.072  19.194  1.00  0.00     0.081 C 
ATOM     30  C   UNL     1     -14.401  30.984  19.196  1.00  0.00     0.156 C 
ATOM     31  O   UNL     1     -14.235  32.221  19.364  1.00  0.00    -0.295 OA
ENDBRANCH   9  11
ENDBRANCH   8   9
ENDBRANCH   1   8
TORSDOF 6
ENDMDL
MODEL 3
REMARK VINA RESULT:    -5.894      3.712      7.435
REMARK INTER + INTRA:         -10.349
REMARK INTER:                  -7.540
REMARK INTRA:                  -2.809
REMARK UNBOUND:                -2.388
REMARK SMILES CC[C@@H](CC[C@H](C)[C@@H]1CC[C@H]2[C@H]3CC(=O)C4=CC(=O)CC[C@]4(C)[C@H]3CC[C@@]21C)C(C)C
REMARK SMILES IDX 4 1 3 2 2 3 1 4 29 5 30 6 31 7 5 8 6 9 7 10 8 11 9 12 27 13
REMARK SMILES IDX 10 14 11 15 26 16 28 17 12 18 25 19 24 20 13 21 22 22 14 23
REMARK SMILES IDX 16 24 21 25 23 26 15 27 17 28 20 29 18 30 19 31
REMARK H PARENT
REMARK Flexibility Score: inf
ROOT
ATOM      1  C   UNL     1     -15.296  27.597  13.488  1.00  0.00     0.004 C 
ENDROOT
BRANCH   1   2
ATOM      2  C   UNL     1     -14.398  28.840  13.743  1.00  0.00    -0.009 C 
BRANCH   2   3
ATOM      3  C   UNL     1     -15.238  30.049  14.245  1.00  0.00     0.000 C 
ATOM      4  C   UNL     1     -16.732  29.921  13.947  1.00  0.00     0.004 C 
ENDBRANCH   2   3
BRANCH   2   5
ATOM      5  C   UNL     1     -13.428  29.124  12.538  1.00  0.00    -0.014 C 
ATOM      6  C   UNL     1     -13.747  28.341  11.251  1.00  0.00     0.007 C 
ATOM      7  C   UNL     1     -13.325  30.626  12.227  1.00  0.00     0.007 C 
ENDBRANCH   2   5
ENDBRANCH   1   2
BRANCH   1   8
ATOM      8  C   UNL     1     -14.816  26.301  14.178  1.00  0.00     0.004 C 
BRANCH   8   9
ATOM      9  C   UNL     1     -13.937  26.543  15.438  1.00  0.00    -0.011 C 
ATOM     10  C   UNL     1     -12.671  25.658  15.371  1.00  0.00     0.008 C 
BRANCH   9  11
ATOM     11  C   UNL     1     -14.683  26.291  16.814  1.00  0.00    -0.002 C 
ATOM     12  C   UNL     1     -16.103  25.649  16.703  1.00  0.00     0.005 C 
ATOM     13  C   UNL     1     -14.968  27.579  17.675  1.00  0.00    -0.026 C 
ATOM     14  C   UNL     1     -17.138  26.769  16.884  1.00  0.00     0.005 C 
ATOM     15  C   UNL     1     -16.306  28.031  17.077  1.00  0.00    -0.001 C 
ATOM     16  C   UNL     1     -13.976  28.774  17.572  1.00  0.00     0.007 C 
ATOM     17  C   UNL     1     -15.064  27.123  19.166  1.00  0.00     0.012 C 
ATOM     18  C   UNL     1     -16.965  29.292  17.693  1.00  0.00     0.004 C 
ATOM     19  C   UNL     1     -14.532  30.057  18.234  1.00  0.00     0.005 C 
ATOM     20  C   UNL     1     -15.950  30.480  17.733  1.00  0.00     0.003 C 
ATOM     21  C   UNL     1     -17.704  29.132  19.032  1.00  0.00     0.085 C 
ATOM     22  C   UNL     1     -16.531  31.804  18.433  1.00  0.00    -0.000 C 
ATOM     23  C   UNL     1     -18.524  30.364  19.259  1.00  0.00     0.159 C 
ATOM     24  C   UNL     1     -18.027  31.669  18.756  1.00  0.00     0.005 C 
ATOM     25  C   UNL     1     -16.307  33.002  17.458  1.00  0.00     0.020 C 
ATOM     26  C   UNL     1     -15.837  32.116  19.787  1.00  0.00     0.017 C 
ATOM     27  O   UNL     1     -19.615  30.280  19.886  1.00  0.00    -0.295 OA
ATOM     28  C   UNL     1     -18.857  32.730  18.716  1.00  0.00     0.055 C 
ATOM     29  C   UNL     1     -16.969  34.302  17.926  1.00  0.00     0.081 C 
ATOM     30  C   UNL     1     -18.401  34.062  18.292  1.00  0.00     0.156 C 
ATOM     31  O   UNL     1     -19.216  35.021  18.274  1.00  0.00    -0.295 OA
ENDBRANCH   9  11
ENDBRANCH   8   9
ENDBRANCH   1   8
TORSDOF 6
ENDMDL
MODEL 4
REMARK VINA RESULT:    -5.831      4.545      7.961
REMARK INTER + INTRA:         -10.263
REMARK INTER:                  -7.326
REMARK INTRA:                  -2.937
REMARK UNBOUND:                -2.388
REMARK SMILES CC[C@@H](CC[C@H](C)[C@@H]1CC[C@H]2[C@H]3CC(=O)C4=CC(=O)CC[C@]4(C)[C@H]3CC[C@@]21C)C(C)C
REMARK SMILES IDX 4 1 3 2 2 3 1 4 29 5 30 6 31 7 5 8 6 9 7 10 8 11 9 12 27 13
REMARK SMILES IDX 10 14 11 15 26 16 28 17 12 18 25 19 24 20 13 21 22 22 14 23
REMARK SMILES IDX 16 24 21 25 23 26 15 27 17 28 20 29 18 30 19 31
REMARK H PARENT
REMARK Flexibility Score: inf
ROOT
ATOM      1  C   UNL     1     -16.332  29.540  20.509  1.00  0.00     0.004 C 
ENDROOT
BRANCH   1   2
ATOM      2  C   UNL     1     -16.657  30.388  19.247  1.00  0.00    -0.009 C 
BRANCH   2   3
ATOM      3  C   UNL     1     -16.298  31.886  19.465  1.00  0.00     0.000 C 
ATOM      4  C   UNL     1     -14.793  32.153  19.508  1.00  0.00     0.004 C 
ENDBRANCH   2   3
BRANCH   2   5
ATOM      5  C   UNL     1     -18.102  30.097  18.697  1.00  0.00    -0.014 C 
ATOM      6  C   UNL     1     -18.417  30.736  17.332  1.00  0.00     0.007 C 
ATOM      7  C   UNL     1     -18.407  28.591  18.654  1.00  0.00     0.007 C 
ENDBRANCH   2   5
ENDBRANCH   1   2
BRANCH   1   8
ATOM      8  C   UNL     1     -15.085  28.639  20.376  1.00  0.00     0.004 C 
BRANCH   8   9
ATOM      9  C   UNL     1     -15.218  27.527  19.297  1.00  0.00    -0.011 C 
ATOM     10  C   UNL     1     -15.198  26.136  19.973  1.00  0.00     0.008 C 
BRANCH   9  11
ATOM     11  C   UNL     1     -14.108  27.579  18.166  1.00  0.00    -0.002 C 
ATOM     12  C   UNL     1     -13.119  28.786  18.246  1.00  0.00     0.005 C 
ATOM     13  C   UNL     1     -14.650  27.690  16.691  1.00  0.00    -0.026 C 
ATOM     14  C   UNL     1     -13.564  29.823  17.203  1.00  0.00     0.005 C 
ATOM     15  C   UNL     1     -14.800  29.210  16.557  1.00  0.00    -0.001 C 
ATOM     16  C   UNL     1     -16.026  27.047  16.356  1.00  0.00     0.007 C 
ATOM     17  C   UNL     1     -13.560  27.078  15.754  1.00  0.00     0.012 C 
ATOM     18  C   UNL     1     -15.296  29.753  15.192  1.00  0.00     0.004 C 
ATOM     19  C   UNL     1     -16.556  27.482  14.970  1.00  0.00     0.005 C 
ATOM     20  C   UNL     1     -16.610  29.028  14.755  1.00  0.00     0.003 C 
ATOM     21  C   UNL     1     -14.280  29.829  14.040  1.00  0.00     0.085 C 
ATOM     22  C   UNL     1     -17.146  29.477  13.309  1.00  0.00    -0.000 C 
ATOM     23  C   UNL     1     -14.873  30.673  12.954  1.00  0.00     0.159 C 
ATOM     24  C   UNL     1     -16.341  30.657  12.743  1.00  0.00     0.005 C 
ATOM     25  C   UNL     1     -18.647  29.884  13.457  1.00  0.00     0.020 C 
ATOM     26  C   UNL     1     -17.030  28.345  12.253  1.00  0.00     0.017 C 
ATOM     27  O   UNL     1     -14.117  31.373  12.227  1.00  0.00    -0.295 OA
ATOM     28  C   UNL     1     -16.914  31.592  11.960  1.00  0.00     0.055 C 
ATOM     29  C   UNL     1     -19.241  30.498  12.185  1.00  0.00     0.081 C 
ATOM     30  C   UNL     1     -18.354  31.584  11.661  1.00  0.00     0.156 C 
ATOM     31  O   UNL     1     -18.840  32.481  10.922  1.00  0.00    -0.295 OA
ENDBRANCH   9  11
ENDBRANCH   8   9
ENDBRANCH   1   8
TORSDOF 6
ENDMDL
MODEL 5
REMARK VINA RESULT:    -5.779      5.242      8.704
REMARK INTER + INTRA:         -10.194
REMARK INTER:                  -7.578
REMARK INTRA:                  -2.615
REMARK UNBOUND:                -2.388
REMARK SMILES CC[C@@H](CC[C@H](C)[C@@H]1CC[C@H]2[C@H]3CC(=O)C4=CC(=O)CC[C@]4(C)[C@H]3CC[C@@]21C)C(C)C
REMARK SMILES IDX 4 1 3 2 2 3 1 4 29 5 30 6 31 7 5 8 6 9 7 10 8 11 9 12 27 13
REMARK SMILES IDX 10 14 11 15 26 16 28 17 12 18 25 19 24 20 13 21 22 22 14 23
REMARK SMILES IDX 16 24 21 25 23 26 15 27 17 28 20 29 18 30 19 31
REMARK H PARENT
REMARK Flexibility Score: inf
ROOT
ATOM      1  C   UNL     1     -19.276  37.915  19.951  1.00  0.00     0.004 C 
ENDROOT
BRANCH   1   2
ATOM      2  C   UNL     1     -18.702  36.681  20.703  1.00  0.00    -0.009 C 
BRANCH   2   3
ATOM      3  C   UNL     1     -19.306  36.558  22.131  1.00  0.00     0.000 C 
ATOM      4  C   UNL     1     -20.692  35.911  22.154  1.00  0.00     0.004 C 
ENDBRANCH   2   3
BRANCH   2   5
ATOM      5  C   UNL     1     -17.133  36.610  20.607  1.00  0.00    -0.014 C 
ATOM      6  C   UNL     1     -16.568  35.221  20.257  1.00  0.00     0.007 C 
ATOM      7  C   UNL     1     -16.569  37.665  19.642  1.00  0.00     0.007 C 
ENDBRANCH   2   5
ENDBRANCH   1   2
BRANCH   1   8
ATOM      8  C   UNL     1     -20.182  37.574  18.748  1.00  0.00     0.004 C 
BRANCH   8   9
ATOM      9  C   UNL     1     -19.459  36.798  17.611  1.00  0.00    -0.011 C 
ATOM     10  C   UNL     1     -19.303  37.710  16.372  1.00  0.00     0.008 C 
BRANCH   9  11
ATOM     11  C   UNL     1     -20.174  35.448  17.185  1.00  0.00    -0.002 C 
ATOM     12  C   UNL     1     -21.245  34.907  18.185  1.00  0.00     0.005 C 
ATOM     13  C   UNL     1     -19.223  34.205  17.012  1.00  0.00    -0.026 C 
ATOM     14  C   UNL     1     -20.601  33.765  18.986  1.00  0.00     0.005 C 
ATOM     15  C   UNL     1     -19.177  33.679  18.452  1.00  0.00    -0.001 C 
ATOM     16  C   UNL     1     -17.757  34.451  16.551  1.00  0.00     0.007 C 
ATOM     17  C   UNL     1     -19.917  33.231  16.006  1.00  0.00     0.012 C 
ATOM     18  C   UNL     1     -18.342  32.399  18.710  1.00  0.00     0.004 C 
ATOM     19  C   UNL     1     -16.873  33.191  16.707  1.00  0.00     0.005 C 
ATOM     20  C   UNL     1     -16.897  32.557  18.135  1.00  0.00     0.003 C 
ATOM     21  C   UNL     1     -18.962  31.048  18.317  1.00  0.00     0.085 C 
ATOM     22  C   UNL     1     -15.990  31.241  18.290  1.00  0.00    -0.000 C 
ATOM     23  C   UNL     1     -18.148  29.962  18.949  1.00  0.00     0.159 C 
ATOM     24  C   UNL     1     -16.689  30.163  19.133  1.00  0.00     0.005 C 
ATOM     25  C   UNL     1     -14.649  31.658  18.972  1.00  0.00     0.020 C 
ATOM     26  C   UNL     1     -15.677  30.569  16.925  1.00  0.00     0.017 C 
ATOM     27  O   UNL     1     -18.708  28.888  19.303  1.00  0.00    -0.295 OA
ATOM     28  C   UNL     1     -15.993  29.324  19.925  1.00  0.00     0.055 C 
ATOM     29  C   UNL     1     -13.755  30.468  19.338  1.00  0.00     0.081 C 
ATOM     30  C   UNL     1     -14.536  29.435  20.089  1.00  0.00     0.156 C 
ATOM     31  O   UNL     1     -13.932  28.624  20.840  1.00  0.00    -0.295 OA
ENDBRANCH   9  11
ENDBRANCH   8   9
ENDBRANCH   1   8
TORSDOF 6
ENDMDL
MODEL 6
REMARK VINA RESULT:    -5.709      4.059      8.223
REMARK INTER + INTRA:         -10.099
REMARK INTER:                  -7.226
REMARK INTRA:                  -2.873
REMARK UNBOUND:                -2.388
REMARK SMILES CC[C@@H](CC[C@H](C)[C@@H]1CC[C@H]2[C@H]3CC(=O)C4=CC(=O)CC[C@]4(C)[C@H]3CC[C@@]21C)C(C)C
REMARK SMILES IDX 4 1 3 2 2 3 1 4 29 5 30 6 31 7 5 8 6 9 7 10 8 11 9 12 27 13
REMARK SMILES IDX 10 14 11 15 26 16 28 17 12 18 25 19 24 20 13 21 22 22 14 23
REMARK SMILES IDX 16 24 21 25 23 26 15 27 17 28 20 29 18 30 19 31
REMARK H PARENT
REMARK Flexibility Score: inf
ROOT
ATOM      1  C   UNL     1     -18.371  26.414  18.069  1.00  0.00     0.004 C 
ENDROOT
BRANCH   1   2
ATOM      2  C   UNL     1     -18.899  27.870  17.937  1.00  0.00    -0.009 C 
BRANCH   2   3
ATOM      3  C   UNL     1     -19.808  28.253  19.140  1.00  0.00     0.000 C 
ATOM      4  C   UNL     1     -19.263  29.415  19.972  1.00  0.00     0.004 C 
ENDBRANCH   2   3
BRANCH   2   5
ATOM      5  C   UNL     1     -19.489  28.156  16.507  1.00  0.00    -0.014 C 
ATOM      6  C   UNL     1     -19.632  29.647  16.151  1.00  0.00     0.007 C 
ATOM      7  C   UNL     1     -18.702  27.427  15.406  1.00  0.00     0.007 C 
ENDBRANCH   2   5
ENDBRANCH   1   2
BRANCH   1   8
ATOM      8  C   UNL     1     -16.996  26.287  18.760  1.00  0.00     0.004 C 
BRANCH   8   9
ATOM      9  C   UNL     1     -15.792  26.261  17.775  1.00  0.00    -0.011 C 
ATOM     10  C   UNL     1     -15.252  24.818  17.646  1.00  0.00     0.008 C 
BRANCH   9  11
ATOM     11  C   UNL     1     -14.604  27.234  18.171  1.00  0.00    -0.002 C 
ATOM     12  C   UNL     1     -14.253  27.287  19.692  1.00  0.00     0.005 C 
ATOM     13  C   UNL     1     -14.833  28.755  17.829  1.00  0.00    -0.026 C 
ATOM     14  C   UNL     1     -14.873  28.569  20.270  1.00  0.00     0.005 C 
ATOM     15  C   UNL     1     -15.579  29.220  19.086  1.00  0.00    -0.001 C 
ATOM     16  C   UNL     1     -15.713  29.114  16.597  1.00  0.00     0.007 C 
ATOM     17  C   UNL     1     -13.423  29.404  17.655  1.00  0.00     0.012 C 
ATOM     18  C   UNL     1     -15.971  30.717  19.161  1.00  0.00     0.004 C 
ATOM     19  C   UNL     1     -16.086  30.614  16.558  1.00  0.00     0.005 C 
ATOM     20  C   UNL     1     -16.741  31.151  17.872  1.00  0.00     0.003 C 
ATOM     21  C   UNL     1     -14.873  31.727  19.532  1.00  0.00     0.085 C 
ATOM     22  C   UNL     1     -17.113  32.713  17.835  1.00  0.00    -0.000 C 
ATOM     23  C   UNL     1     -15.533  33.029  19.867  1.00  0.00     0.159 C 
ATOM     24  C   UNL     1     -16.783  33.410  19.164  1.00  0.00     0.005 C 
ATOM     25  C   UNL     1     -18.641  32.837  17.538  1.00  0.00     0.020 C 
ATOM     26  C   UNL     1     -16.322  33.489  16.747  1.00  0.00     0.017 C 
ATOM     27  O   UNL     1     -15.012  33.788  20.729  1.00  0.00    -0.295 OA
ATOM     28  C   UNL     1     -17.525  34.434  19.628  1.00  0.00     0.055 C 
ATOM     29  C   UNL     1     -19.169  34.271  17.644  1.00  0.00     0.081 C 
ATOM     30  C   UNL     1     -18.736  34.898  18.933  1.00  0.00     0.156 C 
ATOM     31  O   UNL     1     -19.394  35.860  19.409  1.00  0.00    -0.295 OA
ENDBRANCH   9  11
ENDBRANCH   8   9
ENDBRANCH   1   8
TORSDOF 6
ENDMDL
MODEL 7
REMARK VINA RESULT:    -5.693      5.111      9.233
REMARK INTER + INTRA:         -10.078
REMARK INTER:                  -6.994
REMARK INTRA:                  -3.084
REMARK UNBOUND:                -2.388
REMARK SMILES CC[C@@H](CC[C@H](C)[C@@H]1CC[C@H]2[C@H]3CC(=O)C4=CC(=O)CC[C@]4(C)[C@H]3CC[C@@]21C)C(C)C
REMARK SMILES IDX 4 1 3 2 2 3 1 4 29 5 30 6 31 7 5 8 6 9 7 10 8 11 9 12 27 13
REMARK SMILES IDX 10 14 11 15 26 16 28 17 12 18 25 19 24 20 13 21 22 22 14 23
REMARK SMILES IDX 16 24 21 25 23 26 15 27 17 28 20 29 18 30 19 31
REMARK H PARENT
REMARK Flexibility Score: inf
ROOT
ATOM      1  C   UNL     1     -15.752  27.838  18.812  1.00  0.00     0.004 C 
ENDROOT
BRANCH   1   2
ATOM      2  C   UNL     1     -15.118  29.195  18.396  1.00  0.00    -0.009 C 
BRANCH   2   3
ATOM      3  C   UNL     1     -13.746  28.986  17.694  1.00  0.00     0.000 C 
ATOM      4  C   UNL     1     -13.802  29.167  16.176  1.00  0.00     0.004 C 
ENDBRANCH   2   3
BRANCH   2   5
ATOM      5  C   UNL     1     -15.141  30.243  19.570  1.00  0.00    -0.014 C 
ATOM      6  C   UNL     1     -14.794  31.685  19.159  1.00  0.00     0.007 C 
ATOM      7  C   UNL     1     -16.477  30.221  20.331  1.00  0.00     0.007 C 
ENDBRANCH   2   5
ENDBRANCH   1   2
BRANCH   1   8
ATOM      8  C   UNL     1     -16.886  27.345  17.888  1.00  0.00     0.004 C 
BRANCH   8   9
ATOM      9  C   UNL     1     -18.261  28.021  18.158  1.00  0.00    -0.011 C 
ATOM     10  C   UNL     1     -19.289  26.955  18.605  1.00  0.00     0.008 C 
BRANCH   9  11
ATOM     11  C   UNL     1     -18.844  28.830  16.925  1.00  0.00    -0.002 C 
ATOM     12  C   UNL     1     -17.902  28.942  15.685  1.00  0.00     0.005 C 
ATOM     13  C   UNL     1     -19.196  30.338  17.212  1.00  0.00    -0.026 C 
ATOM     14  C   UNL     1     -17.268  30.341  15.704  1.00  0.00     0.005 C 
ATOM     15  C   UNL     1     -17.838  31.002  16.954  1.00  0.00    -0.001 C 
ATOM     16  C   UNL     1     -19.651  30.734  18.647  1.00  0.00     0.007 C 
ATOM     17  C   UNL     1     -20.305  30.753  16.194  1.00  0.00     0.012 C 
ATOM     18  C   UNL     1     -17.765  32.543  17.103  1.00  0.00     0.004 C 
ATOM     19  C   UNL     1     -19.677  32.266  18.853  1.00  0.00     0.005 C 
ATOM     20  C   UNL     1     -18.343  32.991  18.484  1.00  0.00     0.003 C 
ATOM     21  C   UNL     1     -18.316  33.400  15.952  1.00  0.00     0.085 C 
ATOM     22  C   UNL     1     -18.378  34.584  18.684  1.00  0.00    -0.000 C 
ATOM     23  C   UNL     1     -17.847  34.808  16.156  1.00  0.00     0.159 C 
ATOM     24  C   UNL     1     -17.668  35.320  17.537  1.00  0.00     0.005 C 
ATOM     25  C   UNL     1     -17.675  34.915  20.039  1.00  0.00     0.020 C 
ATOM     26  C   UNL     1     -19.824  35.150  18.713  1.00  0.00     0.017 C 
ATOM     27  O   UNL     1     -17.625  35.541  15.154  1.00  0.00    -0.295 OA
ATOM     28  C   UNL     1     -17.006  36.475  17.740  1.00  0.00     0.055 C 
ATOM     29  C   UNL     1     -17.484  36.417  20.276  1.00  0.00     0.081 C 
ATOM     30  C   UNL     1     -16.858  37.064  19.081  1.00  0.00     0.156 C 
ATOM     31  O   UNL     1     -16.231  38.147  19.217  1.00  0.00    -0.295 OA
ENDBRANCH   9  11
ENDBRANCH   8   9
ENDBRANCH   1   8
TORSDOF 6
ENDMDL
MODEL 8
REMARK VINA RESULT:    -5.692      3.185      6.472
REMARK INTER + INTRA:         -10.076
REMARK INTER:                  -7.121
REMARK INTRA:                  -2.955
REMARK UNBOUND:                -2.388
REMARK SMILES CC[C@@H](CC[C@H](C)[C@@H]1CC[C@H]2[C@H]3CC(=O)C4=CC(=O)CC[C@]4(C)[C@H]3CC[C@@]21C)C(C)C
REMARK SMILES IDX 4 1 3 2 2 3 1 4 29 5 30 6 31 7 5 8 6 9 7 10 8 11 9 12 27 13
REMARK SMILES IDX 10 14 11 15 26 16 28 17 12 18 25 19 24 20 13 21 22 22 14 23
REMARK SMILES IDX 16 24 21 25 23 26 15 27 17 28 20 29 18 30 19 31
REMARK H PARENT
REMARK Flexibility Score: inf
ROOT
ATOM      1  C   UNL     1     -20.576  31.798  17.519  1.00  0.00     0.004 C 
ENDROOT
BRANCH   1   2
ATOM      2  C   UNL     1     -20.007  30.489  18.136  1.00  0.00    -0.009 C 
BRANCH   2   3
ATOM      3  C   UNL     1     -19.741  29.418  17.040  1.00  0.00     0.000 C 
ATOM      4  C   UNL     1     -19.607  30.002  15.633  1.00  0.00     0.004 C 
ENDBRANCH   2   3
BRANCH   2   5
ATOM      5  C   UNL     1     -20.843  30.012  19.381  1.00  0.00    -0.014 C 
ATOM      6  C   UNL     1     -20.126  29.001  20.293  1.00  0.00     0.007 C 
ATOM      7  C   UNL     1     -21.359  31.197  20.213  1.00  0.00     0.007 C 
ENDBRANCH   2   5
ENDBRANCH   1   2
BRANCH   1   8
ATOM      8  C   UNL     1     -19.577  32.974  17.468  1.00  0.00     0.004 C 
BRANCH   8   9
ATOM      9  C   UNL     1     -18.688  33.105  18.737  1.00  0.00    -0.011 C 
ATOM     10  C   UNL     1     -19.066  34.390  19.511  1.00  0.00     0.008 C 
BRANCH   9  11
ATOM     11  C   UNL     1     -17.129  33.107  18.445  1.00  0.00    -0.002 C 
ATOM     12  C   UNL     1     -16.722  33.353  16.957  1.00  0.00     0.005 C 
ATOM     13  C   UNL     1     -16.378  31.763  18.777  1.00  0.00    -0.026 C 
ATOM     14  C   UNL     1     -16.362  31.993  16.340  1.00  0.00     0.005 C 
ATOM     15  C   UNL     1     -16.582  30.991  17.467  1.00  0.00    -0.001 C 
ATOM     16  C   UNL     1     -16.918  30.878  19.937  1.00  0.00     0.007 C 
ATOM     17  C   UNL     1     -14.887  32.130  19.068  1.00  0.00     0.012 C 
ATOM     18  C   UNL     1     -15.943  29.582  17.371  1.00  0.00     0.004 C 
ATOM     19  C   UNL     1     -16.271  29.474  19.955  1.00  0.00     0.005 C 
ATOM     20  C   UNL     1     -16.356  28.705  18.598  1.00  0.00     0.003 C 
ATOM     21  C   UNL     1     -14.433  29.497  17.096  1.00  0.00     0.085 C 
ATOM     22  C   UNL     1     -15.669  27.254  18.615  1.00  0.00    -0.000 C 
ATOM     23  C   UNL     1     -14.108  28.085  16.718  1.00  0.00     0.159 C 
ATOM     24  C   UNL     1     -14.887  26.976  17.321  1.00  0.00     0.005 C 
ATOM     25  C   UNL     1     -16.798  26.189  18.789  1.00  0.00     0.020 C 
ATOM     26  C   UNL     1     -14.641  27.094  19.768  1.00  0.00     0.017 C 
ATOM     27  O   UNL     1     -13.171  27.858  15.906  1.00  0.00    -0.295 OA
ATOM     28  C   UNL     1     -14.792  25.735  16.806  1.00  0.00     0.055 C 
ATOM     29  C   UNL     1     -16.302  24.746  18.650  1.00  0.00     0.081 C 
ATOM     30  C   UNL     1     -15.488  24.586  17.405  1.00  0.00     0.156 C 
ATOM     31  O   UNL     1     -15.365  23.445  16.885  1.00  0.00    -0.295 OA
ENDBRANCH   9  11
ENDBRANCH   8   9
ENDBRANCH   1   8
TORSDOF 6
ENDMDL
MODEL 9
REMARK VINA RESULT:    -5.653      3.890      8.041
REMARK INTER + INTRA:         -10.023
REMARK INTER:                  -7.143
REMARK INTRA:                  -2.880
REMARK UNBOUND:                -2.388
REMARK SMILES CC[C@@H](CC[C@H](C)[C@@H]1CC[C@H]2[C@H]3CC(=O)C4=CC(=O)CC[C@]4(C)[C@H]3CC[C@@]21C)C(C)C
REMARK SMILES IDX 4 1 3 2 2 3 1 4 29 5 30 6 31 7 5 8 6 9 7 10 8 11 9 12 27 13
REMARK SMILES IDX 10 14 11 15 26 16 28 17 12 18 25 19 24 20 13 21 22 22 14 23
REMARK SMILES IDX 16 24 21 25 23 26 15 27 17 28 20 29 18 30 19 31
REMARK H PARENT
REMARK Flexibility Score: inf
ROOT
ATOM      1  C   UNL     1     -13.833  27.319  17.101  1.00  0.00     0.004 C 
ENDROOT
BRANCH   1   2
ATOM      2  C   UNL     1     -14.178  28.793  17.457  1.00  0.00    -0.009 C 
BRANCH   2   3
ATOM      3  C   UNL     1     -14.239  29.683  16.183  1.00  0.00     0.000 C 
ATOM      4  C   UNL     1     -13.862  28.940  14.900  1.00  0.00     0.004 C 
ENDBRANCH   2   3
BRANCH   2   5
ATOM      5  C   UNL     1     -13.292  29.337  18.639  1.00  0.00    -0.014 C 
ATOM      6  C   UNL     1     -13.634  30.765  19.100  1.00  0.00     0.007 C 
ATOM      7  C   UNL     1     -13.294  28.381  19.843  1.00  0.00     0.007 C 
ENDBRANCH   2   5
ENDBRANCH   1   2
BRANCH   1   8
ATOM      8  C   UNL     1     -15.014  26.333  17.223  1.00  0.00     0.004 C 
BRANCH   8   9
ATOM      9  C   UNL     1     -15.821  26.471  18.546  1.00  0.00    -0.011 C 
ATOM     10  C   UNL     1     -15.617  25.211  19.418  1.00  0.00     0.008 C 
BRANCH   9  11
ATOM     11  C   UNL     1     -17.373  26.724  18.340  1.00  0.00    -0.002 C 
ATOM     12  C   UNL     1     -17.943  26.322  16.942  1.00  0.00     0.005 C 
ATOM     13  C   UNL     1     -17.837  28.224  18.469  1.00  0.00    -0.026 C 
ATOM     14  C   UNL     1     -18.100  27.607  16.115  1.00  0.00     0.005 C 
ATOM     15  C   UNL     1     -17.608  28.718  17.036  1.00  0.00    -0.001 C 
ATOM     16  C   UNL     1     -17.048  29.164  19.426  1.00  0.00     0.007 C 
ATOM     17  C   UNL     1     -19.339  28.205  18.898  1.00  0.00     0.012 C 
ATOM     18  C   UNL     1     -17.985  30.189  16.727  1.00  0.00     0.004 C 
ATOM     19  C   UNL     1     -17.426  30.651  19.231  1.00  0.00     0.005 C 
ATOM     20  C   UNL     1     -17.318  31.157  17.756  1.00  0.00     0.003 C 
ATOM     21  C   UNL     1     -19.473  30.518  16.521  1.00  0.00     0.085 C 
ATOM     22  C   UNL     1     -17.725  32.697  17.554  1.00  0.00    -0.000 C 
ATOM     23  C   UNL     1     -19.566  31.885  15.917  1.00  0.00     0.159 C 
ATOM     24  C   UNL     1     -18.550  32.906  16.274  1.00  0.00     0.005 C 
ATOM     25  C   UNL     1     -16.411  33.537  17.478  1.00  0.00     0.020 C 
ATOM     26  C   UNL     1     -18.606  33.238  18.713  1.00  0.00     0.017 C 
ATOM     27  O   UNL     1     -20.513  32.155  15.128  1.00  0.00    -0.295 OA
ATOM     28  C   UNL     1     -18.462  34.041  15.554  1.00  0.00     0.055 C 
ATOM     29  C   UNL     1     -16.647  35.007  17.114  1.00  0.00     0.081 C 
ATOM     30  C   UNL     1     -17.521  35.116  15.904  1.00  0.00     0.156 C 
ATOM     31  O   UNL     1     -17.478  36.159  15.199  1.00  0.00    -0.295 OA
ENDBRANCH   9  11
ENDBRANCH   8   9
ENDBRANCH   1   8
TORSDOF 6
ENDMDL
