MODEL 1
REMARK VINA RESULT:    -7.035      0.000      0.000
REMARK INTER + INTRA:          -7.687
REMARK INTER:                  -7.446
REMARK INTRA:                  -0.241
REMARK UNBOUND:                -0.241
REMARK SMILES O=c1cc(-c2ccccc2)oc2ccccc12
REMARK SMILES IDX 4 1 3 2 2 3 1 4 17 5 16 6 15 7 14 8 13 9 12 10 11 11 5 12
REMARK SMILES IDX 8 13 7 14 9 15 6 16 10 17
REMARK H PARENT
REMARK Flexibility Score: inf
ROOT
ATOM      1  C   UNL     1     -39.444  -5.875 -12.689  1.00  0.00     0.138 A 
ATOM      2  C   UNL     1     -40.260  -7.006 -12.898  1.00  0.00     0.100 A 
ATOM      3  C   UNL     1     -39.841  -8.004 -13.780  1.00  0.00     0.193 A 
ATOM      4  O   UNL     1     -40.571  -9.016 -13.968  1.00  0.00    -0.289 OA
ATOM      5  C   UNL     1     -38.614  -7.867 -14.445  1.00  0.00     0.065 A 
ATOM      6  C   UNL     1     -38.134  -8.836 -15.346  1.00  0.00     0.016 A 
ATOM      7  C   UNL     1     -36.903  -8.649 -15.983  1.00  0.00     0.001 A 
ATOM      8  C   UNL     1     -36.146  -7.502 -15.727  1.00  0.00     0.004 A 
ATOM      9  C   UNL     1     -36.615  -6.535 -14.834  1.00  0.00     0.048 A 
ATOM     10  C   UNL     1     -37.846  -6.712 -14.191  1.00  0.00     0.138 A 
ATOM     11  O   UNL     1     -38.284  -5.787 -13.343  1.00  0.00    -0.456 OA
ENDROOT
BRANCH   1  12
ATOM     12  C   UNL     1     -39.817  -4.762 -11.762  1.00  0.00     0.017 A 
ATOM     13  C   UNL     1     -40.540  -2.728  -9.944  1.00  0.00     0.000 A 
ATOM     14  C   UNL     1     -40.129  -2.397 -11.235  1.00  0.00     0.001 A 
ATOM     15  C   UNL     1     -40.593  -4.065  -9.552  1.00  0.00     0.001 A 
ATOM     16  C   UNL     1     -39.771  -3.400 -12.140  1.00  0.00     0.012 A 
ATOM     17  C   UNL     1     -40.235  -5.074 -10.451  1.00  0.00     0.012 A 
ENDBRANCH   1  12
TORSDOF 1
ENDMDL
MODEL 2
REMARK VINA RESULT:    -6.898      1.875      2.378
REMARK INTER + INTRA:          -7.542
REMARK INTER:                  -7.311
REMARK INTRA:                  -0.231
REMARK UNBOUND:                -0.241
REMARK SMILES O=c1cc(-c2ccccc2)oc2ccccc12
REMARK SMILES IDX 4 1 3 2 2 3 1 4 17 5 16 6 15 7 14 8 13 9 12 10 11 11 5 12
REMARK SMILES IDX 8 13 7 14 9 15 6 16 10 17
REMARK H PARENT
REMARK Flexibility Score: inf
ROOT
ATOM      1  C   UNL     1     -38.086  -4.805 -12.631  1.00  0.00     0.138 A 
ATOM      2  C   UNL     1     -39.355  -5.422 -12.649  1.00  0.00     0.100 A 
ATOM      3  C   UNL     1     -39.554  -6.564 -13.427  1.00  0.00     0.193 A 
ATOM      4  O   UNL     1     -40.688  -7.116 -13.444  1.00  0.00    -0.289 OA
ATOM      5  C   UNL     1     -38.490  -7.081 -14.179  1.00  0.00     0.065 A 
ATOM      6  C   UNL     1     -38.623  -8.228 -14.983  1.00  0.00     0.016 A 
ATOM      7  C   UNL     1     -37.529  -8.702 -15.714  1.00  0.00     0.001 A 
ATOM      8  C   UNL     1     -36.300  -8.039 -15.648  1.00  0.00     0.004 A 
ATOM      9  C   UNL     1     -36.158  -6.900 -14.852  1.00  0.00     0.048 A 
ATOM     10  C   UNL     1     -37.247  -6.417 -14.116  1.00  0.00     0.138 A 
ATOM     11  O   UNL     1     -37.103  -5.332 -13.362  1.00  0.00    -0.456 OA
ENDROOT
BRANCH   1  12
ATOM     12  C   UNL     1     -37.788  -3.581 -11.825  1.00  0.00     0.017 A 
ATOM     13  C   UNL     1     -37.208  -1.221 -10.390  1.00  0.00     0.000 A 
ATOM     14  C   UNL     1     -37.556  -2.387  -9.707  1.00  0.00     0.001 A 
ATOM     15  C   UNL     1     -37.148  -1.223 -11.782  1.00  0.00     0.001 A 
ATOM     16  C   UNL     1     -37.843  -3.559 -10.413  1.00  0.00     0.012 A 
ATOM     17  C   UNL     1     -37.435  -2.390 -12.496  1.00  0.00     0.012 A 
ENDBRANCH   1  12
TORSDOF 1
ENDMDL
MODEL 3
REMARK VINA RESULT:    -6.888      3.201      6.448
REMARK INTER + INTRA:          -7.532
REMARK INTER:                  -7.310
REMARK INTRA:                  -0.222
REMARK UNBOUND:                -0.241
REMARK SMILES O=c1cc(-c2ccccc2)oc2ccccc12
REMARK SMILES IDX 4 1 3 2 2 3 1 4 17 5 16 6 15 7 14 8 13 9 12 10 11 11 5 12
REMARK SMILES IDX 8 13 7 14 9 15 6 16 10 17
REMARK H PARENT
REMARK Flexibility Score: inf
ROOT
ATOM      1  C   UNL     1     -36.405  -5.930 -16.735  1.00  0.00     0.138 A 
ATOM      2  C   UNL     1     -35.983  -7.227 -16.376  1.00  0.00     0.100 A 
ATOM      3  C   UNL     1     -36.730  -7.965 -15.456  1.00  0.00     0.193 A 
ATOM      4  O   UNL     1     -36.352  -9.125 -15.134  1.00  0.00    -0.289 OA
ATOM      5  C   UNL     1     -37.891  -7.405 -14.903  1.00  0.00     0.065 A 
ATOM      6  C   UNL     1     -38.689  -8.095 -13.971  1.00  0.00     0.016 A 
ATOM      7  C   UNL     1     -39.837  -7.489 -13.450  1.00  0.00     0.001 A 
ATOM      8  C   UNL     1     -40.196  -6.200 -13.852  1.00  0.00     0.004 A 
ATOM      9  C   UNL     1     -39.409  -5.508 -14.776  1.00  0.00     0.048 A 
ATOM     10  C   UNL     1     -38.258  -6.104 -15.305  1.00  0.00     0.138 A 
ATOM     11  O   UNL     1     -37.515  -5.438 -16.183  1.00  0.00    -0.456 OA
ENDROOT
BRANCH   1  12
ATOM     12  C   UNL     1     -35.663  -5.073 -17.711  1.00  0.00     0.017 A 
ATOM     13  C   UNL     1     -34.303  -3.510 -19.628  1.00  0.00     0.000 A 
ATOM     14  C   UNL     1     -34.156  -3.233 -18.268  1.00  0.00     0.001 A 
ATOM     15  C   UNL     1     -35.124  -4.559 -20.039  1.00  0.00     0.001 A 
ATOM     16  C   UNL     1     -34.827  -4.005 -17.315  1.00  0.00     0.012 A 
ATOM     17  C   UNL     1     -35.799  -5.335 -19.092  1.00  0.00     0.012 A 
ENDBRANCH   1  12
TORSDOF 1
ENDMDL
MODEL 4
REMARK VINA RESULT:    -6.813      5.453      8.446
REMARK INTER + INTRA:          -7.452
REMARK INTER:                  -7.212
REMARK INTRA:                  -0.241
REMARK UNBOUND:                -0.241
REMARK SMILES O=c1cc(-c2ccccc2)oc2ccccc12
REMARK SMILES IDX 4 1 3 2 2 3 1 4 17 5 16 6 15 7 14 8 13 9 12 10 11 11 5 12
REMARK SMILES IDX 8 13 7 14 9 15 6 16 10 17
REMARK H PARENT
REMARK Flexibility Score: inf
ROOT
ATOM      1  C   UNL     1     -34.803  -3.772 -18.658  1.00  0.00     0.138 A 
ATOM      2  C   UNL     1     -35.976  -3.047 -18.950  1.00  0.00     0.100 A 
ATOM      3  C   UNL     1     -37.205  -3.500 -18.464  1.00  0.00     0.193 A 
ATOM      4  O   UNL     1     -38.255  -2.851 -18.726  1.00  0.00    -0.289 OA
ATOM      5  C   UNL     1     -37.253  -4.670 -17.694  1.00  0.00     0.065 A 
ATOM      6  C   UNL     1     -38.457  -5.180 -17.174  1.00  0.00     0.016 A 
ATOM      7  C   UNL     1     -38.449  -6.352 -16.412  1.00  0.00     0.001 A 
ATOM      8  C   UNL     1     -37.247  -7.020 -16.162  1.00  0.00     0.004 A 
ATOM      9  C   UNL     1     -36.046  -6.521 -16.673  1.00  0.00     0.048 A 
ATOM     10  C   UNL     1     -36.043  -5.348 -17.438  1.00  0.00     0.138 A 
ATOM     11  O   UNL     1     -34.896  -4.881 -17.921  1.00  0.00    -0.456 OA
ENDROOT
BRANCH   1  12
ATOM     12  C   UNL     1     -33.448  -3.357 -19.139  1.00  0.00     0.017 A 
ATOM     13  C   UNL     1     -30.859  -2.582 -19.952  1.00  0.00     0.000 A 
ATOM     14  C   UNL     1     -31.888  -2.673 -20.889  1.00  0.00     0.001 A 
ATOM     15  C   UNL     1     -31.111  -2.875 -18.612  1.00  0.00     0.001 A 
ATOM     16  C   UNL     1     -33.173  -3.056 -20.492  1.00  0.00     0.012 A 
ATOM     17  C   UNL     1     -32.392  -3.260 -18.206  1.00  0.00     0.012 A 
ENDBRANCH   1  12
TORSDOF 1
ENDMDL
MODEL 5
REMARK VINA RESULT:    -6.812      3.052      6.438
REMARK INTER + INTRA:          -7.451
REMARK INTER:                  -7.197
REMARK INTRA:                  -0.254
REMARK UNBOUND:                -0.241
REMARK SMILES O=c1cc(-c2ccccc2)oc2ccccc12
REMARK SMILES IDX 4 1 3 2 2 3 1 4 17 5 16 6 15 7 14 8 13 9 12 10 11 11 5 12
REMARK SMILES IDX 8 13 7 14 9 15 6 16 10 17
REMARK H PARENT
REMARK Flexibility Score: inf
ROOT
ATOM      1  C   UNL     1     -36.552  -5.360 -16.439  1.00  0.00     0.138 A 
ATOM      2  C   UNL     1     -36.968  -4.551 -15.361  1.00  0.00     0.100 A 
ATOM      3  C   UNL     1     -37.825  -5.081 -14.394  1.00  0.00     0.193 A 
ATOM      4  O   UNL     1     -38.199  -4.358 -13.430  1.00  0.00    -0.289 OA
ATOM      5  C   UNL     1     -38.258  -6.410 -14.508  1.00  0.00     0.065 A 
ATOM      6  C   UNL     1     -39.120  -7.004 -13.568  1.00  0.00     0.016 A 
ATOM      7  C   UNL     1     -39.521  -8.334 -13.731  1.00  0.00     0.001 A 
ATOM      8  C   UNL     1     -39.067  -9.077 -14.824  1.00  0.00     0.004 A 
ATOM      9  C   UNL     1     -38.211  -8.495 -15.762  1.00  0.00     0.048 A 
ATOM     10  C   UNL     1     -37.803  -7.164 -15.610  1.00  0.00     0.138 A 
ATOM     11  O   UNL     1     -36.988  -6.619 -16.507  1.00  0.00    -0.456 OA
ENDROOT
BRANCH   1  12
ATOM     12  C   UNL     1     -35.636  -4.872 -17.517  1.00  0.00     0.017 A 
ATOM     13  C   UNL     1     -33.957  -4.009 -19.614  1.00  0.00     0.000 A 
ATOM     14  C   UNL     1     -33.777  -3.508 -18.325  1.00  0.00     0.001 A 
ATOM     15  C   UNL     1     -34.968  -4.935 -19.866  1.00  0.00     0.001 A 
ATOM     16  C   UNL     1     -34.606  -3.933 -17.281  1.00  0.00     0.012 A 
ATOM     17  C   UNL     1     -35.801  -5.364 -18.829  1.00  0.00     0.012 A 
ENDBRANCH   1  12
TORSDOF 1
ENDMDL
MODEL 6
REMARK VINA RESULT:    -6.590      2.242      3.278
REMARK INTER + INTRA:          -7.216
REMARK INTER:                  -6.957
REMARK INTRA:                  -0.259
REMARK UNBOUND:                -0.241
REMARK SMILES O=c1cc(-c2ccccc2)oc2ccccc12
REMARK SMILES IDX 4 1 3 2 2 3 1 4 17 5 16 6 15 7 14 8 13 9 12 10 11 11 5 12
REMARK SMILES IDX 8 13 7 14 9 15 6 16 10 17
REMARK H PARENT
REMARK Flexibility Score: inf
ROOT
ATOM      1  C   UNL     1     -37.207  -4.420 -13.036  1.00  0.00     0.138 A 
ATOM      2  C   UNL     1     -36.341  -4.280 -14.140  1.00  0.00     0.100 A 
ATOM      3  C   UNL     1     -36.333  -5.259 -15.137  1.00  0.00     0.193 A 
ATOM      4  O   UNL     1     -35.558  -5.135 -16.124  1.00  0.00    -0.289 OA
ATOM      5  C   UNL     1     -37.187  -6.365 -15.025  1.00  0.00     0.065 A 
ATOM      6  C   UNL     1     -37.229  -7.385 -15.993  1.00  0.00     0.016 A 
ATOM      7  C   UNL     1     -38.100  -8.468 -15.831  1.00  0.00     0.001 A 
ATOM      8  C   UNL     1     -38.931  -8.540 -14.710  1.00  0.00     0.004 A 
ATOM      9  C   UNL     1     -38.897  -7.532 -13.744  1.00  0.00     0.048 A 
ATOM     10  C   UNL     1     -38.029  -6.443 -13.895  1.00  0.00     0.138 A 
ATOM     11  O   UNL     1     -38.002  -5.489 -12.970  1.00  0.00    -0.456 OA
ENDROOT
BRANCH   1  12
ATOM     12  C   UNL     1     -37.278  -3.419 -11.926  1.00  0.00     0.017 A 
ATOM     13  C   UNL     1     -37.446  -1.603  -9.772  1.00  0.00     0.000 A 
ATOM     14  C   UNL     1     -36.991  -1.170 -11.017  1.00  0.00     0.001 A 
ATOM     15  C   UNL     1     -37.817  -2.935  -9.592  1.00  0.00     0.001 A 
ATOM     16  C   UNL     1     -36.907  -2.065 -12.088  1.00  0.00     0.012 A 
ATOM     17  C   UNL     1     -37.735  -3.837 -10.657  1.00  0.00     0.012 A 
ENDBRANCH   1  12
TORSDOF 1
ENDMDL
MODEL 7
REMARK VINA RESULT:    -6.562      2.904      3.865
REMARK INTER + INTRA:          -7.186
REMARK INTER:                  -6.924
REMARK INTRA:                  -0.262
REMARK UNBOUND:                -0.241
REMARK SMILES O=c1cc(-c2ccccc2)oc2ccccc12
REMARK SMILES IDX 4 1 3 2 2 3 1 4 17 5 16 6 15 7 14 8 13 9 12 10 11 11 5 12
REMARK SMILES IDX 8 13 7 14 9 15 6 16 10 17
REMARK H PARENT
REMARK Flexibility Score: inf
ROOT
ATOM      1  C   UNL     1     -36.853  -3.718 -12.933  1.00  0.00     0.138 A 
ATOM      2  C   UNL     1     -36.776  -3.016 -14.154  1.00  0.00     0.100 A 
ATOM      3  C   UNL     1     -36.556  -3.720 -15.340  1.00  0.00     0.193 A 
ATOM      4  O   UNL     1     -36.486  -3.092 -16.432  1.00  0.00    -0.289 OA
ATOM      5  C   UNL     1     -36.416  -5.114 -15.299  1.00  0.00     0.065 A 
ATOM      6  C   UNL     1     -36.193  -5.883 -16.457  1.00  0.00     0.016 A 
ATOM      7  C   UNL     1     -36.060  -7.271 -16.360  1.00  0.00     0.001 A 
ATOM      8  C   UNL     1     -36.148  -7.901 -15.115  1.00  0.00     0.004 A 
ATOM      9  C   UNL     1     -36.369  -7.146 -13.960  1.00  0.00     0.048 A 
ATOM     10  C   UNL     1     -36.504  -5.755 -14.046  1.00  0.00     0.138 A 
ATOM     11  O   UNL     1     -36.714  -5.045 -12.942  1.00  0.00    -0.456 OA
ENDROOT
BRANCH   1  12
ATOM     12  C   UNL     1     -37.086  -3.042 -11.619  1.00  0.00     0.017 A 
ATOM     13  C   UNL     1     -37.500  -1.682  -9.181  1.00  0.00     0.000 A 
ATOM     14  C   UNL     1     -37.708  -3.059  -9.257  1.00  0.00     0.001 A 
ATOM     15  C   UNL     1     -37.088  -0.978 -10.312  1.00  0.00     0.001 A 
ATOM     16  C   UNL     1     -37.504  -3.738 -10.462  1.00  0.00     0.012 A 
ATOM     17  C   UNL     1     -36.883  -1.649 -11.521  1.00  0.00     0.012 A 
ENDBRANCH   1  12
TORSDOF 1
ENDMDL
MODEL 8
REMARK VINA RESULT:    -6.511      5.337      7.399
REMARK INTER + INTRA:          -7.133
REMARK INTER:                  -6.879
REMARK INTRA:                  -0.254
REMARK UNBOUND:                -0.241
REMARK SMILES O=c1cc(-c2ccccc2)oc2ccccc12
REMARK SMILES IDX 4 1 3 2 2 3 1 4 17 5 16 6 15 7 14 8 13 9 12 10 11 11 5 12
REMARK SMILES IDX 8 13 7 14 9 15 6 16 10 17
REMARK H PARENT
REMARK Flexibility Score: inf
ROOT
ATOM      1  C   UNL     1     -34.988  -4.572 -17.422  1.00  0.00     0.138 A 
ATOM      2  C   UNL     1     -35.562  -4.999 -18.637  1.00  0.00     0.100 A 
ATOM      3  C   UNL     1     -34.937  -4.679 -19.844  1.00  0.00     0.193 A 
ATOM      4  O   UNL     1     -35.450  -5.060 -20.931  1.00  0.00    -0.289 OA
ATOM      5  C   UNL     1     -33.747  -3.937 -19.830  1.00  0.00     0.065 A 
ATOM      6  C   UNL     1     -33.067  -3.582 -21.009  1.00  0.00     0.016 A 
ATOM      7  C   UNL     1     -31.883  -2.840 -20.938  1.00  0.00     0.001 A 
ATOM      8  C   UNL     1     -31.371  -2.451 -19.697  1.00  0.00     0.004 A 
ATOM      9  C   UNL     1     -32.040  -2.800 -18.520  1.00  0.00     0.048 A 
ATOM     10  C   UNL     1     -33.226  -3.542 -18.580  1.00  0.00     0.138 A 
ATOM     11  O   UNL     1     -33.855  -3.868 -17.456  1.00  0.00    -0.456 OA
ENDROOT
BRANCH   1  12
ATOM     12  C   UNL     1     -35.592  -4.872 -16.086  1.00  0.00     0.017 A 
ATOM     13  C   UNL     1     -36.698  -5.350 -13.534  1.00  0.00     0.000 A 
ATOM     14  C   UNL     1     -36.837  -6.301 -14.545  1.00  0.00     0.001 A 
ATOM     15  C   UNL     1     -36.012  -4.162 -13.786  1.00  0.00     0.001 A 
ATOM     16  C   UNL     1     -36.290  -6.069 -15.811  1.00  0.00     0.012 A 
ATOM     17  C   UNL     1     -35.464  -3.922 -15.050  1.00  0.00     0.012 A 
ENDBRANCH   1  12
TORSDOF 1
ENDMDL
MODEL 9
REMARK VINA RESULT:    -6.488      2.711      6.628
REMARK INTER + INTRA:          -7.108
REMARK INTER:                  -6.876
REMARK INTRA:                  -0.232
REMARK UNBOUND:                -0.241
REMARK SMILES O=c1cc(-c2ccccc2)oc2ccccc12
REMARK SMILES IDX 4 1 3 2 2 3 1 4 17 5 16 6 15 7 14 8 13 9 12 10 11 11 5 12
REMARK SMILES IDX 8 13 7 14 9 15 6 16 10 17
REMARK H PARENT
REMARK Flexibility Score: inf
ROOT
ATOM      1  C   UNL     1     -37.017  -4.798 -13.867  1.00  0.00     0.138 A 
ATOM      2  C   UNL     1     -36.835  -3.620 -14.622  1.00  0.00     0.100 A 
ATOM      3  C   UNL     1     -36.878  -2.379 -13.982  1.00  0.00     0.193 A 
ATOM      4  O   UNL     1     -36.716  -1.326 -14.657  1.00  0.00    -0.289 OA
ATOM      5  C   UNL     1     -37.102  -2.323 -12.600  1.00  0.00     0.065 A 
ATOM      6  C   UNL     1     -37.156  -1.106 -11.895  1.00  0.00     0.016 A 
ATOM      7  C   UNL     1     -37.383  -1.106 -10.515  1.00  0.00     0.001 A 
ATOM      8  C   UNL     1     -37.554  -2.313  -9.831  1.00  0.00     0.004 A 
ATOM      9  C   UNL     1     -37.501  -3.526 -10.522  1.00  0.00     0.048 A 
ATOM     10  C   UNL     1     -37.275  -3.538 -11.904  1.00  0.00     0.138 A 
ATOM     11  O   UNL     1     -37.227  -4.696 -12.554  1.00  0.00    -0.456 OA
ENDROOT
BRANCH   1  12
ATOM     12  C   UNL     1     -36.985  -6.165 -14.473  1.00  0.00     0.017 A 
ATOM     13  C   UNL     1     -37.003  -8.720 -15.671  1.00  0.00     0.000 A 
ATOM     14  C   UNL     1     -36.059  -8.415 -14.691  1.00  0.00     0.001 A 
ATOM     15  C   UNL     1     -37.938  -7.761 -16.059  1.00  0.00     0.001 A 
ATOM     16  C   UNL     1     -36.046  -7.151 -14.093  1.00  0.00     0.012 A 
ATOM     17  C   UNL     1     -37.931  -6.495 -15.467  1.00  0.00     0.012 A 
ENDBRANCH   1  12
TORSDOF 1
ENDMDL
