MODEL 1
REMARK VINA RESULT:    -5.188      0.000      0.000
REMARK INTER + INTRA:          -6.791
REMARK INTER:                  -6.704
REMARK INTRA:                  -0.087
REMARK UNBOUND:                -0.087
REMARK SMILES CCCCCCC(=O)[O-]
REMARK SMILES IDX 5 1 6 2 7 3 8 4 9 5 4 6 3 7 2 8 1 9
REMARK H PARENT
REMARK Flexibility Score: inf
ROOT
ATOM      1  C   UNL     1     -22.406 -23.887  30.635  1.00  0.00     0.006 C 
ENDROOT
BRANCH   1   2
ATOM      2  C   UNL     1     -23.520 -24.940  30.705  1.00  0.00     0.053 C 
BRANCH   2   3
ATOM      3  C   UNL     1     -24.028 -25.301  29.343  1.00  0.00     0.041 C 
ATOM      4  O   UNL     1     -23.267 -25.233  28.342  1.00  0.00    -0.550 OA
ATOM      5  O   UNL     1     -25.352 -25.689  29.174  1.00  0.00    -0.550 OA
ENDBRANCH   2   3
ENDBRANCH   1   2
BRANCH   1   6
ATOM      6  C   UNL     1     -22.730 -22.643  31.481  1.00  0.00     0.000 C 
BRANCH   6   7
ATOM      7  C   UNL     1     -21.555 -21.651  31.562  1.00  0.00    -0.000 C 
BRANCH   7   8
ATOM      8  C   UNL     1     -21.678 -20.424  30.641  1.00  0.00    -0.003 C 
ATOM      9  C   UNL     1     -20.820 -19.246  31.097  1.00  0.00     0.004 C 
ENDBRANCH   7   8
ENDBRANCH   6   7
ENDBRANCH   1   6
TORSDOF 5
ENDMDL
MODEL 2
REMARK VINA RESULT:    -5.167      3.677      5.665
REMARK INTER + INTRA:          -6.764
REMARK INTER:                  -6.617
REMARK INTRA:                  -0.148
REMARK UNBOUND:                -0.087
REMARK SMILES CCCCCCC(=O)[O-]
REMARK SMILES IDX 5 1 6 2 7 3 8 4 9 5 4 6 3 7 2 8 1 9
REMARK H PARENT
REMARK Flexibility Score: inf
ROOT
ATOM      1  C   UNL     1     -21.967 -20.890  30.365  1.00  0.00     0.006 C 
ENDROOT
BRANCH   1   2
ATOM      2  C   UNL     1     -21.220 -19.655  30.888  1.00  0.00     0.053 C 
BRANCH   2   3
ATOM      3  C   UNL     1     -20.390 -19.014  29.819  1.00  0.00     0.041 C 
ATOM      4  O   UNL     1     -20.857 -18.857  28.660  1.00  0.00    -0.550 OA
ATOM      5  O   UNL     1     -19.089 -18.611  30.096  1.00  0.00    -0.550 OA
ENDBRANCH   2   3
ENDBRANCH   1   2
BRANCH   1   6
ATOM      6  C   UNL     1     -22.019 -22.021  31.406  1.00  0.00     0.000 C 
BRANCH   6   7
ATOM      7  C   UNL     1     -22.381 -23.386  30.791  1.00  0.00    -0.000 C 
BRANCH   7   8
ATOM      8  C   UNL     1     -22.269 -23.455  29.258  1.00  0.00    -0.003 C 
ATOM      9  C   UNL     1     -23.004 -24.652  28.658  1.00  0.00     0.004 C 
ENDBRANCH   7   8
ENDBRANCH   6   7
ENDBRANCH   1   6
TORSDOF 5
ENDMDL
MODEL 3
REMARK VINA RESULT:    -5.101      1.081      1.400
REMARK INTER + INTRA:          -6.679
REMARK INTER:                  -6.602
REMARK INTRA:                  -0.077
REMARK UNBOUND:                -0.087
REMARK SMILES CCCCCCC(=O)[O-]
REMARK SMILES IDX 5 1 6 2 7 3 8 4 9 5 4 6 3 7 2 8 1 9
REMARK H PARENT
REMARK Flexibility Score: inf
ROOT
ATOM      1  C   UNL     1     -23.124 -24.329  30.974  1.00  0.00     0.006 C 
ENDROOT
BRANCH   1   2
ATOM      2  C   UNL     1     -23.497 -25.285  29.834  1.00  0.00     0.053 C 
BRANCH   2   3
ATOM      3  C   UNL     1     -24.878 -25.841  30.004  1.00  0.00     0.041 C 
ATOM      4  O   UNL     1     -25.722 -25.741  29.076  1.00  0.00    -0.550 OA
ATOM      5  O   UNL     1     -25.240 -26.447  31.201  1.00  0.00    -0.550 OA
ENDBRANCH   2   3
ENDBRANCH   1   2
BRANCH   1   6
ATOM      6  C   UNL     1     -22.022 -23.337  30.563  1.00  0.00     0.000 C 
BRANCH   6   7
ATOM      7  C   UNL     1     -22.128 -21.986  31.296  1.00  0.00    -0.000 C 
BRANCH   7   8
ATOM      8  C   UNL     1     -22.065 -20.748  30.384  1.00  0.00    -0.003 C 
ATOM      9  C   UNL     1     -21.154 -19.650  30.929  1.00  0.00     0.004 C 
ENDBRANCH   7   8
ENDBRANCH   6   7
ENDBRANCH   1   6
TORSDOF 5
ENDMDL
MODEL 4
REMARK VINA RESULT:    -5.083      5.193      7.424
REMARK INTER + INTRA:          -6.656
REMARK INTER:                  -6.519
REMARK INTRA:                  -0.136
REMARK UNBOUND:                -0.087
REMARK SMILES CCCCCCC(=O)[O-]
REMARK SMILES IDX 5 1 6 2 7 3 8 4 9 5 4 6 3 7 2 8 1 9
REMARK H PARENT
REMARK Flexibility Score: inf
ROOT
ATOM      1  C   UNL     1     -20.519 -17.818  28.878  1.00  0.00     0.006 C 
ENDROOT
BRANCH   1   2
ATOM      2  C   UNL     1     -19.019 -17.612  29.132  1.00  0.00     0.053 C 
BRANCH   2   3
ATOM      3  C   UNL     1     -18.766 -16.935  30.444  1.00  0.00     0.041 C 
ATOM      4  O   UNL     1     -19.153 -17.466  31.518  1.00  0.00    -0.550 OA
ATOM      5  O   UNL     1     -18.125 -15.702  30.478  1.00  0.00    -0.550 OA
ENDBRANCH   2   3
ENDBRANCH   1   2
BRANCH   1   6
ATOM      6  C   UNL     1     -20.909 -19.306  28.881  1.00  0.00     0.000 C 
BRANCH   6   7
ATOM      7  C   UNL     1     -21.301 -19.820  30.279  1.00  0.00    -0.000 C 
BRANCH   7   8
ATOM      8  C   UNL     1     -22.275 -21.012  30.281  1.00  0.00    -0.003 C 
ATOM      9  C   UNL     1     -21.999 -22.006  31.407  1.00  0.00     0.004 C 
ENDBRANCH   7   8
ENDBRANCH   6   7
ENDBRANCH   1   6
TORSDOF 5
ENDMDL
MODEL 5
REMARK VINA RESULT:    -5.059      2.339      4.570
REMARK INTER + INTRA:          -6.624
REMARK INTER:                  -6.382
REMARK INTRA:                  -0.242
REMARK UNBOUND:                -0.087
REMARK SMILES CCCCCCC(=O)[O-]
REMARK SMILES IDX 5 1 6 2 7 3 8 4 9 5 4 6 3 7 2 8 1 9
REMARK H PARENT
REMARK Flexibility Score: inf
ROOT
ATOM      1  C   UNL     1     -21.922 -22.293  31.099  1.00  0.00     0.006 C 
ENDROOT
BRANCH   1   2
ATOM      2  C   UNL     1     -22.315 -20.969  30.430  1.00  0.00     0.053 C 
BRANCH   2   3
ATOM      3  C   UNL     1     -21.982 -20.964  28.970  1.00  0.00     0.041 C 
ATOM      4  O   UNL     1     -21.462 -19.947  28.439  1.00  0.00    -0.550 OA
ATOM      5  O   UNL     1     -22.271 -22.076  28.188  1.00  0.00    -0.550 OA
ENDBRANCH   2   3
ENDBRANCH   1   2
BRANCH   1   6
ATOM      6  C   UNL     1     -23.149 -23.140  31.475  1.00  0.00     0.000 C 
BRANCH   6   7
ATOM      7  C   UNL     1     -22.969 -24.634  31.152  1.00  0.00    -0.000 C 
BRANCH   7   8
ATOM      8  C   UNL     1     -23.987 -25.208  30.151  1.00  0.00    -0.003 C 
ATOM      9  C   UNL     1     -23.414 -25.379  28.746  1.00  0.00     0.004 C 
ENDBRANCH   7   8
ENDBRANCH   6   7
ENDBRANCH   1   6
TORSDOF 5
ENDMDL
MODEL 6
REMARK VINA RESULT:    -5.045      4.623      6.233
REMARK INTER + INTRA:          -6.606
REMARK INTER:                  -6.445
REMARK INTRA:                  -0.162
REMARK UNBOUND:                -0.087
REMARK SMILES CCCCCCC(=O)[O-]
REMARK SMILES IDX 5 1 6 2 7 3 8 4 9 5 4 6 3 7 2 8 1 9
REMARK H PARENT
REMARK Flexibility Score: inf
ROOT
ATOM      1  C   UNL     1     -21.244 -19.768  30.562  1.00  0.00     0.006 C 
ENDROOT
BRANCH   1   2
ATOM      2  C   UNL     1     -20.856 -19.136  29.218  1.00  0.00     0.053 C 
BRANCH   2   3
ATOM      3  C   UNL     1     -20.117 -17.847  29.403  1.00  0.00     0.041 C 
ATOM      4  O   UNL     1     -19.740 -17.181  28.403  1.00  0.00    -0.550 OA
ATOM      5  O   UNL     1     -19.821 -17.393  30.683  1.00  0.00    -0.550 OA
ENDBRANCH   2   3
ENDBRANCH   1   2
BRANCH   1   6
ATOM      6  C   UNL     1     -22.293 -20.882  30.398  1.00  0.00     0.000 C 
BRANCH   6   7
ATOM      7  C   UNL     1     -21.981 -22.127  31.248  1.00  0.00    -0.000 C 
BRANCH   7   8
ATOM      8  C   UNL     1     -22.371 -23.468  30.601  1.00  0.00    -0.003 C 
ATOM      9  C   UNL     1     -22.109 -23.503  29.096  1.00  0.00     0.004 C 
ENDBRANCH   7   8
ENDBRANCH   6   7
ENDBRANCH   1   6
TORSDOF 5
ENDMDL
MODEL 7
REMARK VINA RESULT:    -5.034      1.559      2.103
REMARK INTER + INTRA:          -6.592
REMARK INTER:                  -6.396
REMARK INTRA:                  -0.196
REMARK UNBOUND:                -0.087
REMARK SMILES CCCCCCC(=O)[O-]
REMARK SMILES IDX 5 1 6 2 7 3 8 4 9 5 4 6 3 7 2 8 1 9
REMARK H PARENT
REMARK Flexibility Score: inf
ROOT
ATOM      1  C   UNL     1     -22.307 -22.375  31.240  1.00  0.00     0.006 C 
ENDROOT
BRANCH   1   2
ATOM      2  C   UNL     1     -22.073 -23.459  30.179  1.00  0.00     0.053 C 
BRANCH   2   3
ATOM      3  C   UNL     1     -23.088 -24.557  30.275  1.00  0.00     0.041 C 
ATOM      4  O   UNL     1     -23.330 -25.103  31.383  1.00  0.00    -0.550 OA
ATOM      5  O   UNL     1     -23.747 -24.995  29.133  1.00  0.00    -0.550 OA
ENDBRANCH   2   3
ENDBRANCH   1   2
BRANCH   1   6
ATOM      6  C   UNL     1     -21.997 -20.965  30.707  1.00  0.00     0.000 C 
BRANCH   6   7
ATOM      7  C   UNL     1     -22.028 -20.885  29.170  1.00  0.00    -0.000 C 
BRANCH   7   8
ATOM      8  C   UNL     1     -21.308 -19.664  28.570  1.00  0.00    -0.003 C 
ATOM      9  C   UNL     1     -20.505 -18.877  29.604  1.00  0.00     0.004 C 
ENDBRANCH   7   8
ENDBRANCH   6   7
ENDBRANCH   1   6
TORSDOF 5
ENDMDL
MODEL 8
REMARK VINA RESULT:    -4.990      3.764      5.528
REMARK INTER + INTRA:          -6.535
REMARK INTER:                  -6.398
REMARK INTRA:                  -0.137
REMARK UNBOUND:                -0.087
REMARK SMILES CCCCCCC(=O)[O-]
REMARK SMILES IDX 5 1 6 2 7 3 8 4 9 5 4 6 3 7 2 8 1 9
REMARK H PARENT
REMARK Flexibility Score: inf
ROOT
ATOM      1  C   UNL     1     -21.639 -21.594  31.324  1.00  0.00     0.006 C 
ENDROOT
BRANCH   1   2
ATOM      2  C   UNL     1     -21.924 -20.493  30.293  1.00  0.00     0.053 C 
BRANCH   2   3
ATOM      3  C   UNL     1     -20.956 -19.356  30.413  1.00  0.00     0.041 C 
ATOM      4  O   UNL     1     -20.584 -18.955  31.548  1.00  0.00    -0.550 OA
ATOM      5  O   UNL     1     -20.484 -18.721  29.271  1.00  0.00    -0.550 OA
ENDBRANCH   2   3
ENDBRANCH   1   2
BRANCH   1   6
ATOM      6  C   UNL     1     -22.728 -22.680  31.328  1.00  0.00     0.000 C 
BRANCH   6   7
ATOM      7  C   UNL     1     -22.306 -23.955  30.575  1.00  0.00    -0.000 C 
BRANCH   7   8
ATOM      8  C   UNL     1     -22.640 -23.960  29.073  1.00  0.00    -0.003 C 
ATOM      9  C   UNL     1     -23.352 -25.234  28.623  1.00  0.00     0.004 C 
ENDBRANCH   7   8
ENDBRANCH   6   7
ENDBRANCH   1   6
TORSDOF 5
ENDMDL
MODEL 9
REMARK VINA RESULT:    -4.812      2.791      5.293
REMARK INTER + INTRA:          -6.304
REMARK INTER:                  -6.182
REMARK INTRA:                  -0.123
REMARK UNBOUND:                -0.087
REMARK SMILES CCCCCCC(=O)[O-]
REMARK SMILES IDX 5 1 6 2 7 3 8 4 9 5 4 6 3 7 2 8 1 9
REMARK H PARENT
REMARK Flexibility Score: inf
ROOT
ATOM      1  C   UNL     1     -22.045 -23.466  30.471  1.00  0.00     0.006 C 
ENDROOT
BRANCH   1   2
ATOM      2  C   UNL     1     -22.347 -22.224  31.321  1.00  0.00     0.053 C 
BRANCH   2   3
ATOM      3  C   UNL     1     -21.970 -20.960  30.610  1.00  0.00     0.041 C 
ATOM      4  O   UNL     1     -22.412 -20.726  29.454  1.00  0.00    -0.550 OA
ATOM      5  O   UNL     1     -21.110 -20.052  31.215  1.00  0.00    -0.550 OA
ENDBRANCH   2   3
ENDBRANCH   1   2
BRANCH   1   6
ATOM      6  C   UNL     1     -23.053 -24.600  30.723  1.00  0.00     0.000 C 
BRANCH   6   7
ATOM      7  C   UNL     1     -23.535 -25.273  29.425  1.00  0.00    -0.000 C 
BRANCH   7   8
ATOM      8  C   UNL     1     -24.674 -26.292  29.608  1.00  0.00    -0.003 C 
ATOM      9  C   UNL     1     -24.988 -26.580  31.074  1.00  0.00     0.004 C 
ENDBRANCH   7   8
ENDBRANCH   6   7
ENDBRANCH   1   6
TORSDOF 5
ENDMDL
