MODEL 1
REMARK VINA RESULT:    -2.666      0.000      0.000
REMARK INTER + INTRA:          -2.666
REMARK INTER:                  -2.666
REMARK INTRA:                   0.000
REMARK UNBOUND:                 0.000
REMARK SMILES CC(=O)[O-]
REMARK SMILES IDX 1 1 2 2 3 3 4 4
REMARK H PARENT
REMARK Flexibility Score: inf
ROOT
ATOM      1  C   UNL     1     153.851 167.646 149.285  1.00  0.00     0.063 C 
ATOM      2  C   UNL     1     152.760 168.470 149.882  1.00  0.00     0.038 C 
ATOM      3  O   UNL     1     152.150 168.063 150.905  1.00  0.00    -0.550 OA
ATOM      4  O   UNL     1     152.379 169.661 149.280  1.00  0.00    -0.550 OA
ENDROOT
TORSDOF 0
ENDMDL
MODEL 2
REMARK VINA RESULT:    -2.612      1.435      2.047
REMARK INTER + INTRA:          -2.612
REMARK INTER:                  -2.612
REMARK INTRA:                   0.000
REMARK UNBOUND:                 0.000
REMARK SMILES CC(=O)[O-]
REMARK SMILES IDX 1 1 2 2 3 3 4 4
REMARK H PARENT
REMARK Flexibility Score: inf
ROOT
ATOM      1  C   UNL     1     152.245 169.625 149.254  1.00  0.00     0.063 C 
ATOM      2  C   UNL     1     152.618 168.393 150.008  1.00  0.00     0.038 C 
ATOM      3  O   UNL     1     153.576 167.678 149.613  1.00  0.00    -0.550 OA
ATOM      4  O   UNL     1     151.875 168.002 151.113  1.00  0.00    -0.550 OA
ENDROOT
TORSDOF 0
ENDMDL
MODEL 3
REMARK VINA RESULT:    -2.587      1.778      2.030
REMARK INTER + INTRA:          -2.587
REMARK INTER:                  -2.587
REMARK INTRA:                   0.000
REMARK UNBOUND:                 0.000
REMARK SMILES CC(=O)[O-]
REMARK SMILES IDX 1 1 2 2 3 3 4 4
REMARK H PARENT
REMARK Flexibility Score: inf
ROOT
ATOM      1  C   UNL     1     152.333 168.233 150.368  1.00  0.00     0.063 C 
ATOM      2  C   UNL     1     153.156 167.848 149.185  1.00  0.00     0.038 C 
ATOM      3  O   UNL     1     154.247 167.242 149.346  1.00  0.00    -0.550 OA
ATOM      4  O   UNL     1     152.747 168.206 147.908  1.00  0.00    -0.550 OA
ENDROOT
TORSDOF 0
ENDMDL
MODEL 4
REMARK VINA RESULT:    -2.584      3.053      3.279
REMARK INTER + INTRA:          -2.584
REMARK INTER:                  -2.584
REMARK INTRA:                   0.000
REMARK UNBOUND:                 0.000
REMARK SMILES CC(=O)[O-]
REMARK SMILES IDX 1 1 2 2 3 3 4 4
REMARK H PARENT
REMARK Flexibility Score: inf
ROOT
ATOM      1  C   UNL     1     154.937 166.307 146.671  1.00  0.00     0.063 C 
ATOM      2  C   UNL     1     154.282 167.491 147.300  1.00  0.00     0.038 C 
ATOM      3  O   UNL     1     154.800 168.035 148.310  1.00  0.00    -0.550 OA
ATOM      4  O   UNL     1     153.073 167.961 146.806  1.00  0.00    -0.550 OA
ENDROOT
TORSDOF 0
ENDMDL
MODEL 5
REMARK VINA RESULT:    -2.562      2.949      3.337
REMARK INTER + INTRA:          -2.562
REMARK INTER:                  -2.562
REMARK INTRA:                   0.000
REMARK UNBOUND:                 0.000
REMARK SMILES CC(=O)[O-]
REMARK SMILES IDX 1 1 2 2 3 3 4 4
REMARK H PARENT
REMARK Flexibility Score: inf
ROOT
ATOM      1  C   UNL     1     154.886 166.564 146.501  1.00  0.00     0.063 C 
ATOM      2  C   UNL     1     154.165 167.584 147.315  1.00  0.00     0.038 C 
ATOM      3  O   UNL     1     153.036 168.003 146.947  1.00  0.00    -0.550 OA
ATOM      4  O   UNL     1     154.760 168.115 148.451  1.00  0.00    -0.550 OA
ENDROOT
TORSDOF 0
ENDMDL
MODEL 6
REMARK VINA RESULT:    -2.411      3.842      4.193
REMARK INTER + INTRA:          -2.411
REMARK INTER:                  -2.411
REMARK INTRA:                   0.000
REMARK UNBOUND:                 0.000
REMARK SMILES CC(=O)[O-]
REMARK SMILES IDX 1 1 2 2 3 3 4 4
REMARK H PARENT
REMARK Flexibility Score: inf
ROOT
ATOM      1  C   UNL     1     153.417 167.739 145.964  1.00  0.00     0.063 C 
ATOM      2  C   UNL     1     154.412 166.996 146.790  1.00  0.00     0.038 C 
ATOM      3  O   UNL     1     154.872 165.897 146.386  1.00  0.00    -0.550 OA
ATOM      4  O   UNL     1     154.791 167.488 148.031  1.00  0.00    -0.550 OA
ENDROOT
TORSDOF 0
ENDMDL
MODEL 7
REMARK VINA RESULT:    -2.149     15.321     15.820
REMARK INTER + INTRA:          -2.149
REMARK INTER:                  -2.149
REMARK INTRA:                   0.000
REMARK UNBOUND:                 0.000
REMARK SMILES CC(=O)[O-]
REMARK SMILES IDX 1 1 2 2 3 3 4 4
REMARK H PARENT
REMARK Flexibility Score: inf
ROOT
ATOM      1  C   UNL     1     160.085 165.739 162.745  1.00  0.00     0.063 C 
ATOM      2  C   UNL     1     161.167 164.739 162.512  1.00  0.00     0.038 C 
ATOM      3  O   UNL     1     161.598 164.537 161.347  1.00  0.00    -0.550 OA
ATOM      4  O   UNL     1     161.663 163.991 163.571  1.00  0.00    -0.550 OA
ENDROOT
TORSDOF 0
ENDMDL
MODEL 8
REMARK VINA RESULT:    -2.141     11.004     11.373
REMARK INTER + INTRA:          -2.141
REMARK INTER:                  -2.141
REMARK INTRA:                   0.000
REMARK UNBOUND:                 0.000
REMARK SMILES CC(=O)[O-]
REMARK SMILES IDX 1 1 2 2 3 3 4 4
REMARK H PARENT
REMARK Flexibility Score: inf
ROOT
ATOM      1  C   UNL     1     162.986 166.863 156.839  1.00  0.00     0.063 C 
ATOM      2  C   UNL     1     161.549 166.485 156.715  1.00  0.00     0.038 C 
ATOM      3  O   UNL     1     160.919 166.063 157.720  1.00  0.00    -0.550 OA
ATOM      4  O   UNL     1     160.917 166.545 155.481  1.00  0.00    -0.550 OA
ENDROOT
TORSDOF 0
ENDMDL
