MODEL 1
REMARK VINA RESULT:    -2.049      0.000      0.000
REMARK INTER + INTRA:          -2.642
REMARK INTER:                  -2.288
REMARK INTRA:                  -0.353
REMARK UNBOUND:                -0.353
REMARK SMILES CC=C(C)C=CC=C(C)C
REMARK SMILES IDX 5 1 6 2 3 3 1 4 2 5 4 6 7 7 8 8 9 9 10 10
REMARK H PARENT
REMARK Flexibility Score: inf
ROOT
ATOM      1  C   UNL     1     173.325 174.843 139.523  1.00  0.00     0.003 C 
ATOM      2  C   UNL     1     173.146 173.516 139.503  1.00  0.00     0.000 C 
ENDROOT
BRANCH   1   3
ATOM      3  C   UNL     1     174.655 175.487 139.735  1.00  0.00    -0.055 C 
ATOM      4  C   UNL     1     174.820 176.124 137.306  1.00  0.00     0.036 C 
ATOM      5  C   UNL     1     175.325 176.064 138.717  1.00  0.00    -0.027 C 
ATOM      6  C   UNL     1     175.289 175.480 141.106  1.00  0.00     0.044 C 
ENDBRANCH   1   3
BRANCH   2   7
ATOM      7  C   UNL     1     171.801 172.938 139.289  1.00  0.00    -0.001 C 
ATOM      8  C   UNL     1     171.371 172.459 138.105  1.00  0.00    -0.076 C 
ATOM      9  C   UNL     1     169.984 171.890 137.984  1.00  0.00     0.039 C 
ATOM     10  C   UNL     1     172.239 172.470 136.875  1.00  0.00     0.039 C 
ENDBRANCH   2   7
TORSDOF 2
ENDMDL
MODEL 2
REMARK VINA RESULT:    -1.952     17.983     19.369
REMARK INTER + INTRA:          -2.534
REMARK INTER:                  -2.181
REMARK INTRA:                  -0.353
REMARK UNBOUND:                -0.353
REMARK SMILES CC=C(C)C=CC=C(C)C
REMARK SMILES IDX 5 1 6 2 3 3 1 4 2 5 4 6 7 7 8 8 9 9 10 10
REMARK H PARENT
REMARK Flexibility Score: inf
ROOT
ATOM      1  C   UNL     1     162.592 159.388 138.315  1.00  0.00     0.003 C 
ATOM      2  C   UNL     1     163.236 158.472 137.581  1.00  0.00     0.000 C 
ENDROOT
BRANCH   1   3
ATOM      3  C   UNL     1     161.287 159.992 137.913  1.00  0.00    -0.055 C 
ATOM      4  C   UNL     1     160.018 158.472 139.466  1.00  0.00     0.036 C 
ATOM      5  C   UNL     1     160.124 159.564 138.442  1.00  0.00    -0.027 C 
ATOM      6  C   UNL     1     161.249 161.088 136.875  1.00  0.00     0.044 C 
ENDBRANCH   1   3
BRANCH   2   7
ATOM      7  C   UNL     1     164.528 157.912 138.035  1.00  0.00    -0.001 C 
ATOM      8  C   UNL     1     164.640 156.802 138.791  1.00  0.00    -0.076 C 
ATOM      9  C   UNL     1     165.999 156.308 139.203  1.00  0.00     0.039 C 
ATOM     10  C   UNL     1     163.436 156.022 139.247  1.00  0.00     0.039 C 
ENDBRANCH   2   7
TORSDOF 2
ENDMDL
MODEL 3
REMARK VINA RESULT:    -1.939     17.948     21.924
REMARK INTER + INTRA:          -2.519
REMARK INTER:                  -2.205
REMARK INTRA:                  -0.314
REMARK UNBOUND:                -0.353
REMARK SMILES CC=C(C)C=CC=C(C)C
REMARK SMILES IDX 5 1 6 2 3 3 1 4 2 5 4 6 7 7 8 8 9 9 10 10
REMARK H PARENT
REMARK Flexibility Score: inf
ROOT
ATOM      1  C   UNL     1     158.910 157.259 139.517  1.00  0.00     0.003 C 
ATOM      2  C   UNL     1     159.221 158.550 139.346  1.00  0.00     0.000 C 
ENDROOT
BRANCH   1   3
ATOM      3  C   UNL     1     157.514 156.775 139.733  1.00  0.00    -0.055 C 
ATOM      4  C   UNL     1     157.374 155.892 137.380  1.00  0.00     0.036 C 
ATOM      5  C   UNL     1     156.827 156.157 138.752  1.00  0.00    -0.027 C 
ATOM      6  C   UNL     1     156.835 156.994 141.064  1.00  0.00     0.044 C 
ENDBRANCH   1   3
BRANCH   2   7
ATOM      7  C   UNL     1     160.625 158.967 139.136  1.00  0.00    -0.001 C 
ATOM      8  C   UNL     1     161.065 159.588 138.024  1.00  0.00    -0.076 C 
ATOM      9  C   UNL     1     162.513 159.975 137.902  1.00  0.00     0.039 C 
ATOM     10  C   UNL     1     160.147 159.917 136.877  1.00  0.00     0.039 C 
ENDBRANCH   2   7
TORSDOF 2
ENDMDL
MODEL 4
REMARK VINA RESULT:    -1.919      2.997      5.435
REMARK INTER + INTRA:          -2.497
REMARK INTER:                  -2.144
REMARK INTRA:                  -0.353
REMARK UNBOUND:                -0.353
REMARK SMILES CC=C(C)C=CC=C(C)C
REMARK SMILES IDX 5 1 6 2 3 3 1 4 2 5 4 6 7 7 8 8 9 9 10 10
REMARK H PARENT
REMARK Flexibility Score: inf
ROOT
ATOM      1  C   UNL     1     169.327 172.509 138.299  1.00  0.00     0.003 C 
ATOM      2  C   UNL     1     168.792 173.519 137.601  1.00  0.00     0.000 C 
ENDROOT
BRANCH   1   3
ATOM      3  C   UNL     1     170.629 171.869 137.947  1.00  0.00    -0.055 C 
ATOM      4  C   UNL     1     171.888 173.398 139.499  1.00  0.00     0.036 C 
ATOM      5  C   UNL     1     171.786 172.285 138.498  1.00  0.00    -0.027 C 
ATOM      6  C   UNL     1     170.671 170.747 136.937  1.00  0.00     0.044 C 
ENDBRANCH   1   3
BRANCH   2   7
ATOM      7  C   UNL     1     167.496 174.111 138.001  1.00  0.00    -0.001 C 
ATOM      8  C   UNL     1     167.381 175.210 138.772  1.00  0.00    -0.076 C 
ATOM      9  C   UNL     1     166.018 175.739 139.126  1.00  0.00     0.039 C 
ATOM     10  C   UNL     1     168.584 175.944 139.302  1.00  0.00     0.039 C 
ENDBRANCH   2   7
TORSDOF 2
ENDMDL
MODEL 5
REMARK VINA RESULT:    -1.877      2.836      5.947
REMARK INTER + INTRA:          -2.450
REMARK INTER:                  -2.158
REMARK INTRA:                  -0.292
REMARK UNBOUND:                -0.353
REMARK SMILES CC=C(C)C=CC=C(C)C
REMARK SMILES IDX 5 1 6 2 3 3 1 4 2 5 4 6 7 7 8 8 9 9 10 10
REMARK H PARENT
REMARK Flexibility Score: inf
ROOT
ATOM      1  C   UNL     1     168.341 173.470 137.583  1.00  0.00     0.003 C 
ATOM      2  C   UNL     1     169.318 172.708 138.091  1.00  0.00     0.000 C 
ENDROOT
BRANCH   1   3
ATOM      3  C   UNL     1     167.093 173.807 138.330  1.00  0.00    -0.055 C 
ATOM      4  C   UNL     1     167.932 176.125 138.838  1.00  0.00     0.036 C 
ATOM      5  C   UNL     1     166.921 175.018 138.898  1.00  0.00    -0.027 C 
ATOM      6  C   UNL     1     166.001 172.776 138.483  1.00  0.00     0.044 C 
ENDBRANCH   1   3
BRANCH   2   7
ATOM      7  C   UNL     1     170.531 172.409 137.299  1.00  0.00    -0.001 C 
ATOM      8  C   UNL     1     171.787 172.574 137.760  1.00  0.00    -0.076 C 
ATOM      9  C   UNL     1     172.960 172.241 136.879  1.00  0.00     0.039 C 
ATOM     10  C   UNL     1     172.068 173.085 139.148  1.00  0.00     0.039 C 
ENDBRANCH   2   7
TORSDOF 2
ENDMDL
MODEL 6
REMARK VINA RESULT:    -1.853      2.162      5.260
REMARK INTER + INTRA:          -2.423
REMARK INTER:                  -2.125
REMARK INTRA:                  -0.298
REMARK UNBOUND:                -0.353
REMARK SMILES CC=C(C)C=CC=C(C)C
REMARK SMILES IDX 5 1 6 2 3 3 1 4 2 5 4 6 7 7 8 8 9 9 10 10
REMARK H PARENT
REMARK Flexibility Score: inf
ROOT
ATOM      1  C   UNL     1     169.947 173.258 139.055  1.00  0.00     0.003 C 
ATOM      2  C   UNL     1     171.180 172.802 138.799  1.00  0.00     0.000 C 
ENDROOT
BRANCH   1   3
ATOM      3  C   UNL     1     168.950 173.569 137.988  1.00  0.00    -0.055 C 
ATOM      4  C   UNL     1     168.378 175.774 139.058  1.00  0.00     0.036 C 
ATOM      5  C   UNL     1     168.242 174.716 138.003  1.00  0.00    -0.027 C 
ATOM      6  C   UNL     1     168.700 172.579 136.875  1.00  0.00     0.044 C 
ENDBRANCH   1   3
BRANCH   2   7
ATOM      7  C   UNL     1     172.123 172.513 139.902  1.00  0.00    -0.001 C 
ATOM      8  C   UNL     1     173.133 173.331 140.257  1.00  0.00    -0.076 C 
ATOM      9  C   UNL     1     174.041 172.952 141.395  1.00  0.00     0.039 C 
ATOM     10  C   UNL     1     173.394 174.634 139.549  1.00  0.00     0.039 C 
ENDBRANCH   2   7
TORSDOF 2
ENDMDL
MODEL 7
REMARK VINA RESULT:    -1.667     18.192     20.084
REMARK INTER + INTRA:          -2.216
REMARK INTER:                  -1.922
REMARK INTRA:                  -0.294
REMARK UNBOUND:                -0.353
REMARK SMILES CC=C(C)C=CC=C(C)C
REMARK SMILES IDX 5 1 6 2 3 3 1 4 2 5 4 6 7 7 8 8 9 9 10 10
REMARK H PARENT
REMARK Flexibility Score: inf
ROOT
ATOM      1  C   UNL     1     162.255 158.508 139.074  1.00  0.00     0.003 C 
ATOM      2  C   UNL     1     161.059 159.042 138.794  1.00  0.00     0.000 C 
ENDROOT
BRANCH   1   3
ATOM      3  C   UNL     1     163.248 158.129 138.026  1.00  0.00    -0.055 C 
ATOM      4  C   UNL     1     163.759 155.955 139.187  1.00  0.00     0.036 C 
ATOM      5  C   UNL     1     163.927 156.966 138.091  1.00  0.00    -0.027 C 
ATOM      6  C   UNL     1     163.529 159.066 136.875  1.00  0.00     0.044 C 
ENDBRANCH   1   3
BRANCH   2   7
ATOM      7  C   UNL     1     160.117 159.395 139.879  1.00  0.00    -0.001 C 
ATOM      8  C   UNL     1     159.047 158.649 140.215  1.00  0.00    -0.076 C 
ATOM      9  C   UNL     1     158.145 159.091 141.335  1.00  0.00     0.039 C 
ATOM     10  C   UNL     1     158.711 157.367 139.502  1.00  0.00     0.039 C 
ENDBRANCH   2   7
TORSDOF 2
ENDMDL
MODEL 8
REMARK VINA RESULT:    -1.069      0.738      1.932
REMARK INTER + INTRA:          -1.547
REMARK INTER:                  -1.238
REMARK INTRA:                  -0.309
REMARK UNBOUND:                -0.353
REMARK SMILES CC=C(C)C=CC=C(C)C
REMARK SMILES IDX 5 1 6 2 3 3 1 4 2 5 4 6 7 7 8 8 9 9 10 10
REMARK H PARENT
REMARK Flexibility Score: inf
ROOT
ATOM      1  C   UNL     1     173.096 174.539 139.530  1.00  0.00     0.003 C 
ATOM      2  C   UNL     1     172.965 173.285 139.077  1.00  0.00     0.000 C 
ENDROOT
BRANCH   1   3
ATOM      3  C   UNL     1     174.326 175.360 139.325  1.00  0.00    -0.055 C 
ATOM      4  C   UNL     1     175.014 175.070 141.728  1.00  0.00     0.036 C 
ATOM      5  C   UNL     1     175.188 175.595 140.334  1.00  0.00    -0.027 C 
ATOM      6  C   UNL     1     174.614 175.966 137.972  1.00  0.00     0.044 C 
ENDBRANCH   1   3
BRANCH   2   7
ATOM      7  C   UNL     1     171.720 172.523 139.314  1.00  0.00    -0.001 C 
ATOM      8  C   UNL     1     170.920 172.070 138.329  1.00  0.00    -0.076 C 
ATOM      9  C   UNL     1     169.672 171.302 138.669  1.00  0.00     0.039 C 
ATOM     10  C   UNL     1     171.230 172.306 136.875  1.00  0.00     0.039 C 
ENDBRANCH   2   7
TORSDOF 2
ENDMDL
