MODEL 1
REMARK VINA RESULT:    -3.670      0.000      0.000
REMARK INTER + INTRA:          -5.836
REMARK INTER:                  -5.171
REMARK INTRA:                  -0.665
REMARK UNBOUND:                -0.665
REMARK SMILES CCCCCCCCC(=O)[O-]
REMARK SMILES IDX 6 1 7 2 8 3 9 4 10 5 11 6 5 7 4 8 3 9 2 10 1 11
REMARK H PARENT
REMARK Flexibility Score: inf
ROOT
ATOM      1  C   UNL     1     -12.340 -34.720 -25.879  1.00  0.00     0.000 C 
ENDROOT
BRANCH   1   2
ATOM      2  C   UNL     1     -12.723 -33.953 -27.153  1.00  0.00     0.006 C 
BRANCH   2   3
ATOM      3  C   UNL     1     -13.577 -34.822 -28.080  1.00  0.00     0.053 C 
BRANCH   3   4
ATOM      4  C   UNL     1     -15.009 -34.799 -27.649  1.00  0.00     0.041 C 
ATOM      5  O   UNL     1     -15.733 -33.802 -27.908  1.00  0.00    -0.550 OA
ATOM      6  O   UNL     1     -15.558 -35.900 -27.003  1.00  0.00    -0.550 OA
ENDBRANCH   3   4
ENDBRANCH   2   3
ENDBRANCH   1   2
BRANCH   1   7
ATOM      7  C   UNL     1     -10.844 -35.069 -25.824  1.00  0.00     0.000 C 
BRANCH   7   8
ATOM      8  C   UNL     1     -10.563 -36.533 -26.197  1.00  0.00    -0.000 C 
BRANCH   8   9
ATOM      9  C   UNL     1     -10.203 -36.662 -27.682  1.00  0.00    -0.000 C 
BRANCH   9  10
ATOM     10  C   UNL     1      -9.053 -35.719 -28.054  1.00  0.00    -0.003 C 
ATOM     11  C   UNL     1      -9.344 -34.982 -29.357  1.00  0.00     0.004 C 
ENDBRANCH   9  10
ENDBRANCH   8   9
ENDBRANCH   7   8
ENDBRANCH   1   7
TORSDOF 7
ENDMDL
MODEL 2
REMARK VINA RESULT:    -3.626     15.608     17.149
REMARK INTER + INTRA:          -5.775
REMARK INTER:                  -5.471
REMARK INTRA:                  -0.304
REMARK UNBOUND:                -0.665
REMARK SMILES CCCCCCCCC(=O)[O-]
REMARK SMILES IDX 6 1 7 2 8 3 9 4 10 5 11 6 5 7 4 8 3 9 2 10 1 11
REMARK H PARENT
REMARK Flexibility Score: inf
ROOT
ATOM      1  C   UNL     1     -22.852 -25.472 -18.190  1.00  0.00     0.000 C 
ENDROOT
BRANCH   1   2
ATOM      2  C   UNL     1     -24.218 -25.091 -17.598  1.00  0.00     0.006 C 
BRANCH   2   3
ATOM      3  C   UNL     1     -25.357 -25.528 -18.523  1.00  0.00     0.053 C 
BRANCH   3   4
ATOM      4  C   UNL     1     -26.602 -24.756 -18.222  1.00  0.00     0.041 C 
ATOM      5  O   UNL     1     -26.529 -23.554 -17.853  1.00  0.00    -0.550 OA
ATOM      6  O   UNL     1     -27.847 -25.348 -18.397  1.00  0.00    -0.550 OA
ENDBRANCH   3   4
ENDBRANCH   2   3
ENDBRANCH   1   2
BRANCH   1   7
ATOM      7  C   UNL     1     -21.781 -25.696 -17.111  1.00  0.00     0.000 C 
BRANCH   7   8
ATOM      8  C   UNL     1     -20.520 -26.381 -17.662  1.00  0.00    -0.000 C 
BRANCH   8   9
ATOM      9  C   UNL     1     -20.556 -26.448 -19.194  1.00  0.00    -0.000 C 
BRANCH   9  10
ATOM     10  C   UNL     1     -19.347 -25.733 -19.805  1.00  0.00    -0.003 C 
ATOM     11  C   UNL     1     -18.069 -26.057 -19.037  1.00  0.00     0.004 C 
ENDBRANCH   9  10
ENDBRANCH   8   9
ENDBRANCH   7   8
ENDBRANCH   1   7
TORSDOF 7
ENDMDL
MODEL 3
REMARK VINA RESULT:    -3.614     18.880     20.852
REMARK INTER + INTRA:          -5.758
REMARK INTER:                  -4.987
REMARK INTRA:                  -0.771
REMARK UNBOUND:                -0.665
REMARK SMILES CCCCCCCCC(=O)[O-]
REMARK SMILES IDX 6 1 7 2 8 3 9 4 10 5 11 6 5 7 4 8 3 9 2 10 1 11
REMARK H PARENT
REMARK Flexibility Score: inf
ROOT
ATOM      1  C   UNL     1     -25.667 -22.711 -31.652  1.00  0.00     0.000 C 
ENDROOT
BRANCH   1   2
ATOM      2  C   UNL     1     -25.032 -22.376 -30.294  1.00  0.00     0.006 C 
BRANCH   2   3
ATOM      3  C   UNL     1     -26.093 -22.323 -29.191  1.00  0.00     0.053 C 
BRANCH   3   4
ATOM      4  C   UNL     1     -26.304 -20.915 -28.734  1.00  0.00     0.041 C 
ATOM      5  O   UNL     1     -25.721 -19.964 -29.318  1.00  0.00    -0.550 OA
ATOM      6  O   UNL     1     -27.183 -20.647 -27.691  1.00  0.00    -0.550 OA
ENDBRANCH   3   4
ENDBRANCH   2   3
ENDBRANCH   1   2
BRANCH   1   7
ATOM      7  C   UNL     1     -27.107 -23.231 -31.521  1.00  0.00     0.000 C 
BRANCH   7   8
ATOM      8  C   UNL     1     -28.085 -22.509 -32.461  1.00  0.00    -0.000 C 
BRANCH   8   9
ATOM      9  C   UNL     1     -28.139 -21.008 -32.150  1.00  0.00    -0.000 C 
BRANCH   9  10
ATOM     10  C   UNL     1     -29.059 -20.726 -30.957  1.00  0.00    -0.003 C 
ATOM     11  C   UNL     1     -28.994 -19.258 -30.546  1.00  0.00     0.004 C 
ENDBRANCH   9  10
ENDBRANCH   8   9
ENDBRANCH   7   8
ENDBRANCH   1   7
TORSDOF 7
ENDMDL
MODEL 4
REMARK VINA RESULT:    -3.588     18.733     20.900
REMARK INTER + INTRA:          -5.722
REMARK INTER:                  -4.892
REMARK INTRA:                  -0.830
REMARK UNBOUND:                -0.665
REMARK SMILES CCCCCCCCC(=O)[O-]
REMARK SMILES IDX 6 1 7 2 8 3 9 4 10 5 11 6 5 7 4 8 3 9 2 10 1 11
REMARK H PARENT
REMARK Flexibility Score: inf
ROOT
ATOM      1  C   UNL     1     -28.394 -22.461 -32.364  1.00  0.00     0.000 C 
ENDROOT
BRANCH   1   2
ATOM      2  C   UNL     1     -27.312 -23.272 -31.635  1.00  0.00     0.006 C 
BRANCH   2   3
ATOM      3  C   UNL     1     -25.912 -22.856 -32.096  1.00  0.00     0.053 C 
BRANCH   3   4
ATOM      4  C   UNL     1     -25.176 -22.172 -30.988  1.00  0.00     0.041 C 
ATOM      5  O   UNL     1     -24.756 -22.834 -30.002  1.00  0.00    -0.550 OA
ATOM      6  O   UNL     1     -24.911 -20.810 -31.066  1.00  0.00    -0.550 OA
ENDBRANCH   3   4
ENDBRANCH   2   3
ENDBRANCH   1   2
BRANCH   1   7
ATOM      7  C   UNL     1     -29.124 -21.478 -31.436  1.00  0.00     0.000 C 
BRANCH   7   8
ATOM      8  C   UNL     1     -28.379 -20.143 -31.284  1.00  0.00    -0.000 C 
BRANCH   8   9
ATOM      9  C   UNL     1     -28.370 -19.683 -29.821  1.00  0.00    -0.000 C 
BRANCH   9  10
ATOM     10  C   UNL     1     -28.108 -20.861 -28.875  1.00  0.00    -0.003 C 
ATOM     11  C   UNL     1     -26.861 -20.621 -28.030  1.00  0.00     0.004 C 
ENDBRANCH   9  10
ENDBRANCH   8   9
ENDBRANCH   7   8
ENDBRANCH   1   7
TORSDOF 7
ENDMDL
MODEL 5
REMARK VINA RESULT:    -3.580     18.961     21.123
REMARK INTER + INTRA:          -5.711
REMARK INTER:                  -5.025
REMARK INTRA:                  -0.685
REMARK UNBOUND:                -0.665
REMARK SMILES CCCCCCCCC(=O)[O-]
REMARK SMILES IDX 6 1 7 2 8 3 9 4 10 5 11 6 5 7 4 8 3 9 2 10 1 11
REMARK H PARENT
REMARK Flexibility Score: inf
ROOT
ATOM      1  C   UNL     1     -27.910 -20.628 -28.555  1.00  0.00     0.000 C 
ENDROOT
BRANCH   1   2
ATOM      2  C   UNL     1     -26.500 -21.185 -28.305  1.00  0.00     0.006 C 
BRANCH   2   3
ATOM      3  C   UNL     1     -26.211 -22.377 -29.221  1.00  0.00     0.053 C 
BRANCH   3   4
ATOM      4  C   UNL     1     -25.322 -21.966 -30.352  1.00  0.00     0.041 C 
ATOM      5  O   UNL     1     -24.546 -20.983 -30.223  1.00  0.00    -0.550 OA
ATOM      6  O   UNL     1     -25.315 -22.699 -31.533  1.00  0.00    -0.550 OA
ENDBRANCH   3   4
ENDBRANCH   2   3
ENDBRANCH   1   2
BRANCH   1   7
ATOM      7  C   UNL     1     -27.901 -19.365 -29.430  1.00  0.00     0.000 C 
BRANCH   7   8
ATOM      8  C   UNL     1     -28.888 -19.451 -30.605  1.00  0.00    -0.000 C 
BRANCH   8   9
ATOM      9  C   UNL     1     -29.125 -20.909 -31.018  1.00  0.00    -0.000 C 
BRANCH   9  10
ATOM     10  C   UNL     1     -28.408 -21.232 -32.333  1.00  0.00    -0.003 C 
ATOM     11  C   UNL     1     -29.002 -22.472 -32.994  1.00  0.00     0.004 C 
ENDBRANCH   9  10
ENDBRANCH   8   9
ENDBRANCH   7   8
ENDBRANCH   1   7
TORSDOF 7
ENDMDL
MODEL 6
REMARK VINA RESULT:    -3.569      2.910      4.136
REMARK INTER + INTRA:          -5.694
REMARK INTER:                  -5.115
REMARK INTRA:                  -0.578
REMARK UNBOUND:                -0.665
REMARK SMILES CCCCCCCCC(=O)[O-]
REMARK SMILES IDX 6 1 7 2 8 3 9 4 10 5 11 6 5 7 4 8 3 9 2 10 1 11
REMARK H PARENT
REMARK Flexibility Score: inf
ROOT
ATOM      1  C   UNL     1     -12.606 -34.108 -26.443  1.00  0.00     0.000 C 
ENDROOT
BRANCH   1   2
ATOM      2  C   UNL     1     -12.245 -35.399 -25.692  1.00  0.00     0.006 C 
BRANCH   2   3
ATOM      3  C   UNL     1     -11.210 -35.124 -24.597  1.00  0.00     0.053 C 
BRANCH   3   4
ATOM      4  C   UNL     1     -11.239 -36.207 -23.565  1.00  0.00     0.041 C 
ATOM      5  O   UNL     1     -10.434 -37.172 -23.637  1.00  0.00    -0.550 OA
ATOM      6  O   UNL     1     -12.123 -36.125 -22.496  1.00  0.00    -0.550 OA
ENDBRANCH   3   4
ENDBRANCH   2   3
ENDBRANCH   1   2
BRANCH   1   7
ATOM      7  C   UNL     1     -13.536 -34.360 -27.640  1.00  0.00     0.000 C 
BRANCH   7   8
ATOM      8  C   UNL     1     -12.785 -34.886 -28.874  1.00  0.00    -0.000 C 
BRANCH   8   9
ATOM      9  C   UNL     1     -11.514 -34.069 -29.133  1.00  0.00    -0.000 C 
BRANCH   9  10
ATOM     10  C   UNL     1     -10.355 -34.976 -29.564  1.00  0.00    -0.003 C 
ATOM     11  C   UNL     1      -9.654 -35.585 -28.354  1.00  0.00     0.004 C 
ENDBRANCH   9  10
ENDBRANCH   8   9
ENDBRANCH   7   8
ENDBRANCH   1   7
TORSDOF 7
ENDMDL
MODEL 7
REMARK VINA RESULT:    -3.566     18.720     21.127
REMARK INTER + INTRA:          -5.690
REMARK INTER:                  -4.962
REMARK INTRA:                  -0.729
REMARK UNBOUND:                -0.665
REMARK SMILES CCCCCCCCC(=O)[O-]
REMARK SMILES IDX 6 1 7 2 8 3 9 4 10 5 11 6 5 7 4 8 3 9 2 10 1 11
REMARK H PARENT
REMARK Flexibility Score: inf
ROOT
ATOM      1  C   UNL     1     -28.824 -20.022 -30.874  1.00  0.00     0.000 C 
ENDROOT
BRANCH   1   2
ATOM      2  C   UNL     1     -28.006 -19.779 -32.151  1.00  0.00     0.006 C 
BRANCH   2   3
ATOM      3  C   UNL     1     -27.332 -21.071 -32.623  1.00  0.00     0.053 C 
BRANCH   3   4
ATOM      4  C   UNL     1     -28.356 -22.122 -32.911  1.00  0.00     0.041 C 
ATOM      5  O   UNL     1     -29.100 -22.023 -33.922  1.00  0.00    -0.550 OA
ATOM      6  O   UNL     1     -28.457 -23.238 -32.089  1.00  0.00    -0.550 OA
ENDBRANCH   3   4
ENDBRANCH   2   3
ENDBRANCH   1   2
BRANCH   1   7
ATOM      7  C   UNL     1     -28.044 -19.674 -29.596  1.00  0.00     0.000 C 
BRANCH   7   8
ATOM      8  C   UNL     1     -27.892 -20.876 -28.649  1.00  0.00    -0.000 C 
BRANCH   8   9
ATOM      9  C   UNL     1     -26.429 -21.328 -28.567  1.00  0.00    -0.000 C 
BRANCH   9  10
ATOM     10  C   UNL     1     -26.184 -22.561 -29.445  1.00  0.00    -0.003 C 
ATOM     11  C   UNL     1     -24.879 -22.432 -30.223  1.00  0.00     0.004 C 
ENDBRANCH   9  10
ENDBRANCH   8   9
ENDBRANCH   7   8
ENDBRANCH   1   7
TORSDOF 7
ENDMDL
MODEL 8
REMARK VINA RESULT:    -3.544     19.133     21.147
REMARK INTER + INTRA:          -5.659
REMARK INTER:                  -4.933
REMARK INTRA:                  -0.725
REMARK UNBOUND:                -0.665
REMARK SMILES CCCCCCCCC(=O)[O-]
REMARK SMILES IDX 6 1 7 2 8 3 9 4 10 5 11 6 5 7 4 8 3 9 2 10 1 11
REMARK H PARENT
REMARK Flexibility Score: inf
ROOT
ATOM      1  C   UNL     1     -28.326 -21.014 -31.965  1.00  0.00     0.000 C 
ENDROOT
BRANCH   1   2
ATOM      2  C   UNL     1     -28.858 -20.518 -30.612  1.00  0.00     0.006 C 
BRANCH   2   3
ATOM      3  C   UNL     1     -27.911 -19.483 -29.997  1.00  0.00     0.053 C 
BRANCH   3   4
ATOM      4  C   UNL     1     -28.090 -19.426 -28.513  1.00  0.00     0.041 C 
ATOM      5  O   UNL     1     -27.922 -20.459 -27.813  1.00  0.00    -0.550 OA
ATOM      6  O   UNL     1     -28.394 -18.218 -27.895  1.00  0.00    -0.550 OA
ENDBRANCH   3   4
ENDBRANCH   2   3
ENDBRANCH   1   2
BRANCH   1   7
ATOM      7  C   UNL     1     -28.503 -22.529 -32.151  1.00  0.00     0.000 C 
BRANCH   7   8
ATOM      8  C   UNL     1     -27.264 -23.328 -31.717  1.00  0.00    -0.000 C 
BRANCH   8   9
ATOM      9  C   UNL     1     -25.976 -22.556 -32.030  1.00  0.00    -0.000 C 
BRANCH   9  10
ATOM     10  C   UNL     1     -25.112 -22.394 -30.775  1.00  0.00    -0.003 C 
ATOM     11  C   UNL     1     -25.918 -22.681 -29.511  1.00  0.00     0.004 C 
ENDBRANCH   9  10
ENDBRANCH   8   9
ENDBRANCH   7   8
ENDBRANCH   1   7
TORSDOF 7
ENDMDL
MODEL 9
REMARK VINA RESULT:    -3.525      2.833      3.878
REMARK INTER + INTRA:          -5.633
REMARK INTER:                  -4.752
REMARK INTRA:                  -0.881
REMARK UNBOUND:                -0.665
REMARK SMILES CCCCCCCCC(=O)[O-]
REMARK SMILES IDX 6 1 7 2 8 3 9 4 10 5 11 6 5 7 4 8 3 9 2 10 1 11
REMARK H PARENT
REMARK Flexibility Score: inf
ROOT
ATOM      1  C   UNL     1     -13.606 -34.339 -27.556  1.00  0.00     0.000 C 
ENDROOT
BRANCH   1   2
ATOM      2  C   UNL     1     -12.883 -35.001 -28.739  1.00  0.00     0.006 C 
BRANCH   2   3
ATOM      3  C   UNL     1     -11.640 -34.200 -29.139  1.00  0.00     0.053 C 
BRANCH   3   4
ATOM      4  C   UNL     1     -10.518 -35.120 -29.501  1.00  0.00     0.041 C 
ATOM      5  O   UNL     1     -10.716 -36.361 -29.582  1.00  0.00    -0.550 OA
ATOM      6  O   UNL     1      -9.262 -34.603 -29.796  1.00  0.00    -0.550 OA
ENDBRANCH   3   4
ENDBRANCH   2   3
ENDBRANCH   1   2
BRANCH   1   7
ATOM      7  C   UNL     1     -12.655 -33.990 -26.401  1.00  0.00     0.000 C 
BRANCH   7   8
ATOM      8  C   UNL     1     -12.262 -35.219 -25.565  1.00  0.00    -0.000 C 
BRANCH   8   9
ATOM      9  C   UNL     1     -10.747 -35.450 -25.608  1.00  0.00    -0.000 C 
BRANCH   9  10
ATOM     10  C   UNL     1     -10.419 -36.866 -26.095  1.00  0.00    -0.003 C 
ATOM     11  C   UNL     1     -11.691 -37.668 -26.351  1.00  0.00     0.004 C 
ENDBRANCH   9  10
ENDBRANCH   8   9
ENDBRANCH   7   8
ENDBRANCH   1   7
TORSDOF 7
ENDMDL
