MODEL 1
REMARK VINA RESULT:    -4.049      0.000      0.000
REMARK INTER + INTRA:          -5.672
REMARK INTER:                  -5.705
REMARK INTRA:                   0.033
REMARK UNBOUND:                 0.033
REMARK SMILES CC1=CCC(=C(C)C)C(=O)CC(C)=CCC1
REMARK SMILES IDX 12 1 14 2 13 3 15 4 16 5 2 6 1 7 3 8 11 10 9 11 10 12 5 13
REMARK SMILES IDX 6 14 7 15 8 16 4 17
REMARK H PARENT
REMARK Flexibility Score: 60.00
ROOT
ATOM      1  C   UNL     1      11.444 116.352  18.306  1.00  0.00    -0.070 C 
ATOM      2  C   UNL     1      10.908 117.280  17.482  1.00  0.00    -0.027 C 
ATOM      3  C   UNL     1      12.866 115.916  18.055  1.00  0.00     0.039 C 
ENDROOT
BRANCH   2   4
ATOM      4  C   UNL     1       9.466 117.719  17.496  1.00  0.00     0.032 C 
BRANCH   4   5
ATOM      5  C   UNL     1       9.244 118.743  18.616  1.00  0.00     0.034 C 
BRANCH   5   6
ATOM      6  C   UNL     1       8.011 118.440  19.442  1.00  0.00    -0.077 C 
ATOM      7  C   UNL     1       6.666 118.436  18.759  1.00  0.00     0.039 C 
ATOM      8  C   UNL     1       8.051 118.099  20.755  1.00  0.00    -0.023 CG0
ATOM      9  G   UNL     1       9.264 118.089  21.668  1.00  0.00     0.000 G0
ENDBRANCH   5   6
ENDBRANCH   4   5
ENDBRANCH   2   4
BRANCH   1  10
ATOM     10  C   UNL     1      10.696 115.743  19.476  1.00  0.00     0.111 C 
BRANCH  10  11
ATOM     11  C   UNL     1      11.025 116.435  20.776  1.00  0.00     0.163 C 
ATOM     12  O   UNL     1      12.229 116.762  20.964  1.00  0.00    -0.294 OA
BRANCH  11  13
ATOM     13  C   UNL     1      10.006 116.764  21.828  1.00  0.00    -0.002 C 
ATOM     14  C   UNL     1       9.882 115.982  22.945  1.00  0.00    -0.069 C 
ATOM     15  C   UNL     1      10.542 114.625  23.036  1.00  0.00     0.039 C 
ATOM     16  C   UNL     1       9.039 116.404  24.127  1.00  0.00     0.039 C 
BRANCH  13  17
ATOM     17  C   UNL     1       9.253 118.084  21.699  1.00  0.00     0.066 CG0
ATOM     18  G   UNL     1       8.072 118.098  20.746  1.00  0.00     0.000 G0
ENDBRANCH  13  17
ENDBRANCH  11  13
ENDBRANCH  10  11
ENDBRANCH   1  10
TORSDOF 0
ENDMDL
MODEL 2
REMARK VINA RESULT:    -3.789      3.617      5.045
REMARK INTER + INTRA:          -5.306
REMARK INTER:                  -5.310
REMARK INTRA:                   0.004
REMARK UNBOUND:                 0.033
REMARK SMILES CC1=CCC(=C(C)C)C(=O)CC(C)=CCC1
REMARK SMILES IDX 12 1 14 2 13 3 15 4 16 5 2 6 1 7 3 8 11 10 9 11 10 12 5 13
REMARK SMILES IDX 6 14 7 15 8 16 4 17
REMARK H PARENT
REMARK Flexibility Score: 60.00
ROOT
ATOM      1  C   UNL     1      11.617 113.413  18.285  1.00  0.00    -0.070 C 
ATOM      2  C   UNL     1      11.528 114.760  18.366  1.00  0.00    -0.027 C 
ATOM      3  C   UNL     1      12.156 112.812  17.011  1.00  0.00     0.039 C 
ENDROOT
BRANCH   2   4
ATOM      4  C   UNL     1      10.881 115.518  19.498  1.00  0.00     0.032 C 
BRANCH   4   5
ATOM      5  C   UNL     1      11.924 115.829  20.578  1.00  0.00     0.034 C 
BRANCH   5   6
ATOM      6  C   UNL     1      11.458 115.435  21.964  1.00  0.00    -0.077 C 
ATOM      7  C   UNL     1      10.368 116.246  22.619  1.00  0.00     0.039 C 
ATOM      8  C   UNL     1      11.915 114.343  22.627  1.00  0.00    -0.023 CG0
ATOM      9  G   UNL     1      13.038 113.411  22.207  1.00  0.00     0.000 G0
ENDBRANCH   5   6
ENDBRANCH   4   5
ENDBRANCH   2   4
BRANCH   1  10
ATOM     10  C   UNL     1      11.222 112.482  19.414  1.00  0.00     0.111 C 
BRANCH  10  11
ATOM     11  C   UNL     1      12.426 111.948  20.152  1.00  0.00     0.163 C 
ATOM     12  O   UNL     1      13.334 111.416  19.457  1.00  0.00    -0.294 OA
BRANCH  11  13
ATOM     13  C   UNL     1      12.600 112.037  21.639  1.00  0.00    -0.002 C 
ATOM     14  C   UNL     1      12.529 110.911  22.416  1.00  0.00    -0.069 C 
ATOM     15  C   UNL     1      12.000 109.605  21.868  1.00  0.00     0.039 C 
ATOM     16  C   UNL     1      12.926 110.920  23.876  1.00  0.00     0.039 C 
BRANCH  13  17
ATOM     17  C   UNL     1      13.035 113.375  22.226  1.00  0.00     0.066 CG0
ATOM     18  G   UNL     1      11.926 114.336  22.614  1.00  0.00     0.000 G0
ENDBRANCH  13  17
ENDBRANCH  11  13
ENDBRANCH  10  11
ENDBRANCH   1  10
TORSDOF 0
ENDMDL
MODEL 3
REMARK VINA RESULT:    -3.743     10.675     13.218
REMARK INTER + INTRA:          -5.242
REMARK INTER:                  -5.101
REMARK INTRA:                  -0.141
REMARK UNBOUND:                 0.033
REMARK SMILES CC1=CCC(=C(C)C)C(=O)CC(C)=CCC1
REMARK SMILES IDX 12 1 14 2 13 3 15 4 16 5 2 6 1 7 3 8 11 10 9 11 10 12 5 13
REMARK SMILES IDX 6 14 7 15 8 16 4 17
REMARK H PARENT
REMARK Flexibility Score: 60.00
ROOT
ATOM      1  C   UNL     1      16.217 122.244  13.627  1.00  0.00    -0.070 C 
ATOM      2  C   UNL     1      16.433 120.940  13.343  1.00  0.00    -0.027 C 
ATOM      3  C   UNL     1      14.935 122.615  14.329  1.00  0.00     0.039 C 
ENDROOT
BRANCH   2   4
ATOM      4  C   UNL     1      17.581 120.412  12.521  1.00  0.00     0.032 C 
BRANCH   4   5
ATOM      5  C   UNL     1      18.663 119.841  13.446  1.00  0.00     0.034 C 
BRANCH   5   6
ATOM      6  C   UNL     1      20.058 120.271  13.040  1.00  0.00    -0.077 C 
ATOM      7  C   UNL     1      20.750 119.525  11.926  1.00  0.00     0.039 C 
ATOM      8  C   UNL     1      20.699 121.341  13.574  1.00  0.00    -0.023 CG0
ATOM      9  G   UNL     1      20.240 122.207  14.734  1.00  0.00     0.000 G0
ENDBRANCH   5   6
ENDBRANCH   4   5
ENDBRANCH   2   4
BRANCH   1  10
ATOM     10  C   UNL     1      17.204 123.344  13.293  1.00  0.00     0.111 C 
BRANCH  10  11
ATOM     11  C   UNL     1      18.117 123.654  14.454  1.00  0.00     0.163 C 
ATOM     12  O   UNL     1      17.571 124.000  15.537  1.00  0.00    -0.294 OA
BRANCH  11  13
ATOM     13  C   UNL     1      19.613 123.552  14.391  1.00  0.00    -0.002 C 
ATOM     14  C   UNL     1      20.378 124.669  14.179  1.00  0.00    -0.069 C 
ATOM     15  C   UNL     1      19.763 125.972  13.723  1.00  0.00     0.039 C 
ATOM     16  C   UNL     1      21.881 124.650  14.338  1.00  0.00     0.039 C 
BRANCH  13  17
ATOM     17  C   UNL     1      20.251 122.214  14.748  1.00  0.00     0.066 CG0
ATOM     18  G   UNL     1      20.684 121.340  13.585  1.00  0.00     0.000 G0
ENDBRANCH  13  17
ENDBRANCH  11  13
ENDBRANCH  10  11
ENDBRANCH   1  10
TORSDOF 0
ENDMDL
MODEL 4
REMARK VINA RESULT:    -3.710      1.556      2.874
REMARK INTER + INTRA:          -5.195
REMARK INTER:                  -5.147
REMARK INTRA:                  -0.048
REMARK UNBOUND:                 0.033
REMARK SMILES CC1=CCC(=C(C)C)C(=O)CC(C)=CCC1
REMARK SMILES IDX 12 1 14 2 13 3 15 4 16 5 2 6 1 7 3 8 11 10 9 11 10 12 5 13
REMARK SMILES IDX 6 14 7 15 8 16 4 17
REMARK H PARENT
REMARK Flexibility Score: 60.00
ROOT
ATOM      1  C   UNL     1      10.345 117.824  17.683  1.00  0.00    -0.070 C 
ATOM      2  C   UNL     1       9.803 118.906  18.284  1.00  0.00    -0.027 C 
ATOM      3  C   UNL     1      11.060 118.023  16.370  1.00  0.00     0.039 C 
ENDROOT
BRANCH   2   4
ATOM      4  C   UNL     1       8.933 118.868  19.515  1.00  0.00     0.032 C 
BRANCH   4   5
ATOM      5  C   UNL     1       9.812 118.851  20.772  1.00  0.00     0.034 C 
BRANCH   5   6
ATOM      6  C   UNL     1       9.305 117.882  21.821  1.00  0.00    -0.077 C 
ATOM      7  C   UNL     1       7.959 118.138  22.451  1.00  0.00     0.039 C 
ATOM      8  C   UNL     1       9.963 116.750  22.177  1.00  0.00    -0.023 CG0
ATOM      9  G   UNL     1      11.344 116.307  21.731  1.00  0.00     0.000 G0
ENDBRANCH   5   6
ENDBRANCH   4   5
ENDBRANCH   2   4
BRANCH   1  10
ATOM     10  C   UNL     1      10.288 116.428  18.271  1.00  0.00     0.111 C 
BRANCH  10  11
ATOM     11  C   UNL     1      11.480 116.136  19.149  1.00  0.00     0.163 C 
ATOM     12  O   UNL     1      12.605 116.533  18.739  1.00  0.00    -0.294 OA
BRANCH  11  13
ATOM     13  C   UNL     1      11.391 115.429  20.470  1.00  0.00    -0.002 C 
ATOM     14  C   UNL     1      11.520 114.068  20.540  1.00  0.00    -0.069 C 
ATOM     15  C   UNL     1      11.470 113.205  19.300  1.00  0.00     0.039 C 
ATOM     16  C   UNL     1      11.668 113.345  21.861  1.00  0.00     0.039 C 
BRANCH  13  17
ATOM     17  C   UNL     1      11.337 116.284  21.732  1.00  0.00     0.066 CG0
ATOM     18  G   UNL     1       9.961 116.741  22.180  1.00  0.00     0.000 G0
ENDBRANCH  13  17
ENDBRANCH  11  13
ENDBRANCH  10  11
ENDBRANCH   1  10
TORSDOF 0
ENDMDL
MODEL 5
REMARK VINA RESULT:    -3.658      9.769     11.754
REMARK INTER + INTRA:          -5.122
REMARK INTER:                  -4.977
REMARK INTRA:                  -0.145
REMARK UNBOUND:                 0.033
REMARK SMILES CC1=CCC(=C(C)C)C(=O)CC(C)=CCC1
REMARK SMILES IDX 12 1 14 2 13 3 15 4 16 5 2 6 1 7 3 8 11 10 9 11 10 12 5 13
REMARK SMILES IDX 6 14 7 15 8 16 4 17
REMARK H PARENT
REMARK Flexibility Score: 60.00
ROOT
ATOM      1  C   UNL     1      15.811 125.067  17.899  1.00  0.00    -0.070 C 
ATOM      2  C   UNL     1      16.855 125.907  17.723  1.00  0.00    -0.027 C 
ATOM      3  C   UNL     1      14.568 125.606  18.562  1.00  0.00     0.039 C 
ENDROOT
BRANCH   2   4
ATOM      4  C   UNL     1      18.216 125.502  17.217  1.00  0.00     0.032 C 
BRANCH   4   5
ATOM      5  C   UNL     1      18.319 125.791  15.714  1.00  0.00     0.034 C 
BRANCH   5   6
ATOM      6  C   UNL     1      19.072 124.711  14.967  1.00  0.00    -0.077 C 
ATOM      7  C   UNL     1      20.577 124.676  15.067  1.00  0.00     0.039 C 
ATOM      8  C   UNL     1      18.465 123.721  14.265  1.00  0.00    -0.023 CG0
ATOM      9  G   UNL     1      16.983 123.573  13.972  1.00  0.00     0.000 G0
ENDBRANCH   5   6
ENDBRANCH   4   5
ENDBRANCH   2   4
BRANCH   1  10
ATOM     10  C   UNL     1      15.820 123.620  17.446  1.00  0.00     0.111 C 
BRANCH  10  11
ATOM     11  C   UNL     1      15.366 123.475  16.014  1.00  0.00     0.163 C 
ATOM     12  O   UNL     1      14.271 124.017  15.701  1.00  0.00    -0.294 OA
BRANCH  11  13
ATOM     13  C   UNL     1      16.149 122.748  14.960  1.00  0.00    -0.002 C 
ATOM     14  C   UNL     1      16.002 121.397  14.792  1.00  0.00    -0.069 C 
ATOM     15  C   UNL     1      15.286 120.547  15.816  1.00  0.00     0.039 C 
ATOM     16  C   UNL     1      16.589 120.670  13.603  1.00  0.00     0.039 C 
BRANCH  13  17
ATOM     17  C   UNL     1      16.963 123.582  13.976  1.00  0.00     0.066 CG0
ATOM     18  G   UNL     1      18.449 123.706  14.261  1.00  0.00     0.000 G0
ENDBRANCH  13  17
ENDBRANCH  11  13
ENDBRANCH  10  11
ENDBRANCH   1  10
TORSDOF 0
ENDMDL
MODEL 6
REMARK VINA RESULT:    -3.626      5.494      8.309
REMARK INTER + INTRA:          -5.076
REMARK INTER:                  -5.035
REMARK INTRA:                  -0.041
REMARK UNBOUND:                 0.033
REMARK SMILES CC1=CCC(=C(C)C)C(=O)CC(C)=CCC1
REMARK SMILES IDX 12 1 14 2 13 3 15 4 16 5 2 6 1 7 3 8 11 10 9 11 10 12 5 13
REMARK SMILES IDX 6 14 7 15 8 16 4 17
REMARK H PARENT
REMARK Flexibility Score: 60.00
ROOT
ATOM      1  C   UNL     1      12.702 110.276  21.273  1.00  0.00    -0.070 C 
ATOM      2  C   UNL     1      13.556 109.307  20.872  1.00  0.00    -0.027 C 
ATOM      3  C   UNL     1      12.154 110.204  22.676  1.00  0.00     0.039 C 
ENDROOT
BRANCH   2   4
ATOM      4  C   UNL     1      14.081 109.143  19.469  1.00  0.00     0.032 C 
BRANCH   4   5
ATOM      5  C   UNL     1      15.402 109.905  19.315  1.00  0.00     0.034 C 
BRANCH   5   6
ATOM      6  C   UNL     1      15.560 110.521  17.940  1.00  0.00    -0.077 C 
ATOM      7  C   UNL     1      15.816 109.610  16.764  1.00  0.00     0.039 C 
ATOM      8  C   UNL     1      15.411 111.846  17.689  1.00  0.00    -0.023 CG0
ATOM      9  G   UNL     1      15.209 112.959  18.701  1.00  0.00     0.000 G0
ENDBRANCH   5   6
ENDBRANCH   4   5
ENDBRANCH   2   4
BRANCH   1  10
ATOM     10  C   UNL     1      12.285 111.436  20.391  1.00  0.00     0.111 C 
BRANCH  10  11
ATOM     11  C   UNL     1      13.306 112.548  20.402  1.00  0.00     0.163 C 
ATOM     12  O   UNL     1      13.781 112.880  21.523  1.00  0.00    -0.294 OA
BRANCH  11  13
ATOM     13  C   UNL     1      13.790 113.249  19.167  1.00  0.00    -0.002 C 
ATOM     14  C   UNL     1      13.031 114.226  18.579  1.00  0.00    -0.069 C 
ATOM     15  C   UNL     1      11.584 114.438  18.962  1.00  0.00     0.039 C 
ATOM     16  C   UNL     1      13.576 115.111  17.481  1.00  0.00     0.039 C 
BRANCH  13  17
ATOM     17  C   UNL     1      15.215 112.971  18.703  1.00  0.00     0.066 CG0
ATOM     18  G   UNL     1      15.394 111.840  17.706  1.00  0.00     0.000 G0
ENDBRANCH  13  17
ENDBRANCH  11  13
ENDBRANCH  10  11
ENDBRANCH   1  10
TORSDOF 0
ENDMDL
MODEL 7
REMARK VINA RESULT:    -3.511      1.873      3.920
REMARK INTER + INTRA:          -4.914
REMARK INTER:                  -4.760
REMARK INTRA:                  -0.154
REMARK UNBOUND:                 0.033
REMARK SMILES CC1=CCC(=C(C)C)C(=O)CC(C)=CCC1
REMARK SMILES IDX 12 1 14 2 13 3 15 4 16 5 2 6 1 7 3 8 11 10 9 11 10 12 5 13
REMARK SMILES IDX 6 14 7 15 8 16 4 17
REMARK H PARENT
REMARK Flexibility Score: 60.00
ROOT
ATOM      1  C   UNL     1      10.579 117.589  18.221  1.00  0.00    -0.070 C 
ATOM      2  C   UNL     1      11.201 116.456  18.616  1.00  0.00    -0.027 C 
ATOM      3  C   UNL     1      10.148 117.697  16.780  1.00  0.00     0.039 C 
ENDROOT
BRANCH   2   4
ATOM      4  C   UNL     1      11.826 116.239  19.971  1.00  0.00     0.032 C 
BRANCH   4   5
ATOM      5  C   UNL     1      10.871 115.433  20.860  1.00  0.00     0.034 C 
BRANCH   5   6
ATOM      6  C   UNL     1      10.845 115.938  22.289  1.00  0.00    -0.077 C 
ATOM      7  C   UNL     1      11.966 115.541  23.217  1.00  0.00     0.039 C 
ATOM      8  C   UNL     1       9.905 116.791  22.766  1.00  0.00    -0.023 CG0
ATOM      9  G   UNL     1       8.659 117.284  22.052  1.00  0.00     0.000 G0
ENDBRANCH   5   6
ENDBRANCH   4   5
ENDBRANCH   2   4
BRANCH   1  10
ATOM     10  C   UNL     1      10.277 118.744  19.155  1.00  0.00     0.111 C 
BRANCH  10  11
ATOM     11  C   UNL     1       8.940 118.583  19.837  1.00  0.00     0.163 C 
ATOM     12  O   UNL     1       7.937 118.392  19.095  1.00  0.00    -0.294 OA
BRANCH  11  13
ATOM     13  C   UNL     1       8.753 118.616  21.325  1.00  0.00    -0.002 C 
ATOM     14  C   UNL     1       8.527 119.802  21.971  1.00  0.00    -0.069 C 
ATOM     15  C   UNL     1       8.737 121.130  21.280  1.00  0.00     0.039 C 
ATOM     16  C   UNL     1       8.105 119.855  23.422  1.00  0.00     0.039 C 
BRANCH  13  17
ATOM     17  C   UNL     1       8.640 117.284  22.058  1.00  0.00     0.066 CG0
ATOM     18  G   UNL     1       9.893 116.790  22.760  1.00  0.00     0.000 G0
ENDBRANCH  13  17
ENDBRANCH  11  13
ENDBRANCH  10  11
ENDBRANCH   1  10
TORSDOF 0
ENDMDL
MODEL 8
REMARK VINA RESULT:    -3.468      1.591      2.131
REMARK INTER + INTRA:          -4.854
REMARK INTER:                  -4.878
REMARK INTRA:                   0.024
REMARK UNBOUND:                 0.033
REMARK SMILES CC1=CCC(=C(C)C)C(=O)CC(C)=CCC1
REMARK SMILES IDX 12 1 14 2 13 3 15 4 16 5 2 6 1 7 3 8 11 10 9 11 10 12 5 13
REMARK SMILES IDX 6 14 7 15 8 16 4 17
REMARK H PARENT
REMARK Flexibility Score: 60.00
ROOT
ATOM      1  C   UNL     1      12.897 117.045  17.358  1.00  0.00    -0.070 C 
ATOM      2  C   UNL     1      12.018 118.025  17.052  1.00  0.00    -0.027 C 
ATOM      3  C   UNL     1      14.345 117.249  16.990  1.00  0.00     0.039 C 
ENDROOT
BRANCH   2   4
ATOM      4  C   UNL     1      10.522 117.927  17.212  1.00  0.00     0.032 C 
BRANCH   4   5
ATOM      5  C   UNL     1      10.087 118.657  18.488  1.00  0.00     0.034 C 
BRANCH   5   6
ATOM      6  C   UNL     1       9.205 117.801  19.374  1.00  0.00    -0.077 C 
ATOM      7  C   UNL     1       7.734 117.706  19.055  1.00  0.00     0.039 C 
ATOM      8  C   UNL     1       9.676 117.051  20.402  1.00  0.00    -0.023 CG0
ATOM      9  G   UNL     1      11.092 117.022  20.949  1.00  0.00     0.000 G0
ENDBRANCH   5   6
ENDBRANCH   4   5
ENDBRANCH   2   4
BRANCH   1  10
ATOM     10  C   UNL     1      12.504 115.765  18.069  1.00  0.00     0.111 C 
BRANCH  10  11
ATOM     11  C   UNL     1      12.884 115.791  19.529  1.00  0.00     0.163 C 
ATOM     12  O   UNL     1      14.113 115.873  19.801  1.00  0.00    -0.294 OA
BRANCH  11  13
ATOM     13  C   UNL     1      11.889 115.746  20.652  1.00  0.00    -0.002 C 
ATOM     14  C   UNL     1      11.824 114.658  21.480  1.00  0.00    -0.069 C 
ATOM     15  C   UNL     1      12.529 113.364  21.141  1.00  0.00     0.039 C 
ATOM     16  C   UNL     1      11.006 114.668  22.752  1.00  0.00     0.039 C 
BRANCH  13  17
ATOM     17  C   UNL     1      11.092 117.012  20.947  1.00  0.00     0.066 CG0
ATOM     18  G   UNL     1       9.670 117.055  20.416  1.00  0.00     0.000 G0
ENDBRANCH  13  17
ENDBRANCH  11  13
ENDBRANCH  10  11
ENDBRANCH   1  10
TORSDOF 0
ENDMDL
MODEL 9
REMARK VINA RESULT:    -3.430      2.232      4.253
REMARK INTER + INTRA:          -4.801
REMARK INTER:                  -4.844
REMARK INTRA:                   0.043
REMARK UNBOUND:                 0.033
REMARK SMILES CC1=CCC(=C(C)C)C(=O)CC(C)=CCC1
REMARK SMILES IDX 12 1 14 2 13 3 15 4 16 5 2 6 1 7 3 8 11 10 9 11 10 12 5 13
REMARK SMILES IDX 6 14 7 15 8 16 4 17
REMARK H PARENT
REMARK Flexibility Score: 60.00
ROOT
ATOM      1  C   UNL     1       8.007 118.660  18.942  1.00  0.00    -0.070 C 
ATOM      2  C   UNL     1       8.607 117.621  18.317  1.00  0.00    -0.027 C 
ATOM      3  C   UNL     1       6.503 118.752  18.882  1.00  0.00     0.039 C 
ENDROOT
BRANCH   2   4
ATOM      4  C   UNL     1      10.096 117.455  18.151  1.00  0.00     0.032 C 
BRANCH   4   5
ATOM      5  C   UNL     1      10.627 116.461  19.192  1.00  0.00     0.034 C 
BRANCH   5   6
ATOM      6  C   UNL     1      11.799 117.015  19.976  1.00  0.00    -0.077 C 
ATOM      7  C   UNL     1      13.179 116.931  19.370  1.00  0.00     0.039 C 
ATOM      8  C   UNL     1      11.673 117.651  21.167  1.00  0.00    -0.023 CG0
ATOM      9  G   UNL     1      10.412 117.810  21.998  1.00  0.00     0.000 G0
ENDBRANCH   5   6
ENDBRANCH   4   5
ENDBRANCH   2   4
BRANCH   1  10
ATOM     10  C   UNL     1       8.768 119.720  19.713  1.00  0.00     0.111 C 
BRANCH  10  11
ATOM     11  C   UNL     1       8.651 119.524  21.205  1.00  0.00     0.163 C 
ATOM     12  O   UNL     1       7.498 119.624  21.709  1.00  0.00    -0.294 OA
BRANCH  11  13
ATOM     13  C   UNL     1       9.812 119.202  22.099  1.00  0.00    -0.002 C 
ATOM     14  C   UNL     1      10.207 120.083  23.071  1.00  0.00    -0.069 C 
ATOM     15  C   UNL     1       9.695 121.505  23.103  1.00  0.00     0.039 C 
ATOM     16  C   UNL     1      11.213 119.703  24.134  1.00  0.00     0.039 C 
BRANCH  13  17
ATOM     17  C   UNL     1      10.412 117.803  22.010  1.00  0.00     0.066 CG0
ATOM     18  G   UNL     1      11.675 117.660  21.180  1.00  0.00     0.000 G0
ENDBRANCH  13  17
ENDBRANCH  11  13
ENDBRANCH  10  11
ENDBRANCH   1  10
TORSDOF 0
ENDMDL
