MODEL 1
REMARK VINA RESULT:    -4.418      0.000      0.000
REMARK INTER + INTRA:          -6.485
REMARK INTER:                  -5.968
REMARK INTRA:                  -0.517
REMARK UNBOUND:                -0.517
REMARK SMILES O=C[C@@H](O)[C@@H](O)[C@@H](O)CO
REMARK SMILES IDX 7 1 9 2 10 3 5 5 3 6 2 7 1 8 4 9 6 11 8 13
REMARK H PARENT 10 4 4 10 6 12 8 14
REMARK Flexibility Score: inf
ROOT
ATOM      1  C   UNL     1       6.093   5.496  13.376  1.00  0.00     0.171 C 
ENDROOT
BRANCH   1   2
ATOM      2  C   UNL     1       5.508   4.191  12.806  1.00  0.00     0.190 C 
BRANCH   2   3
ATOM      3  O   UNL     1       6.414   3.134  12.973  1.00  0.00    -0.394 OA
ATOM      4  H   UNL     1       6.047   2.571  13.702  1.00  0.00     0.210 HD
ENDBRANCH   2   3
ENDBRANCH   1   2
BRANCH   1   5
ATOM      5  C   UNL     1       6.675   5.306  14.809  1.00  0.00     0.181 C 
BRANCH   5   6
ATOM      6  C   UNL     1       6.963   6.653  15.527  1.00  0.00     0.209 C 
BRANCH   6   7
ATOM      7  C   UNL     1       8.382   6.781  16.026  1.00  0.00     0.258 C 
ATOM      8  O   UNL     1       8.631   6.800  17.220  1.00  0.00    -0.300 OA
ENDBRANCH   6   7
BRANCH   6   9
ATOM      9  O   UNL     1       6.625   7.743  14.706  1.00  0.00    -0.383 OA
ATOM     10  H   UNL     1       5.654   7.922  14.817  1.00  0.00     0.211 HD
ENDBRANCH   6   9
ENDBRANCH   5   6
BRANCH   5  11
ATOM     11  O   UNL     1       5.853   4.478  15.596  1.00  0.00    -0.387 OA
ATOM     12  H   UNL     1       6.341   3.629  15.761  1.00  0.00     0.211 HD
ENDBRANCH   5  11
ENDBRANCH   1   5
BRANCH   1  13
ATOM     13  O   UNL     1       7.074   5.993  12.501  1.00  0.00    -0.388 OA
ATOM     14  H   UNL     1       7.894   6.162  13.036  1.00  0.00     0.211 HD
ENDBRANCH   1  13
TORSDOF 8
ENDMDL
MODEL 2
REMARK VINA RESULT:    -4.273      1.857      4.889
REMARK INTER + INTRA:          -6.289
REMARK INTER:                  -5.785
REMARK INTRA:                  -0.504
REMARK UNBOUND:                -0.517
REMARK SMILES O=C[C@@H](O)[C@@H](O)[C@@H](O)CO
REMARK SMILES IDX 7 1 9 2 10 3 5 5 3 6 2 7 1 8 4 9 6 11 8 13
REMARK H PARENT 10 4 4 10 6 12 8 14
REMARK Flexibility Score: inf
ROOT
ATOM      1  C   UNL     1       6.047   5.280  13.987  1.00  0.00     0.171 C 
ENDROOT
BRANCH   1   2
ATOM      2  C   UNL     1       6.908   6.537  13.771  1.00  0.00     0.190 C 
BRANCH   2   3
ATOM      3  O   UNL     1       6.448   7.589  14.575  1.00  0.00    -0.394 OA
ATOM      4  H   UNL     1       7.252   7.976  15.009  1.00  0.00     0.210 HD
ENDBRANCH   2   3
ENDBRANCH   1   2
BRANCH   1   5
ATOM      5  C   UNL     1       5.502   4.700  12.647  1.00  0.00     0.181 C 
BRANCH   5   6
ATOM      6  C   UNL     1       5.617   3.153  12.566  1.00  0.00     0.209 C 
BRANCH   6   7
ATOM      7  C   UNL     1       4.675   2.528  11.566  1.00  0.00     0.258 C 
ATOM      8  O   UNL     1       3.486   2.405  11.811  1.00  0.00    -0.300 OA
ENDBRANCH   6   7
BRANCH   6   9
ATOM      9  O   UNL     1       6.943   2.760  12.314  1.00  0.00    -0.383 OA
ATOM     10  H   UNL     1       6.921   1.868  11.878  1.00  0.00     0.211 HD
ENDBRANCH   6   9
ENDBRANCH   5   6
BRANCH   5  11
ATOM     11  O   UNL     1       4.182   5.123  12.399  1.00  0.00    -0.387 OA
ATOM     12  H   UNL     1       3.574   4.575  12.962  1.00  0.00     0.211 HD
ENDBRANCH   5  11
ENDBRANCH   1   5
BRANCH   1  13
ATOM     13  O   UNL     1       6.794   4.311  14.681  1.00  0.00    -0.388 OA
ATOM     14  H   UNL     1       6.256   4.025  15.466  1.00  0.00     0.211 HD
ENDBRANCH   1  13
TORSDOF 8
ENDMDL
MODEL 3
REMARK VINA RESULT:    -4.139      1.315      2.636
REMARK INTER + INTRA:          -6.108
REMARK INTER:                  -5.590
REMARK INTRA:                  -0.518
REMARK UNBOUND:                -0.517
REMARK SMILES O=C[C@@H](O)[C@@H](O)[C@@H](O)CO
REMARK SMILES IDX 7 1 9 2 10 3 5 5 3 6 2 7 1 8 4 9 6 11 8 13
REMARK H PARENT 10 4 4 10 6 12 8 14
REMARK Flexibility Score: inf
ROOT
ATOM      1  C   UNL     1       5.072   3.938  12.736  1.00  0.00     0.171 C 
ENDROOT
BRANCH   1   2
ATOM      2  C   UNL     1       5.850   2.993  11.803  1.00  0.00     0.190 C 
BRANCH   2   3
ATOM      3  O   UNL     1       6.985   2.489  12.453  1.00  0.00    -0.394 OA
ATOM      4  H   UNL     1       7.592   3.262  12.585  1.00  0.00     0.210 HD
ENDBRANCH   2   3
ENDBRANCH   1   2
BRANCH   1   5
ATOM      5  C   UNL     1       5.875   5.232  13.069  1.00  0.00     0.181 C 
BRANCH   5   6
ATOM      6  C   UNL     1       6.555   5.178  14.464  1.00  0.00     0.209 C 
BRANCH   6   7
ATOM      7  C   UNL     1       6.833   6.539  15.054  1.00  0.00     0.258 C 
ATOM      8  O   UNL     1       7.128   7.486  14.344  1.00  0.00    -0.300 OA
ENDBRANCH   6   7
BRANCH   6   9
ATOM      9  O   UNL     1       5.807   4.392  15.359  1.00  0.00    -0.383 OA
ATOM     10  H   UNL     1       5.602   3.529  14.912  1.00  0.00     0.211 HD
ENDBRANCH   6   9
ENDBRANCH   5   6
BRANCH   5  11
ATOM     11  O   UNL     1       6.810   5.535  12.061  1.00  0.00    -0.387 OA
ATOM     12  H   UNL     1       7.502   6.128  12.454  1.00  0.00     0.211 HD
ENDBRANCH   5  11
ENDBRANCH   1   5
BRANCH   1  13
ATOM     13  O   UNL     1       3.831   4.257  12.155  1.00  0.00    -0.388 OA
ATOM     14  H   UNL     1       3.971   5.042  11.564  1.00  0.00     0.211 HD
ENDBRANCH   1  13
TORSDOF 8
ENDMDL
MODEL 4
REMARK VINA RESULT:    -4.077      2.430      5.222
REMARK INTER + INTRA:          -6.024
REMARK INTER:                  -5.371
REMARK INTRA:                  -0.653
REMARK UNBOUND:                -0.517
REMARK SMILES O=C[C@@H](O)[C@@H](O)[C@@H](O)CO
REMARK SMILES IDX 7 1 9 2 10 3 5 5 3 6 2 7 1 8 4 9 6 11 8 13
REMARK H PARENT 10 4 4 10 6 12 8 14
REMARK Flexibility Score: inf
ROOT
ATOM      1  C   UNL     1       5.472   4.617  12.812  1.00  0.00     0.171 C 
ENDROOT
BRANCH   1   2
ATOM      2  C   UNL     1       5.865   4.704  14.298  1.00  0.00     0.190 C 
BRANCH   2   3
ATOM      3  O   UNL     1       7.257   4.799  14.432  1.00  0.00    -0.394 OA
ATOM      4  H   UNL     1       7.499   4.226  15.205  1.00  0.00     0.210 HD
ENDBRANCH   2   3
ENDBRANCH   1   2
BRANCH   1   5
ATOM      5  C   UNL     1       5.580   3.165  12.256  1.00  0.00     0.181 C 
BRANCH   5   6
ATOM      6  C   UNL     1       4.947   3.012  10.845  1.00  0.00     0.209 C 
BRANCH   6   7
ATOM      7  C   UNL     1       3.590   2.351  10.861  1.00  0.00     0.258 C 
ATOM      8  O   UNL     1       2.780   2.594  11.740  1.00  0.00    -0.300 OA
ENDBRANCH   6   7
BRANCH   6   9
ATOM      9  O   UNL     1       4.890   4.250  10.181  1.00  0.00    -0.383 OA
ATOM     10  H   UNL     1       4.192   4.188   9.478  1.00  0.00     0.211 HD
ENDBRANCH   6   9
ENDBRANCH   5   6
BRANCH   5  11
ATOM     11  O   UNL     1       6.909   2.704  12.268  1.00  0.00    -0.387 OA
ATOM     12  H   UNL     1       6.986   1.975  11.599  1.00  0.00     0.211 HD
ENDBRANCH   5  11
ENDBRANCH   1   5
BRANCH   1  13
ATOM     13  O   UNL     1       4.171   5.122  12.639  1.00  0.00    -0.388 OA
ATOM     14  H   UNL     1       3.545   4.497  13.090  1.00  0.00     0.211 HD
ENDBRANCH   1  13
TORSDOF 8
ENDMDL
MODEL 5
REMARK VINA RESULT:    -4.005      4.040      5.941
REMARK INTER + INTRA:          -5.928
REMARK INTER:                  -5.480
REMARK INTRA:                  -0.448
REMARK UNBOUND:                -0.517
REMARK SMILES O=C[C@@H](O)[C@@H](O)[C@@H](O)CO
REMARK SMILES IDX 7 1 9 2 10 3 5 5 3 6 2 7 1 8 4 9 6 11 8 13
REMARK H PARENT 10 4 4 10 6 12 8 14
REMARK Flexibility Score: inf
ROOT
ATOM      1  C   UNL     1       3.281   0.885  11.635  1.00  0.00     0.171 C 
ENDROOT
BRANCH   1   2
ATOM      2  C   UNL     1       1.902   0.503  12.201  1.00  0.00     0.190 C 
BRANCH   2   3
ATOM      3  O   UNL     1       1.910  -0.821  12.659  1.00  0.00    -0.394 OA
ATOM      4  H   UNL     1       2.094  -0.774  13.633  1.00  0.00     0.210 HD
ENDBRANCH   2   3
ENDBRANCH   1   2
BRANCH   1   5
ATOM      5  C   UNL     1       3.635   2.380  11.897  1.00  0.00     0.181 C 
BRANCH   5   6
ATOM      6  C   UNL     1       4.925   2.833  11.159  1.00  0.00     0.209 C 
BRANCH   6   7
ATOM      7  C   UNL     1       5.281   4.280  11.399  1.00  0.00     0.258 C 
ATOM      8  O   UNL     1       4.928   4.857  12.415  1.00  0.00    -0.300 OA
ENDBRANCH   6   7
BRANCH   6   9
ATOM      9  O   UNL     1       6.008   1.995  11.478  1.00  0.00    -0.383 OA
ATOM     10  H   UNL     1       6.177   2.070  12.454  1.00  0.00     0.211 HD
ENDBRANCH   6   9
ENDBRANCH   5   6
BRANCH   5  11
ATOM     11  O   UNL     1       2.554   3.228  11.594  1.00  0.00    -0.387 OA
ATOM     12  H   UNL     1       2.868   3.902  10.935  1.00  0.00     0.211 HD
ENDBRANCH   5  11
ENDBRANCH   1   5
BRANCH   1  13
ATOM     13  O   UNL     1       4.264   0.038  12.178  1.00  0.00    -0.388 OA
ATOM     14  H   UNL     1       4.090  -0.879  11.837  1.00  0.00     0.211 HD
ENDBRANCH   1  13
TORSDOF 8
ENDMDL
MODEL 6
REMARK VINA RESULT:    -3.998      1.914      3.166
REMARK INTER + INTRA:          -5.918
REMARK INTER:                  -5.528
REMARK INTRA:                  -0.390
REMARK UNBOUND:                -0.517
REMARK SMILES O=C[C@@H](O)[C@@H](O)[C@@H](O)CO
REMARK SMILES IDX 7 1 9 2 10 3 5 5 3 6 2 7 1 8 4 9 6 11 8 13
REMARK H PARENT 10 4 4 10 6 12 8 14
REMARK Flexibility Score: inf
ROOT
ATOM      1  C   UNL     1       6.167   3.392  11.738  1.00  0.00     0.171 C 
ENDROOT
BRANCH   1   2
ATOM      2  C   UNL     1       5.389   2.906  10.501  1.00  0.00     0.190 C 
BRANCH   2   3
ATOM      3  O   UNL     1       4.402   1.985  10.875  1.00  0.00    -0.394 OA
ATOM      4  H   UNL     1       4.084   2.270  11.771  1.00  0.00     0.210 HD
ENDBRANCH   2   3
ENDBRANCH   1   2
BRANCH   1   5
ATOM      5  C   UNL     1       5.261   4.174  12.736  1.00  0.00     0.181 C 
BRANCH   5   6
ATOM      6  C   UNL     1       5.947   5.447  13.304  1.00  0.00     0.209 C 
BRANCH   6   7
ATOM      7  C   UNL     1       6.399   5.301  14.737  1.00  0.00     0.258 C 
ATOM      8  O   UNL     1       5.973   4.402  15.444  1.00  0.00    -0.300 OA
ENDBRANCH   6   7
BRANCH   6   9
ATOM      9  O   UNL     1       7.015   5.851  12.485  1.00  0.00    -0.383 OA
ATOM     10  H   UNL     1       7.822   5.943  13.056  1.00  0.00     0.211 HD
ENDBRANCH   6   9
ENDBRANCH   5   6
BRANCH   5  11
ATOM     11  O   UNL     1       4.011   4.483  12.167  1.00  0.00    -0.387 OA
ATOM     12  H   UNL     1       3.306   4.221  12.815  1.00  0.00     0.211 HD
ENDBRANCH   5  11
ENDBRANCH   1   5
BRANCH   1  13
ATOM     13  O   UNL     1       6.777   2.295  12.372  1.00  0.00    -0.388 OA
ATOM     14  H   UNL     1       7.706   2.231  12.029  1.00  0.00     0.211 HD
ENDBRANCH   1  13
TORSDOF 8
ENDMDL
MODEL 7
REMARK VINA RESULT:    -3.967      2.874      4.800
REMARK INTER + INTRA:          -5.876
REMARK INTER:                  -5.286
REMARK INTRA:                  -0.590
REMARK UNBOUND:                -0.517
REMARK SMILES O=C[C@@H](O)[C@@H](O)[C@@H](O)CO
REMARK SMILES IDX 7 1 9 2 10 3 5 5 3 6 2 7 1 8 4 9 6 11 8 13
REMARK H PARENT 10 4 4 10 6 12 8 14
REMARK Flexibility Score: inf
ROOT
ATOM      1  C   UNL     1       3.509   2.710  11.892  1.00  0.00     0.171 C 
ENDROOT
BRANCH   1   2
ATOM      2  C   UNL     1       3.226   1.232  11.569  1.00  0.00     0.190 C 
BRANCH   2   3
ATOM      3  O   UNL     1       4.283   0.423  12.010  1.00  0.00    -0.394 OA
ATOM      4  H   UNL     1       3.887  -0.465  12.204  1.00  0.00     0.210 HD
ENDBRANCH   2   3
ENDBRANCH   1   2
BRANCH   1   5
ATOM      5  C   UNL     1       4.727   3.266  11.096  1.00  0.00     0.181 C 
BRANCH   5   6
ATOM      6  C   UNL     1       5.942   3.597  12.006  1.00  0.00     0.209 C 
BRANCH   6   7
ATOM      7  C   UNL     1       5.587   4.448  13.201  1.00  0.00     0.258 C 
ATOM      8  O   UNL     1       6.146   4.293  14.275  1.00  0.00    -0.300 OA
ENDBRANCH   6   7
BRANCH   6   9
ATOM      9  O   UNL     1       6.604   2.424  12.410  1.00  0.00    -0.383 OA
ATOM     10  H   UNL     1       6.133   1.651  12.004  1.00  0.00     0.211 HD
ENDBRANCH   6   9
ENDBRANCH   5   6
BRANCH   5  11
ATOM     11  O   UNL     1       5.100   2.402  10.050  1.00  0.00    -0.387 OA
ATOM     12  H   UNL     1       4.453   1.649  10.029  1.00  0.00     0.211 HD
ENDBRANCH   5  11
ENDBRANCH   1   5
BRANCH   1  13
ATOM     13  O   UNL     1       2.357   3.475  11.640  1.00  0.00    -0.388 OA
ATOM     14  H   UNL     1       2.446   4.325  12.146  1.00  0.00     0.211 HD
ENDBRANCH   1  13
TORSDOF 8
ENDMDL
MODEL 8
REMARK VINA RESULT:    -3.967     12.506     14.098
REMARK INTER + INTRA:          -5.875
REMARK INTER:                  -5.319
REMARK INTRA:                  -0.557
REMARK UNBOUND:                -0.517
REMARK SMILES O=C[C@@H](O)[C@@H](O)[C@@H](O)CO
REMARK SMILES IDX 7 1 9 2 10 3 5 5 3 6 2 7 1 8 4 9 6 11 8 13
REMARK H PARENT 10 4 4 10 6 12 8 14
REMARK Flexibility Score: inf
ROOT
ATOM      1  C   UNL     1      -3.383  -2.863  10.581  1.00  0.00     0.171 C 
ENDROOT
BRANCH   1   2
ATOM      2  C   UNL     1      -3.077  -1.429  10.114  1.00  0.00     0.190 C 
BRANCH   2   3
ATOM      3  O   UNL     1      -2.120  -0.836  10.948  1.00  0.00    -0.394 OA
ATOM      4  H   UNL     1      -2.470   0.065  11.172  1.00  0.00     0.210 HD
ENDBRANCH   2   3
ENDBRANCH   1   2
BRANCH   1   5
ATOM      5  C   UNL     1      -2.420  -3.333  11.713  1.00  0.00     0.181 C 
BRANCH   5   6
ATOM      6  C   UNL     1      -3.034  -4.450  12.602  1.00  0.00     0.209 C 
BRANCH   6   7
ATOM      7  C   UNL     1      -2.454  -5.818  12.340  1.00  0.00     0.258 C 
ATOM      8  O   UNL     1      -2.642  -6.391  11.279  1.00  0.00    -0.300 OA
ENDBRANCH   6   7
BRANCH   6   9
ATOM      9  O   UNL     1      -2.935  -4.120  13.966  1.00  0.00    -0.383 OA
ATOM     10  H   UNL     1      -2.425  -4.841  14.419  1.00  0.00     0.211 HD
ENDBRANCH   6   9
ENDBRANCH   5   6
BRANCH   5  11
ATOM     11  O   UNL     1      -1.170  -3.725  11.200  1.00  0.00    -0.387 OA
ATOM     12  H   UNL     1      -1.132  -4.717  11.210  1.00  0.00     0.211 HD
ENDBRANCH   5  11
ENDBRANCH   1   5
BRANCH   1  13
ATOM     13  O   UNL     1      -4.723  -2.946  11.000  1.00  0.00    -0.388 OA
ATOM     14  H   UNL     1      -5.290  -2.615  10.255  1.00  0.00     0.211 HD
ENDBRANCH   1  13
TORSDOF 8
ENDMDL
MODEL 9
REMARK VINA RESULT:    -3.855      4.690      7.042
REMARK INTER + INTRA:          -5.725
REMARK INTER:                  -5.030
REMARK INTRA:                  -0.694
REMARK UNBOUND:                -0.517
REMARK SMILES O=C[C@@H](O)[C@@H](O)[C@@H](O)CO
REMARK SMILES IDX 7 1 9 2 10 3 5 5 3 6 2 7 1 8 4 9 6 11 8 13
REMARK H PARENT 10 4 4 10 6 12 8 14
REMARK Flexibility Score: inf
ROOT
ATOM      1  C   UNL     1       4.258   3.064  11.422  1.00  0.00     0.171 C 
ENDROOT
BRANCH   1   2
ATOM      2  C   UNL     1       5.663   2.686  11.926  1.00  0.00     0.190 C 
BRANCH   2   3
ATOM      3  O   UNL     1       6.423   2.133  10.886  1.00  0.00    -0.394 OA
ATOM      4  H   UNL     1       6.324   2.749  10.115  1.00  0.00     0.210 HD
ENDBRANCH   2   3
ENDBRANCH   1   2
BRANCH   1   5
ATOM      5  C   UNL     1       3.233   1.905  11.605  1.00  0.00     0.181 C 
BRANCH   5   6
ATOM      6  C   UNL     1       2.120   1.907  10.521  1.00  0.00     0.209 C 
BRANCH   6   7
ATOM      7  C   UNL     1       0.970   0.981  10.834  1.00  0.00     0.258 C 
ATOM      8  O   UNL     1       1.164  -0.184  11.143  1.00  0.00    -0.300 OA
ENDBRANCH   6   7
BRANCH   6   9
ATOM      9  O   UNL     1       1.656   3.212  10.278  1.00  0.00    -0.383 OA
ATOM     10  H   UNL     1       1.009   3.172   9.526  1.00  0.00     0.211 HD
ENDBRANCH   6   9
ENDBRANCH   5   6
BRANCH   5  11
ATOM     11  O   UNL     1       3.872   0.654  11.672  1.00  0.00    -0.387 OA
ATOM     12  H   UNL     1       3.287  -0.014  11.228  1.00  0.00     0.211 HD
ENDBRANCH   5  11
ENDBRANCH   1   5
BRANCH   1  13
ATOM     13  O   UNL     1       3.820   4.227  12.080  1.00  0.00    -0.388 OA
ATOM     14  H   UNL     1       2.898   4.419  11.765  1.00  0.00     0.211 HD
ENDBRANCH   1  13
TORSDOF 8
ENDMDL
