MODEL 1
REMARK VINA RESULT:    -4.466      0.000      0.000
REMARK INTER + INTRA:          -5.462
REMARK INTER:                  -5.379
REMARK INTRA:                  -0.082
REMARK UNBOUND:                -0.082
REMARK SMILES CC[C@H](C)[C@H]([NH3+])C(=O)[O-]
REMARK SMILES IDX 3 1 4 2 5 3 6 4 7 8 8 9 9 10 2 11 1 12
REMARK H PARENT 6 5 6 6 6 7
REMARK Flexibility Score: inf
ROOT
ATOM      1  C   UNL     1      85.901 175.630 197.039  1.00  0.00     0.050 C 
ATOM      2  C   UNL     1      85.801 174.627 195.877  1.00  0.00     0.014 C 
ENDROOT
BRANCH   1   3
ATOM      3  C   UNL     1      84.888 175.262 198.175  1.00  0.00     0.230 C 
BRANCH   3   4
ATOM      4  N   UNL     1      84.235 176.444 198.763  1.00  0.00    -0.350 N 
ATOM      5  H   UNL     1      84.829 176.819 199.538  1.00  0.00     0.345 HD
ATOM      6  H   UNL     1      84.103 177.198 198.051  1.00  0.00     0.345 HD
ATOM      7  H   UNL     1      83.309 176.186 199.170  1.00  0.00     0.345 HD
ENDBRANCH   3   4
BRANCH   3   8
ATOM      8  C   UNL     1      85.523 174.400 199.242  1.00  0.00     0.099 C 
ATOM      9  O   UNL     1      85.913 174.921 200.321  1.00  0.00    -0.544 OA
ATOM     10  O   UNL     1      85.716 173.038 199.040  1.00  0.00    -0.544 OA
ENDBRANCH   3   8
ENDBRANCH   1   3
BRANCH   1  11
ATOM     11  C   UNL     1      85.777 177.073 196.482  1.00  0.00     0.006 C 
ATOM     12  C   UNL     1      87.102 177.836 196.453  1.00  0.00     0.004 C 
ENDBRANCH   1  11
TORSDOF 4
ENDMDL
MODEL 2
REMARK VINA RESULT:    -4.169     13.503     14.382
REMARK INTER + INTRA:          -5.104
REMARK INTER:                  -5.010
REMARK INTRA:                  -0.094
REMARK UNBOUND:                -0.082
REMARK SMILES CC[C@H](C)[C@H]([NH3+])C(=O)[O-]
REMARK SMILES IDX 3 1 4 2 5 3 6 4 7 8 8 9 9 10 2 11 1 12
REMARK H PARENT 6 5 6 6 6 7
REMARK Flexibility Score: inf
ROOT
ATOM      1  C   UNL     1      80.501 185.519 189.952  1.00  0.00     0.050 C 
ATOM      2  C   UNL     1      80.711 184.001 190.092  1.00  0.00     0.014 C 
ENDROOT
BRANCH   1   3
ATOM      3  C   UNL     1      79.020 185.837 189.555  1.00  0.00     0.230 C 
BRANCH   3   4
ATOM      4  N   UNL     1      78.776 187.277 189.367  1.00  0.00    -0.350 N 
ATOM      5  H   UNL     1      79.691 187.783 189.333  1.00  0.00     0.345 HD
ATOM      6  H   UNL     1      78.262 187.462 188.476  1.00  0.00     0.345 HD
ATOM      7  H   UNL     1      78.230 187.664 190.169  1.00  0.00     0.345 HD
ENDBRANCH   3   4
BRANCH   3   8
ATOM      8  C   UNL     1      78.031 185.237 190.529  1.00  0.00     0.099 C 
ATOM      9  O   UNL     1      77.220 184.357 190.137  1.00  0.00    -0.544 OA
ATOM     10  O   UNL     1      77.980 185.665 191.851  1.00  0.00    -0.544 OA
ENDBRANCH   3   8
ENDBRANCH   1   3
BRANCH   1  11
ATOM     11  C   UNL     1      81.581 186.099 189.002  1.00  0.00     0.006 C 
ATOM     12  C   UNL     1      82.892 186.451 189.706  1.00  0.00     0.004 C 
ENDBRANCH   1  11
TORSDOF 4
ENDMDL
MODEL 3
REMARK VINA RESULT:    -4.080      1.501      2.172
REMARK INTER + INTRA:          -4.997
REMARK INTER:                  -4.924
REMARK INTRA:                  -0.073
REMARK UNBOUND:                -0.082
REMARK SMILES CC[C@H](C)[C@H]([NH3+])C(=O)[O-]
REMARK SMILES IDX 3 1 4 2 5 3 6 4 7 8 8 9 9 10 2 11 1 12
REMARK H PARENT 6 5 6 6 6 7
REMARK Flexibility Score: inf
ROOT
ATOM      1  C   UNL     1      85.789 176.328 196.524  1.00  0.00     0.050 C 
ATOM      2  C   UNL     1      86.608 177.630 196.505  1.00  0.00     0.014 C 
ENDROOT
BRANCH   1   3
ATOM      3  C   UNL     1      85.207 176.061 197.953  1.00  0.00     0.230 C 
BRANCH   3   4
ATOM      4  N   UNL     1      86.119 176.485 199.028  1.00  0.00    -0.350 N 
ATOM      5  H   UNL     1      85.769 177.376 199.450  1.00  0.00     0.345 HD
ATOM      6  H   UNL     1      86.179 175.763 199.782  1.00  0.00     0.345 HD
ATOM      7  H   UNL     1      87.074 176.668 198.648  1.00  0.00     0.345 HD
ENDBRANCH   3   4
BRANCH   3   8
ATOM      8  C   UNL     1      84.783 174.621 198.131  1.00  0.00     0.099 C 
ATOM      9  O   UNL     1      83.725 174.207 197.586  1.00  0.00    -0.544 OA
ATOM     10  O   UNL     1      85.526 173.747 198.916  1.00  0.00    -0.544 OA
ENDBRANCH   3   8
ENDBRANCH   1   3
BRANCH   1  11
ATOM     11  C   UNL     1      86.643 175.178 195.930  1.00  0.00     0.006 C 
ATOM     12  C   UNL     1      87.719 175.653 194.953  1.00  0.00     0.004 C 
ENDBRANCH   1  11
TORSDOF 4
ENDMDL
MODEL 4
REMARK VINA RESULT:    -4.034     13.697     14.599
REMARK INTER + INTRA:          -4.942
REMARK INTER:                  -4.946
REMARK INTRA:                   0.004
REMARK UNBOUND:                -0.082
REMARK SMILES CC[C@H](C)[C@H]([NH3+])C(=O)[O-]
REMARK SMILES IDX 3 1 4 2 5 3 6 4 7 8 8 9 9 10 2 11 1 12
REMARK H PARENT 6 5 6 6 6 7
REMARK Flexibility Score: inf
ROOT
ATOM      1  C   UNL     1      80.648 185.431 190.260  1.00  0.00     0.050 C 
ATOM      2  C   UNL     1      80.248 183.959 190.462  1.00  0.00     0.014 C 
ENDROOT
BRANCH   1   3
ATOM      3  C   UNL     1      79.395 186.300 189.902  1.00  0.00     0.230 C 
BRANCH   3   4
ATOM      4  N   UNL     1      78.729 186.858 191.091  1.00  0.00    -0.350 N 
ATOM      5  H   UNL     1      78.372 187.816 190.872  1.00  0.00     0.345 HD
ATOM      6  H   UNL     1      77.923 186.264 191.388  1.00  0.00     0.345 HD
ATOM      7  H   UNL     1      79.405 186.946 191.882  1.00  0.00     0.345 HD
ENDBRANCH   3   4
BRANCH   3   8
ATOM      8  C   UNL     1      78.417 185.549 189.028  1.00  0.00     0.099 C 
ATOM      9  O   UNL     1      78.712 185.295 187.830  1.00  0.00    -0.544 OA
ATOM     10  O   UNL     1      77.175 185.158 189.516  1.00  0.00    -0.544 OA
ENDBRANCH   3   8
ENDBRANCH   1   3
BRANCH   1  11
ATOM     11  C   UNL     1      81.820 185.509 189.246  1.00  0.00     0.006 C 
ATOM     12  C   UNL     1      82.913 186.500 189.647  1.00  0.00     0.004 C 
ENDBRANCH   1  11
TORSDOF 4
ENDMDL
MODEL 5
REMARK VINA RESULT:    -4.031     12.889     13.892
REMARK INTER + INTRA:          -4.937
REMARK INTER:                  -4.867
REMARK INTRA:                  -0.070
REMARK UNBOUND:                -0.082
REMARK SMILES CC[C@H](C)[C@H]([NH3+])C(=O)[O-]
REMARK SMILES IDX 3 1 4 2 5 3 6 4 7 8 8 9 9 10 2 11 1 12
REMARK H PARENT 6 5 6 6 6 7
REMARK Flexibility Score: inf
ROOT
ATOM      1  C   UNL     1      81.671 185.955 188.836  1.00  0.00     0.050 C 
ATOM      2  C   UNL     1      82.679 186.440 189.891  1.00  0.00     0.014 C 
ENDROOT
BRANCH   1   3
ATOM      3  C   UNL     1      80.214 185.976 189.411  1.00  0.00     0.230 C 
BRANCH   3   4
ATOM      4  N   UNL     1      80.080 186.841 190.594  1.00  0.00    -0.350 N 
ATOM      5  H   UNL     1      81.021 186.987 191.026  1.00  0.00     0.345 HD
ATOM      6  H   UNL     1      79.684 187.774 190.340  1.00  0.00     0.345 HD
ATOM      7  H   UNL     1      79.470 186.389 191.311  1.00  0.00     0.345 HD
ENDBRANCH   3   4
BRANCH   3   8
ATOM      8  C   UNL     1      79.696 184.583 189.689  1.00  0.00     0.099 C 
ATOM      9  O   UNL     1      78.873 184.050 188.898  1.00  0.00    -0.544 OA
ATOM     10  O   UNL     1      80.090 183.887 190.826  1.00  0.00    -0.544 OA
ENDBRANCH   3   8
ENDBRANCH   1   3
BRANCH   1  11
ATOM     11  C   UNL     1      82.140 184.589 188.270  1.00  0.00     0.006 C 
ATOM     12  C   UNL     1      83.385 184.032 188.962  1.00  0.00     0.004 C 
ENDBRANCH   1  11
TORSDOF 4
ENDMDL
MODEL 6
REMARK VINA RESULT:    -3.983      1.867      2.393
REMARK INTER + INTRA:          -4.880
REMARK INTER:                  -4.766
REMARK INTRA:                  -0.113
REMARK UNBOUND:                -0.082
REMARK SMILES CC[C@H](C)[C@H]([NH3+])C(=O)[O-]
REMARK SMILES IDX 3 1 4 2 5 3 6 4 7 8 8 9 9 10 2 11 1 12
REMARK H PARENT 6 5 6 6 6 7
REMARK Flexibility Score: inf
ROOT
ATOM      1  C   UNL     1      85.836 176.096 196.293  1.00  0.00     0.050 C 
ATOM      2  C   UNL     1      86.447 177.488 196.529  1.00  0.00     0.014 C 
ENDROOT
BRANCH   1   3
ATOM      3  C   UNL     1      86.136 175.147 197.502  1.00  0.00     0.230 C 
BRANCH   3   4
ATOM      4  N   UNL     1      85.902 173.729 197.186  1.00  0.00    -0.350 N 
ATOM      5  H   UNL     1      85.697 173.205 198.068  1.00  0.00     0.345 HD
ATOM      6  H   UNL     1      85.092 173.613 196.536  1.00  0.00     0.345 HD
ATOM      7  H   UNL     1      86.754 173.304 196.757  1.00  0.00     0.345 HD
ENDBRANCH   3   4
BRANCH   3   8
ATOM      8  C   UNL     1      85.386 175.563 198.747  1.00  0.00     0.099 C 
ATOM      9  O   UNL     1      85.963 175.538 199.866  1.00  0.00    -0.544 OA
ATOM     10  O   UNL     1      84.050 175.944 198.683  1.00  0.00    -0.544 OA
ENDBRANCH   3   8
ENDBRANCH   1   3
BRANCH   1  11
ATOM     11  C   UNL     1      86.290 175.567 194.907  1.00  0.00     0.006 C 
ATOM     12  C   UNL     1      87.804 175.616 194.696  1.00  0.00     0.004 C 
ENDBRANCH   1  11
TORSDOF 4
ENDMDL
MODEL 7
REMARK VINA RESULT:    -3.974     13.514     13.926
REMARK INTER + INTRA:          -4.869
REMARK INTER:                  -4.775
REMARK INTRA:                  -0.094
REMARK UNBOUND:                -0.082
REMARK SMILES CC[C@H](C)[C@H]([NH3+])C(=O)[O-]
REMARK SMILES IDX 3 1 4 2 5 3 6 4 7 8 8 9 9 10 2 11 1 12
REMARK H PARENT 6 5 6 6 6 7
REMARK Flexibility Score: inf
ROOT
ATOM      1  C   UNL     1      82.027 184.692 189.302  1.00  0.00     0.050 C 
ATOM      2  C   UNL     1      81.914 183.910 187.982  1.00  0.00     0.014 C 
ENDROOT
BRANCH   1   3
ATOM      3  C   UNL     1      80.707 184.563 190.136  1.00  0.00     0.230 C 
BRANCH   3   4
ATOM      4  N   UNL     1      80.157 183.197 190.125  1.00  0.00    -0.350 N 
ATOM      5  H   UNL     1      80.276 182.767 191.071  1.00  0.00     0.345 HD
ATOM      6  H   UNL     1      79.139 183.200 189.889  1.00  0.00     0.345 HD
ATOM      7  H   UNL     1      80.671 182.601 189.439  1.00  0.00     0.345 HD
ENDBRANCH   3   4
BRANCH   3   8
ATOM      8  C   UNL     1      79.669 185.575 189.711  1.00  0.00     0.099 C 
ATOM      9  O   UNL     1      79.391 186.544 190.466  1.00  0.00    -0.544 OA
ATOM     10  O   UNL     1      78.986 185.438 188.507  1.00  0.00    -0.544 OA
ENDBRANCH   3   8
ENDBRANCH   1   3
BRANCH   1  11
ATOM     11  C   UNL     1      82.480 186.144 188.999  1.00  0.00     0.006 C 
ATOM     12  C   UNL     1      83.208 186.815 190.164  1.00  0.00     0.004 C 
ENDBRANCH   1  11
TORSDOF 4
ENDMDL
MODEL 8
REMARK VINA RESULT:    -3.949     12.694     13.654
REMARK INTER + INTRA:          -4.839
REMARK INTER:                  -4.745
REMARK INTRA:                  -0.094
REMARK UNBOUND:                -0.082
REMARK SMILES CC[C@H](C)[C@H]([NH3+])C(=O)[O-]
REMARK SMILES IDX 3 1 4 2 5 3 6 4 7 8 8 9 9 10 2 11 1 12
REMARK H PARENT 6 5 6 6 6 7
REMARK Flexibility Score: inf
ROOT
ATOM      1  C   UNL     1      81.584 184.813 189.473  1.00  0.00     0.050 C 
ATOM      2  C   UNL     1      80.772 184.338 188.256  1.00  0.00     0.014 C 
ENDROOT
BRANCH   1   3
ATOM      3  C   UNL     1      80.915 186.068 190.129  1.00  0.00     0.230 C 
BRANCH   3   4
ATOM      4  N   UNL     1      81.810 186.768 191.065  1.00  0.00    -0.350 N 
ATOM      5  H   UNL     1      81.355 187.653 191.385  1.00  0.00     0.345 HD
ATOM      6  H   UNL     1      82.017 186.180 191.904  1.00  0.00     0.345 HD
ATOM      7  H   UNL     1      82.705 187.026 190.593  1.00  0.00     0.345 HD
ENDBRANCH   3   4
BRANCH   3   8
ATOM      8  C   UNL     1      79.595 185.728 190.783  1.00  0.00     0.099 C 
ATOM      9  O   UNL     1      78.589 186.458 190.582  1.00  0.00    -0.544 OA
ATOM     10  O   UNL     1      79.479 184.635 191.634  1.00  0.00    -0.544 OA
ENDBRANCH   3   8
ENDBRANCH   1   3
BRANCH   1  11
ATOM     11  C   UNL     1      83.068 184.994 189.059  1.00  0.00     0.006 C 
ATOM     12  C   UNL     1      83.842 183.679 188.956  1.00  0.00     0.004 C 
ENDBRANCH   1  11
TORSDOF 4
ENDMDL
MODEL 9
REMARK VINA RESULT:    -3.881     13.169     14.156
REMARK INTER + INTRA:          -4.757
REMARK INTER:                  -4.658
REMARK INTRA:                  -0.099
REMARK UNBOUND:                -0.082
REMARK SMILES CC[C@H](C)[C@H]([NH3+])C(=O)[O-]
REMARK SMILES IDX 3 1 4 2 5 3 6 4 7 8 8 9 9 10 2 11 1 12
REMARK H PARENT 6 5 6 6 6 7
REMARK Flexibility Score: inf
ROOT
ATOM      1  C   UNL     1      80.542 184.896 189.339  1.00  0.00     0.050 C 
ATOM      2  C   UNL     1      80.726 183.440 189.801  1.00  0.00     0.014 C 
ENDROOT
BRANCH   1   3
ATOM      3  C   UNL     1      80.897 185.891 190.495  1.00  0.00     0.230 C 
BRANCH   3   4
ATOM      4  N   UNL     1      79.851 186.902 190.719  1.00  0.00    -0.350 N 
ATOM      5  H   UNL     1      80.015 187.375 191.637  1.00  0.00     0.345 HD
ATOM      6  H   UNL     1      79.856 187.627 189.967  1.00  0.00     0.345 HD
ATOM      7  H   UNL     1      78.909 186.452 190.760  1.00  0.00     0.345 HD
ENDBRANCH   3   4
BRANCH   3   8
ATOM      8  C   UNL     1      82.248 186.538 190.289  1.00  0.00     0.099 C 
ATOM      9  O   UNL     1      82.790 187.173 191.232  1.00  0.00    -0.544 OA
ATOM     10  O   UNL     1      82.894 186.470 189.059  1.00  0.00    -0.544 OA
ENDBRANCH   3   8
ENDBRANCH   1   3
BRANCH   1  11
ATOM     11  C   UNL     1      79.125 185.064 188.731  1.00  0.00     0.006 C 
ATOM     12  C   UNL     1      78.111 184.041 189.245  1.00  0.00     0.004 C 
ENDBRANCH   1  11
TORSDOF 4
ENDMDL
