MODEL 1
REMARK VINA RESULT:    -2.298      0.000      0.000
REMARK INTER + INTRA:          -3.596
REMARK INTER:                  -3.238
REMARK INTRA:                  -0.357
REMARK UNBOUND:                -0.357
REMARK SMILES C=CC(=C)CCC=C(C)CCC=C(C)C
REMARK SMILES IDX 8 1 7 2 9 3 10 4 11 5 12 6 14 7 13 8 15 9 6 10 5 11 3 12
REMARK SMILES IDX 4 13 2 14 1 15
REMARK H PARENT
REMARK Flexibility Score: inf
ROOT
ATOM      1  C   UNL     1     151.824 136.225 161.205  1.00  0.00    -0.077 C 
ATOM      2  C   UNL     1     153.073 136.499 161.643  1.00  0.00    -0.028 C 
ATOM      3  C   UNL     1     151.115 134.943 161.572  1.00  0.00     0.039 C 
ENDROOT
BRANCH   1   4
ATOM      4  C   UNL     1     151.133 137.214 160.289  1.00  0.00     0.034 C 
BRANCH   4   5
ATOM      5  C   UNL     1     151.245 136.778 158.825  1.00  0.00     0.032 C 
BRANCH   5   6
ATOM      6  C   UNL     1     152.415 137.438 158.139  1.00  0.00    -0.028 C 
ATOM      7  C   UNL     1     151.356 137.167 155.894  1.00  0.00     0.039 C 
ATOM      8  C   UNL     1     152.475 137.620 156.802  1.00  0.00    -0.080 C 
ATOM      9  C   UNL     1     153.690 138.290 156.216  1.00  0.00     0.039 C 
ENDBRANCH   5   6
ENDBRANCH   4   5
ENDBRANCH   1   4
BRANCH   2  10
ATOM     10  C   UNL     1     153.887 135.594 162.540  1.00  0.00     0.032 C 
BRANCH  10  11
ATOM     11  C   UNL     1     154.807 136.375 163.490  1.00  0.00     0.039 C 
BRANCH  11  12
ATOM     12  C   UNL     1     154.475 137.857 163.520  1.00  0.00    -0.055 C 
ATOM     13  C   UNL     1     155.125 138.677 162.687  1.00  0.00     0.012 C 
BRANCH  12  14
ATOM     14  C   UNL     1     153.440 138.435 164.419  1.00  0.00    -0.005 C 
ATOM     15  C   UNL     1     153.644 139.460 165.247  1.00  0.00     0.009 C 
ENDBRANCH  12  14
ENDBRANCH  11  12
ENDBRANCH  10  11
ENDBRANCH   2  10
TORSDOF 7
ENDMDL
MODEL 2
REMARK VINA RESULT:    -2.057      0.628      1.239
REMARK INTER + INTRA:          -3.257
REMARK INTER:                  -3.018
REMARK INTRA:                  -0.239
REMARK UNBOUND:                -0.357
REMARK SMILES C=CC(=C)CCC=C(C)CCC=C(C)C
REMARK SMILES IDX 8 1 7 2 9 3 10 4 11 5 12 6 14 7 13 8 15 9 6 10 5 11 3 12
REMARK SMILES IDX 4 13 2 14 1 15
REMARK H PARENT
REMARK Flexibility Score: inf
ROOT
ATOM      1  C   UNL     1     151.794 136.225 161.172  1.00  0.00    -0.077 C 
ATOM      2  C   UNL     1     153.014 136.628 161.594  1.00  0.00    -0.028 C 
ATOM      3  C   UNL     1     151.227 134.877 161.547  1.00  0.00     0.039 C 
ENDROOT
BRANCH   1   4
ATOM      4  C   UNL     1     150.992 137.138 160.268  1.00  0.00     0.034 C 
BRANCH   4   5
ATOM      5  C   UNL     1     151.143 136.728 158.799  1.00  0.00     0.032 C 
BRANCH   5   6
ATOM      6  C   UNL     1     152.333 137.397 158.158  1.00  0.00    -0.028 C 
ATOM      7  C   UNL     1     151.361 137.118 155.875  1.00  0.00     0.039 C 
ATOM      8  C   UNL     1     152.441 137.580 156.824  1.00  0.00    -0.080 C 
ATOM      9  C   UNL     1     153.672 138.261 156.284  1.00  0.00     0.039 C 
ENDBRANCH   5   6
ENDBRANCH   4   5
ENDBRANCH   1   4
BRANCH   2  10
ATOM     10  C   UNL     1     153.930 135.812 162.477  1.00  0.00     0.032 C 
BRANCH  10  11
ATOM     11  C   UNL     1     154.807 136.686 163.386  1.00  0.00     0.039 C 
BRANCH  11  12
ATOM     12  C   UNL     1     154.220 138.072 163.589  1.00  0.00    -0.055 C 
ATOM     13  C   UNL     1     153.524 138.316 164.704  1.00  0.00     0.012 C 
BRANCH  12  14
ATOM     14  C   UNL     1     154.406 139.179 162.613  1.00  0.00    -0.005 C 
ATOM     15  C   UNL     1     153.418 139.762 161.933  1.00  0.00     0.009 C 
ENDBRANCH  12  14
ENDBRANCH  11  12
ENDBRANCH  10  11
ENDBRANCH   2  10
TORSDOF 7
ENDMDL
MODEL 3
REMARK VINA RESULT:    -1.955      0.819      6.098
REMARK INTER + INTRA:          -3.112
REMARK INTER:                  -2.274
REMARK INTRA:                  -0.838
REMARK UNBOUND:                -0.357
REMARK SMILES C=CC(=C)CCC=C(C)CCC=C(C)C
REMARK SMILES IDX 8 1 7 2 9 3 10 4 11 5 12 6 14 7 13 8 15 9 6 10 5 11 3 12
REMARK SMILES IDX 4 13 2 14 1 15
REMARK H PARENT
REMARK Flexibility Score: inf
ROOT
ATOM      1  C   UNL     1     152.289 135.640 161.332  1.00  0.00    -0.077 C 
ATOM      2  C   UNL     1     152.341 136.663 160.449  1.00  0.00    -0.028 C 
ATOM      3  C   UNL     1     151.013 134.875 161.591  1.00  0.00     0.039 C 
ENDROOT
BRANCH   1   4
ATOM      4  C   UNL     1     153.537 135.279 162.110  1.00  0.00     0.034 C 
BRANCH   4   5
ATOM      5  C   UNL     1     154.480 136.482 162.227  1.00  0.00     0.032 C 
BRANCH   5   6
ATOM      6  C   UNL     1     154.306 137.194 163.545  1.00  0.00    -0.028 C 
ATOM      7  C   UNL     1     153.596 139.299 162.405  1.00  0.00     0.039 C 
ATOM      8  C   UNL     1     153.903 138.480 163.636  1.00  0.00    -0.080 C 
ATOM      9  C   UNL     1     153.760 139.099 165.002  1.00  0.00     0.039 C 
ENDBRANCH   5   6
ENDBRANCH   4   5
ENDBRANCH   1   4
BRANCH   2  10
ATOM     10  C   UNL     1     151.170 137.145 159.624  1.00  0.00     0.032 C 
BRANCH  10  11
ATOM     11  C   UNL     1     151.008 136.361 158.313  1.00  0.00     0.039 C 
BRANCH  11  12
ATOM     12  C   UNL     1     151.664 137.066 157.139  1.00  0.00    -0.055 C 
ATOM     13  C   UNL     1     151.067 137.012 155.943  1.00  0.00     0.012 C 
BRANCH  12  14
ATOM     14  C   UNL     1     152.930 137.837 157.264  1.00  0.00    -0.005 C 
ATOM     15  C   UNL     1     153.694 138.210 156.237  1.00  0.00     0.009 C 
ENDBRANCH  12  14
ENDBRANCH  11  12
ENDBRANCH  10  11
ENDBRANCH   2  10
TORSDOF 7
ENDMDL
MODEL 4
REMARK VINA RESULT:    -1.848      1.123      2.159
REMARK INTER + INTRA:          -2.961
REMARK INTER:                  -1.935
REMARK INTRA:                  -1.026
REMARK UNBOUND:                -0.357
REMARK SMILES C=CC(=C)CCC=C(C)CCC=C(C)C
REMARK SMILES IDX 8 1 7 2 9 3 10 4 11 5 12 6 14 7 13 8 15 9 6 10 5 11 3 12
REMARK SMILES IDX 4 13 2 14 1 15
REMARK H PARENT
REMARK Flexibility Score: inf
ROOT
ATOM      1  C   UNL     1     152.709 135.885 161.664  1.00  0.00    -0.077 C 
ATOM      2  C   UNL     1     152.938 136.016 162.990  1.00  0.00    -0.028 C 
ATOM      3  C   UNL     1     153.837 135.717 160.673  1.00  0.00     0.039 C 
ENDROOT
BRANCH   1   4
ATOM      4  C   UNL     1     151.283 135.946 161.156  1.00  0.00     0.034 C 
BRANCH   4   5
ATOM      5  C   UNL     1     151.110 137.080 160.140  1.00  0.00     0.032 C 
BRANCH   5   6
ATOM      6  C   UNL     1     150.600 136.565 158.817  1.00  0.00    -0.028 C 
ATOM      7  C   UNL     1     152.544 137.543 157.594  1.00  0.00     0.039 C 
ATOM      8  C   UNL     1     151.247 136.771 157.650  1.00  0.00    -0.080 C 
ATOM      9  C   UNL     1     150.652 136.215 156.384  1.00  0.00     0.039 C 
ENDBRANCH   5   6
ENDBRANCH   4   5
ENDBRANCH   1   4
BRANCH   2  10
ATOM     10  C   UNL     1     154.307 135.997 163.630  1.00  0.00     0.032 C 
BRANCH  10  11
ATOM     11  C   UNL     1     155.113 137.272 163.341  1.00  0.00     0.039 C 
BRANCH  11  12
ATOM     12  C   UNL     1     154.263 138.525 163.455  1.00  0.00    -0.055 C 
ATOM     13  C   UNL     1     153.718 138.825 164.640  1.00  0.00     0.012 C 
BRANCH  12  14
ATOM     14  C   UNL     1     154.028 139.450 162.314  1.00  0.00    -0.005 C 
ATOM     15  C   UNL     1     152.889 139.530 161.626  1.00  0.00     0.009 C 
ENDBRANCH  12  14
ENDBRANCH  11  12
ENDBRANCH  10  11
ENDBRANCH   2  10
TORSDOF 7
ENDMDL
MODEL 5
REMARK VINA RESULT:    -1.843      1.376      5.881
REMARK INTER + INTRA:          -2.955
REMARK INTER:                  -2.280
REMARK INTRA:                  -0.675
REMARK UNBOUND:                -0.357
REMARK SMILES C=CC(=C)CCC=C(C)CCC=C(C)C
REMARK SMILES IDX 8 1 7 2 9 3 10 4 11 5 12 6 14 7 13 8 15 9 6 10 5 11 3 12
REMARK SMILES IDX 4 13 2 14 1 15
REMARK H PARENT
REMARK Flexibility Score: inf
ROOT
ATOM      1  C   UNL     1     153.339 135.258 162.393  1.00  0.00    -0.077 C 
ATOM      2  C   UNL     1     152.066 135.678 162.564  1.00  0.00    -0.028 C 
ATOM      3  C   UNL     1     153.879 134.886 161.032  1.00  0.00     0.039 C 
ENDROOT
BRANCH   1   4
ATOM      4  C   UNL     1     154.237 135.120 163.605  1.00  0.00     0.034 C 
BRANCH   4   5
ATOM      5  C   UNL     1     155.122 136.358 163.777  1.00  0.00     0.032 C 
BRANCH   5   6
ATOM      6  C   UNL     1     154.715 137.465 162.837  1.00  0.00    -0.028 C 
ATOM      7  C   UNL     1     153.631 138.746 164.686  1.00  0.00     0.039 C 
ATOM      8  C   UNL     1     154.034 138.558 163.243  1.00  0.00    -0.080 C 
ATOM      9  C   UNL     1     153.674 139.607 162.223  1.00  0.00     0.039 C 
ENDBRANCH   5   6
ENDBRANCH   4   5
ENDBRANCH   1   4
BRANCH   2  10
ATOM     10  C   UNL     1     151.057 135.838 161.450  1.00  0.00     0.032 C 
BRANCH  10  11
ATOM     11  C   UNL     1     151.190 137.184 160.722  1.00  0.00     0.039 C 
BRANCH  11  12
ATOM     12  C   UNL     1     150.527 137.165 159.357  1.00  0.00    -0.055 C 
ATOM     13  C   UNL     1     149.358 137.797 159.203  1.00  0.00     0.012 C 
BRANCH  12  14
ATOM     14  C   UNL     1     151.130 136.495 158.174  1.00  0.00    -0.005 C 
ATOM     15  C   UNL     1     150.728 136.674 156.916  1.00  0.00     0.009 C 
ENDBRANCH  12  14
ENDBRANCH  11  12
ENDBRANCH  10  11
ENDBRANCH   2  10
TORSDOF 7
ENDMDL
MODEL 6
REMARK VINA RESULT:    -1.788     21.217     22.442
REMARK INTER + INTRA:          -2.877
REMARK INTER:                  -1.951
REMARK INTRA:                  -0.926
REMARK UNBOUND:                -0.357
REMARK SMILES C=CC(=C)CCC=C(C)CCC=C(C)C
REMARK SMILES IDX 8 1 7 2 9 3 10 4 11 5 12 6 14 7 13 8 15 9 6 10 5 11 3 12
REMARK SMILES IDX 4 13 2 14 1 15
REMARK H PARENT
REMARK Flexibility Score: inf
ROOT
ATOM      1  C   UNL     1     137.956 154.848 161.640  1.00  0.00    -0.077 C 
ATOM      2  C   UNL     1     137.723 154.820 162.972  1.00  0.00    -0.028 C 
ATOM      3  C   UNL     1     136.830 154.833 160.634  1.00  0.00     0.039 C 
ENDROOT
BRANCH   1   4
ATOM      4  C   UNL     1     139.387 154.858 161.145  1.00  0.00     0.034 C 
BRANCH   4   5
ATOM      5  C   UNL     1     139.660 153.662 160.228  1.00  0.00     0.032 C 
BRANCH   5   6
ATOM      6  C   UNL     1     140.187 154.103 158.885  1.00  0.00    -0.028 C 
ATOM      7  C   UNL     1     138.185 153.185 157.708  1.00  0.00     0.039 C 
ATOM      8  C   UNL     1     139.521 153.890 157.730  1.00  0.00    -0.080 C 
ATOM      9  C   UNL     1     140.134 154.371 156.441  1.00  0.00     0.039 C 
ENDBRANCH   5   6
ENDBRANCH   4   5
ENDBRANCH   1   4
BRANCH   2  10
ATOM     10  C   UNL     1     136.350 154.784 163.603  1.00  0.00     0.032 C 
BRANCH  10  11
ATOM     11  C   UNL     1     135.598 153.478 163.307  1.00  0.00     0.039 C 
BRANCH  11  12
ATOM     12  C   UNL     1     136.471 152.254 163.518  1.00  0.00    -0.055 C 
ATOM     13  C   UNL     1     137.034 152.066 164.717  1.00  0.00     0.012 C 
BRANCH  12  14
ATOM     14  C   UNL     1     136.709 151.238 162.457  1.00  0.00    -0.005 C 
ATOM     15  C   UNL     1     137.737 151.255 161.610  1.00  0.00     0.009 C 
ENDBRANCH  12  14
ENDBRANCH  11  12
ENDBRANCH  10  11
ENDBRANCH   2  10
TORSDOF 7
ENDMDL
MODEL 7
REMARK VINA RESULT:    -1.733     21.480     22.997
REMARK INTER + INTRA:          -2.800
REMARK INTER:                  -2.311
REMARK INTRA:                  -0.489
REMARK UNBOUND:                -0.357
REMARK SMILES C=CC(=C)CCC=C(C)CCC=C(C)C
REMARK SMILES IDX 8 1 7 2 9 3 10 4 11 5 12 6 14 7 13 8 15 9 6 10 5 11 3 12
REMARK SMILES IDX 4 13 2 14 1 15
REMARK H PARENT
REMARK Flexibility Score: inf
ROOT
ATOM      1  C   UNL     1     138.656 154.279 160.995  1.00  0.00    -0.077 C 
ATOM      2  C   UNL     1     139.477 153.805 160.031  1.00  0.00    -0.028 C 
ATOM      3  C   UNL     1     137.380 155.015 160.662  1.00  0.00     0.039 C 
ENDROOT
BRANCH   1   4
ATOM      4  C   UNL     1     139.047 154.099 162.447  1.00  0.00     0.034 C 
BRANCH   4   5
ATOM      5  C   UNL     1     137.808 154.029 163.345  1.00  0.00     0.032 C 
BRANCH   5   6
ATOM      6  C   UNL     1     137.183 152.656 163.322  1.00  0.00    -0.028 C 
ATOM      7  C   UNL     1     134.949 153.594 162.720  1.00  0.00     0.039 C 
ATOM      8  C   UNL     1     135.880 152.448 163.037  1.00  0.00    -0.080 C 
ATOM      9  C   UNL     1     135.355 151.036 163.041  1.00  0.00     0.039 C 
ENDBRANCH   5   6
ENDBRANCH   4   5
ENDBRANCH   1   4
BRANCH   2  10
ATOM     10  C   UNL     1     139.224 153.935 158.547  1.00  0.00     0.032 C 
BRANCH  10  11
ATOM     11  C   UNL     1     137.980 153.158 158.089  1.00  0.00     0.039 C 
BRANCH  11  12
ATOM     12  C   UNL     1     137.989 152.892 156.594  1.00  0.00    -0.055 C 
ATOM     13  C   UNL     1     139.038 153.306 155.875  1.00  0.00     0.012 C 
BRANCH  12  14
ATOM     14  C   UNL     1     136.893 152.168 155.895  1.00  0.00    -0.005 C 
ATOM     15  C   UNL     1     136.712 150.848 155.935  1.00  0.00     0.009 C 
ENDBRANCH  12  14
ENDBRANCH  11  12
ENDBRANCH  10  11
ENDBRANCH   2  10
TORSDOF 7
ENDMDL
MODEL 8
REMARK VINA RESULT:    -1.676      1.235      6.156
REMARK INTER + INTRA:          -2.719
REMARK INTER:                  -2.273
REMARK INTRA:                  -0.446
REMARK UNBOUND:                -0.357
REMARK SMILES C=CC(=C)CCC=C(C)CCC=C(C)C
REMARK SMILES IDX 8 1 7 2 9 3 10 4 11 5 12 6 14 7 13 8 15 9 6 10 5 11 3 12
REMARK SMILES IDX 4 13 2 14 1 15
REMARK H PARENT
REMARK Flexibility Score: inf
ROOT
ATOM      1  C   UNL     1     151.350 136.762 159.673  1.00  0.00    -0.077 C 
ATOM      2  C   UNL     1     151.725 136.566 158.388  1.00  0.00    -0.028 C 
ATOM      3  C   UNL     1     150.569 137.982 160.098  1.00  0.00     0.039 C 
ENDROOT
BRANCH   1   4
ATOM      4  C   UNL     1     151.760 135.746 160.719  1.00  0.00     0.034 C 
BRANCH   4   5
ATOM      5  C   UNL     1     151.652 136.336 162.129  1.00  0.00     0.032 C 
BRANCH   5   6
ATOM      6  C   UNL     1     152.739 137.350 162.390  1.00  0.00    -0.028 C 
ATOM      7  C   UNL     1     154.320 135.577 163.159  1.00  0.00     0.039 C 
ATOM      8  C   UNL     1     153.959 137.013 162.859  1.00  0.00    -0.080 C 
ATOM      9  C   UNL     1     154.974 138.103 163.086  1.00  0.00     0.039 C 
ENDBRANCH   5   6
ENDBRANCH   4   5
ENDBRANCH   1   4
BRANCH   2  10
ATOM     10  C   UNL     1     151.407 137.506 157.249  1.00  0.00     0.032 C 
BRANCH  10  11
ATOM     11  C   UNL     1     152.381 137.358 156.070  1.00  0.00     0.039 C 
BRANCH  11  12
ATOM     12  C   UNL     1     153.537 138.339 156.155  1.00  0.00    -0.055 C 
ATOM     13  C   UNL     1     154.750 137.874 156.473  1.00  0.00     0.012 C 
BRANCH  12  14
ATOM     14  C   UNL     1     153.386 139.792 155.876  1.00  0.00    -0.005 C 
ATOM     15  C   UNL     1     154.365 140.690 155.986  1.00  0.00     0.009 C 
ENDBRANCH  12  14
ENDBRANCH  11  12
ENDBRANCH  10  11
ENDBRANCH   2  10
TORSDOF 7
ENDMDL
