MODEL 1
REMARK VINA RESULT:    -4.119      0.000      0.000
REMARK INTER + INTRA:          -4.383
REMARK INTER:                  -4.360
REMARK INTRA:                  -0.023
REMARK UNBOUND:                -0.023
REMARK SMILES O=C([O-])c1cccnc1
REMARK SMILES IDX 4 1 5 2 9 3 6 4 8 5 7 6 2 7 1 8 3 9
REMARK H PARENT
REMARK Flexibility Score: inf
ROOT
ATOM      1  C   UNL     1      32.137  -0.594   8.908  1.00  0.00     0.016 A 
ATOM      2  C   UNL     1      33.199   0.325   8.863  1.00  0.00     0.013 A 
ATOM      3  C   UNL     1      32.429  -1.942   9.177  1.00  0.00     0.120 A 
ATOM      4  C   UNL     1      34.509  -0.109   9.083  1.00  0.00     0.021 A 
ATOM      5  N   UNL     1      33.713  -2.337   9.388  1.00  0.00    -0.264 NA
ATOM      6  C   UNL     1      34.749  -1.458   9.347  1.00  0.00     0.111 A 
ENDROOT
BRANCH   1   7
ATOM      7  C   UNL     1      30.743  -0.156   8.678  1.00  0.00     0.073 C 
ATOM      8  O   UNL     1      30.434   1.064   8.753  1.00  0.00    -0.545 OA
ATOM      9  O   UNL     1      29.755  -1.085   8.375  1.00  0.00    -0.545 OA
ENDBRANCH   1   7
TORSDOF 1
ENDMDL
MODEL 2
REMARK VINA RESULT:    -3.972      2.694      3.562
REMARK INTER + INTRA:          -4.228
REMARK INTER:                  -4.205
REMARK INTRA:                  -0.023
REMARK UNBOUND:                -0.023
REMARK SMILES O=C([O-])c1cccnc1
REMARK SMILES IDX 4 1 5 2 9 3 6 4 8 5 7 6 2 7 1 8 3 9
REMARK H PARENT
REMARK Flexibility Score: inf
ROOT
ATOM      1  C   UNL     1      32.815  -0.821   8.879  1.00  0.00     0.016 A 
ATOM      2  C   UNL     1      32.212   0.433   9.072  1.00  0.00     0.013 A 
ATOM      3  C   UNL     1      32.014  -1.887   8.435  1.00  0.00     0.120 A 
ATOM      4  C   UNL     1      30.848   0.600   8.823  1.00  0.00     0.021 A 
ATOM      5  N   UNL     1      30.688  -1.697   8.199  1.00  0.00    -0.264 NA
ATOM      6  C   UNL     1      30.094  -0.488   8.382  1.00  0.00     0.111 A 
ENDROOT
BRANCH   1   7
ATOM      7  C   UNL     1      34.258  -1.020   9.138  1.00  0.00     0.073 C 
ATOM      8  O   UNL     1      35.030  -0.030   9.249  1.00  0.00    -0.545 OA
ATOM      9  O   UNL     1      34.781  -2.301   9.261  1.00  0.00    -0.545 OA
ENDBRANCH   1   7
TORSDOF 1
ENDMDL
MODEL 3
REMARK VINA RESULT:    -3.619      9.294     10.009
REMARK INTER + INTRA:          -3.854
REMARK INTER:                  -3.837
REMARK INTRA:                  -0.017
REMARK UNBOUND:                -0.023
REMARK SMILES O=C([O-])c1cccnc1
REMARK SMILES IDX 4 1 5 2 9 3 6 4 8 5 7 6 2 7 1 8 3 9
REMARK H PARENT
REMARK Flexibility Score: inf
ROOT
ATOM      1  C   UNL     1      24.017   0.778  13.309  1.00  0.00     0.016 A 
ATOM      2  C   UNL     1      25.072   1.604  12.884  1.00  0.00     0.013 A 
ATOM      3  C   UNL     1      22.887   0.658  12.483  1.00  0.00     0.120 A 
ATOM      4  C   UNL     1      24.982   2.283  11.667  1.00  0.00     0.021 A 
ATOM      5  N   UNL     1      22.826   1.330  11.301  1.00  0.00    -0.264 NA
ATOM      6  C   UNL     1      23.840   2.131  10.880  1.00  0.00     0.111 A 
ENDROOT
BRANCH   1   7
ATOM      7  C   UNL     1      24.091   0.052  14.595  1.00  0.00     0.073 C 
ATOM      8  O   UNL     1      24.129  -1.208  14.618  1.00  0.00    -0.545 OA
ATOM      9  O   UNL     1      24.119   0.749  15.797  1.00  0.00    -0.545 OA
ENDBRANCH   1   7
TORSDOF 1
ENDMDL
MODEL 4
REMARK VINA RESULT:    -3.500      9.239     10.127
REMARK INTER + INTRA:          -3.727
REMARK INTER:                  -3.710
REMARK INTRA:                  -0.017
REMARK UNBOUND:                -0.023
REMARK SMILES O=C([O-])c1cccnc1
REMARK SMILES IDX 4 1 5 2 9 3 6 4 8 5 7 6 2 7 1 8 3 9
REMARK H PARENT
REMARK Flexibility Score: inf
ROOT
ATOM      1  C   UNL     1      24.015   0.778  13.452  1.00  0.00     0.016 A 
ATOM      2  C   UNL     1      22.884   0.712  12.621  1.00  0.00     0.013 A 
ATOM      3  C   UNL     1      25.107   1.558  13.035  1.00  0.00     0.120 A 
ATOM      4  C   UNL     1      22.862   1.411  11.412  1.00  0.00     0.021 A 
ATOM      5  N   UNL     1      25.059   2.229  11.852  1.00  0.00    -0.264 NA
ATOM      6  C   UNL     1      23.971   2.173  11.041  1.00  0.00     0.111 A 
ENDROOT
BRANCH   1   7
ATOM      7  C   UNL     1      24.060   0.045  14.736  1.00  0.00     0.073 C 
ATOM      8  O   UNL     1      24.096  -1.215  14.754  1.00  0.00    -0.545 OA
ATOM      9  O   UNL     1      24.060   0.737  15.941  1.00  0.00    -0.545 OA
ENDBRANCH   1   7
TORSDOF 1
ENDMDL
MODEL 5
REMARK VINA RESULT:    -3.433      1.496      2.040
REMARK INTER + INTRA:          -3.657
REMARK INTER:                  -3.634
REMARK INTRA:                  -0.023
REMARK UNBOUND:                -0.023
REMARK SMILES O=C([O-])c1cccnc1
REMARK SMILES IDX 4 1 5 2 9 3 6 4 8 5 7 6 2 7 1 8 3 9
REMARK H PARENT
REMARK Flexibility Score: inf
ROOT
ATOM      1  C   UNL     1      33.071  -0.942   8.640  1.00  0.00     0.016 A 
ATOM      2  C   UNL     1      33.313  -2.276   8.270  1.00  0.00     0.013 A 
ATOM      3  C   UNL     1      34.153  -0.045   8.653  1.00  0.00     0.120 A 
ATOM      4  C   UNL     1      34.604  -2.684   7.926  1.00  0.00     0.021 A 
ATOM      5  N   UNL     1      35.400  -0.469   8.313  1.00  0.00    -0.264 NA
ATOM      6  C   UNL     1      35.646  -1.756   7.953  1.00  0.00     0.111 A 
ENDROOT
BRANCH   1   7
ATOM      7  C   UNL     1      31.712  -0.490   9.008  1.00  0.00     0.073 C 
ATOM      8  O   UNL     1      31.535   0.639   9.540  1.00  0.00    -0.545 OA
ATOM      9  O   UNL     1      30.612  -1.305   8.773  1.00  0.00    -0.545 OA
ENDBRANCH   1   7
TORSDOF 1
ENDMDL
MODEL 6
REMARK VINA RESULT:    -3.349      9.423     10.257
REMARK INTER + INTRA:          -3.568
REMARK INTER:                  -3.545
REMARK INTRA:                  -0.023
REMARK UNBOUND:                -0.023
REMARK SMILES O=C([O-])c1cccnc1
REMARK SMILES IDX 4 1 5 2 9 3 6 4 8 5 7 6 2 7 1 8 3 9
REMARK H PARENT
REMARK Flexibility Score: inf
ROOT
ATOM      1  C   UNL     1      23.508   1.401  12.073  1.00  0.00     0.016 A 
ATOM      2  C   UNL     1      24.299   0.822  13.080  1.00  0.00     0.013 A 
ATOM      3  C   UNL     1      22.111   1.266  12.160  1.00  0.00     0.120 A 
ATOM      4  C   UNL     1      23.696   0.134  14.135  1.00  0.00     0.021 A 
ATOM      5  N   UNL     1      21.550   0.591  13.199  1.00  0.00    -0.264 NA
ATOM      6  C   UNL     1      22.306   0.028  14.178  1.00  0.00     0.111 A 
ENDROOT
BRANCH   1   7
ATOM      7  C   UNL     1      24.126   2.133  10.946  1.00  0.00     0.073 C 
ATOM      8  O   UNL     1      25.287   2.611  11.054  1.00  0.00    -0.545 OA
ATOM      9  O   UNL     1      23.433   2.305   9.755  1.00  0.00    -0.545 OA
ENDBRANCH   1   7
TORSDOF 1
ENDMDL
MODEL 7
REMARK VINA RESULT:    -3.302      9.150     10.262
REMARK INTER + INTRA:          -3.519
REMARK INTER:                  -3.497
REMARK INTRA:                  -0.022
REMARK UNBOUND:                -0.023
REMARK SMILES O=C([O-])c1cccnc1
REMARK SMILES IDX 4 1 5 2 9 3 6 4 8 5 7 6 2 7 1 8 3 9
REMARK H PARENT
REMARK Flexibility Score: inf
ROOT
ATOM      1  C   UNL     1      23.270   1.257  12.086  1.00  0.00     0.016 A 
ATOM      2  C   UNL     1      22.105   0.888  12.780  1.00  0.00     0.013 A 
ATOM      3  C   UNL     1      24.507   1.130  12.740  1.00  0.00     0.120 A 
ATOM      4  C   UNL     1      22.193   0.408  14.088  1.00  0.00     0.021 A 
ATOM      5  N   UNL     1      24.564   0.659  14.015  1.00  0.00    -0.264 NA
ATOM      6  C   UNL     1      23.444   0.299  14.696  1.00  0.00     0.111 A 
ENDROOT
BRANCH   1   7
ATOM      7  C   UNL     1      23.200   1.768  10.700  1.00  0.00     0.073 C 
ATOM      8  O   UNL     1      22.262   1.417   9.935  1.00  0.00    -0.545 OA
ATOM      9  O   UNL     1      24.169   2.642  10.222  1.00  0.00    -0.545 OA
ENDBRANCH   1   7
TORSDOF 1
ENDMDL
MODEL 8
REMARK VINA RESULT:    -3.290     10.024     11.392
REMARK INTER + INTRA:          -3.506
REMARK INTER:                  -3.483
REMARK INTRA:                  -0.023
REMARK UNBOUND:                -0.023
REMARK SMILES O=C([O-])c1cccnc1
REMARK SMILES IDX 4 1 5 2 9 3 6 4 8 5 7 6 2 7 1 8 3 9
REMARK H PARENT
REMARK Flexibility Score: inf
ROOT
ATOM      1  C   UNL     1      22.874   0.615  13.317  1.00  0.00     0.016 A 
ATOM      2  C   UNL     1      21.629   0.427  13.942  1.00  0.00     0.013 A 
ATOM      3  C   UNL     1      22.892   1.033  11.976  1.00  0.00     0.120 A 
ATOM      4  C   UNL     1      20.448   0.654  13.232  1.00  0.00     0.021 A 
ATOM      5  N   UNL     1      21.727   1.247  11.307  1.00  0.00    -0.264 NA
ATOM      6  C   UNL     1      20.518   1.068  11.901  1.00  0.00     0.111 A 
ENDROOT
BRANCH   1   7
ATOM      7  C   UNL     1      24.136   0.380  14.051  1.00  0.00     0.073 C 
ATOM      8  O   UNL     1      25.227   0.829  13.609  1.00  0.00    -0.545 OA
ATOM      9  O   UNL     1      24.135  -0.341  15.239  1.00  0.00    -0.545 OA
ENDBRANCH   1   7
TORSDOF 1
ENDMDL
MODEL 9
REMARK VINA RESULT:    -3.247     10.522     11.830
REMARK INTER + INTRA:          -3.460
REMARK INTER:                  -3.444
REMARK INTRA:                  -0.016
REMARK UNBOUND:                -0.023
REMARK SMILES O=C([O-])c1cccnc1
REMARK SMILES IDX 4 1 5 2 9 3 6 4 8 5 7 6 2 7 1 8 3 9
REMARK H PARENT
REMARK Flexibility Score: inf
ROOT
ATOM      1  C   UNL     1      22.625  -0.135  14.264  1.00  0.00     0.016 A 
ATOM      2  C   UNL     1      21.577   0.705  13.848  1.00  0.00     0.013 A 
ATOM      3  C   UNL     1      22.416  -1.524  14.245  1.00  0.00     0.120 A 
ATOM      4  C   UNL     1      20.364   0.155  13.429  1.00  0.00     0.021 A 
ATOM      5  N   UNL     1      21.224  -2.034  13.831  1.00  0.00    -0.264 NA
ATOM      6  C   UNL     1      20.204  -1.231  13.427  1.00  0.00     0.111 A 
ENDROOT
BRANCH   1   7
ATOM      7  C   UNL     1      23.918   0.427  14.712  1.00  0.00     0.073 C 
ATOM      8  O   UNL     1      24.142   0.619  15.937  1.00  0.00    -0.545 OA
ATOM      9  O   UNL     1      24.902   0.751  13.787  1.00  0.00    -0.545 OA
ENDBRANCH   1   7
TORSDOF 1
ENDMDL
