MODEL 1
REMARK VINA RESULT:    -2.952      0.000      0.000
REMARK INTER + INTRA:          -0.900
REMARK INTER:                  -4.160
REMARK INTRA:                   3.260
REMARK UNBOUND:                 3.260
REMARK SMILES CC1=CCC(=C(C)C)C(=O)CC(C)=CCC1
REMARK SMILES IDX 12 1 14 2 13 3 15 4 16 5 2 6 1 7 3 8 11 10 9 11 10 12 5 13
REMARK SMILES IDX 6 14 7 15 8 16 4 17
REMARK H PARENT
REMARK Flexibility Score: 60.00
ROOT
ATOM      1  C   UNL     1     -29.195  -9.615  25.438  1.00  0.00    -0.070 C 
ATOM      2  C   UNL     1     -27.874  -9.494  25.717  1.00  0.00    -0.027 C 
ATOM      3  C   UNL     1     -30.071  -8.404  25.615  1.00  0.00     0.039 C 
ENDROOT
BRANCH   2   4
ATOM      4  C   UNL     1     -26.849 -10.594  25.553  1.00  0.00     0.032 C 
BRANCH   4   5
ATOM      5  C   UNL     1     -27.356 -11.928  26.121  1.00  0.00     0.034 C 
BRANCH   5   6
ATOM      6  C   UNL     1     -26.719 -13.152  25.477  1.00  0.00    -0.077 C 
ATOM      7  C   UNL     1     -25.244 -13.396  25.685  1.00  0.00     0.039 C 
ATOM      8  C   UNL     1     -27.415 -14.066  24.763  1.00  0.00    -0.023 CG0
ATOM      9  G   UNL     1     -28.880 -13.972  24.405  1.00  0.00     0.000 G0
ENDBRANCH   5   6
ENDBRANCH   4   5
ENDBRANCH   2   4
BRANCH   1  10
ATOM     10  C   UNL     1     -29.823 -10.912  24.962  1.00  0.00     0.111 C 
BRANCH  10  11
ATOM     11  C   UNL     1     -29.092 -11.456  23.769  1.00  0.00     0.163 C 
ATOM     12  O   UNL     1     -28.371 -10.684  23.081  1.00  0.00    -0.294 OA
BRANCH  11  13
ATOM     13  C   UNL     1     -29.197 -12.889  23.387  1.00  0.00    -0.002 C 
ATOM     14  C   UNL     1     -29.551 -13.238  22.120  1.00  0.00    -0.069 C 
ATOM     15  C   UNL     1     -29.653 -14.687  21.707  1.00  0.00     0.039 C 
ATOM     16  C   UNL     1     -29.818 -12.192  21.059  1.00  0.00     0.039 C 
BRANCH  13  17
ATOM     17  C   UNL     1     -28.885 -13.957  24.430  1.00  0.00     0.066 CG0
ATOM     18  G   UNL     1     -27.413 -14.075  24.754  1.00  0.00     0.000 G0
ENDBRANCH  13  17
ENDBRANCH  11  13
ENDBRANCH  10  11
ENDBRANCH   1  10
TORSDOF 0
ENDMDL
