MODEL 1
REMARK VINA RESULT:    18.690      0.000      0.000
REMARK INTER + INTRA:          20.665
REMARK INTER:                  20.875
REMARK INTRA:                  -0.210
REMARK UNBOUND:                -0.210
REMARK SMILES CC(C)c1ccc(C(=O)[O-])cc1
REMARK SMILES IDX 7 1 6 2 11 3 5 4 12 5 4 6 8 7 9 8 10 9 2 10 1 11 3 12
REMARK H PARENT
REMARK Flexibility Score: inf
ROOT
ATOM      1  C   UNL     1      -0.404  -8.131  25.192  1.00  0.00    -0.003 A 
ATOM      2  C   UNL     1      -0.085  -7.215  24.174  1.00  0.00     0.010 A 
ATOM      3  C   UNL     1      -1.569  -8.906  25.069  1.00  0.00     0.010 A 
ATOM      4  C   UNL     1      -0.915  -7.079  23.057  1.00  0.00     0.004 A 
ATOM      5  C   UNL     1      -2.399  -8.770  23.952  1.00  0.00     0.004 A 
ATOM      6  C   UNL     1      -2.082  -7.855  22.934  1.00  0.00    -0.045 A 
ENDROOT
BRANCH   1   7
ATOM      7  C   UNL     1       0.471  -8.279  26.375  1.00  0.00     0.071 C 
ATOM      8  O   UNL     1       1.130  -7.298  26.812  1.00  0.00    -0.545 OA
ATOM      9  O   UNL     1       0.579  -9.504  27.022  1.00  0.00    -0.545 OA
ENDBRANCH   1   7
BRANCH   6  10
ATOM     10  C   UNL     1      -2.992  -7.717  21.728  1.00  0.00     0.013 C 
ATOM     11  C   UNL     1      -2.253  -7.070  20.550  1.00  0.00     0.012 C 
ATOM     12  C   UNL     1      -4.262  -6.933  22.080  1.00  0.00     0.012 C 
ENDBRANCH   6  10
TORSDOF 2
ENDMDL
MODEL 2
REMARK VINA RESULT:    18.742      1.432      2.616
REMARK INTER + INTRA:          20.724
REMARK INTER:                  20.934
REMARK INTRA:                  -0.211
REMARK UNBOUND:                -0.210
REMARK SMILES CC(C)c1ccc(C(=O)[O-])cc1
REMARK SMILES IDX 7 1 6 2 11 3 5 4 12 5 4 6 8 7 9 8 10 9 2 10 1 11 3 12
REMARK H PARENT
REMARK Flexibility Score: inf
ROOT
ATOM      1  C   UNL     1      -1.414  -8.058  23.721  1.00  0.00    -0.003 A 
ATOM      2  C   UNL     1      -2.750  -7.625  23.755  1.00  0.00     0.010 A 
ATOM      3  C   UNL     1      -0.756  -8.140  22.484  1.00  0.00     0.010 A 
ATOM      4  C   UNL     1      -3.415  -7.281  22.574  1.00  0.00     0.004 A 
ATOM      5  C   UNL     1      -1.420  -7.797  21.302  1.00  0.00     0.004 A 
ATOM      6  C   UNL     1      -2.756  -7.364  21.334  1.00  0.00    -0.045 A 
ENDROOT
BRANCH   1   7
ATOM      7  C   UNL     1      -0.707  -8.422  24.969  1.00  0.00     0.071 C 
ATOM      8  O   UNL     1      -0.934  -9.524  25.536  1.00  0.00    -0.545 OA
ATOM      9  O   UNL     1       0.218  -7.552  25.534  1.00  0.00    -0.545 OA
ENDBRANCH   1   7
BRANCH   6  10
ATOM     10  C   UNL     1      -3.464  -6.995  20.043  1.00  0.00     0.013 C 
ATOM     11  C   UNL     1      -4.821  -7.702  19.936  1.00  0.00     0.012 C 
ATOM     12  C   UNL     1      -2.586  -7.300  18.824  1.00  0.00     0.012 C 
ENDBRANCH   6  10
TORSDOF 2
ENDMDL
MODEL 3
REMARK VINA RESULT:    19.163      3.876      5.529
REMARK INTER + INTRA:          21.193
REMARK INTER:                  21.400
REMARK INTRA:                  -0.207
REMARK UNBOUND:                -0.210
REMARK SMILES CC(C)c1ccc(C(=O)[O-])cc1
REMARK SMILES IDX 7 1 6 2 11 3 5 4 12 5 4 6 8 7 9 8 10 9 2 10 1 11 3 12
REMARK H PARENT
REMARK Flexibility Score: inf
ROOT
ATOM      1  C   UNL     1      -2.739  -7.487  20.955  1.00  0.00    -0.003 A 
ATOM      2  C   UNL     1      -3.500  -7.195  22.100  1.00  0.00     0.010 A 
ATOM      3  C   UNL     1      -1.421  -7.948  21.113  1.00  0.00     0.010 A 
ATOM      4  C   UNL     1      -2.954  -7.361  23.377  1.00  0.00     0.004 A 
ATOM      5  C   UNL     1      -0.876  -8.114  22.390  1.00  0.00     0.004 A 
ATOM      6  C   UNL     1      -1.635  -7.822  23.535  1.00  0.00    -0.045 A 
ENDROOT
BRANCH   1   7
ATOM      7  C   UNL     1      -3.313  -7.314  19.603  1.00  0.00     0.071 C 
ATOM      8  O   UNL     1      -2.605  -6.875  18.658  1.00  0.00    -0.545 OA
ATOM      9  O   UNL     1      -4.643  -7.632  19.357  1.00  0.00    -0.545 OA
ENDBRANCH   1   7
BRANCH   6  10
ATOM     10  C   UNL     1      -1.029  -8.006  24.914  1.00  0.00     0.013 C 
ATOM     11  C   UNL     1       0.287  -7.230  25.048  1.00  0.00     0.012 C 
ATOM     12  C   UNL     1      -0.828  -9.492  25.235  1.00  0.00     0.012 C 
ENDBRANCH   6  10
TORSDOF 2
ENDMDL
MODEL 4
REMARK VINA RESULT:    19.532      3.069      5.240
REMARK INTER + INTRA:          21.605
REMARK INTER:                  21.815
REMARK INTRA:                  -0.209
REMARK UNBOUND:                -0.210
REMARK SMILES CC(C)c1ccc(C(=O)[O-])cc1
REMARK SMILES IDX 7 1 6 2 11 3 5 4 12 5 4 6 8 7 9 8 10 9 2 10 1 11 3 12
REMARK H PARENT
REMARK Flexibility Score: inf
ROOT
ATOM      1  C   UNL     1      -2.224  -7.590  22.896  1.00  0.00    -0.003 A 
ATOM      2  C   UNL     1      -2.509  -8.579  23.853  1.00  0.00     0.010 A 
ATOM      3  C   UNL     1      -1.018  -6.876  22.993  1.00  0.00     0.010 A 
ATOM      4  C   UNL     1      -1.607  -8.848  24.887  1.00  0.00     0.004 A 
ATOM      5  C   UNL     1      -0.116  -7.145  24.027  1.00  0.00     0.004 A 
ATOM      6  C   UNL     1      -0.399  -8.132  24.985  1.00  0.00    -0.045 A 
ENDROOT
BRANCH   1   7
ATOM      7  C   UNL     1      -3.176  -7.304  21.800  1.00  0.00     0.071 C 
ATOM      8  O   UNL     1      -4.390  -7.079  22.049  1.00  0.00    -0.545 OA
ATOM      9  O   UNL     1      -2.743  -7.279  20.479  1.00  0.00    -0.545 OA
ENDBRANCH   1   7
BRANCH   6  10
ATOM     10  C   UNL     1       0.590  -8.413  26.101  1.00  0.00     0.013 C 
ATOM     11  C   UNL     1       0.187  -9.661  26.896  1.00  0.00     0.012 C 
ATOM     12  C   UNL     1       0.741  -7.197  27.023  1.00  0.00     0.012 C 
ENDBRANCH   6  10
TORSDOF 2
ENDMDL
