MODEL 1
REMARK VINA RESULT:    -4.623      0.000      0.000
REMARK INTER + INTRA:         -10.768
REMARK INTER:                  -8.677
REMARK INTRA:                  -2.092
REMARK UNBOUND:                -2.092
REMARK SMILES CCCCCCCCC=CCCCCCCCC(=O)[O-]
REMARK SMILES IDX 10 1 9 2 11 3 12 4 13 5 14 6 15 7 16 8 17 9 18 10 19 11
REMARK SMILES IDX 20 12 8 13 7 14 6 15 5 16 4 17 3 18 2 19 1 20
REMARK H PARENT
REMARK Flexibility Score: inf
ROOT
ATOM      1  C   UNL     1      24.214 -34.053  21.050  1.00  0.00    -0.031 C 
ATOM      2  C   UNL     1      23.939 -35.258  20.529  1.00  0.00    -0.031 C 
ENDROOT
BRANCH   1   3
ATOM      3  C   UNL     1      25.340 -33.204  20.526  1.00  0.00     0.027 C 
BRANCH   3   4
ATOM      4  C   UNL     1      26.441 -32.982  21.574  1.00  0.00     0.004 C 
BRANCH   4   5
ATOM      5  C   UNL     1      25.866 -32.780  22.984  1.00  0.00     0.000 C 
BRANCH   5   6
ATOM      6  C   UNL     1      25.332 -31.355  23.163  1.00  0.00     0.000 C 
BRANCH   6   7
ATOM      7  C   UNL     1      24.159 -31.327  24.153  1.00  0.00     0.000 C 
BRANCH   7   8
ATOM      8  C   UNL     1      24.135 -30.051  25.009  1.00  0.00     0.006 C 
BRANCH   8   9
ATOM      9  C   UNL     1      23.003 -30.055  26.045  1.00  0.00     0.053 C 
BRANCH   9  10
ATOM     10  C   UNL     1      22.865 -28.703  26.671  1.00  0.00     0.041 C 
ATOM     11  O   UNL     1      21.725 -28.202  26.851  1.00  0.00    -0.550 OA
ATOM     12  O   UNL     1      23.999 -27.977  27.012  1.00  0.00    -0.550 OA
ENDBRANCH   9  10
ENDBRANCH   8   9
ENDBRANCH   7   8
ENDBRANCH   6   7
ENDBRANCH   5   6
ENDBRANCH   4   5
ENDBRANCH   3   4
ENDBRANCH   1   3
BRANCH   2  13
ATOM     13  C   UNL     1      22.812 -36.106  21.052  1.00  0.00     0.027 C 
BRANCH  13  14
ATOM     14  C   UNL     1      23.285 -37.492  21.525  1.00  0.00     0.004 C 
BRANCH  14  15
ATOM     15  C   UNL     1      24.785 -37.762  21.297  1.00  0.00     0.000 C 
BRANCH  15  16
ATOM     16  C   UNL     1      25.633 -37.862  22.582  1.00  0.00     0.000 C 
BRANCH  16  17
ATOM     17  C   UNL     1      26.154 -36.520  23.124  1.00  0.00    -0.000 C 
BRANCH  17  18
ATOM     18  C   UNL     1      25.690 -36.235  24.559  1.00  0.00    -0.000 C 
BRANCH  18  19
ATOM     19  C   UNL     1      24.298 -35.590  24.568  1.00  0.00    -0.003 C 
ATOM     20  C   UNL     1      23.484 -36.052  25.773  1.00  0.00     0.004 C 
ENDBRANCH  18  19
ENDBRANCH  17  18
ENDBRANCH  16  17
ENDBRANCH  15  16
ENDBRANCH  14  15
ENDBRANCH  13  14
ENDBRANCH   2  13
TORSDOF 15
ENDMDL
MODEL 2
REMARK VINA RESULT:    -4.549      2.792      6.774
REMARK INTER + INTRA:         -10.629
REMARK INTER:                  -8.727
REMARK INTRA:                  -1.901
REMARK UNBOUND:                -2.092
REMARK SMILES CCCCCCCCC=CCCCCCCCC(=O)[O-]
REMARK SMILES IDX 10 1 9 2 11 3 12 4 13 5 14 6 15 7 16 8 17 9 18 10 19 11
REMARK SMILES IDX 20 12 8 13 7 14 6 15 5 16 4 17 3 18 2 19 1 20
REMARK H PARENT
REMARK Flexibility Score: inf
ROOT
ATOM      1  C   UNL     1      25.387 -32.161  22.851  1.00  0.00    -0.031 C 
ATOM      2  C   UNL     1      25.479 -30.872  23.211  1.00  0.00    -0.031 C 
ENDROOT
BRANCH   1   3
ATOM      3  C   UNL     1      26.322 -32.768  21.841  1.00  0.00     0.027 C 
BRANCH   3   4
ATOM      4  C   UNL     1      25.612 -33.126  20.527  1.00  0.00     0.004 C 
BRANCH   4   5
ATOM      5  C   UNL     1      24.135 -33.489  20.748  1.00  0.00     0.000 C 
BRANCH   5   6
ATOM      6  C   UNL     1      23.890 -34.980  20.493  1.00  0.00     0.000 C 
BRANCH   6   7
ATOM      7  C   UNL     1      23.708 -35.741  21.814  1.00  0.00     0.000 C 
BRANCH   7   8
ATOM      8  C   UNL     1      24.996 -36.438  22.280  1.00  0.00     0.006 C 
BRANCH   8   9
ATOM      9  C   UNL     1      25.491 -35.919  23.636  1.00  0.00     0.053 C 
BRANCH   9  10
ATOM     10  C   UNL     1      24.358 -35.843  24.611  1.00  0.00     0.041 C 
ATOM     11  O   UNL     1      23.978 -34.728  25.055  1.00  0.00    -0.550 OA
ATOM     12  O   UNL     1      23.755 -37.008  25.066  1.00  0.00    -0.550 OA
ENDBRANCH   9  10
ENDBRANCH   8   9
ENDBRANCH   7   8
ENDBRANCH   6   7
ENDBRANCH   5   6
ENDBRANCH   4   5
ENDBRANCH   3   4
ENDBRANCH   1   3
BRANCH   2  13
ATOM     13  C   UNL     1      24.544 -30.266  24.222  1.00  0.00     0.027 C 
BRANCH  13  14
ATOM     14  C   UNL     1      23.458 -31.251  24.688  1.00  0.00     0.004 C 
BRANCH  14  15
ATOM     15  C   UNL     1      23.425 -31.488  26.210  1.00  0.00     0.000 C 
BRANCH  15  16
ATOM     16  C   UNL     1      22.152 -30.987  26.922  1.00  0.00     0.000 C 
BRANCH  16  17
ATOM     17  C   UNL     1      21.600 -29.648  26.404  1.00  0.00    -0.000 C 
BRANCH  17  18
ATOM     18  C   UNL     1      21.993 -28.457  27.290  1.00  0.00    -0.000 C 
BRANCH  18  19
ATOM     19  C   UNL     1      23.439 -28.024  27.017  1.00  0.00    -0.003 C 
ATOM     20  C   UNL     1      24.332 -28.291  28.225  1.00  0.00     0.004 C 
ENDBRANCH  18  19
ENDBRANCH  17  18
ENDBRANCH  16  17
ENDBRANCH  15  16
ENDBRANCH  14  15
ENDBRANCH  13  14
ENDBRANCH   2  13
TORSDOF 15
ENDMDL
MODEL 3
REMARK VINA RESULT:    -4.536      1.352      3.684
REMARK INTER + INTRA:         -10.605
REMARK INTER:                  -8.692
REMARK INTRA:                  -1.912
REMARK UNBOUND:                -2.092
REMARK SMILES CCCCCCCCC=CCCCCCCCC(=O)[O-]
REMARK SMILES IDX 10 1 9 2 11 3 12 4 13 5 14 6 15 7 16 8 17 9 18 10 19 11
REMARK SMILES IDX 20 12 8 13 7 14 6 15 5 16 4 17 3 18 2 19 1 20
REMARK H PARENT
REMARK Flexibility Score: inf
ROOT
ATOM      1  C   UNL     1      25.543 -31.017  23.166  1.00  0.00    -0.031 C 
ATOM      2  C   UNL     1      25.615 -32.321  22.862  1.00  0.00    -0.031 C 
ENDROOT
BRANCH   1   3
ATOM      3  C   UNL     1      24.704 -30.518  24.311  1.00  0.00     0.027 C 
BRANCH   3   4
ATOM      4  C   UNL     1      23.915 -31.645  24.993  1.00  0.00     0.004 C 
BRANCH   4   5
ATOM      5  C   UNL     1      22.590 -31.146  25.590  1.00  0.00     0.000 C 
BRANCH   5   6
ATOM      6  C   UNL     1      22.308 -31.814  26.940  1.00  0.00     0.000 C 
BRANCH   6   7
ATOM      7  C   UNL     1      23.293 -31.326  28.012  1.00  0.00     0.000 C 
BRANCH   7   8
ATOM      8  C   UNL     1      22.666 -30.304  28.974  1.00  0.00     0.006 C 
BRANCH   8   9
ATOM      9  C   UNL     1      22.509 -28.916  28.342  1.00  0.00     0.053 C 
BRANCH   9  10
ATOM     10  C   UNL     1      23.839 -28.389  27.903  1.00  0.00     0.041 C 
ATOM     11  O   UNL     1      24.018 -28.036  26.708  1.00  0.00    -0.550 OA
ATOM     12  O   UNL     1      24.896 -28.337  28.802  1.00  0.00    -0.550 OA
ENDBRANCH   9  10
ENDBRANCH   8   9
ENDBRANCH   7   8
ENDBRANCH   6   7
ENDBRANCH   5   6
ENDBRANCH   4   5
ENDBRANCH   3   4
ENDBRANCH   1   3
BRANCH   2  13
ATOM     13  C   UNL     1      26.455 -32.820  21.718  1.00  0.00     0.027 C 
BRANCH  13  14
ATOM     14  C   UNL     1      25.637 -33.030  20.432  1.00  0.00     0.004 C 
BRANCH  14  15
ATOM     15  C   UNL     1      24.233 -33.623  20.662  1.00  0.00     0.000 C 
BRANCH  15  16
ATOM     16  C   UNL     1      24.139 -35.156  20.516  1.00  0.00     0.000 C 
BRANCH  16  17
ATOM     17  C   UNL     1      23.786 -35.911  21.809  1.00  0.00    -0.000 C 
BRANCH  17  18
ATOM     18  C   UNL     1      24.991 -36.636  22.425  1.00  0.00    -0.000 C 
BRANCH  18  19
ATOM     19  C   UNL     1      25.541 -35.862  23.629  1.00  0.00    -0.003 C 
ATOM     20  C   UNL     1      24.413 -35.380  24.537  1.00  0.00     0.004 C 
ENDBRANCH  18  19
ENDBRANCH  17  18
ENDBRANCH  16  17
ENDBRANCH  15  16
ENDBRANCH  14  15
ENDBRANCH  13  14
ENDBRANCH   2  13
TORSDOF 15
ENDMDL
MODEL 4
REMARK VINA RESULT:    -4.471      1.628      4.507
REMARK INTER + INTRA:         -10.483
REMARK INTER:                  -8.930
REMARK INTRA:                  -1.553
REMARK UNBOUND:                -2.092
REMARK SMILES CCCCCCCCC=CCCCCCCCC(=O)[O-]
REMARK SMILES IDX 10 1 9 2 11 3 12 4 13 5 14 6 15 7 16 8 17 9 18 10 19 11
REMARK SMILES IDX 20 12 8 13 7 14 6 15 5 16 4 17 3 18 2 19 1 20
REMARK H PARENT
REMARK Flexibility Score: inf
ROOT
ATOM      1  C   UNL     1      25.290 -30.487  23.507  1.00  0.00    -0.031 C 
ATOM      2  C   UNL     1      25.227 -31.822  23.614  1.00  0.00    -0.031 C 
ENDROOT
BRANCH   1   3
ATOM      3  C   UNL     1      24.453 -29.585  24.374  1.00  0.00     0.027 C 
BRANCH   3   4
ATOM      4  C   UNL     1      23.665 -30.363  25.439  1.00  0.00     0.004 C 
BRANCH   4   5
ATOM      5  C   UNL     1      23.769 -29.713  26.827  1.00  0.00     0.000 C 
BRANCH   5   6
ATOM      6  C   UNL     1      23.822 -28.185  26.716  1.00  0.00     0.000 C 
BRANCH   6   7
ATOM      7  C   UNL     1      23.237 -27.522  27.971  1.00  0.00     0.000 C 
BRANCH   7   8
ATOM      8  C   UNL     1      21.916 -28.166  28.422  1.00  0.00     0.006 C 
BRANCH   8   9
ATOM      9  C   UNL     1      20.718 -27.707  27.580  1.00  0.00     0.053 C 
BRANCH   9  10
ATOM     10  C   UNL     1      19.766 -28.841  27.366  1.00  0.00     0.041 C 
ATOM     11  O   UNL     1      20.200 -29.991  27.093  1.00  0.00    -0.550 OA
ATOM     12  O   UNL     1      18.396 -28.617  27.421  1.00  0.00    -0.550 OA
ENDBRANCH   9  10
ENDBRANCH   8   9
ENDBRANCH   7   8
ENDBRANCH   6   7
ENDBRANCH   5   6
ENDBRANCH   4   5
ENDBRANCH   3   4
ENDBRANCH   1   3
BRANCH   2  13
ATOM     13  C   UNL     1      26.065 -32.724  22.748  1.00  0.00     0.027 C 
BRANCH  13  14
ATOM     14  C   UNL     1      25.938 -32.390  21.251  1.00  0.00     0.004 C 
BRANCH  14  15
ATOM     15  C   UNL     1      25.190 -33.455  20.425  1.00  0.00     0.000 C 
BRANCH  15  16
ATOM     16  C   UNL     1      23.791 -33.831  20.956  1.00  0.00     0.000 C 
BRANCH  16  17
ATOM     17  C   UNL     1      23.348 -35.273  20.657  1.00  0.00    -0.000 C 
BRANCH  17  18
ATOM     18  C   UNL     1      24.195 -36.323  21.391  1.00  0.00    -0.000 C 
BRANCH  18  19
ATOM     19  C   UNL     1      24.287 -36.005  22.888  1.00  0.00    -0.003 C 
ATOM     20  C   UNL     1      25.670 -36.338  23.439  1.00  0.00     0.004 C 
ENDBRANCH  18  19
ENDBRANCH  17  18
ENDBRANCH  16  17
ENDBRANCH  15  16
ENDBRANCH  14  15
ENDBRANCH  13  14
ENDBRANCH   2  13
TORSDOF 15
ENDMDL
MODEL 5
REMARK VINA RESULT:    -4.434      1.477      2.418
REMARK INTER + INTRA:         -10.414
REMARK INTER:                  -8.329
REMARK INTRA:                  -2.085
REMARK UNBOUND:                -2.092
REMARK SMILES CCCCCCCCC=CCCCCCCCC(=O)[O-]
REMARK SMILES IDX 10 1 9 2 11 3 12 4 13 5 14 6 15 7 16 8 17 9 18 10 19 11
REMARK SMILES IDX 20 12 8 13 7 14 6 15 5 16 4 17 3 18 2 19 1 20
REMARK H PARENT
REMARK Flexibility Score: inf
ROOT
ATOM      1  C   UNL     1      24.551 -32.837  22.020  1.00  0.00    -0.031 C 
ATOM      2  C   UNL     1      24.557 -33.621  20.932  1.00  0.00    -0.031 C 
ENDROOT
BRANCH   1   3
ATOM      3  C   UNL     1      25.718 -31.950  22.361  1.00  0.00     0.027 C 
BRANCH   3   4
ATOM      4  C   UNL     1      25.617 -31.371  23.779  1.00  0.00     0.004 C 
BRANCH   4   5
ATOM      5  C   UNL     1      24.423 -31.946  24.556  1.00  0.00     0.000 C 
BRANCH   5   6
ATOM      6  C   UNL     1      23.419 -30.845  24.917  1.00  0.00     0.000 C 
BRANCH   6   7
ATOM      7  C   UNL     1      24.104 -29.472  24.970  1.00  0.00     0.000 C 
BRANCH   7   8
ATOM      8  C   UNL     1      23.588 -28.595  26.122  1.00  0.00     0.006 C 
BRANCH   8   9
ATOM      9  C   UNL     1      23.184 -29.416  27.354  1.00  0.00     0.053 C 
BRANCH   9  10
ATOM     10  C   UNL     1      24.346 -29.565  28.285  1.00  0.00     0.041 C 
ATOM     11  O   UNL     1      24.841 -30.702  28.503  1.00  0.00    -0.550 OA
ATOM     12  O   UNL     1      24.849 -28.455  28.950  1.00  0.00    -0.550 OA
ENDBRANCH   9  10
ENDBRANCH   8   9
ENDBRANCH   7   8
ENDBRANCH   6   7
ENDBRANCH   5   6
ENDBRANCH   4   5
ENDBRANCH   3   4
ENDBRANCH   1   3
BRANCH   2  13
ATOM     13  C   UNL     1      23.389 -34.507  20.590  1.00  0.00     0.027 C 
BRANCH  13  14
ATOM     14  C   UNL     1      23.826 -35.870  20.025  1.00  0.00     0.004 C 
BRANCH  14  15
ATOM     15  C   UNL     1      23.840 -37.011  21.060  1.00  0.00     0.000 C 
BRANCH  15  16
ATOM     16  C   UNL     1      23.290 -36.638  22.452  1.00  0.00     0.000 C 
BRANCH  16  17
ATOM     17  C   UNL     1      24.219 -36.975  23.631  1.00  0.00    -0.000 C 
BRANCH  17  18
ATOM     18  C   UNL     1      25.008 -35.758  24.136  1.00  0.00    -0.000 C 
BRANCH  18  19
ATOM     19  C   UNL     1      26.376 -35.667  23.447  1.00  0.00    -0.003 C 
ATOM     20  C   UNL     1      27.067 -37.026  23.411  1.00  0.00     0.004 C 
ENDBRANCH  18  19
ENDBRANCH  17  18
ENDBRANCH  16  17
ENDBRANCH  15  16
ENDBRANCH  14  15
ENDBRANCH  13  14
ENDBRANCH   2  13
TORSDOF 15
ENDMDL
MODEL 6
REMARK VINA RESULT:    -4.429      3.210      7.104
REMARK INTER + INTRA:         -10.404
REMARK INTER:                  -8.445
REMARK INTRA:                  -1.959
REMARK UNBOUND:                -2.092
REMARK SMILES CCCCCCCCC=CCCCCCCCC(=O)[O-]
REMARK SMILES IDX 10 1 9 2 11 3 12 4 13 5 14 6 15 7 16 8 17 9 18 10 19 11
REMARK SMILES IDX 20 12 8 13 7 14 6 15 5 16 4 17 3 18 2 19 1 20
REMARK H PARENT
REMARK Flexibility Score: inf
ROOT
ATOM      1  C   UNL     1      24.440 -31.026  24.373  1.00  0.00    -0.031 C 
ATOM      2  C   UNL     1      24.006 -32.135  24.990  1.00  0.00    -0.031 C 
ENDROOT
BRANCH   1   3
ATOM      3  C   UNL     1      25.550 -31.070  23.358  1.00  0.00     0.027 C 
BRANCH   3   4
ATOM      4  C   UNL     1      25.816 -32.493  22.843  1.00  0.00     0.004 C 
BRANCH   4   5
ATOM      5  C   UNL     1      26.260 -32.503  21.372  1.00  0.00     0.000 C 
BRANCH   5   6
ATOM      6  C   UNL     1      25.233 -33.224  20.492  1.00  0.00     0.000 C 
BRANCH   6   7
ATOM      7  C   UNL     1      24.088 -33.797  21.340  1.00  0.00     0.000 C 
BRANCH   7   8
ATOM      8  C   UNL     1      24.008 -35.331  21.270  1.00  0.00     0.006 C 
BRANCH   8   9
ATOM      9  C   UNL     1      24.744 -36.014  22.430  1.00  0.00     0.053 C 
BRANCH   9  10
ATOM     10  C   UNL     1      23.768 -36.476  23.466  1.00  0.00     0.041 C 
ATOM     11  O   UNL     1      22.765 -37.160  23.133  1.00  0.00    -0.550 OA
ATOM     12  O   UNL     1      23.940 -36.108  24.795  1.00  0.00    -0.550 OA
ENDBRANCH   9  10
ENDBRANCH   8   9
ENDBRANCH   7   8
ENDBRANCH   6   7
ENDBRANCH   5   6
ENDBRANCH   4   5
ENDBRANCH   3   4
ENDBRANCH   1   3
BRANCH   2  13
ATOM     13  C   UNL     1      22.896 -32.090  26.004  1.00  0.00     0.027 C 
BRANCH  13  14
ATOM     14  C   UNL     1      21.675 -31.294  25.510  1.00  0.00     0.004 C 
BRANCH  14  15
ATOM     15  C   UNL     1      20.879 -30.593  26.628  1.00  0.00     0.000 C 
BRANCH  15  16
ATOM     16  C   UNL     1      21.664 -29.525  27.418  1.00  0.00     0.000 C 
BRANCH  16  17
ATOM     17  C   UNL     1      22.378 -28.471  26.554  1.00  0.00    -0.000 C 
BRANCH  17  18
ATOM     18  C   UNL     1      23.830 -28.227  26.988  1.00  0.00    -0.000 C 
BRANCH  18  19
ATOM     19  C   UNL     1      24.288 -29.291  27.994  1.00  0.00    -0.003 C 
ATOM     20  C   UNL     1      24.866 -28.648  29.251  1.00  0.00     0.004 C 
ENDBRANCH  18  19
ENDBRANCH  17  18
ENDBRANCH  16  17
ENDBRANCH  15  16
ENDBRANCH  14  15
ENDBRANCH  13  14
ENDBRANCH   2  13
TORSDOF 15
ENDMDL
MODEL 7
REMARK VINA RESULT:    -4.385      2.008      4.997
REMARK INTER + INTRA:         -10.322
REMARK INTER:                  -8.363
REMARK INTRA:                  -1.958
REMARK UNBOUND:                -2.092
REMARK SMILES CCCCCCCCC=CCCCCCCCC(=O)[O-]
REMARK SMILES IDX 10 1 9 2 11 3 12 4 13 5 14 6 15 7 16 8 17 9 18 10 19 11
REMARK SMILES IDX 20 12 8 13 7 14 6 15 5 16 4 17 3 18 2 19 1 20
REMARK H PARENT
REMARK Flexibility Score: inf
ROOT
ATOM      1  C   UNL     1      23.958 -31.809  25.292  1.00  0.00    -0.031 C 
ATOM      2  C   UNL     1      24.152 -30.755  24.487  1.00  0.00    -0.031 C 
ENDROOT
BRANCH   1   3
ATOM      3  C   UNL     1      22.814 -31.857  26.269  1.00  0.00     0.027 C 
BRANCH   3   4
ATOM      4  C   UNL     1      21.500 -31.351  25.656  1.00  0.00     0.004 C 
BRANCH   4   5
ATOM      5  C   UNL     1      21.103 -29.969  26.197  1.00  0.00     0.000 C 
BRANCH   5   6
ATOM      6  C   UNL     1      21.844 -29.655  27.501  1.00  0.00     0.000 C 
BRANCH   6   7
ATOM      7  C   UNL     1      22.643 -28.349  27.380  1.00  0.00     0.000 C 
BRANCH   7   8
ATOM      8  C   UNL     1      24.148 -28.550  27.623  1.00  0.00     0.006 C 
BRANCH   8   9
ATOM      9  C   UNL     1      24.507 -28.578  29.114  1.00  0.00     0.053 C 
BRANCH   9  10
ATOM     10  C   UNL     1      25.287 -29.813  29.439  1.00  0.00     0.041 C 
ATOM     11  O   UNL     1      26.016 -29.849  30.465  1.00  0.00    -0.550 OA
ATOM     12  O   UNL     1      25.247 -30.905  28.583  1.00  0.00    -0.550 OA
ENDBRANCH   9  10
ENDBRANCH   8   9
ENDBRANCH   7   8
ENDBRANCH   6   7
ENDBRANCH   5   6
ENDBRANCH   4   5
ENDBRANCH   3   4
ENDBRANCH   1   3
BRANCH   2  13
ATOM     13  C   UNL     1      25.295 -30.708  23.509  1.00  0.00     0.027 C 
BRANCH  13  14
ATOM     14  C   UNL     1      25.708 -32.105  23.015  1.00  0.00     0.004 C 
BRANCH  14  15
ATOM     15  C   UNL     1      26.082 -32.166  21.521  1.00  0.00     0.000 C 
BRANCH  15  16
ATOM     16  C   UNL     1      25.397 -33.293  20.721  1.00  0.00     0.000 C 
BRANCH  16  17
ATOM     17  C   UNL     1      23.993 -33.681  21.215  1.00  0.00    -0.000 C 
BRANCH  17  18
ATOM     18  C   UNL     1      23.871 -35.172  21.559  1.00  0.00    -0.000 C 
BRANCH  18  19
ATOM     19  C   UNL     1      24.952 -35.594  22.562  1.00  0.00    -0.003 C 
ATOM     20  C   UNL     1      24.457 -35.452  23.998  1.00  0.00     0.004 C 
ENDBRANCH  18  19
ENDBRANCH  17  18
ENDBRANCH  16  17
ENDBRANCH  15  16
ENDBRANCH  14  15
ENDBRANCH  13  14
ENDBRANCH   2  13
TORSDOF 15
ENDMDL
MODEL 8
REMARK VINA RESULT:    -4.335      3.893      7.439
REMARK INTER + INTRA:         -10.227
REMARK INTER:                  -8.497
REMARK INTRA:                  -1.731
REMARK UNBOUND:                -2.092
REMARK SMILES CCCCCCCCC=CCCCCCCCC(=O)[O-]
REMARK SMILES IDX 10 1 9 2 11 3 12 4 13 5 14 6 15 7 16 8 17 9 18 10 19 11
REMARK SMILES IDX 20 12 8 13 7 14 6 15 5 16 4 17 3 18 2 19 1 20
REMARK H PARENT
REMARK Flexibility Score: inf
ROOT
ATOM      1  C   UNL     1      24.549 -30.926  24.102  1.00  0.00    -0.031 C 
ATOM      2  C   UNL     1      23.491 -31.733  24.271  1.00  0.00    -0.031 C 
ENDROOT
BRANCH   1   3
ATOM      3  C   UNL     1      25.638 -31.249  23.115  1.00  0.00     0.027 C 
BRANCH   3   4
ATOM      4  C   UNL     1      25.934 -32.754  23.042  1.00  0.00     0.004 C 
BRANCH   4   5
ATOM      5  C   UNL     1      26.252 -33.213  21.610  1.00  0.00     0.000 C 
BRANCH   5   6
ATOM      6  C   UNL     1      25.101 -32.875  20.656  1.00  0.00     0.000 C 
BRANCH   6   7
ATOM      7  C   UNL     1      23.905 -33.810  20.884  1.00  0.00     0.000 C 
BRANCH   7   8
ATOM      8  C   UNL     1      24.306 -35.294  20.897  1.00  0.00     0.006 C 
BRANCH   8   9
ATOM      9  C   UNL     1      23.375 -36.150  21.766  1.00  0.00     0.053 C 
BRANCH   9  10
ATOM     10  C   UNL     1      22.234 -36.670  20.950  1.00  0.00     0.041 C 
ATOM     11  O   UNL     1      22.252 -36.568  19.696  1.00  0.00    -0.550 OA
ATOM     12  O   UNL     1      21.127 -37.225  21.580  1.00  0.00    -0.550 OA
ENDBRANCH   9  10
ENDBRANCH   8   9
ENDBRANCH   7   8
ENDBRANCH   6   7
ENDBRANCH   5   6
ENDBRANCH   4   5
ENDBRANCH   3   4
ENDBRANCH   1   3
BRANCH   2  13
ATOM     13  C   UNL     1      22.401 -31.410  25.257  1.00  0.00     0.027 C 
BRANCH  13  14
ATOM     14  C   UNL     1      22.541 -32.196  26.572  1.00  0.00     0.004 C 
BRANCH  14  15
ATOM     15  C   UNL     1      22.846 -31.324  27.805  1.00  0.00     0.000 C 
BRANCH  15  16
ATOM     16  C   UNL     1      24.260 -30.708  27.837  1.00  0.00     0.000 C 
BRANCH  16  17
ATOM     17  C   UNL     1      24.305 -29.192  28.092  1.00  0.00    -0.000 C 
BRANCH  17  18
ATOM     18  C   UNL     1      23.287 -28.414  27.247  1.00  0.00    -0.000 C 
BRANCH  18  19
ATOM     19  C   UNL     1      22.385 -27.547  28.134  1.00  0.00    -0.003 C 
ATOM     20  C   UNL     1      22.355 -28.070  29.567  1.00  0.00     0.004 C 
ENDBRANCH  18  19
ENDBRANCH  17  18
ENDBRANCH  16  17
ENDBRANCH  15  16
ENDBRANCH  14  15
ENDBRANCH  13  14
ENDBRANCH   2  13
TORSDOF 15
ENDMDL
MODEL 9
REMARK VINA RESULT:    -4.329      3.652      7.359
REMARK INTER + INTRA:         -10.217
REMARK INTER:                  -8.654
REMARK INTRA:                  -1.563
REMARK UNBOUND:                -2.092
REMARK SMILES CCCCCCCCC=CCCCCCCCC(=O)[O-]
REMARK SMILES IDX 10 1 9 2 11 3 12 4 13 5 14 6 15 7 16 8 17 9 18 10 19 11
REMARK SMILES IDX 20 12 8 13 7 14 6 15 5 16 4 17 3 18 2 19 1 20
REMARK H PARENT
REMARK Flexibility Score: inf
ROOT
ATOM      1  C   UNL     1      25.522 -31.453  22.317  1.00  0.00    -0.031 C 
ATOM      2  C   UNL     1      25.457 -31.457  23.656  1.00  0.00    -0.031 C 
ENDROOT
BRANCH   1   3
ATOM      3  C   UNL     1      26.330 -32.474  21.562  1.00  0.00     0.027 C 
BRANCH   3   4
ATOM      4  C   UNL     1      25.517 -33.161  20.455  1.00  0.00     0.004 C 
BRANCH   4   5
ATOM      5  C   UNL     1      24.170 -33.693  20.970  1.00  0.00     0.000 C 
BRANCH   5   6
ATOM      6  C   UNL     1      24.286 -35.161  21.397  1.00  0.00     0.000 C 
BRANCH   6   7
ATOM      7  C   UNL     1      24.312 -35.289  22.926  1.00  0.00     0.000 C 
BRANCH   7   8
ATOM      8  C   UNL     1      25.739 -35.279  23.498  1.00  0.00     0.006 C 
BRANCH   8   9
ATOM      9  C   UNL     1      26.469 -36.611  23.287  1.00  0.00     0.053 C 
BRANCH   9  10
ATOM     10  C   UNL     1      26.231 -37.526  24.446  1.00  0.00     0.041 C 
ATOM     11  O   UNL     1      26.117 -37.059  25.609  1.00  0.00    -0.550 OA
ATOM     12  O   UNL     1      26.183 -38.900  24.247  1.00  0.00    -0.550 OA
ENDBRANCH   9  10
ENDBRANCH   8   9
ENDBRANCH   7   8
ENDBRANCH   6   7
ENDBRANCH   5   6
ENDBRANCH   4   5
ENDBRANCH   3   4
ENDBRANCH   1   3
BRANCH   2  13
ATOM     13  C   UNL     1      24.648 -30.437  24.410  1.00  0.00     0.027 C 
BRANCH  13  14
ATOM     14  C   UNL     1      23.828 -31.060  25.554  1.00  0.00     0.004 C 
BRANCH  14  15
ATOM     15  C   UNL     1      22.826 -30.095  26.216  1.00  0.00     0.000 C 
BRANCH  15  16
ATOM     16  C   UNL     1      23.182 -28.599  26.096  1.00  0.00     0.000 C 
BRANCH  16  17
ATOM     17  C   UNL     1      23.888 -27.997  27.323  1.00  0.00    -0.000 C 
BRANCH  17  18
ATOM     18  C   UNL     1      23.674 -28.822  28.600  1.00  0.00    -0.000 C 
BRANCH  18  19
ATOM     19  C   UNL     1      25.004 -29.071  29.323  1.00  0.00    -0.003 C 
ATOM     20  C   UNL     1      25.409 -30.539  29.242  1.00  0.00     0.004 C 
ENDBRANCH  18  19
ENDBRANCH  17  18
ENDBRANCH  16  17
ENDBRANCH  15  16
ENDBRANCH  14  15
ENDBRANCH  13  14
ENDBRANCH   2  13
TORSDOF 15
ENDMDL
