MODEL 1
REMARK VINA RESULT:    -6.177      0.000      0.000
REMARK INTER + INTRA:         -10.174
REMARK INTER:                  -9.788
REMARK INTRA:                  -0.386
REMARK UNBOUND:                -0.386
REMARK SMILES CCCCCCCCCCCC(=O)[O-]
REMARK SMILES IDX 7 1 8 2 9 3 10 4 11 5 12 6 13 7 14 8 6 9 5 10 4 11 3 12 2 13
REMARK SMILES IDX 1 14
REMARK H PARENT
REMARK Flexibility Score: inf
ROOT
ATOM      1  C   UNL     1      94.207 121.403 122.370  1.00  0.00     0.000 C 
ENDROOT
BRANCH   1   2
ATOM      2  C   UNL     1      94.412 122.799 122.977  1.00  0.00     0.000 C 
BRANCH   2   3
ATOM      3  C   UNL     1      95.860 123.039 123.440  1.00  0.00     0.000 C 
BRANCH   3   4
ATOM      4  C   UNL     1      95.968 124.176 124.476  1.00  0.00     0.006 C 
BRANCH   4   5
ATOM      5  C   UNL     1      97.013 123.913 125.573  1.00  0.00     0.053 C 
BRANCH   5   6
ATOM      6  C   UNL     1      97.653 125.172 126.065  1.00  0.00     0.041 C 
ATOM      7  O   UNL     1      98.000 125.277 127.270  1.00  0.00    -0.550 OA
ATOM      8  O   UNL     1      97.846 126.239 125.198  1.00  0.00    -0.550 OA
ENDBRANCH   5   6
ENDBRANCH   4   5
ENDBRANCH   3   4
ENDBRANCH   2   3
ENDBRANCH   1   2
BRANCH   1   9
ATOM      9  C   UNL     1      93.590 121.453 120.965  1.00  0.00     0.000 C 
BRANCH   9  10
ATOM     10  C   UNL     1      94.606 121.018 119.902  1.00  0.00    -0.000 C 
BRANCH  10  11
ATOM     11  C   UNL     1      93.999 121.102 118.493  1.00  0.00    -0.000 C 
BRANCH  11  12
ATOM     12  C   UNL     1      92.668 121.871 118.466  1.00  0.00    -0.000 C 
BRANCH  12  13
ATOM     13  C   UNL     1      92.152 122.111 117.041  1.00  0.00    -0.003 C 
ATOM     14  C   UNL     1      92.624 121.013 116.093  1.00  0.00     0.004 C 
ENDBRANCH  12  13
ENDBRANCH  11  12
ENDBRANCH  10  11
ENDBRANCH   9  10
ENDBRANCH   1   9
TORSDOF 10
ENDMDL
MODEL 2
REMARK VINA RESULT:    -5.730      1.310      2.226
REMARK INTER + INTRA:          -9.465
REMARK INTER:                  -9.003
REMARK INTRA:                  -0.462
REMARK UNBOUND:                -0.386
REMARK SMILES CCCCCCCCCCCC(=O)[O-]
REMARK SMILES IDX 7 1 8 2 9 3 10 4 11 5 12 6 13 7 14 8 6 9 5 10 4 11 3 12 2 13
REMARK SMILES IDX 1 14
REMARK H PARENT
REMARK Flexibility Score: inf
ROOT
ATOM      1  C   UNL     1      95.908 122.801 122.875  1.00  0.00     0.000 C 
ENDROOT
BRANCH   1   2
ATOM      2  C   UNL     1      95.232 123.621 123.985  1.00  0.00     0.000 C 
BRANCH   2   3
ATOM      3  C   UNL     1      96.192 123.966 125.137  1.00  0.00     0.000 C 
BRANCH   3   4
ATOM      4  C   UNL     1      97.034 125.224 124.848  1.00  0.00     0.006 C 
BRANCH   4   5
ATOM      5  C   UNL     1      97.882 125.687 126.043  1.00  0.00     0.053 C 
BRANCH   5   6
ATOM      6  C   UNL     1      98.367 127.094 125.889  1.00  0.00     0.041 C 
ATOM      7  O   UNL     1      97.787 128.033 126.491  1.00  0.00    -0.550 OA
ATOM      8  O   UNL     1      99.449 127.369 125.062  1.00  0.00    -0.550 OA
ENDBRANCH   5   6
ENDBRANCH   4   5
ENDBRANCH   3   4
ENDBRANCH   2   3
ENDBRANCH   1   2
BRANCH   1   9
ATOM      9  C   UNL     1      95.070 121.592 122.437  1.00  0.00     0.000 C 
BRANCH   9  10
ATOM     10  C   UNL     1      93.606 121.990 122.213  1.00  0.00    -0.000 C 
BRANCH  10  11
ATOM     11  C   UNL     1      93.141 121.602 120.801  1.00  0.00    -0.000 C 
BRANCH  11  12
ATOM     12  C   UNL     1      94.254 120.946 119.968  1.00  0.00    -0.000 C 
BRANCH  12  13
ATOM     13  C   UNL     1      94.084 121.182 118.462  1.00  0.00    -0.003 C 
ATOM     14  C   UNL     1      92.754 121.865 118.160  1.00  0.00     0.004 C 
ENDBRANCH  12  13
ENDBRANCH  11  12
ENDBRANCH  10  11
ENDBRANCH   9  10
ENDBRANCH   1   9
TORSDOF 10
ENDMDL
MODEL 3
REMARK VINA RESULT:    -5.658      4.161      7.969
REMARK INTER + INTRA:          -9.352
REMARK INTER:                  -8.794
REMARK INTRA:                  -0.557
REMARK UNBOUND:                -0.386
REMARK SMILES CCCCCCCCCCCC(=O)[O-]
REMARK SMILES IDX 7 1 8 2 9 3 10 4 11 5 12 6 13 7 14 8 6 9 5 10 4 11 3 12 2 13
REMARK SMILES IDX 1 14
REMARK H PARENT
REMARK Flexibility Score: inf
ROOT
ATOM      1  C   UNL     1      94.187 122.037 122.452  1.00  0.00     0.000 C 
ENDROOT
BRANCH   1   2
ATOM      2  C   UNL     1      93.847 121.238 121.185  1.00  0.00     0.000 C 
BRANCH   2   3
ATOM      3  C   UNL     1      95.009 121.202 120.177  1.00  0.00     0.000 C 
BRANCH   3   4
ATOM      4  C   UNL     1      94.522 121.137 118.716  1.00  0.00     0.006 C 
BRANCH   4   5
ATOM      5  C   UNL     1      93.007 121.348 118.561  1.00  0.00     0.053 C 
BRANCH   5   6
ATOM      6  C   UNL     1      92.658 122.077 117.303  1.00  0.00     0.041 C 
ATOM      7  O   UNL     1      92.633 123.335 117.285  1.00  0.00    -0.550 OA
ATOM      8  O   UNL     1      92.339 121.366 116.153  1.00  0.00    -0.550 OA
ENDBRANCH   5   6
ENDBRANCH   4   5
ENDBRANCH   3   4
ENDBRANCH   2   3
ENDBRANCH   1   2
BRANCH   1   9
ATOM      9  C   UNL     1      95.563 122.714 122.375  1.00  0.00     0.000 C 
BRANCH   9  10
ATOM     10  C   UNL     1      96.530 122.114 123.403  1.00  0.00    -0.000 C 
BRANCH  10  11
ATOM     11  C   UNL     1      96.763 123.084 124.571  1.00  0.00    -0.000 C 
BRANCH  11  12
ATOM     12  C   UNL     1      96.308 124.518 124.252  1.00  0.00    -0.000 C 
BRANCH  12  13
ATOM     13  C   UNL     1      97.168 125.581 124.947  1.00  0.00    -0.003 C 
ATOM     14  C   UNL     1      97.771 125.039 126.240  1.00  0.00     0.004 C 
ENDBRANCH  12  13
ENDBRANCH  11  12
ENDBRANCH  10  11
ENDBRANCH   9  10
ENDBRANCH   1   9
TORSDOF 10
ENDMDL
MODEL 4
REMARK VINA RESULT:    -5.491      1.669      2.745
REMARK INTER + INTRA:          -9.086
REMARK INTER:                  -8.904
REMARK INTRA:                  -0.182
REMARK UNBOUND:                -0.386
REMARK SMILES CCCCCCCCCCCC(=O)[O-]
REMARK SMILES IDX 7 1 8 2 9 3 10 4 11 5 12 6 13 7 14 8 6 9 5 10 4 11 3 12 2 13
REMARK SMILES IDX 1 14
REMARK H PARENT
REMARK Flexibility Score: inf
ROOT
ATOM      1  C   UNL     1      94.808 121.232 120.198  1.00  0.00     0.000 C 
ENDROOT
BRANCH   1   2
ATOM      2  C   UNL     1      93.570 121.555 121.049  1.00  0.00     0.000 C 
BRANCH   2   3
ATOM      3  C   UNL     1      93.897 121.693 122.546  1.00  0.00     0.000 C 
BRANCH   3   4
ATOM      4  C   UNL     1      93.732 123.139 123.055  1.00  0.00     0.006 C 
BRANCH   4   5
ATOM      5  C   UNL     1      94.471 123.416 124.374  1.00  0.00     0.053 C 
BRANCH   5   6
ATOM      6  C   UNL     1      95.951 123.525 124.188  1.00  0.00     0.041 C 
ATOM      7  O   UNL     1      96.599 124.431 124.773  1.00  0.00    -0.550 OA
ATOM      8  O   UNL     1      96.614 122.638 123.349  1.00  0.00    -0.550 OA
ENDBRANCH   5   6
ENDBRANCH   4   5
ENDBRANCH   3   4
ENDBRANCH   2   3
ENDBRANCH   1   2
BRANCH   1   9
ATOM      9  C   UNL     1      94.468 121.001 118.719  1.00  0.00     0.000 C 
BRANCH   9  10
ATOM     10  C   UNL     1      92.950 120.956 118.505  1.00  0.00    -0.000 C 
BRANCH  10  11
ATOM     11  C   UNL     1      92.608 120.875 117.009  1.00  0.00    -0.000 C 
BRANCH  11  12
ATOM     12  C   UNL     1      92.696 122.239 116.305  1.00  0.00    -0.000 C 
BRANCH  12  13
ATOM     13  C   UNL     1      92.486 123.416 117.267  1.00  0.00    -0.003 C 
ATOM     14  C   UNL     1      92.676 124.750 116.552  1.00  0.00     0.004 C 
ENDBRANCH  12  13
ENDBRANCH  11  12
ENDBRANCH  10  11
ENDBRANCH   9  10
ENDBRANCH   1   9
TORSDOF 10
ENDMDL
MODEL 5
REMARK VINA RESULT:    -5.491      2.227      4.036
REMARK INTER + INTRA:          -9.086
REMARK INTER:                  -8.644
REMARK INTRA:                  -0.442
REMARK UNBOUND:                -0.386
REMARK SMILES CCCCCCCCCCCC(=O)[O-]
REMARK SMILES IDX 7 1 8 2 9 3 10 4 11 5 12 6 13 7 14 8 6 9 5 10 4 11 3 12 2 13
REMARK SMILES IDX 1 14
REMARK H PARENT
REMARK Flexibility Score: inf
ROOT
ATOM      1  C   UNL     1      96.276 124.575 124.366  1.00  0.00     0.000 C 
ENDROOT
BRANCH   1   2
ATOM      2  C   UNL     1      96.907 124.094 125.681  1.00  0.00     0.000 C 
BRANCH   2   3
ATOM      3  C   UNL     1      98.007 125.041 126.192  1.00  0.00     0.000 C 
BRANCH   3   4
ATOM      4  C   UNL     1      98.003 126.400 125.463  1.00  0.00     0.006 C 
BRANCH   4   5
ATOM      5  C   UNL     1      98.627 127.541 126.281  1.00  0.00     0.053 C 
BRANCH   5   6
ATOM      6  C   UNL     1      99.881 128.070 125.660  1.00  0.00     0.041 C 
ATOM      7  O   UNL     1     100.297 129.221 125.954  1.00  0.00    -0.550 OA
ATOM      8  O   UNL     1     100.579 127.300 124.739  1.00  0.00    -0.550 OA
ENDBRANCH   5   6
ENDBRANCH   4   5
ENDBRANCH   3   4
ENDBRANCH   2   3
ENDBRANCH   1   2
BRANCH   1   9
ATOM      9  C   UNL     1      95.643 123.432 123.560  1.00  0.00     0.000 C 
BRANCH   9  10
ATOM     10  C   UNL     1      94.156 123.274 123.902  1.00  0.00    -0.000 C 
BRANCH  10  11
ATOM     11  C   UNL     1      93.441 122.402 122.859  1.00  0.00    -0.000 C 
BRANCH  11  12
ATOM     12  C   UNL     1      94.417 121.571 122.010  1.00  0.00    -0.000 C 
BRANCH  12  13
ATOM     13  C   UNL     1      93.806 121.120 120.676  1.00  0.00    -0.003 C 
ATOM     14  C   UNL     1      94.872 121.028 119.588  1.00  0.00     0.004 C 
ENDBRANCH  12  13
ENDBRANCH  11  12
ENDBRANCH  10  11
ENDBRANCH   9  10
ENDBRANCH   1   9
TORSDOF 10
ENDMDL
MODEL 6
REMARK VINA RESULT:    -5.423      3.881      8.343
REMARK INTER + INTRA:          -8.979
REMARK INTER:                  -8.581
REMARK INTRA:                  -0.398
REMARK UNBOUND:                -0.386
REMARK SMILES CCCCCCCCCCCC(=O)[O-]
REMARK SMILES IDX 7 1 8 2 9 3 10 4 11 5 12 6 13 7 14 8 6 9 5 10 4 11 3 12 2 13
REMARK SMILES IDX 1 14
REMARK H PARENT
REMARK Flexibility Score: inf
ROOT
ATOM      1  C   UNL     1      95.318 123.539 123.592  1.00  0.00     0.000 C 
ENDROOT
BRANCH   1   2
ATOM      2  C   UNL     1      96.134 122.297 123.200  1.00  0.00     0.000 C 
BRANCH   2   3
ATOM      3  C   UNL     1      96.141 122.046 121.682  1.00  0.00     0.000 C 
BRANCH   3   4
ATOM      4  C   UNL     1      94.791 121.511 121.165  1.00  0.00     0.006 C 
BRANCH   4   5
ATOM      5  C   UNL     1      94.847 120.985 119.722  1.00  0.00     0.053 C 
BRANCH   5   6
ATOM      6  C   UNL     1      93.598 121.284 118.956  1.00  0.00     0.041 C 
ATOM      7  O   UNL     1      92.611 121.809 119.533  1.00  0.00    -0.550 OA
ATOM      8  O   UNL     1      93.516 120.964 117.607  1.00  0.00    -0.550 OA
ENDBRANCH   5   6
ENDBRANCH   4   5
ENDBRANCH   3   4
ENDBRANCH   2   3
ENDBRANCH   1   2
BRANCH   1   9
ATOM      9  C   UNL     1      96.146 124.571 124.369  1.00  0.00     0.000 C 
BRANCH   9  10
ATOM     10  C   UNL     1      96.946 123.902 125.493  1.00  0.00    -0.000 C 
BRANCH  10  11
ATOM     11  C   UNL     1      97.749 124.941 126.291  1.00  0.00    -0.000 C 
BRANCH  11  12
ATOM     12  C   UNL     1      97.971 126.247 125.510  1.00  0.00    -0.000 C 
BRANCH  12  13
ATOM     13  C   UNL     1      99.410 126.768 125.625  1.00  0.00    -0.003 C 
ATOM     14  C   UNL     1      99.431 128.223 126.085  1.00  0.00     0.004 C 
ENDBRANCH  12  13
ENDBRANCH  11  12
ENDBRANCH  10  11
ENDBRANCH   9  10
ENDBRANCH   1   9
TORSDOF 10
ENDMDL
MODEL 7
REMARK VINA RESULT:    -5.415      1.499      2.081
REMARK INTER + INTRA:          -8.965
REMARK INTER:                  -8.477
REMARK INTRA:                  -0.488
REMARK UNBOUND:                -0.386
REMARK SMILES CCCCCCCCCCCC(=O)[O-]
REMARK SMILES IDX 7 1 8 2 9 3 10 4 11 5 12 6 13 7 14 8 6 9 5 10 4 11 3 12 2 13
REMARK SMILES IDX 1 14
REMARK H PARENT
REMARK Flexibility Score: inf
ROOT
ATOM      1  C   UNL     1      96.106 122.390 122.476  1.00  0.00     0.000 C 
ENDROOT
BRANCH   1   2
ATOM      2  C   UNL     1      95.161 123.373 123.184  1.00  0.00     0.000 C 
BRANCH   2   3
ATOM      3  C   UNL     1      95.484 123.535 124.680  1.00  0.00     0.000 C 
BRANCH   3   4
ATOM      4  C   UNL     1      96.738 124.397 124.924  1.00  0.00     0.006 C 
BRANCH   4   5
ATOM      5  C   UNL     1      97.339 124.228 126.329  1.00  0.00     0.053 C 
BRANCH   5   6
ATOM      6  C   UNL     1      98.435 123.211 126.363  1.00  0.00     0.041 C 
ATOM      7  O   UNL     1      98.285 122.099 125.794  1.00  0.00    -0.550 OA
ATOM      8  O   UNL     1      99.616 123.483 127.042  1.00  0.00    -0.550 OA
ENDBRANCH   5   6
ENDBRANCH   4   5
ENDBRANCH   3   4
ENDBRANCH   2   3
ENDBRANCH   1   2
BRANCH   1   9
ATOM      9  C   UNL     1      95.414 121.613 121.347  1.00  0.00     0.000 C 
BRANCH   9  10
ATOM     10  C   UNL     1      93.894 121.589 121.547  1.00  0.00    -0.000 C 
BRANCH  10  11
ATOM     11  C   UNL     1      93.164 121.507 120.197  1.00  0.00    -0.000 C 
BRANCH  11  12
ATOM     12  C   UNL     1      94.090 121.081 119.046  1.00  0.00    -0.000 C 
BRANCH  12  13
ATOM     13  C   UNL     1      93.381 121.082 117.685  1.00  0.00    -0.003 C 
ATOM     14  C   UNL     1      92.593 122.372 117.477  1.00  0.00     0.004 C 
ENDBRANCH  12  13
ENDBRANCH  11  12
ENDBRANCH  10  11
ENDBRANCH   9  10
ENDBRANCH   1   9
TORSDOF 10
ENDMDL
MODEL 8
REMARK VINA RESULT:    -5.411      3.804      8.277
REMARK INTER + INTRA:          -8.960
REMARK INTER:                  -8.487
REMARK INTRA:                  -0.473
REMARK UNBOUND:                -0.386
REMARK SMILES CCCCCCCCCCCC(=O)[O-]
REMARK SMILES IDX 7 1 8 2 9 3 10 4 11 5 12 6 13 7 14 8 6 9 5 10 4 11 3 12 2 13
REMARK SMILES IDX 1 14
REMARK H PARENT
REMARK Flexibility Score: inf
ROOT
ATOM      1  C   UNL     1      96.458 124.677 124.365  1.00  0.00     0.000 C 
ENDROOT
BRANCH   1   2
ATOM      2  C   UNL     1      95.727 123.541 123.633  1.00  0.00     0.000 C 
BRANCH   2   3
ATOM      3  C   UNL     1      94.279 123.356 124.120  1.00  0.00     0.000 C 
BRANCH   3   4
ATOM      4  C   UNL     1      93.411 122.581 123.109  1.00  0.00     0.006 C 
BRANCH   4   5
ATOM      5  C   UNL     1      94.156 121.436 122.405  1.00  0.00     0.053 C 
BRANCH   5   6
ATOM      6  C   UNL     1      93.905 121.412 120.931  1.00  0.00     0.041 C 
ATOM      7  O   UNL     1      92.764 121.684 120.478  1.00  0.00    -0.550 OA
ATOM      8  O   UNL     1      94.929 121.068 120.057  1.00  0.00    -0.550 OA
ENDBRANCH   5   6
ENDBRANCH   4   5
ENDBRANCH   3   4
ENDBRANCH   2   3
ENDBRANCH   1   2
BRANCH   1   9
ATOM      9  C   UNL     1      97.026 124.239 125.722  1.00  0.00     0.000 C 
BRANCH   9  10
ATOM     10  C   UNL     1      97.864 125.356 126.355  1.00  0.00    -0.000 C 
BRANCH  10  11
ATOM     11  C   UNL     1      98.013 126.544 125.392  1.00  0.00    -0.000 C 
BRANCH  11  12
ATOM     12  C   UNL     1      98.682 127.762 126.051  1.00  0.00    -0.000 C 
BRANCH  12  13
ATOM     13  C   UNL     1     100.210 127.637 126.111  1.00  0.00    -0.003 C 
ATOM     14  C   UNL     1     100.803 127.474 124.715  1.00  0.00     0.004 C 
ENDBRANCH  12  13
ENDBRANCH  11  12
ENDBRANCH  10  11
ENDBRANCH   9  10
ENDBRANCH   1   9
TORSDOF 10
ENDMDL
MODEL 9
REMARK VINA RESULT:    -5.313      3.818      8.481
REMARK INTER + INTRA:          -8.804
REMARK INTER:                  -8.277
REMARK INTRA:                  -0.527
REMARK UNBOUND:                -0.386
REMARK SMILES CCCCCCCCCCCC(=O)[O-]
REMARK SMILES IDX 7 1 8 2 9 3 10 4 11 5 12 6 13 7 14 8 6 9 5 10 4 11 3 12 2 13
REMARK SMILES IDX 1 14
REMARK H PARENT
REMARK Flexibility Score: inf
ROOT
ATOM      1  C   UNL     1      96.497 124.561 124.560  1.00  0.00     0.000 C 
ENDROOT
BRANCH   1   2
ATOM      2  C   UNL     1      95.769 123.387 123.887  1.00  0.00     0.000 C 
BRANCH   2   3
ATOM      3  C   UNL     1      94.245 123.437 124.092  1.00  0.00     0.000 C 
BRANCH   3   4
ATOM      4  C   UNL     1      93.479 122.614 123.037  1.00  0.00     0.006 C 
BRANCH   4   5
ATOM      5  C   UNL     1      94.339 121.541 122.349  1.00  0.00     0.053 C 
BRANCH   5   6
ATOM      6  C   UNL     1      94.016 121.396 120.896  1.00  0.00     0.041 C 
ATOM      7  O   UNL     1      94.886 120.970 120.093  1.00  0.00    -0.550 OA
ATOM      8  O   UNL     1      92.759 121.751 120.424  1.00  0.00    -0.550 OA
ENDBRANCH   5   6
ENDBRANCH   4   5
ENDBRANCH   3   4
ENDBRANCH   2   3
ENDBRANCH   1   2
BRANCH   1   9
ATOM      9  C   UNL     1      97.073 124.192 125.934  1.00  0.00     0.000 C 
BRANCH   9  10
ATOM     10  C   UNL     1      98.032 125.278 126.438  1.00  0.00    -0.000 C 
BRANCH  10  11
ATOM     11  C   UNL     1      98.113 126.445 125.442  1.00  0.00    -0.000 C 
BRANCH  11  12
ATOM     12  C   UNL     1      98.024 127.818 126.128  1.00  0.00    -0.000 C 
BRANCH  12  13
ATOM     13  C   UNL     1      98.361 127.756 127.623  1.00  0.00    -0.003 C 
ATOM     14  C   UNL     1      97.239 128.357 128.465  1.00  0.00     0.004 C 
ENDBRANCH  12  13
ENDBRANCH  11  12
ENDBRANCH  10  11
ENDBRANCH   9  10
ENDBRANCH   1   9
TORSDOF 10
ENDMDL
