MODEL 1
REMARK VINA RESULT:    -5.063      0.000      0.000
REMARK INTER + INTRA:          -5.359
REMARK INTER:                  -5.359
REMARK INTRA:                   0.000
REMARK UNBOUND:                 0.000
REMARK SMILES O=c1ccc2cc(O)c(O)cc2o1
REMARK SMILES IDX 4 1 3 2 2 3 1 4 13 5 12 6 11 7 9 8 7 9 6 10 5 11 8 12 10 14
REMARK H PARENT 8 13 10 15
REMARK Flexibility Score: inf
ROOT
ATOM      1  C   UNL     1      34.924 -32.948   9.753  1.00  0.00     0.019 A 
ATOM      2  C   UNL     1      35.691 -33.125   8.602  1.00  0.00     0.094 A 
ATOM      3  C   UNL     1      36.420 -32.041   8.100  1.00  0.00     0.336 A 
ATOM      4  O   UNL     1      37.119 -32.181   7.062  1.00  0.00    -0.246 OA
ATOM      5  O   UNL     1      36.379 -30.861   8.713  1.00  0.00    -0.423 OA
ATOM      6  C   UNL     1      35.660 -30.649   9.812  1.00  0.00     0.142 A 
ATOM      7  C   UNL     1      35.655 -29.387  10.413  1.00  0.00     0.098 A 
ATOM      8  C   UNL     1      34.902 -29.156  11.569  1.00  0.00     0.161 A 
ATOM      9  C   UNL     1      34.143 -30.200  12.134  1.00  0.00     0.158 A 
ATOM     10  C   UNL     1      34.144 -31.468  11.534  1.00  0.00     0.062 A 
ATOM     11  C   UNL     1      34.899 -31.697  10.376  1.00  0.00     0.022 A 
ENDROOT
BRANCH   9  12
ATOM     12  O   UNL     1      33.392 -29.972  13.285  1.00  0.00    -0.504 OA
ATOM     13  H   UNL     1      32.694 -29.239  13.328  1.00  0.00     0.293 HD
ENDBRANCH   9  12
BRANCH   8  14
ATOM     14  O   UNL     1      34.918 -27.886  12.146  1.00  0.00    -0.504 OA
ATOM     15  H   UNL     1      35.640 -27.599  12.796  1.00  0.00     0.293 HD
ENDBRANCH   8  14
TORSDOF 2
ENDMDL
MODEL 2
REMARK VINA RESULT:    -4.406      2.033      2.078
REMARK INTER + INTRA:          -4.663
REMARK INTER:                  -4.663
REMARK INTRA:                   0.000
REMARK UNBOUND:                 0.000
REMARK SMILES O=c1ccc2cc(O)c(O)cc2o1
REMARK SMILES IDX 4 1 3 2 2 3 1 4 13 5 12 6 11 7 9 8 7 9 6 10 5 11 8 12 10 14
REMARK H PARENT 8 13 10 15
REMARK Flexibility Score: inf
ROOT
ATOM      1  C   UNL     1      36.414 -32.940   9.924  1.00  0.00     0.019 A 
ATOM      2  C   UNL     1      37.795 -33.125   9.875  1.00  0.00     0.094 A 
ATOM      3  C   UNL     1      38.635 -32.058  10.215  1.00  0.00     0.336 A 
ATOM      4  O   UNL     1      39.885 -32.207  10.177  1.00  0.00    -0.246 OA
ATOM      5  O   UNL     1      38.121 -30.887  10.580  1.00  0.00    -0.423 OA
ATOM      6  C   UNL     1      36.810 -30.668  10.640  1.00  0.00     0.142 A 
ATOM      7  C   UNL     1      36.327 -29.415  11.030  1.00  0.00     0.098 A 
ATOM      8  C   UNL     1      34.950 -29.177  11.095  1.00  0.00     0.161 A 
ATOM      9  C   UNL     1      34.042 -30.202  10.768  1.00  0.00     0.158 A 
ATOM     10  C   UNL     1      34.522 -31.461  10.375  1.00  0.00     0.062 A 
ATOM     11  C   UNL     1      35.902 -31.698  10.310  1.00  0.00     0.022 A 
ENDROOT
BRANCH   9  12
ATOM     12  O   UNL     1      32.670 -29.966  10.832  1.00  0.00    -0.504 OA
ATOM     13  H   UNL     1      32.298 -29.076  11.140  1.00  0.00     0.293 HD
ENDBRANCH   9  12
BRANCH   8  14
ATOM     14  O   UNL     1      34.499 -27.916  11.488  1.00  0.00    -0.504 OA
ATOM     15  H   UNL     1      33.793 -27.796  12.204  1.00  0.00     0.293 HD
ENDBRANCH   8  14
TORSDOF 2
ENDMDL
MODEL 3
REMARK VINA RESULT:    -4.287      1.492      4.916
REMARK INTER + INTRA:          -4.538
REMARK INTER:                  -4.538
REMARK INTRA:                   0.000
REMARK UNBOUND:                 0.000
REMARK SMILES O=c1ccc2cc(O)c(O)cc2o1
REMARK SMILES IDX 4 1 3 2 2 3 1 4 13 5 12 6 11 7 9 8 7 9 6 10 5 11 8 12 10 14
REMARK H PARENT 8 13 10 15
REMARK Flexibility Score: inf
ROOT
ATOM      1  C   UNL     1      36.516 -29.021  11.208  1.00  0.00     0.019 A 
ATOM      2  C   UNL     1      35.613 -28.233  11.920  1.00  0.00     0.094 A 
ATOM      3  C   UNL     1      34.244 -28.498  11.805  1.00  0.00     0.336 A 
ATOM      4  O   UNL     1      33.413 -27.797  12.440  1.00  0.00    -0.246 OA
ATOM      5  O   UNL     1      33.813 -29.488  11.027  1.00  0.00    -0.423 OA
ATOM      6  C   UNL     1      34.640 -30.264  10.331  1.00  0.00     0.142 A 
ATOM      7  C   UNL     1      34.130 -31.289   9.530  1.00  0.00     0.098 A 
ATOM      8  C   UNL     1      34.993 -32.109   8.795  1.00  0.00     0.161 A 
ATOM      9  C   UNL     1      36.384 -31.903   8.861  1.00  0.00     0.158 A 
ATOM     10  C   UNL     1      36.901 -30.875   9.663  1.00  0.00     0.062 A 
ATOM     11  C   UNL     1      36.035 -30.055  10.399  1.00  0.00     0.022 A 
ENDROOT
BRANCH   9  12
ATOM     12  O   UNL     1      37.245 -32.719   8.129  1.00  0.00    -0.504 OA
ATOM     13  H   UNL     1      37.388 -32.586   7.135  1.00  0.00     0.293 HD
ENDBRANCH   9  12
BRANCH   8  14
ATOM     14  O   UNL     1      34.452 -33.124   8.005  1.00  0.00    -0.504 OA
ATOM     15  H   UNL     1      33.568 -33.566   8.227  1.00  0.00     0.293 HD
ENDBRANCH   8  14
TORSDOF 2
ENDMDL
MODEL 4
REMARK VINA RESULT:    -4.221      1.662      4.540
REMARK INTER + INTRA:          -4.468
REMARK INTER:                  -4.468
REMARK INTRA:                   0.000
REMARK UNBOUND:                 0.000
REMARK SMILES O=c1ccc2cc(O)c(O)cc2o1
REMARK SMILES IDX 4 1 3 2 2 3 1 4 13 5 12 6 11 7 9 8 7 9 6 10 5 11 8 12 10 14
REMARK H PARENT 8 13 10 15
REMARK Flexibility Score: inf
ROOT
ATOM      1  C   UNL     1      33.903 -29.407  11.328  1.00  0.00     0.019 A 
ATOM      2  C   UNL     1      34.498 -28.371  12.047  1.00  0.00     0.094 A 
ATOM      3  C   UNL     1      35.879 -28.172  11.934  1.00  0.00     0.336 A 
ATOM      4  O   UNL     1      36.434 -27.241  12.574  1.00  0.00    -0.246 OA
ATOM      5  O   UNL     1      36.610 -28.962  11.152  1.00  0.00    -0.423 OA
ATOM      6  C   UNL     1      36.083 -29.962  10.449  1.00  0.00     0.142 A 
ATOM      7  C   UNL     1      36.901 -30.759   9.645  1.00  0.00     0.098 A 
ATOM      8  C   UNL     1      36.355 -31.812   8.903  1.00  0.00     0.161 A 
ATOM      9  C   UNL     1      34.973 -32.073   8.966  1.00  0.00     0.158 A 
ATOM     10  C   UNL     1      34.147 -31.275   9.773  1.00  0.00     0.062 A 
ATOM     11  C   UNL     1      34.696 -30.221  10.514  1.00  0.00     0.022 A 
ENDROOT
BRANCH   9  12
ATOM     12  O   UNL     1      34.426 -33.122   8.228  1.00  0.00    -0.504 OA
ATOM     13  H   UNL     1      34.846 -33.436   7.361  1.00  0.00     0.293 HD
ENDBRANCH   9  12
BRANCH   8  14
ATOM     14  O   UNL     1      37.198 -32.590   8.109  1.00  0.00    -0.504 OA
ATOM     15  H   UNL     1      36.969 -32.826   7.151  1.00  0.00     0.293 HD
ENDBRANCH   8  14
TORSDOF 2
ENDMDL
MODEL 5
REMARK VINA RESULT:    -4.184      1.542      2.321
REMARK INTER + INTRA:          -4.428
REMARK INTER:                  -4.428
REMARK INTRA:                   0.000
REMARK UNBOUND:                 0.000
REMARK SMILES O=c1ccc2cc(O)c(O)cc2o1
REMARK SMILES IDX 4 1 3 2 2 3 1 4 13 5 12 6 11 7 9 8 7 9 6 10 5 11 8 12 10 14
REMARK H PARENT 8 13 10 15
REMARK Flexibility Score: inf
ROOT
ATOM      1  C   UNL     1      36.804 -30.883   9.280  1.00  0.00     0.019 A 
ATOM      2  C   UNL     1      36.271 -31.901   8.490  1.00  0.00     0.094 A 
ATOM      3  C   UNL     1      34.911 -32.209   8.608  1.00  0.00     0.336 A 
ATOM      4  O   UNL     1      34.411 -33.125   7.903  1.00  0.00    -0.246 OA
ATOM      5  O   UNL     1      34.141 -31.539   9.462  1.00  0.00    -0.423 OA
ATOM      6  C   UNL     1      34.609 -30.561  10.233  1.00  0.00     0.142 A 
ATOM      7  C   UNL     1      33.752 -29.893  11.112  1.00  0.00     0.098 A 
ATOM      8  C   UNL     1      34.237 -28.864  11.927  1.00  0.00     0.161 A 
ATOM      9  C   UNL     1      35.595 -28.497  11.864  1.00  0.00     0.158 A 
ATOM     10  C   UNL     1      36.459 -29.166  10.983  1.00  0.00     0.062 A 
ATOM     11  C   UNL     1      35.971 -30.196  10.168  1.00  0.00     0.022 A 
ENDROOT
BRANCH   9  12
ATOM     12  O   UNL     1      36.079 -27.472  12.675  1.00  0.00    -0.504 OA
ATOM     13  H   UNL     1      36.180 -26.525  12.330  1.00  0.00     0.293 HD
ENDBRANCH   9  12
BRANCH   8  14
ATOM     14  O   UNL     1      33.356 -28.215  12.794  1.00  0.00    -0.504 OA
ATOM     15  H   UNL     1      32.456 -27.868  12.486  1.00  0.00     0.293 HD
ENDBRANCH   8  14
TORSDOF 2
ENDMDL
MODEL 6
REMARK VINA RESULT:    -4.049      1.239      2.396
REMARK INTER + INTRA:          -4.286
REMARK INTER:                  -4.286
REMARK INTRA:                   0.000
REMARK UNBOUND:                 0.000
REMARK SMILES O=c1ccc2cc(O)c(O)cc2o1
REMARK SMILES IDX 4 1 3 2 2 3 1 4 13 5 12 6 11 7 9 8 7 9 6 10 5 11 8 12 10 14
REMARK H PARENT 8 13 10 15
REMARK Flexibility Score: inf
ROOT
ATOM      1  C   UNL     1      36.335 -30.062   9.699  1.00  0.00     0.019 A 
ATOM      2  C   UNL     1      36.747 -30.995   8.749  1.00  0.00     0.094 A 
ATOM      3  C   UNL     1      36.168 -32.269   8.753  1.00  0.00     0.336 A 
ATOM      4  O   UNL     1      36.528 -33.125   7.902  1.00  0.00    -0.246 OA
ATOM      5  O   UNL     1      35.239 -32.583   9.652  1.00  0.00    -0.423 OA
ATOM      6  C   UNL     1      34.816 -31.723  10.575  1.00  0.00     0.142 A 
ATOM      7  C   UNL     1      33.837 -32.109  11.494  1.00  0.00     0.098 A 
ATOM      8  C   UNL     1      33.387 -31.211  12.469  1.00  0.00     0.161 A 
ATOM      9  C   UNL     1      33.923 -29.910  12.527  1.00  0.00     0.158 A 
ATOM     10  C   UNL     1      34.907 -29.519  11.606  1.00  0.00     0.062 A 
ATOM     11  C   UNL     1      35.356 -30.419  10.631  1.00  0.00     0.022 A 
ENDROOT
BRANCH   9  12
ATOM     12  O   UNL     1      33.477 -29.015  13.497  1.00  0.00    -0.504 OA
ATOM     13  H   UNL     1      34.051 -28.241  13.810  1.00  0.00     0.293 HD
ENDBRANCH   9  12
BRANCH   8  14
ATOM     14  O   UNL     1      32.408 -31.626  13.371  1.00  0.00    -0.504 OA
ATOM     15  H   UNL     1      31.605 -31.052  13.596  1.00  0.00     0.293 HD
ENDBRANCH   8  14
TORSDOF 2
ENDMDL
MODEL 7
REMARK VINA RESULT:    -3.804      1.875      4.514
REMARK INTER + INTRA:          -4.026
REMARK INTER:                  -4.026
REMARK INTRA:                   0.000
REMARK UNBOUND:                 0.000
REMARK SMILES O=c1ccc2cc(O)c(O)cc2o1
REMARK SMILES IDX 4 1 3 2 2 3 1 4 13 5 12 6 11 7 9 8 7 9 6 10 5 11 8 12 10 14
REMARK H PARENT 8 13 10 15
REMARK Flexibility Score: inf
ROOT
ATOM      1  C   UNL     1      34.130 -30.875   9.987  1.00  0.00     0.019 A 
ATOM      2  C   UNL     1      33.505 -29.856  10.703  1.00  0.00     0.094 A 
ATOM      3  C   UNL     1      34.289 -28.989  11.474  1.00  0.00     0.336 A 
ATOM      4  O   UNL     1      33.742 -28.062  12.127  1.00  0.00    -0.246 OA
ATOM      5  O   UNL     1      35.610 -29.139  11.521  1.00  0.00    -0.423 OA
ATOM      6  C   UNL     1      36.246 -30.098  10.853  1.00  0.00     0.142 A 
ATOM      7  C   UNL     1      37.636 -30.207  10.941  1.00  0.00     0.098 A 
ATOM      8  C   UNL     1      38.313 -31.213  10.242  1.00  0.00     0.161 A 
ATOM      9  C   UNL     1      37.592 -32.122   9.445  1.00  0.00     0.158 A 
ATOM     10  C   UNL     1      36.195 -32.017   9.354  1.00  0.00     0.062 A 
ATOM     11  C   UNL     1      35.520 -31.009  10.055  1.00  0.00     0.022 A 
ENDROOT
BRANCH   9  12
ATOM     12  O   UNL     1      38.264 -33.125   8.748  1.00  0.00    -0.504 OA
ATOM     13  H   UNL     1      37.929 -34.081   8.738  1.00  0.00     0.293 HD
ENDBRANCH   9  12
BRANCH   8  14
ATOM     14  O   UNL     1      39.702 -31.295  10.350  1.00  0.00    -0.504 OA
ATOM     15  H   UNL     1      40.315 -31.084   9.572  1.00  0.00     0.293 HD
ENDBRANCH   8  14
TORSDOF 2
ENDMDL
MODEL 8
REMARK VINA RESULT:    -3.517      2.753      3.944
REMARK INTER + INTRA:          -3.722
REMARK INTER:                  -3.722
REMARK INTRA:                   0.000
REMARK UNBOUND:                 0.000
REMARK SMILES O=c1ccc2cc(O)c(O)cc2o1
REMARK SMILES IDX 4 1 3 2 2 3 1 4 13 5 12 6 11 7 9 8 7 9 6 10 5 11 8 12 10 14
REMARK H PARENT 8 13 10 15
REMARK Flexibility Score: inf
ROOT
ATOM      1  C   UNL     1      38.710 -32.767   9.660  1.00  0.00     0.019 A 
ATOM      2  C   UNL     1      39.658 -32.106  10.441  1.00  0.00     0.094 A 
ATOM      3  C   UNL     1      39.283 -30.943  11.124  1.00  0.00     0.336 A 
ATOM      4  O   UNL     1      40.125 -30.333  11.834  1.00  0.00    -0.246 OA
ATOM      5  O   UNL     1      38.040 -30.477  11.027  1.00  0.00    -0.423 OA
ATOM      6  C   UNL     1      37.106 -31.077  10.294  1.00  0.00     0.142 A 
ATOM      7  C   UNL     1      35.817 -30.541  10.230  1.00  0.00     0.098 A 
ATOM      8  C   UNL     1      34.828 -31.165   9.460  1.00  0.00     0.161 A 
ATOM      9  C   UNL     1      35.131 -32.339   8.746  1.00  0.00     0.158 A 
ATOM     10  C   UNL     1      36.424 -32.881   8.806  1.00  0.00     0.062 A 
ATOM     11  C   UNL     1      37.412 -32.255   9.577  1.00  0.00     0.022 A 
ENDROOT
BRANCH   9  12
ATOM     12  O   UNL     1      34.147 -32.962   7.979  1.00  0.00    -0.504 OA
ATOM     13  H   UNL     1      33.852 -32.585   7.086  1.00  0.00     0.293 HD
ENDBRANCH   9  12
BRANCH   8  14
ATOM     14  O   UNL     1      33.551 -30.605   9.417  1.00  0.00    -0.504 OA
ATOM     15  H   UNL     1      32.795 -30.944  10.001  1.00  0.00     0.293 HD
ENDBRANCH   8  14
TORSDOF 2
ENDMDL
MODEL 9
REMARK VINA RESULT:    -3.500     19.854     21.289
REMARK INTER + INTRA:          -3.704
REMARK INTER:                  -3.704
REMARK INTRA:                   0.000
REMARK UNBOUND:                 0.000
REMARK SMILES O=c1ccc2cc(O)c(O)cc2o1
REMARK SMILES IDX 4 1 3 2 2 3 1 4 13 5 12 6 11 7 9 8 7 9 6 10 5 11 8 12 10 14
REMARK H PARENT 8 13 10 15
REMARK Flexibility Score: inf
ROOT
ATOM      1  C   UNL     1      20.899 -13.927   4.546  1.00  0.00     0.019 A 
ATOM      2  C   UNL     1      20.260 -14.887   3.763  1.00  0.00     0.094 A 
ATOM      3  C   UNL     1      20.448 -16.242   4.062  1.00  0.00     0.336 A 
ATOM      4  O   UNL     1      19.878 -17.123   3.366  1.00  0.00    -0.246 OA
ATOM      5  O   UNL     1      21.226 -16.605   5.078  1.00  0.00    -0.423 OA
ATOM      6  C   UNL     1      21.854 -15.722   5.850  1.00  0.00     0.142 A 
ATOM      7  C   UNL     1      22.659 -16.162   6.904  1.00  0.00     0.098 A 
ATOM      8  C   UNL     1      23.324 -15.240   7.721  1.00  0.00     0.161 A 
ATOM      9  C   UNL     1      23.183 -13.860   7.482  1.00  0.00     0.158 A 
ATOM     10  C   UNL     1      22.376 -13.413   6.424  1.00  0.00     0.062 A 
ATOM     11  C   UNL     1      21.711 -14.338   5.608  1.00  0.00     0.022 A 
ENDROOT
BRANCH   9  12
ATOM     12  O   UNL     1      23.844 -12.940   8.293  1.00  0.00    -0.504 OA
ATOM     13  H   UNL     1      24.842 -12.999   8.459  1.00  0.00     0.293 HD
ENDBRANCH   9  12
BRANCH   8  14
ATOM     14  O   UNL     1      24.120 -15.712   8.765  1.00  0.00    -0.504 OA
ATOM     15  H   UNL     1      24.380 -15.127   9.549  1.00  0.00     0.293 HD
ENDBRANCH   8  14
TORSDOF 2
ENDMDL
