MODEL 1
REMARK VINA RESULT:    -5.338      0.000      0.000
REMARK INTER + INTRA:          -5.999
REMARK INTER:                  -5.962
REMARK INTRA:                  -0.038
REMARK UNBOUND:                -0.038
REMARK SMILES O=C([O-])c1ccc(O)c(O)c1
REMARK SMILES IDX 4 1 11 2 5 3 9 4 6 5 7 6 2 7 1 8 3 9 10 10 8 12
REMARK H PARENT 10 11 8 13
REMARK Flexibility Score: inf
ROOT
ATOM      1  C   UNL     1      -7.327 -10.121  28.378  1.00  0.00     0.001 A 
ATOM      2  C   UNL     1      -8.682 -10.053  28.004  1.00  0.00     0.060 A 
ATOM      3  C   UNL     1      -6.884  -9.360  29.473  1.00  0.00     0.014 A 
ATOM      4  C   UNL     1      -9.577  -9.239  28.714  1.00  0.00     0.158 A 
ATOM      5  C   UNL     1      -7.776  -8.549  30.180  1.00  0.00     0.051 A 
ATOM      6  C   UNL     1      -9.123  -8.486  29.803  1.00  0.00     0.157 A 
ENDROOT
BRANCH   1   7
ATOM      7  C   UNL     1      -6.380 -10.977  27.632  1.00  0.00     0.072 C 
ATOM      8  O   UNL     1      -5.766 -11.912  28.214  1.00  0.00    -0.545 OA
ATOM      9  O   UNL     1      -6.152 -10.764  26.277  1.00  0.00    -0.545 OA
ENDBRANCH   1   7
BRANCH   4  10
ATOM     10  O   UNL     1     -10.919  -9.174  28.342  1.00  0.00    -0.504 OA
ATOM     11  H   UNL     1     -11.278  -9.704  27.555  1.00  0.00     0.293 HD
ENDBRANCH   4  10
BRANCH   6  12
ATOM     12  O   UNL     1     -10.016  -7.679  30.506  1.00  0.00    -0.504 OA
ATOM     13  H   UNL     1     -10.084  -6.683  30.328  1.00  0.00     0.293 HD
ENDBRANCH   6  12
TORSDOF 3
ENDMDL
MODEL 2
REMARK VINA RESULT:    -4.981      0.806      2.249
REMARK INTER + INTRA:          -5.601
REMARK INTER:                  -5.563
REMARK INTRA:                  -0.038
REMARK UNBOUND:                -0.038
REMARK SMILES O=C([O-])c1ccc(O)c(O)c1
REMARK SMILES IDX 4 1 11 2 5 3 9 4 6 5 7 6 2 7 1 8 3 9 10 10 8 12
REMARK H PARENT 10 11 8 13
REMARK Flexibility Score: inf
ROOT
ATOM      1  C   UNL     1      -7.445 -10.107  28.330  1.00  0.00     0.001 A 
ATOM      2  C   UNL     1      -7.052  -9.374  29.465  1.00  0.00     0.060 A 
ATOM      3  C   UNL     1      -8.779 -10.024  27.894  1.00  0.00     0.014 A 
ATOM      4  C   UNL     1      -7.976  -8.572  30.150  1.00  0.00     0.158 A 
ATOM      5  C   UNL     1      -9.700  -9.226  28.578  1.00  0.00     0.051 A 
ATOM      6  C   UNL     1      -9.302  -8.499  29.706  1.00  0.00     0.157 A 
ENDROOT
BRANCH   1   7
ATOM      7  C   UNL     1      -6.474 -10.954  27.603  1.00  0.00     0.072 C 
ATOM      8  O   UNL     1      -6.281 -10.792  26.368  1.00  0.00    -0.545 OA
ATOM      9  O   UNL     1      -5.759 -11.940  28.273  1.00  0.00    -0.545 OA
ENDBRANCH   1   7
BRANCH   4  10
ATOM     10  O   UNL     1      -7.584  -7.847  31.274  1.00  0.00    -0.504 OA
ATOM     11  H   UNL     1      -7.555  -8.270  32.195  1.00  0.00     0.293 HD
ENDBRANCH   4  10
BRANCH   6  12
ATOM     12  O   UNL     1     -10.217  -7.701  30.391  1.00  0.00    -0.504 OA
ATOM     13  H   UNL     1     -10.107  -6.695  30.446  1.00  0.00     0.293 HD
ENDBRANCH   6  12
TORSDOF 3
ENDMDL
MODEL 3
REMARK VINA RESULT:    -4.877      1.893      2.994
REMARK INTER + INTRA:          -5.485
REMARK INTER:                  -5.441
REMARK INTRA:                  -0.043
REMARK UNBOUND:                -0.038
REMARK SMILES O=C([O-])c1ccc(O)c(O)c1
REMARK SMILES IDX 4 1 11 2 5 3 9 4 6 5 7 6 2 7 1 8 3 9 10 10 8 12
REMARK H PARENT 10 11 8 13
REMARK Flexibility Score: inf
ROOT
ATOM      1  C   UNL     1      -6.881  -9.268  30.119  1.00  0.00     0.001 A 
ATOM      2  C   UNL     1      -7.923  -8.468  30.621  1.00  0.00     0.060 A 
ATOM      3  C   UNL     1      -7.120 -10.071  28.991  1.00  0.00     0.014 A 
ATOM      4  C   UNL     1      -9.183  -8.470  30.005  1.00  0.00     0.158 A 
ATOM      5  C   UNL     1      -8.376 -10.074  28.377  1.00  0.00     0.051 A 
ATOM      6  C   UNL     1      -9.410  -9.276  28.881  1.00  0.00     0.157 A 
ENDROOT
BRANCH   1   7
ATOM      7  C   UNL     1      -5.550  -9.268  30.766  1.00  0.00     0.072 C 
ATOM      8  O   UNL     1      -4.744 -10.218  30.574  1.00  0.00    -0.545 OA
ATOM      9  O   UNL     1      -5.169  -8.219  31.595  1.00  0.00    -0.545 OA
ENDBRANCH   1   7
BRANCH   4  10
ATOM     10  O   UNL     1     -10.215  -7.677  30.503  1.00  0.00    -0.504 OA
ATOM     11  H   UNL     1     -11.184  -7.967  30.444  1.00  0.00     0.293 HD
ENDBRANCH   4  10
BRANCH   6  12
ATOM     12  O   UNL     1     -10.663  -9.275  28.272  1.00  0.00    -0.504 OA
ATOM     13  H   UNL     1     -11.346  -9.999  28.464  1.00  0.00     0.293 HD
ENDBRANCH   6  12
TORSDOF 3
ENDMDL
MODEL 4
REMARK VINA RESULT:    -4.853      2.093      3.176
REMARK INTER + INTRA:          -5.458
REMARK INTER:                  -5.414
REMARK INTRA:                  -0.044
REMARK UNBOUND:                -0.038
REMARK SMILES O=C([O-])c1ccc(O)c(O)c1
REMARK SMILES IDX 4 1 11 2 5 3 9 4 6 5 7 6 2 7 1 8 3 9 10 10 8 12
REMARK H PARENT 10 11 8 13
REMARK Flexibility Score: inf
ROOT
ATOM      1  C   UNL     1      -7.166  -8.848  30.435  1.00  0.00     0.001 A 
ATOM      2  C   UNL     1      -7.238  -9.653  29.284  1.00  0.00     0.060 A 
ATOM      3  C   UNL     1      -8.318  -8.164  30.861  1.00  0.00     0.014 A 
ATOM      4  C   UNL     1      -8.440  -9.773  28.572  1.00  0.00     0.158 A 
ATOM      5  C   UNL     1      -9.516  -8.283  30.151  1.00  0.00     0.051 A 
ATOM      6  C   UNL     1      -9.581  -9.086  29.006  1.00  0.00     0.157 A 
ENDROOT
BRANCH   1   7
ATOM      7  C   UNL     1      -5.900  -8.718  31.189  1.00  0.00     0.072 C 
ATOM      8  O   UNL     1      -5.833  -7.978  32.207  1.00  0.00    -0.545 OA
ATOM      9  O   UNL     1      -4.765  -9.413  30.786  1.00  0.00    -0.545 OA
ENDBRANCH   1   7
BRANCH   4  10
ATOM     10  O   UNL     1      -8.509 -10.573  27.432  1.00  0.00    -0.504 OA
ATOM     11  H   UNL     1      -8.017 -10.326  26.581  1.00  0.00     0.293 HD
ENDBRANCH   4  10
BRANCH   6  12
ATOM     12  O   UNL     1     -10.774  -9.208  28.296  1.00  0.00    -0.504 OA
ATOM     13  H   UNL     1     -11.598  -8.676  28.548  1.00  0.00     0.293 HD
ENDBRANCH   6  12
TORSDOF 3
ENDMDL
MODEL 5
REMARK VINA RESULT:    -4.455      1.227      2.347
REMARK INTER + INTRA:          -5.014
REMARK INTER:                  -4.971
REMARK INTRA:                  -0.043
REMARK UNBOUND:                -0.038
REMARK SMILES O=C([O-])c1ccc(O)c(O)c1
REMARK SMILES IDX 4 1 11 2 5 3 9 4 6 5 7 6 2 7 1 8 3 9 10 10 8 12
REMARK H PARENT 10 11 8 13
REMARK Flexibility Score: inf
ROOT
ATOM      1  C   UNL     1      -6.922 -10.328  29.386  1.00  0.00     0.001 A 
ATOM      2  C   UNL     1      -6.853  -9.402  30.442  1.00  0.00     0.060 A 
ATOM      3  C   UNL     1      -8.043 -10.313  28.539  1.00  0.00     0.014 A 
ATOM      4  C   UNL     1      -7.885  -8.475  30.646  1.00  0.00     0.158 A 
ATOM      5  C   UNL     1      -9.073  -9.390  28.742  1.00  0.00     0.051 A 
ATOM      6  C   UNL     1      -8.998  -8.470  29.795  1.00  0.00     0.157 A 
ENDROOT
BRANCH   1   7
ATOM      7  C   UNL     1      -5.835 -11.307  29.167  1.00  0.00     0.072 C 
ATOM      8  O   UNL     1      -5.070 -11.638  30.113  1.00  0.00    -0.545 OA
ATOM      9  O   UNL     1      -5.641 -11.877  27.914  1.00  0.00    -0.545 OA
ENDBRANCH   1   7
BRANCH   4  10
ATOM     10  O   UNL     1      -7.814  -7.557  31.693  1.00  0.00    -0.504 OA
ATOM     11  H   UNL     1      -7.429  -6.629  31.560  1.00  0.00     0.293 HD
ENDBRANCH   4  10
BRANCH   6  12
ATOM     12  O   UNL     1     -10.022  -7.548  30.001  1.00  0.00    -0.504 OA
ATOM     13  H   UNL     1     -10.530  -7.506  30.877  1.00  0.00     0.293 HD
ENDBRANCH   6  12
TORSDOF 3
ENDMDL
MODEL 6
REMARK VINA RESULT:    -4.276      1.488      1.889
REMARK INTER + INTRA:          -4.813
REMARK INTER:                  -4.772
REMARK INTRA:                  -0.041
REMARK UNBOUND:                -0.038
REMARK SMILES O=C([O-])c1ccc(O)c(O)c1
REMARK SMILES IDX 4 1 11 2 5 3 9 4 6 5 7 6 2 7 1 8 3 9 10 10 8 12
REMARK H PARENT 10 11 8 13
REMARK Flexibility Score: inf
ROOT
ATOM      1  C   UNL     1      -6.862 -10.235  30.175  1.00  0.00     0.001 A 
ATOM      2  C   UNL     1      -7.917 -10.377  29.256  1.00  0.00     0.060 A 
ATOM      3  C   UNL     1      -6.824  -9.097  30.999  1.00  0.00     0.014 A 
ATOM      4  C   UNL     1      -8.918  -9.398  29.163  1.00  0.00     0.158 A 
ATOM      5  C   UNL     1      -7.820  -8.122  30.906  1.00  0.00     0.051 A 
ATOM      6  C   UNL     1      -8.868  -8.268  29.989  1.00  0.00     0.157 A 
ENDROOT
BRANCH   1   7
ATOM      7  C   UNL     1      -5.805 -11.265  30.277  1.00  0.00     0.072 C 
ATOM      8  O   UNL     1      -5.309 -11.566  31.396  1.00  0.00    -0.545 OA
ATOM      9  O   UNL     1      -5.344 -11.917  29.139  1.00  0.00    -0.545 OA
ENDBRANCH   1   7
BRANCH   4  10
ATOM     10  O   UNL     1      -9.963  -9.541  28.252  1.00  0.00    -0.504 OA
ATOM     11  H   UNL     1      -9.998  -8.999  27.396  1.00  0.00     0.293 HD
ENDBRANCH   4  10
BRANCH   6  12
ATOM     12  O   UNL     1      -9.864  -7.298  29.894  1.00  0.00    -0.504 OA
ATOM     13  H   UNL     1     -10.540  -7.304  29.139  1.00  0.00     0.293 HD
ENDBRANCH   6  12
TORSDOF 3
ENDMDL
MODEL 7
REMARK VINA RESULT:    -4.272      1.732      4.201
REMARK INTER + INTRA:          -4.809
REMARK INTER:                  -4.770
REMARK INTRA:                  -0.039
REMARK UNBOUND:                -0.038
REMARK SMILES O=C([O-])c1ccc(O)c(O)c1
REMARK SMILES IDX 4 1 11 2 5 3 9 4 6 5 7 6 2 7 1 8 3 9 10 10 8 12
REMARK H PARENT 10 11 8 13
REMARK Flexibility Score: inf
ROOT
ATOM      1  C   UNL     1      -8.577  -9.055  30.263  1.00  0.00     0.001 A 
ATOM      2  C   UNL     1      -7.772 -10.093  29.760  1.00  0.00     0.060 A 
ATOM      3  C   UNL     1      -9.555  -8.486  29.430  1.00  0.00     0.014 A 
ATOM      4  C   UNL     1      -7.945 -10.556  28.447  1.00  0.00     0.158 A 
ATOM      5  C   UNL     1      -9.727  -8.947  28.122  1.00  0.00     0.051 A 
ATOM      6  C   UNL     1      -8.923  -9.981  27.627  1.00  0.00     0.157 A 
ENDROOT
BRANCH   1   7
ATOM      7  C   UNL     1      -8.399  -8.564  31.647  1.00  0.00     0.072 C 
ATOM      8  O   UNL     1      -9.381  -8.494  32.434  1.00  0.00    -0.545 OA
ATOM      9  O   UNL     1      -7.144  -8.172  32.101  1.00  0.00    -0.545 OA
ENDBRANCH   1   7
BRANCH   4  10
ATOM     10  O   UNL     1      -7.147 -11.586  27.951  1.00  0.00    -0.504 OA
ATOM     11  H   UNL     1      -7.459 -12.180  27.192  1.00  0.00     0.293 HD
ENDBRANCH   4  10
BRANCH   6  12
ATOM     12  O   UNL     1      -9.091 -10.444  26.323  1.00  0.00    -0.504 OA
ATOM     13  H   UNL     1      -8.598 -11.261  25.983  1.00  0.00     0.293 HD
ENDBRANCH   6  12
TORSDOF 3
ENDMDL
MODEL 8
REMARK VINA RESULT:    -4.244      6.200      7.477
REMARK INTER + INTRA:          -4.778
REMARK INTER:                  -4.741
REMARK INTRA:                  -0.037
REMARK UNBOUND:                -0.038
REMARK SMILES O=C([O-])c1ccc(O)c(O)c1
REMARK SMILES IDX 4 1 11 2 5 3 9 4 6 5 7 6 2 7 1 8 3 9 10 10 8 12
REMARK H PARENT 10 11 8 13
REMARK Flexibility Score: inf
ROOT
ATOM      1  C   UNL     1      -7.114 -13.377  21.951  1.00  0.00     0.001 A 
ATOM      2  C   UNL     1      -7.409 -12.214  22.685  1.00  0.00     0.060 A 
ATOM      3  C   UNL     1      -8.150 -14.282  21.662  1.00  0.00     0.014 A 
ATOM      4  C   UNL     1      -8.718 -11.960  23.121  1.00  0.00     0.158 A 
ATOM      5  C   UNL     1      -9.453 -14.029  22.097  1.00  0.00     0.051 A 
ATOM      6  C   UNL     1      -9.742 -12.870  22.827  1.00  0.00     0.157 A 
ENDROOT
BRANCH   1   7
ATOM      7  C   UNL     1      -5.735 -13.649  21.489  1.00  0.00     0.072 C 
ATOM      8  O   UNL     1      -4.833 -13.962  22.312  1.00  0.00    -0.545 OA
ATOM      9  O   UNL     1      -5.414 -13.563  20.139  1.00  0.00    -0.545 OA
ENDBRANCH   1   7
BRANCH   4  10
ATOM     10  O   UNL     1      -9.009 -10.807  23.848  1.00  0.00    -0.504 OA
ATOM     11  H   UNL     1      -9.760 -10.184  23.576  1.00  0.00     0.293 HD
ENDBRANCH   4  10
BRANCH   6  12
ATOM     12  O   UNL     1     -11.040 -12.614  23.262  1.00  0.00    -0.504 OA
ATOM     13  H   UNL     1     -11.321 -11.694  23.581  1.00  0.00     0.293 HD
ENDBRANCH   6  12
TORSDOF 3
ENDMDL
MODEL 9
REMARK VINA RESULT:    -4.241      7.814      9.205
REMARK INTER + INTRA:          -4.775
REMARK INTER:                  -4.731
REMARK INTRA:                  -0.044
REMARK UNBOUND:                -0.038
REMARK SMILES O=C([O-])c1ccc(O)c(O)c1
REMARK SMILES IDX 4 1 11 2 5 3 9 4 6 5 7 6 2 7 1 8 3 9 10 10 8 12
REMARK H PARENT 10 11 8 13
REMARK Flexibility Score: inf
ROOT
ATOM      1  C   UNL     1      -9.492 -13.212  20.080  1.00  0.00     0.001 A 
ATOM      2  C   UNL     1     -10.245 -12.610  21.105  1.00  0.00     0.060 A 
ATOM      3  C   UNL     1      -8.795 -14.401  20.355  1.00  0.00     0.014 A 
ATOM      4  C   UNL     1     -10.301 -13.188  22.381  1.00  0.00     0.158 A 
ATOM      5  C   UNL     1      -8.850 -14.976  21.628  1.00  0.00     0.051 A 
ATOM      6  C   UNL     1      -9.601 -14.372  22.643  1.00  0.00     0.157 A 
ENDROOT
BRANCH   1   7
ATOM      7  C   UNL     1      -9.431 -12.606  18.732  1.00  0.00     0.072 C 
ATOM      8  O   UNL     1     -10.276 -11.740  18.379  1.00  0.00    -0.545 OA
ATOM      9  O   UNL     1      -8.439 -12.983  17.834  1.00  0.00    -0.545 OA
ENDBRANCH   1   7
BRANCH   4  10
ATOM     10  O   UNL     1     -11.048 -12.589  23.395  1.00  0.00    -0.504 OA
ATOM     11  H   UNL     1     -11.335 -13.107  24.218  1.00  0.00     0.293 HD
ENDBRANCH   4  10
BRANCH   6  12
ATOM     12  O   UNL     1      -9.659 -14.943  23.913  1.00  0.00    -0.504 OA
ATOM     13  H   UNL     1     -10.304 -14.605  24.618  1.00  0.00     0.293 HD
ENDBRANCH   6  12
TORSDOF 3
ENDMDL
