MODEL 1
REMARK VINA RESULT:    -4.016      0.000      0.000
REMARK INTER + INTRA:          -6.630
REMARK INTER:                  -6.128
REMARK INTRA:                  -0.502
REMARK UNBOUND:                -0.502
REMARK SMILES CCCCCCCCCCC(=O)[O-]
REMARK SMILES IDX 7 1 8 2 9 3 10 4 11 5 12 6 13 7 6 8 5 9 4 10 3 11 2 12 1 13
REMARK H PARENT
REMARK Flexibility Score: inf
ROOT
ATOM      1  C   UNL     1     -33.939 -52.041  26.494  1.00  0.00     0.000 C 
ENDROOT
BRANCH   1   2
ATOM      2  C   UNL     1     -34.935 -52.970  27.200  1.00  0.00     0.000 C 
BRANCH   2   3
ATOM      3  C   UNL     1     -35.128 -52.556  28.666  1.00  0.00     0.006 C 
BRANCH   3   4
ATOM      4  C   UNL     1     -34.894 -53.723  29.635  1.00  0.00     0.053 C 
BRANCH   4   5
ATOM      5  C   UNL     1     -35.792 -54.883  29.333  1.00  0.00     0.041 C 
ATOM      6  O   UNL     1     -37.040 -54.767  29.452  1.00  0.00    -0.550 OA
ATOM      7  O   UNL     1     -35.248 -56.103  28.953  1.00  0.00    -0.550 OA
ENDBRANCH   4   5
ENDBRANCH   3   4
ENDBRANCH   2   3
ENDBRANCH   1   2
BRANCH   1   8
ATOM      8  C   UNL     1     -34.085 -52.138  24.968  1.00  0.00     0.000 C 
BRANCH   8   9
ATOM      9  C   UNL     1     -34.871 -50.959  24.373  1.00  0.00    -0.000 C 
BRANCH   9  10
ATOM     10  C   UNL     1     -34.022 -49.681  24.256  1.00  0.00    -0.000 C 
BRANCH  10  11
ATOM     11  C   UNL     1     -33.573 -49.400  22.814  1.00  0.00    -0.000 C 
BRANCH  11  12
ATOM     12  C   UNL     1     -32.045 -49.335  22.673  1.00  0.00    -0.003 C 
ATOM     13  C   UNL     1     -31.429 -50.731  22.714  1.00  0.00     0.004 C 
ENDBRANCH  11  12
ENDBRANCH  10  11
ENDBRANCH   9  10
ENDBRANCH   8   9
ENDBRANCH   1   8
TORSDOF 9
ENDMDL
MODEL 2
REMARK VINA RESULT:    -3.962      9.716     11.102
REMARK INTER + INTRA:          -6.549
REMARK INTER:                  -5.299
REMARK INTRA:                  -1.250
REMARK UNBOUND:                -0.502
REMARK SMILES CCCCCCCCCCC(=O)[O-]
REMARK SMILES IDX 7 1 8 2 9 3 10 4 11 5 12 6 13 7 6 8 5 9 4 10 3 11 2 12 1 13
REMARK H PARENT
REMARK Flexibility Score: inf
ROOT
ATOM      1  C   UNL     1     -27.898 -52.374  31.640  1.00  0.00     0.000 C 
ENDROOT
BRANCH   1   2
ATOM      2  C   UNL     1     -27.225 -52.807  30.331  1.00  0.00     0.000 C 
BRANCH   2   3
ATOM      3  C   UNL     1     -26.088 -53.803  30.601  1.00  0.00     0.006 C 
BRANCH   3   4
ATOM      4  C   UNL     1     -25.436 -54.306  29.307  1.00  0.00     0.053 C 
BRANCH   4   5
ATOM      5  C   UNL     1     -24.600 -53.247  28.659  1.00  0.00     0.041 C 
ATOM      6  O   UNL     1     -24.808 -52.918  27.461  1.00  0.00    -0.550 OA
ATOM      7  O   UNL     1     -23.568 -52.644  29.368  1.00  0.00    -0.550 OA
ENDBRANCH   4   5
ENDBRANCH   3   4
ENDBRANCH   2   3
ENDBRANCH   1   2
BRANCH   1   8
ATOM      8  C   UNL     1     -27.390 -53.211  32.822  1.00  0.00     0.000 C 
BRANCH   8   9
ATOM      9  C   UNL     1     -26.960 -52.346  34.018  1.00  0.00    -0.000 C 
BRANCH   9  10
ATOM     10  C   UNL     1     -26.638 -50.896  33.613  1.00  0.00    -0.000 C 
BRANCH  10  11
ATOM     11  C   UNL     1     -25.128 -50.612  33.589  1.00  0.00    -0.000 C 
BRANCH  11  12
ATOM     12  C   UNL     1     -24.514 -50.799  32.194  1.00  0.00    -0.003 C 
ATOM     13  C   UNL     1     -25.155 -49.854  31.181  1.00  0.00     0.004 C 
ENDBRANCH  11  12
ENDBRANCH  10  11
ENDBRANCH   9  10
ENDBRANCH   8   9
ENDBRANCH   1   8
TORSDOF 9
ENDMDL
MODEL 3
REMARK VINA RESULT:    -3.935      4.508      7.656
REMARK INTER + INTRA:          -6.507
REMARK INTER:                  -6.156
REMARK INTRA:                  -0.351
REMARK UNBOUND:                -0.502
REMARK SMILES CCCCCCCCCCC(=O)[O-]
REMARK SMILES IDX 7 1 8 2 9 3 10 4 11 5 12 6 13 7 6 8 5 9 4 10 3 11 2 12 1 13
REMARK H PARENT
REMARK Flexibility Score: inf
ROOT
ATOM      1  C   UNL     1     -32.926 -53.101  31.594  1.00  0.00     0.000 C 
ENDROOT
BRANCH   1   2
ATOM      2  C   UNL     1     -33.740 -54.086  30.746  1.00  0.00     0.000 C 
BRANCH   2   3
ATOM      3  C   UNL     1     -33.309 -54.030  29.272  1.00  0.00     0.006 C 
BRANCH   3   4
ATOM      4  C   UNL     1     -34.509 -53.976  28.318  1.00  0.00     0.053 C 
BRANCH   4   5
ATOM      5  C   UNL     1     -35.499 -55.061  28.610  1.00  0.00     0.041 C 
ATOM      6  O   UNL     1     -36.676 -54.771  28.950  1.00  0.00    -0.550 OA
ATOM      7  O   UNL     1     -35.113 -56.393  28.538  1.00  0.00    -0.550 OA
ENDBRANCH   4   5
ENDBRANCH   3   4
ENDBRANCH   2   3
ENDBRANCH   1   2
BRANCH   1   8
ATOM      8  C   UNL     1     -33.157 -53.345  33.092  1.00  0.00     0.000 C 
BRANCH   8   9
ATOM      9  C   UNL     1     -31.916 -53.916  33.796  1.00  0.00    -0.000 C 
BRANCH   9  10
ATOM     10  C   UNL     1     -30.878 -52.832  34.137  1.00  0.00    -0.000 C 
BRANCH  10  11
ATOM     11  C   UNL     1     -29.439 -53.371  34.132  1.00  0.00    -0.000 C 
BRANCH  11  12
ATOM     12  C   UNL     1     -28.599 -52.798  32.982  1.00  0.00    -0.003 C 
ATOM     13  C   UNL     1     -27.328 -53.616  32.769  1.00  0.00     0.004 C 
ENDBRANCH  11  12
ENDBRANCH  10  11
ENDBRANCH   9  10
ENDBRANCH   8   9
ENDBRANCH   1   8
TORSDOF 9
ENDMDL
MODEL 4
REMARK VINA RESULT:    -3.896      9.441     10.847
REMARK INTER + INTRA:          -6.449
REMARK INTER:                  -5.837
REMARK INTRA:                  -0.611
REMARK UNBOUND:                -0.502
REMARK SMILES CCCCCCCCCCC(=O)[O-]
REMARK SMILES IDX 7 1 8 2 9 3 10 4 11 5 12 6 13 7 6 8 5 9 4 10 3 11 2 12 1 13
REMARK H PARENT
REMARK Flexibility Score: inf
ROOT
ATOM      1  C   UNL     1     -34.339 -45.597  32.960  1.00  0.00     0.000 C 
ENDROOT
BRANCH   1   2
ATOM      2  C   UNL     1     -34.024 -44.778  31.702  1.00  0.00     0.000 C 
BRANCH   2   3
ATOM      3  C   UNL     1     -35.247 -43.963  31.255  1.00  0.00     0.006 C 
BRANCH   3   4
ATOM      4  C   UNL     1     -35.383 -43.909  29.729  1.00  0.00     0.053 C 
BRANCH   4   5
ATOM      5  C   UNL     1     -36.051 -45.135  29.187  1.00  0.00     0.041 C 
ATOM      6  O   UNL     1     -35.793 -45.537  28.022  1.00  0.00    -0.550 OA
ATOM      7  O   UNL     1     -36.984 -45.816  29.958  1.00  0.00    -0.550 OA
ENDBRANCH   4   5
ENDBRANCH   3   4
ENDBRANCH   2   3
ENDBRANCH   1   2
BRANCH   1   8
ATOM      8  C   UNL     1     -33.400 -45.214  34.114  1.00  0.00     0.000 C 
BRANCH   8   9
ATOM      9  C   UNL     1     -32.698 -43.866  33.882  1.00  0.00    -0.000 C 
BRANCH   9  10
ATOM     10  C   UNL     1     -31.191 -43.924  34.190  1.00  0.00    -0.000 C 
BRANCH  10  11
ATOM     11  C   UNL     1     -30.730 -45.325  34.620  1.00  0.00    -0.000 C 
BRANCH  11  12
ATOM     12  C   UNL     1     -29.486 -45.797  33.854  1.00  0.00    -0.003 C 
ATOM     13  C   UNL     1     -28.583 -44.621  33.492  1.00  0.00     0.004 C 
ENDBRANCH  11  12
ENDBRANCH  10  11
ENDBRANCH   9  10
ENDBRANCH   8   9
ENDBRANCH   1   8
TORSDOF 9
ENDMDL
MODEL 5
REMARK VINA RESULT:    -3.868      3.564      6.846
REMARK INTER + INTRA:          -6.405
REMARK INTER:                  -5.571
REMARK INTRA:                  -0.835
REMARK UNBOUND:                -0.502
REMARK SMILES CCCCCCCCCCC(=O)[O-]
REMARK SMILES IDX 7 1 8 2 9 3 10 4 11 5 12 6 13 7 6 8 5 9 4 10 3 11 2 12 1 13
REMARK H PARENT
REMARK Flexibility Score: inf
ROOT
ATOM      1  C   UNL     1     -33.766 -51.831  27.273  1.00  0.00     0.000 C 
ENDROOT
BRANCH   1   2
ATOM      2  C   UNL     1     -34.504 -52.732  26.275  1.00  0.00     0.000 C 
BRANCH   2   3
ATOM      3  C   UNL     1     -34.516 -52.105  24.873  1.00  0.00     0.006 C 
BRANCH   3   4
ATOM      4  C   UNL     1     -33.616 -50.867  24.782  1.00  0.00     0.053 C 
BRANCH   4   5
ATOM      5  C   UNL     1     -34.078 -49.922  23.715  1.00  0.00     0.041 C 
ATOM      6  O   UNL     1     -33.285 -49.547  22.812  1.00  0.00    -0.550 OA
ATOM      7  O   UNL     1     -35.377 -49.430  23.737  1.00  0.00    -0.550 OA
ENDBRANCH   4   5
ENDBRANCH   3   4
ENDBRANCH   2   3
ENDBRANCH   1   2
BRANCH   1   8
ATOM      8  C   UNL     1     -33.003 -52.669  28.309  1.00  0.00     0.000 C 
BRANCH   8   9
ATOM      9  C   UNL     1     -33.562 -52.505  29.731  1.00  0.00    -0.000 C 
BRANCH   9  10
ATOM     10  C   UNL     1     -34.183 -53.803  30.276  1.00  0.00    -0.000 C 
BRANCH  10  11
ATOM     11  C   UNL     1     -34.021 -54.986  29.309  1.00  0.00    -0.000 C 
BRANCH  11  12
ATOM     12  C   UNL     1     -35.361 -55.646  28.953  1.00  0.00    -0.003 C 
ATOM     13  C   UNL     1     -36.501 -54.632  28.996  1.00  0.00     0.004 C 
ENDBRANCH  11  12
ENDBRANCH  10  11
ENDBRANCH   9  10
ENDBRANCH   8   9
ENDBRANCH   1   8
TORSDOF 9
ENDMDL
MODEL 6
REMARK VINA RESULT:    -3.868      7.605      9.632
REMARK INTER + INTRA:          -6.405
REMARK INTER:                  -5.651
REMARK INTRA:                  -0.754
REMARK UNBOUND:                -0.502
REMARK SMILES CCCCCCCCCCC(=O)[O-]
REMARK SMILES IDX 7 1 8 2 9 3 10 4 11 5 12 6 13 7 6 8 5 9 4 10 3 11 2 12 1 13
REMARK H PARENT
REMARK Flexibility Score: inf
ROOT
ATOM      1  C   UNL     1     -33.981 -46.816  26.096  1.00  0.00     0.000 C 
ENDROOT
BRANCH   1   2
ATOM      2  C   UNL     1     -34.877 -46.372  24.933  1.00  0.00     0.000 C 
BRANCH   2   3
ATOM      3  C   UNL     1     -34.040 -46.041  23.689  1.00  0.00     0.006 C 
BRANCH   3   4
ATOM      4  C   UNL     1     -32.743 -45.302  24.041  1.00  0.00     0.053 C 
BRANCH   4   5
ATOM      5  C   UNL     1     -32.980 -43.839  24.258  1.00  0.00     0.041 C 
ATOM      6  O   UNL     1     -32.982 -43.363  25.423  1.00  0.00    -0.550 OA
ATOM      7  O   UNL     1     -33.230 -43.007  23.174  1.00  0.00    -0.550 OA
ENDBRANCH   4   5
ENDBRANCH   3   4
ENDBRANCH   2   3
ENDBRANCH   1   2
BRANCH   1   8
ATOM      8  C   UNL     1     -34.479 -46.233  27.426  1.00  0.00     0.000 C 
BRANCH   8   9
ATOM      9  C   UNL     1     -35.597 -45.195  27.236  1.00  0.00    -0.000 C 
BRANCH   9  10
ATOM     10  C   UNL     1     -36.234 -44.762  28.568  1.00  0.00    -0.000 C 
BRANCH  10  11
ATOM     11  C   UNL     1     -35.382 -43.728  29.321  1.00  0.00    -0.000 C 
BRANCH  11  12
ATOM     12  C   UNL     1     -35.300 -44.017  30.827  1.00  0.00    -0.003 C 
ATOM     13  C   UNL     1     -34.032 -44.795  31.169  1.00  0.00     0.004 C 
ENDBRANCH  11  12
ENDBRANCH  10  11
ENDBRANCH   9  10
ENDBRANCH   8   9
ENDBRANCH   1   8
TORSDOF 9
ENDMDL
MODEL 7
REMARK VINA RESULT:    -3.845      3.934      7.004
REMARK INTER + INTRA:          -6.370
REMARK INTER:                  -5.701
REMARK INTRA:                  -0.670
REMARK UNBOUND:                -0.502
REMARK SMILES CCCCCCCCCCC(=O)[O-]
REMARK SMILES IDX 7 1 8 2 9 3 10 4 11 5 12 6 13 7 6 8 5 9 4 10 3 11 2 12 1 13
REMARK H PARENT
REMARK Flexibility Score: inf
ROOT
ATOM      1  C   UNL     1     -32.846 -52.036  29.430  1.00  0.00     0.000 C 
ENDROOT
BRANCH   1   2
ATOM      2  C   UNL     1     -34.297 -52.417  29.110  1.00  0.00     0.000 C 
BRANCH   2   3
ATOM      3  C   UNL     1     -34.361 -53.402  27.934  1.00  0.00     0.006 C 
BRANCH   3   4
ATOM      4  C   UNL     1     -35.729 -54.086  27.822  1.00  0.00     0.053 C 
BRANCH   4   5
ATOM      5  C   UNL     1     -36.028 -54.928  29.024  1.00  0.00     0.041 C 
ATOM      6  O   UNL     1     -35.237 -55.844  29.370  1.00  0.00    -0.550 OA
ATOM      7  O   UNL     1     -37.199 -54.723  29.743  1.00  0.00    -0.550 OA
ENDBRANCH   4   5
ENDBRANCH   3   4
ENDBRANCH   2   3
ENDBRANCH   1   2
BRANCH   1   8
ATOM      8  C   UNL     1     -32.559 -52.182  30.932  1.00  0.00     0.000 C 
BRANCH   8   9
ATOM      9  C   UNL     1     -33.262 -53.399  31.553  1.00  0.00    -0.000 C 
BRANCH   9  10
ATOM     10  C   UNL     1     -33.041 -53.497  33.073  1.00  0.00    -0.000 C 
BRANCH  10  11
ATOM     11  C   UNL     1     -32.443 -52.212  33.667  1.00  0.00    -0.000 C 
BRANCH  11  12
ATOM     12  C   UNL     1     -31.040 -52.430  34.252  1.00  0.00    -0.003 C 
ATOM     13  C   UNL     1     -30.669 -53.910  34.254  1.00  0.00     0.004 C 
ENDBRANCH  11  12
ENDBRANCH  10  11
ENDBRANCH   9  10
ENDBRANCH   8   9
ENDBRANCH   1   8
TORSDOF 9
ENDMDL
MODEL 8
REMARK VINA RESULT:    -3.837      1.181      1.932
REMARK INTER + INTRA:          -6.358
REMARK INTER:                  -5.897
REMARK INTRA:                  -0.461
REMARK UNBOUND:                -0.502
REMARK SMILES CCCCCCCCCCC(=O)[O-]
REMARK SMILES IDX 7 1 8 2 9 3 10 4 11 5 12 6 13 7 6 8 5 9 4 10 3 11 2 12 1 13
REMARK H PARENT
REMARK Flexibility Score: inf
ROOT
ATOM      1  C   UNL     1     -33.440 -51.510  26.389  1.00  0.00     0.000 C 
ENDROOT
BRANCH   1   2
ATOM      2  C   UNL     1     -33.672 -52.267  27.703  1.00  0.00     0.000 C 
BRANCH   2   3
ATOM      3  C   UNL     1     -34.898 -53.186  27.599  1.00  0.00     0.006 C 
BRANCH   3   4
ATOM      4  C   UNL     1     -35.643 -53.315  28.934  1.00  0.00     0.053 C 
BRANCH   4   5
ATOM      5  C   UNL     1     -36.170 -54.701  29.143  1.00  0.00     0.041 C 
ATOM      6  O   UNL     1     -37.248 -54.883  29.768  1.00  0.00    -0.550 OA
ATOM      7  O   UNL     1     -35.453 -55.796  28.677  1.00  0.00    -0.550 OA
ENDBRANCH   4   5
ENDBRANCH   3   4
ENDBRANCH   2   3
ENDBRANCH   1   2
BRANCH   1   8
ATOM      8  C   UNL     1     -34.283 -52.109  25.254  1.00  0.00     0.000 C 
BRANCH   8   9
ATOM      9  C   UNL     1     -34.775 -51.047  24.259  1.00  0.00    -0.000 C 
BRANCH   9  10
ATOM     10  C   UNL     1     -33.696 -49.999  23.931  1.00  0.00    -0.000 C 
BRANCH  10  11
ATOM     11  C   UNL     1     -34.218 -48.881  23.016  1.00  0.00    -0.000 C 
BRANCH  11  12
ATOM     12  C   UNL     1     -34.208 -47.506  23.700  1.00  0.00    -0.003 C 
ATOM     13  C   UNL     1     -35.539 -47.225  24.391  1.00  0.00     0.004 C 
ENDBRANCH  11  12
ENDBRANCH  10  11
ENDBRANCH   9  10
ENDBRANCH   8   9
ENDBRANCH   1   8
TORSDOF 9
ENDMDL
MODEL 9
REMARK VINA RESULT:    -3.798      6.834      8.188
REMARK INTER + INTRA:          -6.299
REMARK INTER:                  -5.146
REMARK INTRA:                  -1.153
REMARK UNBOUND:                -0.502
REMARK SMILES CCCCCCCCCCC(=O)[O-]
REMARK SMILES IDX 7 1 8 2 9 3 10 4 11 5 12 6 13 7 6 8 5 9 4 10 3 11 2 12 1 13
REMARK H PARENT
REMARK Flexibility Score: inf
ROOT
ATOM      1  C   UNL     1     -33.820 -46.490  24.697  1.00  0.00     0.000 C 
ENDROOT
BRANCH   1   2
ATOM      2  C   UNL     1     -35.244 -46.408  25.262  1.00  0.00     0.000 C 
BRANCH   2   3
ATOM      3  C   UNL     1     -35.221 -46.081  26.763  1.00  0.00     0.006 C 
BRANCH   3   4
ATOM      4  C   UNL     1     -36.032 -44.822  27.095  1.00  0.00     0.053 C 
BRANCH   4   5
ATOM      5  C   UNL     1     -36.061 -44.553  28.568  1.00  0.00     0.041 C 
ATOM      6  O   UNL     1     -36.779 -45.255  29.328  1.00  0.00    -0.550 OA
ATOM      7  O   UNL     1     -35.318 -43.506  29.099  1.00  0.00    -0.550 OA
ENDBRANCH   4   5
ENDBRANCH   3   4
ENDBRANCH   2   3
ENDBRANCH   1   2
BRANCH   1   8
ATOM      8  C   UNL     1     -33.436 -45.185  23.984  1.00  0.00     0.000 C 
BRANCH   8   9
ATOM      9  C   UNL     1     -32.348 -44.400  24.732  1.00  0.00    -0.000 C 
BRANCH   9  10
ATOM     10  C   UNL     1     -32.931 -43.392  25.738  1.00  0.00    -0.000 C 
BRANCH  10  11
ATOM     11  C   UNL     1     -32.266 -43.483  27.120  1.00  0.00    -0.000 C 
BRANCH  11  12
ATOM     12  C   UNL     1     -31.847 -44.917  27.478  1.00  0.00    -0.003 C 
ATOM     13  C   UNL     1     -30.384 -44.970  27.910  1.00  0.00     0.004 C 
ENDBRANCH  11  12
ENDBRANCH  10  11
ENDBRANCH   9  10
ENDBRANCH   8   9
ENDBRANCH   1   8
TORSDOF 9
ENDMDL
