MODEL 1
REMARK VINA RESULT:    11.541      0.000      0.000
REMARK INTER + INTRA:          11.541
REMARK INTER:                  11.541
REMARK INTRA:                   0.000
REMARK UNBOUND:                 0.000
REMARK SMILES CC1=CC[C@@]23C[C@@H]1C(C)(C)[C@H]2CC[C@@H]3C
REMARK SMILES IDX 15 1 14 2 13 3 12 4 11 5 5 6 4 7 3 8 2 9 7 10 6 11 8 12 9 13
REMARK SMILES IDX 10 14 1 15
REMARK H PARENT
REMARK Flexibility Score: inf
ROOT
ATOM      1  C   UNL     1     134.973 135.518 161.866  1.00  0.00     0.008 C 
ATOM      2  C   UNL     1     136.304 136.152 162.309  1.00  0.00    -0.007 C 
ATOM      3  C   UNL     1     137.263 136.429 161.106  1.00  0.00     0.004 C 
ATOM      4  C   UNL     1     137.360 137.966 160.924  1.00  0.00     0.005 C 
ATOM      5  C   UNL     1     136.190 138.452 161.753  1.00  0.00     0.002 C 
ATOM      6  C   UNL     1     136.158 137.541 162.969  1.00  0.00    -0.020 C 
ATOM      7  C   UNL     1     137.349 137.733 164.000  1.00  0.00     0.035 C 
ATOM      8  C   UNL     1     137.210 138.927 164.928  1.00  0.00    -0.027 C 
ATOM      9  C   UNL     1     136.186 139.791 164.799  1.00  0.00    -0.074 C 
ATOM     10  C   UNL     1     135.212 139.580 163.655  1.00  0.00     0.021 C 
ATOM     11  C   UNL     1     134.878 138.059 163.628  1.00  0.00     0.016 C 
ATOM     12  C   UNL     1     135.897 139.882 162.259  1.00  0.00    -0.025 C 
ATOM     13  C   UNL     1     134.876 140.594 161.340  1.00  0.00     0.012 C 
ATOM     14  C   UNL     1     137.174 140.760 162.302  1.00  0.00     0.012 C 
ATOM     15  C   UNL     1     136.034 140.943 165.752  1.00  0.00     0.039 C 
ENDROOT
TORSDOF 0
ENDMDL
MODEL 2
REMARK VINA RESULT:    11.862      1.166      3.017
REMARK INTER + INTRA:          11.862
REMARK INTER:                  11.862
REMARK INTRA:                   0.000
REMARK UNBOUND:                 0.000
REMARK SMILES CC1=CC[C@@]23C[C@@H]1C(C)(C)[C@H]2CC[C@@H]3C
REMARK SMILES IDX 15 1 14 2 13 3 12 4 11 5 5 6 4 7 3 8 2 9 7 10 6 11 8 12 9 13
REMARK SMILES IDX 10 14 1 15
REMARK H PARENT
REMARK Flexibility Score: inf
ROOT
ATOM      1  C   UNL     1     138.139 136.403 160.936  1.00  0.00     0.008 C 
ATOM      2  C   UNL     1     136.662 136.812 161.080  1.00  0.00    -0.007 C 
ATOM      3  C   UNL     1     135.825 135.754 161.871  1.00  0.00     0.004 C 
ATOM      4  C   UNL     1     135.440 136.384 163.236  1.00  0.00     0.005 C 
ATOM      5  C   UNL     1     136.372 137.574 163.304  1.00  0.00     0.002 C 
ATOM      6  C   UNL     1     136.437 138.112 161.883  1.00  0.00    -0.020 C 
ATOM      7  C   UNL     1     135.112 138.805 161.353  1.00  0.00     0.035 C 
ATOM      8  C   UNL     1     134.886 140.224 161.847  1.00  0.00    -0.027 C 
ATOM      9  C   UNL     1     135.720 140.788 162.739  1.00  0.00    -0.074 C 
ATOM     10  C   UNL     1     136.852 139.945 163.294  1.00  0.00     0.021 C 
ATOM     11  C   UNL     1     137.491 139.203 162.083  1.00  0.00     0.016 C 
ATOM     12  C   UNL     1     136.300 138.801 164.241  1.00  0.00    -0.025 C 
ATOM     13  C   UNL     1     137.261 138.633 165.443  1.00  0.00     0.012 C 
ATOM     14  C   UNL     1     134.875 139.017 164.813  1.00  0.00     0.012 C 
ATOM     15  C   UNL     1     135.512 142.208 163.187  1.00  0.00     0.039 C 
ENDROOT
TORSDOF 0
ENDMDL
MODEL 3
REMARK VINA RESULT:    13.680     13.117     14.781
REMARK INTER + INTRA:          13.680
REMARK INTER:                  13.680
REMARK INTRA:                   0.000
REMARK UNBOUND:                 0.000
REMARK SMILES CC1=CC[C@@]23C[C@@H]1C(C)(C)[C@H]2CC[C@@H]3C
REMARK SMILES IDX 15 1 14 2 13 3 12 4 11 5 5 6 4 7 3 8 2 9 7 10 6 11 8 12 9 13
REMARK SMILES IDX 10 14 1 15
REMARK H PARENT
REMARK Flexibility Score: inf
ROOT
ATOM      1  C   UNL     1     153.088 134.875 162.990  1.00  0.00     0.008 C 
ATOM      2  C   UNL     1     151.602 135.116 163.311  1.00  0.00    -0.007 C 
ATOM      3  C   UNL     1     151.382 136.373 164.214  1.00  0.00     0.004 C 
ATOM      4  C   UNL     1     150.683 137.456 163.351  1.00  0.00     0.005 C 
ATOM      5  C   UNL     1     150.886 136.918 161.951  1.00  0.00     0.002 C 
ATOM      6  C   UNL     1     150.724 135.412 162.075  1.00  0.00    -0.020 C 
ATOM      7  C   UNL     1     149.250 134.905 162.374  1.00  0.00     0.035 C 
ATOM      8  C   UNL     1     148.323 134.875 161.171  1.00  0.00    -0.027 C 
ATOM      9  C   UNL     1     148.726 135.338 159.973  1.00  0.00    -0.074 C 
ATOM     10  C   UNL     1     150.108 135.956 159.873  1.00  0.00     0.021 C 
ATOM     11  C   UNL     1     151.077 135.010 160.642  1.00  0.00     0.016 C 
ATOM     12  C   UNL     1     150.172 137.337 160.646  1.00  0.00    -0.025 C 
ATOM     13  C   UNL     1     151.042 138.328 159.836  1.00  0.00     0.012 C 
ATOM     14  C   UNL     1     148.812 138.030 160.920  1.00  0.00     0.012 C 
ATOM     15  C   UNL     1     147.816 135.262 158.780  1.00  0.00     0.039 C 
ENDROOT
TORSDOF 0
ENDMDL
MODEL 4
REMARK VINA RESULT:    14.451      1.151      3.805
REMARK INTER + INTRA:          14.451
REMARK INTER:                  14.451
REMARK INTRA:                   0.000
REMARK UNBOUND:                 0.000
REMARK SMILES CC1=CC[C@@]23C[C@@H]1C(C)(C)[C@H]2CC[C@@H]3C
REMARK SMILES IDX 15 1 14 2 13 3 12 4 11 5 5 6 4 7 3 8 2 9 7 10 6 11 8 12 9 13
REMARK SMILES IDX 10 14 1 15
REMARK H PARENT
REMARK Flexibility Score: inf
ROOT
ATOM      1  C   UNL     1     137.612 142.211 161.182  1.00  0.00     0.008 C 
ATOM      2  C   UNL     1     136.303 141.863 161.912  1.00  0.00    -0.007 C 
ATOM      3  C   UNL     1     135.155 141.474 160.924  1.00  0.00     0.004 C 
ATOM      4  C   UNL     1     134.875 139.958 161.100  1.00  0.00     0.005 C 
ATOM      5  C   UNL     1     136.097 139.504 161.870  1.00  0.00     0.002 C 
ATOM      6  C   UNL     1     136.400 140.633 162.842  1.00  0.00    -0.020 C 
ATOM      7  C   UNL     1     135.357 140.816 164.025  1.00  0.00     0.035 C 
ATOM      8  C   UNL     1     135.506 139.832 165.171  1.00  0.00    -0.027 C 
ATOM      9  C   UNL     1     136.407 138.833 165.115  1.00  0.00    -0.074 C 
ATOM     10  C   UNL     1     137.220 138.673 163.845  1.00  0.00     0.021 C 
ATOM     11  C   UNL     1     137.702 140.098 163.441  1.00  0.00     0.016 C 
ATOM     12  C   UNL     1     136.312 138.183 162.643  1.00  0.00    -0.025 C 
ATOM     13  C   UNL     1     137.109 137.168 161.789  1.00  0.00     0.012 C 
ATOM     14  C   UNL     1     134.970 137.509 163.033  1.00  0.00     0.012 C 
ATOM     15  C   UNL     1     136.576 137.892 166.274  1.00  0.00     0.039 C 
ENDROOT
TORSDOF 0
ENDMDL
