MODEL 1
REMARK VINA RESULT:    -3.283      0.000      0.000
REMARK INTER + INTRA:          -3.496
REMARK INTER:                  -3.475
REMARK INTRA:                  -0.021
REMARK UNBOUND:                -0.021
REMARK SMILES O=C([O-])c1cccnc1
REMARK SMILES IDX 4 1 5 2 9 3 6 4 8 5 7 6 2 7 1 8 3 9
REMARK H PARENT
REMARK Flexibility Score: inf
ROOT
ATOM      1  C   UNL     1      13.288  14.247  37.140  1.00  0.00     0.016 A 
ATOM      2  C   UNL     1      14.166  13.217  36.760  1.00  0.00     0.013 A 
ATOM      3  C   UNL     1      13.764  15.568  37.130  1.00  0.00     0.120 A 
ATOM      4  C   UNL     1      15.476  13.516  36.384  1.00  0.00     0.021 A 
ATOM      5  N   UNL     1      15.046  15.833  36.758  1.00  0.00    -0.264 NA
ATOM      6  C   UNL     1      15.903  14.845  36.389  1.00  0.00     0.111 A 
ENDROOT
BRANCH   1   7
ATOM      7  C   UNL     1      11.896  13.950  37.543  1.00  0.00     0.073 C 
ATOM      8  O   UNL     1      11.334  14.623  38.448  1.00  0.00    -0.545 OA
ATOM      9  O   UNL     1      11.188  12.926  36.926  1.00  0.00    -0.545 OA
ENDBRANCH   1   7
TORSDOF 1
ENDMDL
MODEL 2
REMARK VINA RESULT:    -3.235      0.953      1.940
REMARK INTER + INTRA:          -3.445
REMARK INTER:                  -3.426
REMARK INTRA:                  -0.020
REMARK UNBOUND:                -0.021
REMARK SMILES O=C([O-])c1cccnc1
REMARK SMILES IDX 4 1 5 2 9 3 6 4 8 5 7 6 2 7 1 8 3 9
REMARK H PARENT
REMARK Flexibility Score: inf
ROOT
ATOM      1  C   UNL     1      13.487  14.229  37.116  1.00  0.00     0.016 A 
ATOM      2  C   UNL     1      13.992  15.541  37.100  1.00  0.00     0.013 A 
ATOM      3  C   UNL     1      14.332  13.183  36.708  1.00  0.00     0.120 A 
ATOM      4  C   UNL     1      15.304  15.782  36.687  1.00  0.00     0.021 A 
ATOM      5  N   UNL     1      15.606  13.445  36.311  1.00  0.00    -0.264 NA
ATOM      6  C   UNL     1      16.105  14.709  36.292  1.00  0.00     0.111 A 
ENDROOT
BRANCH   1   7
ATOM      7  C   UNL     1      12.100  13.953  37.549  1.00  0.00     0.073 C 
ATOM      8  O   UNL     1      11.381  13.137  36.913  1.00  0.00    -0.545 OA
ATOM      9  O   UNL     1      11.572  14.590  38.666  1.00  0.00    -0.545 OA
ENDBRANCH   1   7
TORSDOF 1
ENDMDL
MODEL 3
REMARK VINA RESULT:    -3.235     15.979     16.302
REMARK INTER + INTRA:          -3.445
REMARK INTER:                  -3.429
REMARK INTRA:                  -0.016
REMARK UNBOUND:                -0.021
REMARK SMILES O=C([O-])c1cccnc1
REMARK SMILES IDX 4 1 5 2 9 3 6 4 8 5 7 6 2 7 1 8 3 9
REMARK H PARENT
REMARK Flexibility Score: inf
ROOT
ATOM      1  C   UNL     1       7.071  19.094  22.819  1.00  0.00     0.016 A 
ATOM      2  C   UNL     1       7.176  19.453  24.173  1.00  0.00     0.013 A 
ATOM      3  C   UNL     1       8.253  18.931  22.078  1.00  0.00     0.120 A 
ATOM      4  C   UNL     1       8.432  19.639  24.754  1.00  0.00     0.021 A 
ATOM      5  N   UNL     1       9.465  19.118  22.668  1.00  0.00    -0.264 NA
ATOM      6  C   UNL     1       9.577  19.465  23.977  1.00  0.00     0.111 A 
ENDROOT
BRANCH   1   7
ATOM      7  C   UNL     1       5.750  18.892  22.184  1.00  0.00     0.073 C 
ATOM      8  O   UNL     1       5.157  17.784  22.280  1.00  0.00    -0.545 OA
ATOM      9  O   UNL     1       5.145  19.923  21.475  1.00  0.00    -0.545 OA
ENDBRANCH   1   7
TORSDOF 1
ENDMDL
MODEL 4
REMARK VINA RESULT:    -3.220      2.883      3.711
REMARK INTER + INTRA:          -3.429
REMARK INTER:                  -3.412
REMARK INTRA:                  -0.017
REMARK UNBOUND:                -0.021
REMARK SMILES O=C([O-])c1cccnc1
REMARK SMILES IDX 4 1 5 2 9 3 6 4 8 5 7 6 2 7 1 8 3 9
REMARK H PARENT
REMARK Flexibility Score: inf
ROOT
ATOM      1  C   UNL     1      14.356  15.046  36.690  1.00  0.00     0.016 A 
ATOM      2  C   UNL     1      13.613  13.930  37.110  1.00  0.00     0.013 A 
ATOM      3  C   UNL     1      13.873  16.327  37.006  1.00  0.00     0.120 A 
ATOM      4  C   UNL     1      12.425  14.106  37.824  1.00  0.00     0.021 A 
ATOM      5  N   UNL     1      12.714  16.472  37.704  1.00  0.00    -0.264 NA
ATOM      6  C   UNL     1      11.988  15.399  38.114  1.00  0.00     0.111 A 
ENDROOT
BRANCH   1   7
ATOM      7  C   UNL     1      15.616  14.881  35.933  1.00  0.00     0.073 C 
ATOM      8  O   UNL     1      15.696  15.257  34.733  1.00  0.00    -0.545 OA
ATOM      9  O   UNL     1      16.730  14.309  36.536  1.00  0.00    -0.545 OA
ENDBRANCH   1   7
TORSDOF 1
ENDMDL
MODEL 5
REMARK VINA RESULT:    -3.143     17.237     17.505
REMARK INTER + INTRA:          -3.348
REMARK INTER:                  -3.332
REMARK INTRA:                  -0.016
REMARK UNBOUND:                -0.021
REMARK SMILES O=C([O-])c1cccnc1
REMARK SMILES IDX 4 1 5 2 9 3 6 4 8 5 7 6 2 7 1 8 3 9
REMARK H PARENT
REMARK Flexibility Score: inf
ROOT
ATOM      1  C   UNL     1       5.239  19.357  22.323  1.00  0.00     0.016 A 
ATOM      2  C   UNL     1       5.919  18.128  22.374  1.00  0.00     0.013 A 
ATOM      3  C   UNL     1       5.940  20.523  22.671  1.00  0.00     0.120 A 
ATOM      4  C   UNL     1       7.259  18.084  22.763  1.00  0.00     0.021 A 
ATOM      5  N   UNL     1       7.246  20.453  23.046  1.00  0.00    -0.264 NA
ATOM      6  C   UNL     1       7.913  19.270  23.099  1.00  0.00     0.111 A 
ENDROOT
BRANCH   1   7
ATOM      7  C   UNL     1       3.819  19.424  21.913  1.00  0.00     0.073 C 
ATOM      8  O   UNL     1       2.902  19.402  22.777  1.00  0.00    -0.545 OA
ATOM      9  O   UNL     1       3.477  19.514  20.569  1.00  0.00    -0.545 OA
ENDBRANCH   1   7
TORSDOF 1
ENDMDL
MODEL 6
REMARK VINA RESULT:    -3.135     14.676     14.965
REMARK INTER + INTRA:          -3.339
REMARK INTER:                  -3.323
REMARK INTRA:                  -0.016
REMARK UNBOUND:                -0.021
REMARK SMILES O=C([O-])c1cccnc1
REMARK SMILES IDX 4 1 5 2 9 3 6 4 8 5 7 6 2 7 1 8 3 9
REMARK H PARENT
REMARK Flexibility Score: inf
ROOT
ATOM      1  C   UNL     1       7.789  19.377  24.657  1.00  0.00     0.016 A 
ATOM      2  C   UNL     1       6.837  18.945  23.718  1.00  0.00     0.013 A 
ATOM      3  C   UNL     1       9.111  19.577  24.224  1.00  0.00     0.120 A 
ATOM      4  C   UNL     1       7.211  18.725  22.390  1.00  0.00     0.021 A 
ATOM      5  N   UNL     1       9.449  19.356  22.925  1.00  0.00    -0.264 NA
ATOM      6  C   UNL     1       8.536  18.938  22.009  1.00  0.00     0.111 A 
ENDROOT
BRANCH   1   7
ATOM      7  C   UNL     1       7.413  19.616  26.067  1.00  0.00     0.073 C 
ATOM      8  O   UNL     1       7.622  18.734  26.943  1.00  0.00    -0.545 OA
ATOM      9  O   UNL     1       6.825  20.817  26.446  1.00  0.00    -0.545 OA
ENDBRANCH   1   7
TORSDOF 1
ENDMDL
MODEL 7
REMARK VINA RESULT:    -3.057     14.648     15.055
REMARK INTER + INTRA:          -3.256
REMARK INTER:                  -3.233
REMARK INTRA:                  -0.023
REMARK UNBOUND:                -0.021
REMARK SMILES O=C([O-])c1cccnc1
REMARK SMILES IDX 4 1 5 2 9 3 6 4 8 5 7 6 2 7 1 8 3 9
REMARK H PARENT
REMARK Flexibility Score: inf
ROOT
ATOM      1  C   UNL     1       8.200  19.295  23.897  1.00  0.00     0.016 A 
ATOM      2  C   UNL     1       7.343  19.297  25.011  1.00  0.00     0.013 A 
ATOM      3  C   UNL     1       9.574  19.495  24.111  1.00  0.00     0.120 A 
ATOM      4  C   UNL     1       7.861  19.494  26.293  1.00  0.00     0.021 A 
ATOM      5  N   UNL     1      10.053  19.684  25.370  1.00  0.00    -0.264 NA
ATOM      6  C   UNL     1       9.233  19.688  26.454  1.00  0.00     0.111 A 
ENDROOT
BRANCH   1   7
ATOM      7  C   UNL     1       7.672  19.089  22.531  1.00  0.00     0.073 C 
ATOM      8  O   UNL     1       8.456  18.907  21.562  1.00  0.00    -0.545 OA
ATOM      9  O   UNL     1       6.301  19.092  22.298  1.00  0.00    -0.545 OA
ENDBRANCH   1   7
TORSDOF 1
ENDMDL
MODEL 8
REMARK VINA RESULT:    -3.048     15.031     15.442
REMARK INTER + INTRA:          -3.247
REMARK INTER:                  -3.224
REMARK INTRA:                  -0.023
REMARK UNBOUND:                -0.021
REMARK SMILES O=C([O-])c1cccnc1
REMARK SMILES IDX 4 1 5 2 9 3 6 4 8 5 7 6 2 7 1 8 3 9
REMARK H PARENT
REMARK Flexibility Score: inf
ROOT
ATOM      1  C   UNL     1       9.348  19.254  23.704  1.00  0.00     0.016 A 
ATOM      2  C   UNL     1       8.422  19.613  24.698  1.00  0.00     0.013 A 
ATOM      3  C   UNL     1       8.862  18.898  22.435  1.00  0.00     0.120 A 
ATOM      4  C   UNL     1       7.054  19.609  24.415  1.00  0.00     0.021 A 
ATOM      5  N   UNL     1       7.525  18.903  22.185  1.00  0.00    -0.264 NA
ATOM      6  C   UNL     1       6.620  19.248  23.140  1.00  0.00     0.111 A 
ENDROOT
BRANCH   1   7
ATOM      7  C   UNL     1      10.801  19.251  23.983  1.00  0.00     0.073 C 
ATOM      8  O   UNL     1      11.268  19.904  24.954  1.00  0.00    -0.545 OA
ATOM      9  O   UNL     1      11.671  18.526  23.177  1.00  0.00    -0.545 OA
ENDBRANCH   1   7
TORSDOF 1
ENDMDL
MODEL 9
REMARK VINA RESULT:    -3.038     12.453     12.843
REMARK INTER + INTRA:          -3.236
REMARK INTER:                  -3.218
REMARK INTRA:                  -0.019
REMARK UNBOUND:                -0.021
REMARK SMILES O=C([O-])c1cccnc1
REMARK SMILES IDX 4 1 5 2 9 3 6 4 8 5 7 6 2 7 1 8 3 9
REMARK H PARENT
REMARK Flexibility Score: inf
ROOT
ATOM      1  C   UNL     1      11.536  19.369  25.447  1.00  0.00     0.016 A 
ATOM      2  C   UNL     1      10.992  18.849  26.634  1.00  0.00     0.013 A 
ATOM      3  C   UNL     1      12.759  20.056  25.518  1.00  0.00     0.120 A 
ATOM      4  C   UNL     1      11.663  19.021  27.847  1.00  0.00     0.021 A 
ATOM      5  N   UNL     1      13.393  20.208  26.712  1.00  0.00    -0.264 NA
ATOM      6  C   UNL     1      12.876  19.710  27.865  1.00  0.00     0.111 A 
ENDROOT
BRANCH   1   7
ATOM      7  C   UNL     1      10.841  19.198  24.153  1.00  0.00     0.073 C 
ATOM      8  O   UNL     1      11.448  18.717  23.158  1.00  0.00    -0.545 OA
ATOM      9  O   UNL     1       9.507  19.565  24.016  1.00  0.00    -0.545 OA
ENDBRANCH   1   7
TORSDOF 1
ENDMDL
