MODEL 1
REMARK VINA RESULT:    -4.426      0.000      0.000
REMARK INTER + INTRA:         -11.593
REMARK INTER:                  -9.600
REMARK INTRA:                  -1.993
REMARK UNBOUND:                -1.993
REMARK SMILES CCCCCCCCCCCCCCCCCCCCCC(=O)[O-]
REMARK SMILES IDX 12 1 11 2 10 3 9 4 8 5 7 6 6 7 5 8 4 9 3 10 2 11 1 12 13 13
REMARK SMILES IDX 14 14 15 15 16 16 17 17 18 18 19 19 20 20 21 21 22 22 23 23
REMARK SMILES IDX 24 24
REMARK H PARENT
REMARK Flexibility Score: inf
ROOT
ATOM      1  C   UNL     1      -2.859 -10.376   6.604  1.00  0.00     0.000 C 
ENDROOT
BRANCH   1   2
ATOM      2  C   UNL     1      -3.017  -8.851   6.699  1.00  0.00     0.000 C 
BRANCH   2   3
ATOM      3  C   UNL     1      -1.717  -8.136   7.108  1.00  0.00     0.000 C 
BRANCH   3   4
ATOM      4  C   UNL     1      -0.431  -8.721   6.495  1.00  0.00    -0.000 C 
BRANCH   4   5
ATOM      5  C   UNL     1       0.745  -8.749   7.482  1.00  0.00    -0.000 C 
BRANCH   5   6
ATOM      6  C   UNL     1       0.243  -8.883   8.928  1.00  0.00    -0.000 C 
BRANCH   6   7
ATOM      7  C   UNL     1      -0.005 -10.344   9.338  1.00  0.00    -0.000 C 
BRANCH   7   8
ATOM      8  C   UNL     1       0.870 -11.336   8.551  1.00  0.00    -0.000 C 
BRANCH   8   9
ATOM      9  C   UNL     1       0.039 -12.318   7.709  1.00  0.00    -0.000 C 
BRANCH   9  10
ATOM     10  C   UNL     1       0.467 -12.343   6.232  1.00  0.00    -0.000 C 
BRANCH  10  11
ATOM     11  C   UNL     1       1.003 -13.716   5.797  1.00  0.00    -0.003 C 
ATOM     12  C   UNL     1       2.528 -13.803   5.859  1.00  0.00     0.004 C 
ENDBRANCH  10  11
ENDBRANCH   9  10
ENDBRANCH   8   9
ENDBRANCH   7   8
ENDBRANCH   6   7
ENDBRANCH   5   6
ENDBRANCH   4   5
ENDBRANCH   3   4
ENDBRANCH   2   3
ENDBRANCH   1   2
BRANCH   1  13
ATOM     13  C   UNL     1      -3.921 -11.093   7.446  1.00  0.00     0.000 C 
BRANCH  13  14
ATOM     14  C   UNL     1      -4.091 -12.548   6.994  1.00  0.00     0.000 C 
BRANCH  14  15
ATOM     15  C   UNL     1      -5.415 -12.738   6.238  1.00  0.00     0.000 C 
BRANCH  15  16
ATOM     16  C   UNL     1      -6.481 -11.707   6.645  1.00  0.00     0.000 C 
BRANCH  16  17
ATOM     17  C   UNL     1      -7.792 -11.872   5.859  1.00  0.00     0.000 C 
BRANCH  17  18
ATOM     18  C   UNL     1      -8.677 -10.618   5.924  1.00  0.00     0.000 C 
BRANCH  18  19
ATOM     19  C   UNL     1      -8.889  -9.975   4.542  1.00  0.00     0.000 C 
BRANCH  19  20
ATOM     20  C   UNL     1      -9.841 -10.781   3.641  1.00  0.00     0.006 C 
BRANCH  20  21
ATOM     21  C   UNL     1      -9.325 -10.973   2.204  1.00  0.00     0.053 C 
BRANCH  21  22
ATOM     22  C   UNL     1     -10.284 -11.744   1.347  1.00  0.00     0.041 C 
ATOM     23  O   UNL     1      -9.870 -12.691   0.627  1.00  0.00    -0.550 OA
ATOM     24  O   UNL     1     -11.628 -11.396   1.317  1.00  0.00    -0.550 OA
ENDBRANCH  21  22
ENDBRANCH  20  21
ENDBRANCH  19  20
ENDBRANCH  18  19
ENDBRANCH  17  18
ENDBRANCH  16  17
ENDBRANCH  15  16
ENDBRANCH  14  15
ENDBRANCH  13  14
ENDBRANCH   1  13
TORSDOF 20
ENDMDL
MODEL 2
REMARK VINA RESULT:    -4.376      1.184      3.319
REMARK INTER + INTRA:         -11.486
REMARK INTER:                  -9.175
REMARK INTRA:                  -2.311
REMARK UNBOUND:                -1.993
REMARK SMILES CCCCCCCCCCCCCCCCCCCCCC(=O)[O-]
REMARK SMILES IDX 12 1 11 2 10 3 9 4 8 5 7 6 6 7 5 8 4 9 3 10 2 11 1 12 13 13
REMARK SMILES IDX 14 14 15 15 16 16 17 17 18 18 19 19 20 20 21 21 22 22 23 23
REMARK SMILES IDX 24 24
REMARK H PARENT
REMARK Flexibility Score: inf
ROOT
ATOM      1  C   UNL     1      -3.492 -13.079   7.261  1.00  0.00     0.000 C 
ENDROOT
BRANCH   1   2
ATOM      2  C   UNL     1      -1.983 -13.102   6.976  1.00  0.00     0.000 C 
BRANCH   2   3
ATOM      3  C   UNL     1      -1.625 -12.552   5.584  1.00  0.00     0.000 C 
BRANCH   3   4
ATOM      4  C   UNL     1      -0.300 -11.770   5.514  1.00  0.00    -0.000 C 
BRANCH   4   5
ATOM      5  C   UNL     1       0.670 -12.132   6.647  1.00  0.00    -0.000 C 
BRANCH   5   6
ATOM      6  C   UNL     1       1.229 -10.866   7.315  1.00  0.00    -0.000 C 
BRANCH   6   7
ATOM      7  C   UNL     1       0.418  -9.605   6.969  1.00  0.00    -0.000 C 
BRANCH   7   8
ATOM      8  C   UNL     1      -0.354  -9.049   8.178  1.00  0.00    -0.000 C 
BRANCH   8   9
ATOM      9  C   UNL     1      -1.751  -9.673   8.325  1.00  0.00    -0.000 C 
BRANCH   9  10
ATOM     10  C   UNL     1      -2.699  -9.284   7.178  1.00  0.00    -0.000 C 
BRANCH  10  11
ATOM     11  C   UNL     1      -2.658  -7.780   6.865  1.00  0.00    -0.003 C 
ATOM     12  C   UNL     1      -2.381  -7.488   5.391  1.00  0.00     0.004 C 
ENDBRANCH  10  11
ENDBRANCH   9  10
ENDBRANCH   8   9
ENDBRANCH   7   8
ENDBRANCH   6   7
ENDBRANCH   5   6
ENDBRANCH   4   5
ENDBRANCH   3   4
ENDBRANCH   2   3
ENDBRANCH   1   2
BRANCH   1  13
ATOM     13  C   UNL     1      -4.266 -12.479   6.081  1.00  0.00     0.000 C 
BRANCH  13  14
ATOM     14  C   UNL     1      -5.771 -12.732   6.224  1.00  0.00     0.000 C 
BRANCH  14  15
ATOM     15  C   UNL     1      -6.320 -12.073   7.498  1.00  0.00     0.000 C 
BRANCH  15  16
ATOM     16  C   UNL     1      -7.786 -11.633   7.351  1.00  0.00     0.000 C 
BRANCH  16  17
ATOM     17  C   UNL     1      -8.197 -11.428   5.883  1.00  0.00     0.000 C 
BRANCH  17  18
ATOM     18  C   UNL     1      -9.365 -10.441   5.732  1.00  0.00     0.000 C 
BRANCH  18  19
ATOM     19  C   UNL     1      -9.247  -9.578   4.465  1.00  0.00     0.000 C 
BRANCH  19  20
ATOM     20  C   UNL     1      -9.360 -10.395   3.165  1.00  0.00     0.006 C 
BRANCH  20  21
ATOM     21  C   UNL     1     -10.737 -11.052   2.961  1.00  0.00     0.053 C 
BRANCH  21  22
ATOM     22  C   UNL     1     -10.886 -11.662   1.600  1.00  0.00     0.041 C 
ATOM     23  O   UNL     1     -11.988 -11.596   0.994  1.00  0.00    -0.550 OA
ATOM     24  O   UNL     1      -9.820 -12.333   1.014  1.00  0.00    -0.550 OA
ENDBRANCH  21  22
ENDBRANCH  20  21
ENDBRANCH  19  20
ENDBRANCH  18  19
ENDBRANCH  17  18
ENDBRANCH  16  17
ENDBRANCH  15  16
ENDBRANCH  14  15
ENDBRANCH  13  14
ENDBRANCH   1  13
TORSDOF 20
ENDMDL
MODEL 3
REMARK VINA RESULT:    -4.351     12.620     15.604
REMARK INTER + INTRA:         -11.432
REMARK INTER:                  -7.379
REMARK INTRA:                  -4.053
REMARK UNBOUND:                -1.993
REMARK SMILES CCCCCCCCCCCCCCCCCCCCCC(=O)[O-]
REMARK SMILES IDX 12 1 11 2 10 3 9 4 8 5 7 6 6 7 5 8 4 9 3 10 2 11 1 12 13 13
REMARK SMILES IDX 14 14 15 15 16 16 17 17 18 18 19 19 20 20 21 21 22 22 23 23
REMARK SMILES IDX 24 24
REMARK H PARENT
REMARK Flexibility Score: inf
ROOT
ATOM      1  C   UNL     1      -8.721   1.126   4.291  1.00  0.00     0.000 C 
ENDROOT
BRANCH   1   2
ATOM      2  C   UNL     1      -7.407   1.761   4.771  1.00  0.00     0.000 C 
BRANCH   2   3
ATOM      3  C   UNL     1      -7.602   3.163   5.376  1.00  0.00     0.000 C 
BRANCH   3   4
ATOM      4  C   UNL     1      -9.065   3.635   5.466  1.00  0.00    -0.000 C 
BRANCH   4   5
ATOM      5  C   UNL     1      -9.479   4.040   6.889  1.00  0.00    -0.000 C 
BRANCH   5   6
ATOM      6  C   UNL     1     -10.948   3.679   7.155  1.00  0.00    -0.000 C 
BRANCH   6   7
ATOM      7  C   UNL     1     -11.537   2.751   6.079  1.00  0.00    -0.000 C 
BRANCH   7   8
ATOM      8  C   UNL     1     -12.638   1.829   6.632  1.00  0.00    -0.000 C 
BRANCH   8   9
ATOM      9  C   UNL     1     -12.875   2.028   8.137  1.00  0.00    -0.000 C 
BRANCH   9  10
ATOM     10  C   UNL     1     -12.933   0.700   8.910  1.00  0.00    -0.000 C 
BRANCH  10  11
ATOM     11  C   UNL     1     -12.730   0.889  10.422  1.00  0.00    -0.003 C 
ATOM     12  C   UNL     1     -11.384   1.527  10.764  1.00  0.00     0.004 C 
ENDBRANCH  10  11
ENDBRANCH   9  10
ENDBRANCH   8   9
ENDBRANCH   7   8
ENDBRANCH   6   7
ENDBRANCH   5   6
ENDBRANCH   4   5
ENDBRANCH   3   4
ENDBRANCH   2   3
ENDBRANCH   1   2
BRANCH   1  13
ATOM     13  C   UNL     1      -8.482  -0.286   3.743  1.00  0.00     0.000 C 
BRANCH  13  14
ATOM     14  C   UNL     1      -9.430  -1.298   4.396  1.00  0.00     0.000 C 
BRANCH  14  15
ATOM     15  C   UNL     1     -10.171  -0.669   5.585  1.00  0.00     0.000 C 
BRANCH  15  16
ATOM     16  C   UNL     1      -9.478  -0.948   6.928  1.00  0.00     0.000 C 
BRANCH  16  17
ATOM     17  C   UNL     1      -9.462   0.281   7.853  1.00  0.00     0.000 C 
BRANCH  17  18
ATOM     18  C   UNL     1      -8.168   0.382   8.675  1.00  0.00     0.000 C 
BRANCH  18  19
ATOM     19  C   UNL     1      -7.968   1.777   9.290  1.00  0.00     0.000 C 
BRANCH  19  20
ATOM     20  C   UNL     1      -6.696   2.483   8.786  1.00  0.00     0.006 C 
BRANCH  20  21
ATOM     21  C   UNL     1      -5.505   1.535   8.563  1.00  0.00     0.053 C 
BRANCH  21  22
ATOM     22  C   UNL     1      -4.577   2.020   7.491  1.00  0.00     0.041 C 
ATOM     23  O   UNL     1      -3.980   1.196   6.749  1.00  0.00    -0.550 OA
ATOM     24  O   UNL     1      -4.343   3.380   7.332  1.00  0.00    -0.550 OA
ENDBRANCH  21  22
ENDBRANCH  20  21
ENDBRANCH  19  20
ENDBRANCH  18  19
ENDBRANCH  17  18
ENDBRANCH  16  17
ENDBRANCH  15  16
ENDBRANCH  14  15
ENDBRANCH  13  14
ENDBRANCH   1  13
TORSDOF 20
ENDMDL
MODEL 4
REMARK VINA RESULT:    -4.347      1.073      1.890
REMARK INTER + INTRA:         -11.423
REMARK INTER:                  -8.457
REMARK INTRA:                  -2.966
REMARK UNBOUND:                -1.993
REMARK SMILES CCCCCCCCCCCCCCCCCCCCCC(=O)[O-]
REMARK SMILES IDX 12 1 11 2 10 3 9 4 8 5 7 6 6 7 5 8 4 9 3 10 2 11 1 12 13 13
REMARK SMILES IDX 14 14 15 15 16 16 17 17 18 18 19 19 20 20 21 21 22 22 23 23
REMARK SMILES IDX 24 24
REMARK H PARENT
REMARK Flexibility Score: inf
ROOT
ATOM      1  C   UNL     1      -2.823  -9.198   6.769  1.00  0.00     0.000 C 
ENDROOT
BRANCH   1   2
ATOM      2  C   UNL     1      -1.637  -8.254   7.019  1.00  0.00     0.000 C 
BRANCH   2   3
ATOM      3  C   UNL     1      -0.289  -8.853   6.579  1.00  0.00     0.000 C 
BRANCH   3   4
ATOM      4  C   UNL     1       0.852  -8.709   7.604  1.00  0.00    -0.000 C 
BRANCH   4   5
ATOM      5  C   UNL     1       0.352  -8.660   9.055  1.00  0.00    -0.000 C 
BRANCH   5   6
ATOM      6  C   UNL     1       0.567 -10.011   9.754  1.00  0.00    -0.000 C 
BRANCH   6   7
ATOM      7  C   UNL     1      -0.624 -10.968   9.575  1.00  0.00    -0.000 C 
BRANCH   7   8
ATOM      8  C   UNL     1      -0.239 -12.258   8.829  1.00  0.00    -0.000 C 
BRANCH   8   9
ATOM      9  C   UNL     1       1.256 -12.311   8.473  1.00  0.00    -0.000 C 
BRANCH   9  10
ATOM     10  C   UNL     1       1.518 -12.986   7.116  1.00  0.00    -0.000 C 
BRANCH  10  11
ATOM     11  C   UNL     1       0.635 -12.415   5.995  1.00  0.00    -0.003 C 
ATOM     12  C   UNL     1      -0.162 -13.494   5.261  1.00  0.00     0.004 C 
ENDBRANCH  10  11
ENDBRANCH   9  10
ENDBRANCH   8   9
ENDBRANCH   7   8
ENDBRANCH   6   7
ENDBRANCH   5   6
ENDBRANCH   4   5
ENDBRANCH   3   4
ENDBRANCH   2   3
ENDBRANCH   1   2
BRANCH   1  13
ATOM     13  C   UNL     1      -2.346 -10.544   6.210  1.00  0.00     0.000 C 
BRANCH  13  14
ATOM     14  C   UNL     1      -3.254 -11.687   6.679  1.00  0.00     0.000 C 
BRANCH  14  15
ATOM     15  C   UNL     1      -4.017 -11.296   7.953  1.00  0.00     0.000 C 
BRANCH  15  16
ATOM     16  C   UNL     1      -5.391 -11.978   8.052  1.00  0.00     0.000 C 
BRANCH  16  17
ATOM     17  C   UNL     1      -6.164 -11.946   6.724  1.00  0.00     0.000 C 
BRANCH  17  18
ATOM     18  C   UNL     1      -7.634 -11.539   6.909  1.00  0.00     0.000 C 
BRANCH  18  19
ATOM     19  C   UNL     1      -8.413 -11.521   5.583  1.00  0.00     0.000 C 
BRANCH  19  20
ATOM     20  C   UNL     1      -9.172 -10.203   5.346  1.00  0.00     0.006 C 
BRANCH  20  21
ATOM     21  C   UNL     1      -9.229  -9.773   3.870  1.00  0.00     0.053 C 
BRANCH  21  22
ATOM     22  C   UNL     1      -9.944 -10.770   3.009  1.00  0.00     0.041 C 
ATOM     23  O   UNL     1     -11.115 -11.132   3.298  1.00  0.00    -0.550 OA
ATOM     24  O   UNL     1      -9.307 -11.326   1.906  1.00  0.00    -0.550 OA
ENDBRANCH  21  22
ENDBRANCH  20  21
ENDBRANCH  19  20
ENDBRANCH  18  19
ENDBRANCH  17  18
ENDBRANCH  16  17
ENDBRANCH  15  16
ENDBRANCH  14  15
ENDBRANCH  13  14
ENDBRANCH   1  13
TORSDOF 20
ENDMDL
MODEL 5
REMARK VINA RESULT:    -4.327     12.866     15.576
REMARK INTER + INTRA:         -11.380
REMARK INTER:                  -7.613
REMARK INTRA:                  -3.767
REMARK UNBOUND:                -1.993
REMARK SMILES CCCCCCCCCCCCCCCCCCCCCC(=O)[O-]
REMARK SMILES IDX 12 1 11 2 10 3 9 4 8 5 7 6 6 7 5 8 4 9 3 10 2 11 1 12 13 13
REMARK SMILES IDX 14 14 15 15 16 16 17 17 18 18 19 19 20 20 21 21 22 22 23 23
REMARK SMILES IDX 24 24
REMARK H PARENT
REMARK Flexibility Score: inf
ROOT
ATOM      1  C   UNL     1      -9.021  -0.258   8.786  1.00  0.00     0.000 C 
ENDROOT
BRANCH   1   2
ATOM      2  C   UNL     1      -9.409  -0.023  10.253  1.00  0.00     0.000 C 
BRANCH   2   3
ATOM      3  C   UNL     1     -10.831  -0.511  10.585  1.00  0.00     0.000 C 
BRANCH   3   4
ATOM      4  C   UNL     1     -11.912   0.586  10.584  1.00  0.00    -0.000 C 
BRANCH   4   5
ATOM      5  C   UNL     1     -13.125   0.233   9.712  1.00  0.00    -0.000 C 
BRANCH   5   6
ATOM      6  C   UNL     1     -13.258   1.215   8.537  1.00  0.00    -0.000 C 
BRANCH   6   7
ATOM      7  C   UNL     1     -13.221   0.514   7.169  1.00  0.00    -0.000 C 
BRANCH   7   8
ATOM      8  C   UNL     1     -12.052   0.994   6.290  1.00  0.00    -0.000 C 
BRANCH   8   9
ATOM      9  C   UNL     1     -11.108  -0.149   5.885  1.00  0.00    -0.000 C 
BRANCH   9  10
ATOM     10  C   UNL     1     -10.279   0.183   4.632  1.00  0.00    -0.000 C 
BRANCH  10  11
ATOM     11  C   UNL     1      -9.230  -0.896   4.319  1.00  0.00    -0.003 C 
ATOM     12  C   UNL     1      -8.194  -0.435   3.295  1.00  0.00     0.004 C 
ENDBRANCH  10  11
ENDBRANCH   9  10
ENDBRANCH   8   9
ENDBRANCH   7   8
ENDBRANCH   6   7
ENDBRANCH   5   6
ENDBRANCH   4   5
ENDBRANCH   3   4
ENDBRANCH   2   3
ENDBRANCH   1   2
BRANCH   1  13
ATOM     13  C   UNL     1      -8.666   1.063   8.093  1.00  0.00     0.000 C 
BRANCH  13  14
ATOM     14  C   UNL     1      -8.933   2.258   9.016  1.00  0.00     0.000 C 
BRANCH  14  15
ATOM     15  C   UNL     1     -10.078   3.127   8.472  1.00  0.00     0.000 C 
BRANCH  15  16
ATOM     16  C   UNL     1      -9.575   4.279   7.586  1.00  0.00     0.000 C 
BRANCH  16  17
ATOM     17  C   UNL     1     -10.080   4.174   6.138  1.00  0.00     0.000 C 
BRANCH  17  18
ATOM     18  C   UNL     1      -9.144   3.342   5.248  1.00  0.00     0.000 C 
BRANCH  18  19
ATOM     19  C   UNL     1      -7.703   3.881   5.242  1.00  0.00     0.000 C 
BRANCH  19  20
ATOM     20  C   UNL     1      -6.666   2.834   5.688  1.00  0.00     0.006 C 
BRANCH  20  21
ATOM     21  C   UNL     1      -5.854   3.250   6.928  1.00  0.00     0.053 C 
BRANCH  21  22
ATOM     22  C   UNL     1      -5.125   2.098   7.550  1.00  0.00     0.041 C 
ATOM     23  O   UNL     1      -5.289   1.829   8.769  1.00  0.00    -0.550 OA
ATOM     24  O   UNL     1      -4.240   1.341   6.793  1.00  0.00    -0.550 OA
ENDBRANCH  21  22
ENDBRANCH  20  21
ENDBRANCH  19  20
ENDBRANCH  18  19
ENDBRANCH  17  18
ENDBRANCH  16  17
ENDBRANCH  15  16
ENDBRANCH  14  15
ENDBRANCH  13  14
ENDBRANCH   1  13
TORSDOF 20
ENDMDL
MODEL 6
REMARK VINA RESULT:    -4.289     12.602     15.838
REMARK INTER + INTRA:         -11.297
REMARK INTER:                  -7.350
REMARK INTRA:                  -3.947
REMARK UNBOUND:                -1.993
REMARK SMILES CCCCCCCCCCCCCCCCCCCCCC(=O)[O-]
REMARK SMILES IDX 12 1 11 2 10 3 9 4 8 5 7 6 6 7 5 8 4 9 3 10 2 11 1 12 13 13
REMARK SMILES IDX 14 14 15 15 16 16 17 17 18 18 19 19 20 20 21 21 22 22 23 23
REMARK SMILES IDX 24 24
REMARK H PARENT
REMARK Flexibility Score: inf
ROOT
ATOM      1  C   UNL     1      -9.490  -0.979   4.873  1.00  0.00     0.000 C 
ENDROOT
BRANCH   1   2
ATOM      2  C   UNL     1      -9.610   0.262   3.975  1.00  0.00     0.000 C 
BRANCH   2   3
ATOM      3  C   UNL     1     -10.712   1.233   4.436  1.00  0.00     0.000 C 
BRANCH   3   4
ATOM      4  C   UNL     1     -10.231   2.661   4.752  1.00  0.00    -0.000 C 
BRANCH   4   5
ATOM      5  C   UNL     1      -8.895   2.690   5.508  1.00  0.00    -0.000 C 
BRANCH   5   6
ATOM      6  C   UNL     1      -9.003   3.552   6.775  1.00  0.00    -0.000 C 
BRANCH   6   7
ATOM      7  C   UNL     1     -10.437   4.041   7.042  1.00  0.00    -0.000 C 
BRANCH   7   8
ATOM      8  C   UNL     1     -10.862   3.854   8.509  1.00  0.00    -0.000 C 
BRANCH   8   9
ATOM      9  C   UNL     1     -12.232   3.171   8.645  1.00  0.00    -0.000 C 
BRANCH   9  10
ATOM     10  C   UNL     1     -12.625   2.373   7.390  1.00  0.00    -0.000 C 
BRANCH  10  11
ATOM     11  C   UNL     1     -13.140   0.965   7.727  1.00  0.00    -0.003 C 
ATOM     12  C   UNL     1     -13.781   0.266   6.528  1.00  0.00     0.004 C 
ENDBRANCH  10  11
ENDBRANCH   9  10
ENDBRANCH   8   9
ENDBRANCH   7   8
ENDBRANCH   6   7
ENDBRANCH   5   6
ENDBRANCH   4   5
ENDBRANCH   3   4
ENDBRANCH   2   3
ENDBRANCH   1   2
BRANCH   1  13
ATOM     13  C   UNL     1     -10.253  -0.782   6.188  1.00  0.00     0.000 C 
BRANCH  13  14
ATOM     14  C   UNL     1      -9.307  -0.872   7.392  1.00  0.00     0.000 C 
BRANCH  14  15
ATOM     15  C   UNL     1      -9.547   0.290   8.367  1.00  0.00     0.000 C 
BRANCH  15  16
ATOM     16  C   UNL     1      -8.253   0.769   9.046  1.00  0.00     0.000 C 
BRANCH  16  17
ATOM     17  C   UNL     1      -8.522   1.627  10.293  1.00  0.00     0.000 C 
BRANCH  17  18
ATOM     18  C   UNL     1      -7.733   2.946  10.280  1.00  0.00     0.000 C 
BRANCH  18  19
ATOM     19  C   UNL     1      -6.230   2.735  10.529  1.00  0.00     0.000 C 
BRANCH  19  20
ATOM     20  C   UNL     1      -5.358   3.126   9.322  1.00  0.00     0.006 C 
BRANCH  20  21
ATOM     21  C   UNL     1      -4.347   2.043   8.906  1.00  0.00     0.053 C 
BRANCH  21  22
ATOM     22  C   UNL     1      -4.524   1.607   7.483  1.00  0.00     0.041 C 
ATOM     23  O   UNL     1      -3.666   0.865   6.936  1.00  0.00    -0.550 OA
ATOM     24  O   UNL     1      -5.618   2.046   6.749  1.00  0.00    -0.550 OA
ENDBRANCH  21  22
ENDBRANCH  20  21
ENDBRANCH  19  20
ENDBRANCH  18  19
ENDBRANCH  17  18
ENDBRANCH  16  17
ENDBRANCH  15  16
ENDBRANCH  14  15
ENDBRANCH  13  14
ENDBRANCH   1  13
TORSDOF 20
ENDMDL
MODEL 7
REMARK VINA RESULT:    -4.243      5.624      9.170
REMARK INTER + INTRA:         -11.197
REMARK INTER:                  -7.231
REMARK INTRA:                  -3.966
REMARK UNBOUND:                -1.993
REMARK SMILES CCCCCCCCCCCCCCCCCCCCCC(=O)[O-]
REMARK SMILES IDX 12 1 11 2 10 3 9 4 8 5 7 6 6 7 5 8 4 9 3 10 2 11 1 12 13 13
REMARK SMILES IDX 14 14 15 15 16 16 17 17 18 18 19 19 20 20 21 21 22 22 23 23
REMARK SMILES IDX 24 24
REMARK H PARENT
REMARK Flexibility Score: inf
ROOT
ATOM      1  C   UNL     1      -1.644  -9.428   6.347  1.00  0.00     0.000 C 
ENDROOT
BRANCH   1   2
ATOM      2  C   UNL     1      -2.824  -8.991   7.227  1.00  0.00     0.000 C 
BRANCH   2   3
ATOM      3  C   UNL     1      -3.180 -10.023   8.312  1.00  0.00     0.000 C 
BRANCH   3   4
ATOM      4  C   UNL     1      -2.152 -10.151   9.452  1.00  0.00    -0.000 C 
BRANCH   4   5
ATOM      5  C   UNL     1      -1.647 -11.587   9.646  1.00  0.00    -0.000 C 
BRANCH   5   6
ATOM      6  C   UNL     1      -2.652 -12.602   9.079  1.00  0.00    -0.000 C 
BRANCH   6   7
ATOM      7  C   UNL     1      -1.967 -13.805   8.408  1.00  0.00    -0.000 C 
BRANCH   7   8
ATOM      8  C   UNL     1      -2.624 -14.188   7.071  1.00  0.00    -0.000 C 
BRANCH   8   9
ATOM      9  C   UNL     1      -2.306 -13.188   5.948  1.00  0.00    -0.000 C 
BRANCH   9  10
ATOM     10  C   UNL     1      -3.551 -12.428   5.460  1.00  0.00    -0.000 C 
BRANCH  10  11
ATOM     11  C   UNL     1      -4.859 -13.048   5.977  1.00  0.00    -0.003 C 
ATOM     12  C   UNL     1      -5.771 -12.027   6.656  1.00  0.00     0.004 C 
ENDBRANCH  10  11
ENDBRANCH   9  10
ENDBRANCH   8   9
ENDBRANCH   7   8
ENDBRANCH   6   7
ENDBRANCH   5   6
ENDBRANCH   4   5
ENDBRANCH   3   4
ENDBRANCH   2   3
ENDBRANCH   1   2
BRANCH   1  13
ATOM     13  C   UNL     1      -0.418  -8.539   6.590  1.00  0.00     0.000 C 
BRANCH  13  14
ATOM     14  C   UNL     1       0.791  -9.377   7.022  1.00  0.00     0.000 C 
BRANCH  14  15
ATOM     15  C   UNL     1       0.536 -10.873   6.786  1.00  0.00     0.000 C 
BRANCH  15  16
ATOM     16  C   UNL     1       1.482 -11.770   7.602  1.00  0.00     0.000 C 
BRANCH  16  17
ATOM     17  C   UNL     1       1.316 -13.262   7.268  1.00  0.00     0.000 C 
BRANCH  17  18
ATOM     18  C   UNL     1       1.250 -13.523   5.755  1.00  0.00     0.000 C 
BRANCH  18  19
ATOM     19  C   UNL     1       2.349 -14.487   5.276  1.00  0.00     0.000 C 
BRANCH  19  20
ATOM     20  C   UNL     1       3.510 -14.624   6.277  1.00  0.00     0.006 C 
BRANCH  20  21
ATOM     21  C   UNL     1       4.744 -13.776   5.920  1.00  0.00     0.053 C 
BRANCH  21  22
ATOM     22  C   UNL     1       5.045 -12.737   6.957  1.00  0.00     0.041 C 
ATOM     23  O   UNL     1       4.768 -12.950   8.167  1.00  0.00    -0.550 OA
ATOM     24  O   UNL     1       5.600 -11.519   6.585  1.00  0.00    -0.550 OA
ENDBRANCH  21  22
ENDBRANCH  20  21
ENDBRANCH  19  20
ENDBRANCH  18  19
ENDBRANCH  17  18
ENDBRANCH  16  17
ENDBRANCH  15  16
ENDBRANCH  14  15
ENDBRANCH  13  14
ENDBRANCH   1  13
TORSDOF 20
ENDMDL
MODEL 8
REMARK VINA RESULT:    -4.243      5.449      8.355
REMARK INTER + INTRA:         -11.197
REMARK INTER:                  -7.447
REMARK INTRA:                  -3.750
REMARK UNBOUND:                -1.993
REMARK SMILES CCCCCCCCCCCCCCCCCCCCCC(=O)[O-]
REMARK SMILES IDX 12 1 11 2 10 3 9 4 8 5 7 6 6 7 5 8 4 9 3 10 2 11 1 12 13 13
REMARK SMILES IDX 14 14 15 15 16 16 17 17 18 18 19 19 20 20 21 21 22 22 23 23
REMARK SMILES IDX 24 24
REMARK H PARENT
REMARK Flexibility Score: inf
ROOT
ATOM      1  C   UNL     1      -2.679  -9.363   6.647  1.00  0.00     0.000 C 
ENDROOT
BRANCH   1   2
ATOM      2  C   UNL     1      -1.591  -8.338   6.999  1.00  0.00     0.000 C 
BRANCH   2   3
ATOM      3  C   UNL     1      -0.199  -8.734   6.474  1.00  0.00     0.000 C 
BRANCH   3   4
ATOM      4  C   UNL     1       0.903  -8.813   7.546  1.00  0.00    -0.000 C 
BRANCH   4   5
ATOM      5  C   UNL     1       0.355  -8.717   8.978  1.00  0.00    -0.000 C 
BRANCH   5   6
ATOM      6  C   UNL     1       0.461 -10.071   9.696  1.00  0.00    -0.000 C 
BRANCH   6   7
ATOM      7  C   UNL     1      -0.893 -10.790   9.813  1.00  0.00    -0.000 C 
BRANCH   7   8
ATOM      8  C   UNL     1      -2.009  -9.867  10.335  1.00  0.00    -0.000 C 
BRANCH   8   9
ATOM      9  C   UNL     1      -3.415 -10.423  10.059  1.00  0.00    -0.000 C 
BRANCH   9  10
ATOM     10  C   UNL     1      -3.564 -11.895  10.481  1.00  0.00    -0.000 C 
BRANCH  10  11
ATOM     11  C   UNL     1      -4.541 -12.668   9.583  1.00  0.00    -0.003 C 
ATOM     12  C   UNL     1      -5.427 -11.749   8.742  1.00  0.00     0.004 C 
ENDBRANCH  10  11
ENDBRANCH   9  10
ENDBRANCH   8   9
ENDBRANCH   7   8
ENDBRANCH   6   7
ENDBRANCH   5   6
ENDBRANCH   4   5
ENDBRANCH   3   4
ENDBRANCH   2   3
ENDBRANCH   1   2
BRANCH   1  13
ATOM     13  C   UNL     1      -2.081 -10.571   5.916  1.00  0.00     0.000 C 
BRANCH  13  14
ATOM     14  C   UNL     1      -2.343 -11.868   6.690  1.00  0.00     0.000 C 
BRANCH  14  15
ATOM     15  C   UNL     1      -1.137 -12.815   6.599  1.00  0.00     0.000 C 
BRANCH  15  16
ATOM     16  C   UNL     1      -0.450 -12.768   5.225  1.00  0.00     0.000 C 
BRANCH  16  17
ATOM     17  C   UNL     1       0.035 -14.150   4.758  1.00  0.00     0.000 C 
BRANCH  17  18
ATOM     18  C   UNL     1       1.089 -14.752   5.700  1.00  0.00     0.000 C 
BRANCH  18  19
ATOM     19  C   UNL     1       2.527 -14.450   5.244  1.00  0.00     0.000 C 
BRANCH  19  20
ATOM     20  C   UNL     1       3.361 -13.728   6.318  1.00  0.00     0.006 C 
BRANCH  20  21
ATOM     21  C   UNL     1       2.569 -12.681   7.121  1.00  0.00     0.053 C 
BRANCH  21  22
ATOM     22  C   UNL     1       2.457 -13.035   8.573  1.00  0.00     0.041 C 
ATOM     23  O   UNL     1       1.380 -13.501   9.031  1.00  0.00    -0.550 OA
ATOM     24  O   UNL     1       3.530 -12.820   9.430  1.00  0.00    -0.550 OA
ENDBRANCH  21  22
ENDBRANCH  20  21
ENDBRANCH  19  20
ENDBRANCH  18  19
ENDBRANCH  17  18
ENDBRANCH  16  17
ENDBRANCH  15  16
ENDBRANCH  14  15
ENDBRANCH  13  14
ENDBRANCH   1  13
TORSDOF 20
ENDMDL
MODEL 9
REMARK VINA RESULT:    -4.204     12.677     16.007
REMARK INTER + INTRA:         -11.113
REMARK INTER:                  -6.865
REMARK INTRA:                  -4.249
REMARK UNBOUND:                -1.993
REMARK SMILES CCCCCCCCCCCCCCCCCCCCCC(=O)[O-]
REMARK SMILES IDX 12 1 11 2 10 3 9 4 8 5 7 6 6 7 5 8 4 9 3 10 2 11 1 12 13 13
REMARK SMILES IDX 14 14 15 15 16 16 17 17 18 18 19 19 20 20 21 21 22 22 23 23
REMARK SMILES IDX 24 24
REMARK H PARENT
REMARK Flexibility Score: inf
ROOT
ATOM      1  C   UNL     1      -8.497  -0.115   8.884  1.00  0.00     0.000 C 
ENDROOT
BRANCH   1   2
ATOM      2  C   UNL     1      -9.119   0.319   7.549  1.00  0.00     0.000 C 
BRANCH   2   3
ATOM      3  C   UNL     1      -9.750  -0.851   6.772  1.00  0.00     0.000 C 
BRANCH   3   4
ATOM      4  C   UNL     1      -9.629  -0.755   5.240  1.00  0.00    -0.000 C 
BRANCH   4   5
ATOM      5  C   UNL     1      -9.402   0.681   4.745  1.00  0.00    -0.000 C 
BRANCH   5   6
ATOM      6  C   UNL     1     -10.736   1.352   4.383  1.00  0.00    -0.000 C 
BRANCH   6   7
ATOM      7  C   UNL     1     -10.998   2.631   5.197  1.00  0.00    -0.000 C 
BRANCH   7   8
ATOM      8  C   UNL     1     -11.926   2.387   6.400  1.00  0.00    -0.000 C 
BRANCH   8   9
ATOM      9  C   UNL     1     -12.778   1.117   6.241  1.00  0.00    -0.000 C 
BRANCH   9  10
ATOM     10  C   UNL     1     -13.252   0.549   7.589  1.00  0.00    -0.000 C 
BRANCH  10  11
ATOM     11  C   UNL     1     -12.501   1.161   8.783  1.00  0.00    -0.003 C 
ATOM     12  C   UNL     1     -12.561   0.284  10.033  1.00  0.00     0.004 C 
ENDBRANCH  10  11
ENDBRANCH   9  10
ENDBRANCH   8   9
ENDBRANCH   7   8
ENDBRANCH   6   7
ENDBRANCH   5   6
ENDBRANCH   4   5
ENDBRANCH   3   4
ENDBRANCH   2   3
ENDBRANCH   1   2
BRANCH   1  13
ATOM     13  C   UNL     1      -8.395   1.069   9.854  1.00  0.00     0.000 C 
BRANCH  13  14
ATOM     14  C   UNL     1      -9.091   2.310   9.282  1.00  0.00     0.000 C 
BRANCH  14  15
ATOM     15  C   UNL     1      -8.507   3.596   9.888  1.00  0.00     0.000 C 
BRANCH  15  16
ATOM     16  C   UNL     1      -8.333   4.713   8.847  1.00  0.00     0.000 C 
BRANCH  16  17
ATOM     17  C   UNL     1      -8.936   4.347   7.480  1.00  0.00     0.000 C 
BRANCH  17  18
ATOM     18  C   UNL     1      -7.934   4.525   6.329  1.00  0.00     0.000 C 
BRANCH  18  19
ATOM     19  C   UNL     1      -7.118   3.250   6.056  1.00  0.00     0.000 C 
BRANCH  19  20
ATOM     20  C   UNL     1      -5.725   3.274   6.709  1.00  0.00     0.006 C 
BRANCH  20  21
ATOM     21  C   UNL     1      -5.521   2.190   7.782  1.00  0.00     0.053 C 
BRANCH  21  22
ATOM     22  C   UNL     1      -4.097   1.732   7.872  1.00  0.00     0.041 C 
ATOM     23  O   UNL     1      -3.271   2.366   8.582  1.00  0.00    -0.550 OA
ATOM     24  O   UNL     1      -3.671   0.625   7.148  1.00  0.00    -0.550 OA
ENDBRANCH  21  22
ENDBRANCH  20  21
ENDBRANCH  19  20
ENDBRANCH  18  19
ENDBRANCH  17  18
ENDBRANCH  16  17
ENDBRANCH  15  16
ENDBRANCH  14  15
ENDBRANCH  13  14
ENDBRANCH   1  13
TORSDOF 20
ENDMDL
