MODEL 1
REMARK VINA RESULT:    -4.963      0.000      0.000
REMARK INTER + INTRA:          -6.411
REMARK INTER:                  -6.124
REMARK INTRA:                  -0.287
REMARK UNBOUND:                -0.287
REMARK SMILES C=CCc1ccc(OC)c(OC)c1
REMARK SMILES IDX 7 1 10 2 13 3 4 4 5 5 6 6 8 7 9 8 11 9 12 10 3 11 2 12 1 13
REMARK H PARENT
REMARK Flexibility Score: inf
ROOT
ATOM      1  C   UNL     1       2.239 -19.778  -3.269  1.00  0.00     0.160 A 
ATOM      2  C   UNL     1       3.080 -20.210  -4.306  1.00  0.00     0.160 A 
ATOM      3  C   UNL     1       2.526 -20.873  -5.420  1.00  0.00     0.054 A 
ATOM      4  C   UNL     1       1.146 -21.112  -5.495  1.00  0.00    -0.040 A 
ATOM      5  C   UNL     1       0.314 -20.669  -4.460  1.00  0.00     0.008 A 
ATOM      6  C   UNL     1       0.854 -20.011  -3.353  1.00  0.00     0.051 A 
ENDROOT
BRANCH   1   7
ATOM      7  O   UNL     1       2.819 -19.120  -2.172  1.00  0.00    -0.493 OA
ATOM      8  C   UNL     1       2.743 -17.716  -1.940  1.00  0.00     0.278 C 
ENDBRANCH   1   7
BRANCH   2   9
ATOM      9  O   UNL     1       4.456 -19.959  -4.197  1.00  0.00    -0.493 OA
ATOM     10  C   UNL     1       5.432 -20.940  -3.861  1.00  0.00     0.278 C 
ENDBRANCH   2   9
BRANCH   4  11
ATOM     11  C   UNL     1       0.561 -21.797  -6.702  1.00  0.00     0.062 C 
BRANCH  11  12
ATOM     12  C   UNL     1       1.507 -21.721  -7.868  1.00  0.00    -0.030 C 
ATOM     13  C   UNL     1       1.261 -20.938  -8.922  1.00  0.00     0.004 C 
ENDBRANCH  11  12
ENDBRANCH   4  11
TORSDOF 4
ENDMDL
MODEL 2
REMARK VINA RESULT:    -4.708      2.980      4.768
REMARK INTER + INTRA:          -6.096
REMARK INTER:                  -5.829
REMARK INTRA:                  -0.267
REMARK UNBOUND:                -0.287
REMARK SMILES C=CCc1ccc(OC)c(OC)c1
REMARK SMILES IDX 7 1 10 2 13 3 4 4 5 5 6 6 8 7 9 8 11 9 12 10 3 11 2 12 1 13
REMARK H PARENT
REMARK Flexibility Score: inf
ROOT
ATOM      1  C   UNL     1       1.042 -21.477  -6.820  1.00  0.00     0.160 A 
ATOM      2  C   UNL     1       1.316 -20.657  -5.715  1.00  0.00     0.160 A 
ATOM      3  C   UNL     1       2.410 -19.770  -5.761  1.00  0.00     0.054 A 
ATOM      4  C   UNL     1       3.231 -19.708  -6.897  1.00  0.00    -0.040 A 
ATOM      5  C   UNL     1       2.944 -20.523  -7.999  1.00  0.00     0.008 A 
ATOM      6  C   UNL     1       1.862 -21.405  -7.962  1.00  0.00     0.051 A 
ENDROOT
BRANCH   1   7
ATOM      7  O   UNL     1      -0.055 -22.352  -6.746  1.00  0.00    -0.493 OA
ATOM      8  C   UNL     1       0.041 -23.742  -6.450  1.00  0.00     0.278 C 
ENDBRANCH   1   7
BRANCH   2   9
ATOM      9  O   UNL     1       0.477 -20.748  -4.594  1.00  0.00    -0.493 OA
ATOM     10  C   UNL     1       0.521 -19.863  -3.479  1.00  0.00     0.278 C 
ENDBRANCH   2   9
BRANCH   4  11
ATOM     11  C   UNL     1       4.381 -18.736  -6.948  1.00  0.00     0.062 C 
BRANCH  11  12
ATOM     12  C   UNL     1       5.572 -19.355  -7.624  1.00  0.00    -0.030 C 
ATOM     13  C   UNL     1       6.121 -18.812  -8.713  1.00  0.00     0.004 C 
ENDBRANCH  11  12
ENDBRANCH   4  11
TORSDOF 4
ENDMDL
MODEL 3
REMARK VINA RESULT:    -4.658      1.917      2.267
REMARK INTER + INTRA:          -6.035
REMARK INTER:                  -5.848
REMARK INTRA:                  -0.187
REMARK UNBOUND:                -0.287
REMARK SMILES C=CCc1ccc(OC)c(OC)c1
REMARK SMILES IDX 7 1 10 2 13 3 4 4 5 5 6 6 8 7 9 8 11 9 12 10 3 11 2 12 1 13
REMARK H PARENT
REMARK Flexibility Score: inf
ROOT
ATOM      1  C   UNL     1       1.433 -18.445  -3.687  1.00  0.00     0.160 A 
ATOM      2  C   UNL     1       2.003 -18.345  -4.965  1.00  0.00     0.160 A 
ATOM      3  C   UNL     1       1.823 -19.391  -5.892  1.00  0.00     0.054 A 
ATOM      4  C   UNL     1       1.087 -20.533  -5.544  1.00  0.00    -0.040 A 
ATOM      5  C   UNL     1       0.513 -20.621  -4.269  1.00  0.00     0.008 A 
ATOM      6  C   UNL     1       0.687 -19.589  -3.345  1.00  0.00     0.051 A 
ENDROOT
BRANCH   1   7
ATOM      7  O   UNL     1       1.629 -17.387  -2.784  1.00  0.00    -0.493 OA
ATOM      8  C   UNL     1       2.654 -17.351  -1.795  1.00  0.00     0.278 C 
ENDBRANCH   1   7
BRANCH   2   9
ATOM      9  O   UNL     1       2.737 -17.190  -5.279  1.00  0.00    -0.493 OA
ATOM     10  C   UNL     1       2.226 -16.084  -6.016  1.00  0.00     0.278 C 
ENDBRANCH   2   9
BRANCH   4  11
ATOM     11  C   UNL     1       0.876 -21.634  -6.551  1.00  0.00     0.062 C 
BRANCH  11  12
ATOM     12  C   UNL     1       1.785 -21.454  -7.735  1.00  0.00    -0.030 C 
ATOM     13  C   UNL     1       1.317 -21.078  -8.928  1.00  0.00     0.004 C 
ENDBRANCH  11  12
ENDBRANCH   4  11
TORSDOF 4
ENDMDL
MODEL 4
REMARK VINA RESULT:    -4.527      2.565      4.727
REMARK INTER + INTRA:          -5.873
REMARK INTER:                  -5.553
REMARK INTRA:                  -0.320
REMARK UNBOUND:                -0.287
REMARK SMILES C=CCc1ccc(OC)c(OC)c1
REMARK SMILES IDX 7 1 10 2 13 3 4 4 5 5 6 6 8 7 9 8 11 9 12 10 3 11 2 12 1 13
REMARK H PARENT
REMARK Flexibility Score: inf
ROOT
ATOM      1  C   UNL     1       1.206 -20.966  -5.934  1.00  0.00     0.160 A 
ATOM      2  C   UNL     1       1.977 -19.853  -6.303  1.00  0.00     0.160 A 
ATOM      3  C   UNL     1       2.000 -18.715  -5.472  1.00  0.00     0.054 A 
ATOM      4  C   UNL     1       1.253 -18.683  -4.286  1.00  0.00    -0.040 A 
ATOM      5  C   UNL     1       0.493 -19.801  -3.920  1.00  0.00     0.008 A 
ATOM      6  C   UNL     1       0.465 -20.933  -4.737  1.00  0.00     0.051 A 
ENDROOT
BRANCH   1   7
ATOM      7  O   UNL     1       1.202 -22.086  -6.782  1.00  0.00    -0.493 OA
ATOM      8  C   UNL     1       0.319 -23.196  -6.648  1.00  0.00     0.278 C 
ENDBRANCH   1   7
BRANCH   2   9
ATOM      9  O   UNL     1       2.709 -19.918  -7.499  1.00  0.00    -0.493 OA
ATOM     10  C   UNL     1       4.130 -19.869  -7.579  1.00  0.00     0.278 C 
ENDBRANCH   2   9
BRANCH   4  11
ATOM     11  C   UNL     1       1.306 -17.473  -3.390  1.00  0.00     0.062 C 
BRANCH  11  12
ATOM     12  C   UNL     1       2.675 -17.314  -2.790  1.00  0.00    -0.030 C 
ATOM     13  C   UNL     1       3.137 -18.158  -1.863  1.00  0.00     0.004 C 
ENDBRANCH  11  12
ENDBRANCH   4  11
TORSDOF 4
ENDMDL
MODEL 5
REMARK VINA RESULT:    -4.519      1.635      3.346
REMARK INTER + INTRA:          -5.864
REMARK INTER:                  -5.630
REMARK INTRA:                  -0.233
REMARK UNBOUND:                -0.287
REMARK SMILES C=CCc1ccc(OC)c(OC)c1
REMARK SMILES IDX 7 1 10 2 13 3 4 4 5 5 6 6 8 7 9 8 11 9 12 10 3 11 2 12 1 13
REMARK H PARENT
REMARK Flexibility Score: inf
ROOT
ATOM      1  C   UNL     1       4.392 -19.788  -5.987  1.00  0.00     0.160 A 
ATOM      2  C   UNL     1       3.427 -20.351  -5.137  1.00  0.00     0.160 A 
ATOM      3  C   UNL     1       2.276 -20.947  -5.690  1.00  0.00     0.054 A 
ATOM      4  C   UNL     1       2.083 -20.974  -7.079  1.00  0.00    -0.040 A 
ATOM      5  C   UNL     1       3.055 -20.419  -7.920  1.00  0.00     0.008 A 
ATOM      6  C   UNL     1       4.199 -19.826  -7.381  1.00  0.00     0.051 A 
ENDROOT
BRANCH   1   7
ATOM      7  O   UNL     1       5.529 -19.201  -5.408  1.00  0.00    -0.493 OA
ATOM      8  C   UNL     1       6.849 -19.724  -5.512  1.00  0.00     0.278 C 
ENDBRANCH   1   7
BRANCH   2   9
ATOM      9  O   UNL     1       3.649 -20.302  -3.752  1.00  0.00    -0.493 OA
ATOM     10  C   UNL     1       2.681 -19.889  -2.793  1.00  0.00     0.278 C 
ENDBRANCH   2   9
BRANCH   4  11
ATOM     11  C   UNL     1       0.863 -21.639  -7.661  1.00  0.00     0.062 C 
BRANCH  11  12
ATOM     12  C   UNL     1       0.099 -22.376  -6.597  1.00  0.00    -0.030 C 
ATOM     13  C   UNL     1       0.132 -23.708  -6.504  1.00  0.00     0.004 C 
ENDBRANCH  11  12
ENDBRANCH   4  11
TORSDOF 4
ENDMDL
MODEL 6
REMARK VINA RESULT:    -4.511     11.263     12.703
REMARK INTER + INTRA:          -5.853
REMARK INTER:                  -5.587
REMARK INTRA:                  -0.266
REMARK UNBOUND:                -0.287
REMARK SMILES C=CCc1ccc(OC)c(OC)c1
REMARK SMILES IDX 7 1 10 2 13 3 4 4 5 5 6 6 8 7 9 8 11 9 12 10 3 11 2 12 1 13
REMARK H PARENT
REMARK Flexibility Score: inf
ROOT
ATOM      1  C   UNL     1      -8.265 -25.279  -2.859  1.00  0.00     0.160 A 
ATOM      2  C   UNL     1      -8.686 -26.246  -3.785  1.00  0.00     0.160 A 
ATOM      3  C   UNL     1      -7.855 -27.349  -4.065  1.00  0.00     0.054 A 
ATOM      4  C   UNL     1      -6.610 -27.484  -3.434  1.00  0.00    -0.040 A 
ATOM      5  C   UNL     1      -6.202 -26.519  -2.504  1.00  0.00     0.008 A 
ATOM      6  C   UNL     1      -7.018 -25.423  -2.221  1.00  0.00     0.051 A 
ENDROOT
BRANCH   1   7
ATOM      7  O   UNL     1      -9.113 -24.189  -2.601  1.00  0.00    -0.493 OA
ATOM      8  C   UNL     1      -9.444 -23.716  -1.299  1.00  0.00     0.278 C 
ENDBRANCH   1   7
BRANCH   2   9
ATOM      9  O   UNL     1      -9.935 -26.078  -4.402  1.00  0.00    -0.493 OA
ATOM     10  C   UNL     1     -11.101 -26.831  -4.083  1.00  0.00     0.278 C 
ENDBRANCH   2   9
BRANCH   4  11
ATOM     11  C   UNL     1      -5.743 -28.682  -3.719  1.00  0.00     0.062 C 
BRANCH  11  12
ATOM     12  C   UNL     1      -6.514 -29.957  -3.524  1.00  0.00    -0.030 C 
ATOM     13  C   UNL     1      -7.009 -30.303  -2.333  1.00  0.00     0.004 C 
ENDBRANCH  11  12
ENDBRANCH   4  11
TORSDOF 4
ENDMDL
MODEL 7
REMARK VINA RESULT:    -4.464      1.588      3.449
REMARK INTER + INTRA:          -5.795
REMARK INTER:                  -5.504
REMARK INTRA:                  -0.291
REMARK UNBOUND:                -0.287
REMARK SMILES C=CCc1ccc(OC)c(OC)c1
REMARK SMILES IDX 7 1 10 2 13 3 4 4 5 5 6 6 8 7 9 8 11 9 12 10 3 11 2 12 1 13
REMARK H PARENT
REMARK Flexibility Score: inf
ROOT
ATOM      1  C   UNL     1       5.174 -21.190  -4.886  1.00  0.00     0.160 A 
ATOM      2  C   UNL     1       3.984 -20.612  -4.416  1.00  0.00     0.160 A 
ATOM      3  C   UNL     1       2.922 -20.380  -5.312  1.00  0.00     0.054 A 
ATOM      4  C   UNL     1       3.047 -20.715  -6.668  1.00  0.00    -0.040 A 
ATOM      5  C   UNL     1       4.233 -21.300  -7.127  1.00  0.00     0.008 A 
ATOM      6  C   UNL     1       5.291 -21.533  -6.246  1.00  0.00     0.051 A 
ENDROOT
BRANCH   1   7
ATOM      7  O   UNL     1       6.216 -21.408  -3.970  1.00  0.00    -0.493 OA
ATOM      8  C   UNL     1       7.568 -21.007  -4.175  1.00  0.00     0.278 C 
ENDBRANCH   1   7
BRANCH   2   9
ATOM      9  O   UNL     1       3.895 -20.285  -3.054  1.00  0.00    -0.493 OA
ATOM     10  C   UNL     1       3.210 -19.147  -2.540  1.00  0.00     0.278 C 
ENDBRANCH   2   9
BRANCH   4  11
ATOM     11  C   UNL     1       1.895 -20.489  -7.613  1.00  0.00     0.062 C 
BRANCH  11  12
ATOM     12  C   UNL     1       1.223 -21.790  -7.954  1.00  0.00    -0.030 C 
ATOM     13  C   UNL     1       0.578 -22.510  -7.033  1.00  0.00     0.004 C 
ENDBRANCH  11  12
ENDBRANCH   4  11
TORSDOF 4
ENDMDL
MODEL 8
REMARK VINA RESULT:    -4.420      2.258      3.736
REMARK INTER + INTRA:          -5.741
REMARK INTER:                  -5.423
REMARK INTRA:                  -0.317
REMARK UNBOUND:                -0.287
REMARK SMILES C=CCc1ccc(OC)c(OC)c1
REMARK SMILES IDX 7 1 10 2 13 3 4 4 5 5 6 6 8 7 9 8 11 9 12 10 3 11 2 12 1 13
REMARK H PARENT
REMARK Flexibility Score: inf
ROOT
ATOM      1  C   UNL     1       4.613 -20.026  -6.973  1.00  0.00     0.160 A 
ATOM      2  C   UNL     1       4.416 -20.256  -5.602  1.00  0.00     0.160 A 
ATOM      3  C   UNL     1       3.152 -20.672  -5.140  1.00  0.00     0.054 A 
ATOM      4  C   UNL     1       2.088 -20.850  -6.037  1.00  0.00    -0.040 A 
ATOM      5  C   UNL     1       2.295 -20.628  -7.404  1.00  0.00     0.008 A 
ATOM      6  C   UNL     1       3.545 -20.215  -7.870  1.00  0.00     0.051 A 
ENDROOT
BRANCH   1   7
ATOM      7  O   UNL     1       5.884 -19.612  -7.404  1.00  0.00    -0.493 OA
ATOM      8  C   UNL     1       6.134 -18.909  -8.617  1.00  0.00     0.278 C 
ENDBRANCH   1   7
BRANCH   2   9
ATOM      9  O   UNL     1       5.501 -20.064  -4.732  1.00  0.00    -0.493 OA
ATOM     10  C   UNL     1       6.311 -21.112  -4.209  1.00  0.00     0.278 C 
ENDBRANCH   2   9
BRANCH   4  11
ATOM     11  C   UNL     1       0.748 -21.322  -5.537  1.00  0.00     0.062 C 
BRANCH  11  12
ATOM     12  C   UNL     1       0.092 -22.227  -6.543  1.00  0.00    -0.030 C 
ATOM     13  C   UNL     1       0.183 -23.556  -6.456  1.00  0.00     0.004 C 
ENDBRANCH  11  12
ENDBRANCH   4  11
TORSDOF 4
ENDMDL
MODEL 9
REMARK VINA RESULT:    -4.303     10.771     12.242
REMARK INTER + INTRA:          -5.596
REMARK INTER:                  -5.262
REMARK INTRA:                  -0.334
REMARK UNBOUND:                -0.287
REMARK SMILES C=CCc1ccc(OC)c(OC)c1
REMARK SMILES IDX 7 1 10 2 13 3 4 4 5 5 6 6 8 7 9 8 11 9 12 10 3 11 2 12 1 13
REMARK H PARENT
REMARK Flexibility Score: inf
ROOT
ATOM      1  C   UNL     1      -8.971 -25.451  -1.374  1.00  0.00     0.160 A 
ATOM      2  C   UNL     1      -7.797 -24.994  -1.992  1.00  0.00     0.160 A 
ATOM      3  C   UNL     1      -6.683 -25.852  -2.090  1.00  0.00     0.054 A 
ATOM      4  C   UNL     1      -6.737 -27.153  -1.569  1.00  0.00    -0.040 A 
ATOM      5  C   UNL     1      -7.915 -27.604  -0.963  1.00  0.00     0.008 A 
ATOM      6  C   UNL     1      -9.023 -26.761  -0.861  1.00  0.00     0.051 A 
ENDROOT
BRANCH   1   7
ATOM      7  O   UNL     1     -10.065 -24.574  -1.290  1.00  0.00    -0.493 OA
ATOM      8  C   UNL     1     -10.670 -24.154  -0.071  1.00  0.00     0.278 C 
ENDBRANCH   1   7
BRANCH   2   9
ATOM      9  O   UNL     1      -7.776 -23.686  -2.499  1.00  0.00    -0.493 OA
ATOM     10  C   UNL     1      -7.329 -22.546  -1.772  1.00  0.00     0.278 C 
ENDBRANCH   2   9
BRANCH   4  11
ATOM     11  C   UNL     1      -5.551 -28.072  -1.704  1.00  0.00     0.062 C 
BRANCH  11  12
ATOM     12  C   UNL     1      -5.360 -28.489  -3.136  1.00  0.00    -0.030 C 
ATOM     13  C   UNL     1      -6.142 -29.407  -3.710  1.00  0.00     0.004 C 
ENDBRANCH  11  12
ENDBRANCH   4  11
TORSDOF 4
ENDMDL
