MODEL 1
REMARK VINA RESULT:    -3.276      0.000      0.000
REMARK INTER + INTRA:          -3.694
REMARK INTER:                  -3.659
REMARK INTRA:                  -0.034
REMARK UNBOUND:                -0.034
REMARK SMILES CCCC(=O)[O-]
REMARK SMILES IDX 3 1 4 2 5 3 6 4 2 5 1 6
REMARK H PARENT
REMARK Flexibility Score: inf
ROOT
ATOM      1  C   UNL     1     -12.837  16.952 -21.018  1.00  0.00     0.052 C 
ENDROOT
BRANCH   1   2
ATOM      2  C   UNL     1     -11.687  16.804 -20.069  1.00  0.00     0.041 C 
ATOM      3  O   UNL     1     -10.680  17.554 -20.172  1.00  0.00    -0.550 OA
ATOM      4  O   UNL     1     -11.714  15.817 -19.093  1.00  0.00    -0.550 OA
ENDBRANCH   1   2
BRANCH   1   5
ATOM      5  C   UNL     1     -12.844  18.331 -21.690  1.00  0.00     0.003 C 
ATOM      6  C   UNL     1     -12.425  18.263 -23.160  1.00  0.00     0.004 C 
ENDBRANCH   1   5
TORSDOF 2
ENDMDL
MODEL 2
REMARK VINA RESULT:    -3.256      2.157      2.560
REMARK INTER + INTRA:          -3.671
REMARK INTER:                  -3.610
REMARK INTRA:                  -0.061
REMARK UNBOUND:                -0.034
REMARK SMILES CCCC(=O)[O-]
REMARK SMILES IDX 3 1 4 2 5 3 6 4 2 5 1 6
REMARK H PARENT
REMARK Flexibility Score: inf
ROOT
ATOM      1  C   UNL     1     -12.696  18.494 -21.689  1.00  0.00     0.052 C 
ENDROOT
BRANCH   1   2
ATOM      2  C   UNL     1     -12.829  17.022 -21.934  1.00  0.00     0.041 C 
ATOM      3  O   UNL     1     -12.782  16.567 -23.108  1.00  0.00    -0.550 OA
ATOM      4  O   UNL     1     -13.040  16.157 -20.868  1.00  0.00    -0.550 OA
ENDBRANCH   1   2
BRANCH   1   5
ATOM      5  C   UNL     1     -11.255  18.975 -21.897  1.00  0.00     0.003 C 
ATOM      6  C   UNL     1     -10.276  18.319 -20.923  1.00  0.00     0.004 C 
ENDBRANCH   1   5
TORSDOF 2
ENDMDL
MODEL 3
REMARK VINA RESULT:    -3.128      2.002      3.168
REMARK INTER + INTRA:          -3.528
REMARK INTER:                  -3.506
REMARK INTRA:                  -0.023
REMARK UNBOUND:                -0.034
REMARK SMILES CCCC(=O)[O-]
REMARK SMILES IDX 3 1 4 2 5 3 6 4 2 5 1 6
REMARK H PARENT
REMARK Flexibility Score: inf
ROOT
ATOM      1  C   UNL     1     -13.194  17.792 -21.269  1.00  0.00     0.052 C 
ENDROOT
BRANCH   1   2
ATOM      2  C   UNL     1     -12.161  18.337 -22.207  1.00  0.00     0.041 C 
ATOM      3  O   UNL     1     -12.300  18.203 -23.452  1.00  0.00    -0.550 OA
ATOM      4  O   UNL     1     -11.027  18.962 -21.704  1.00  0.00    -0.550 OA
ENDBRANCH   1   2
BRANCH   1   5
ATOM      5  C   UNL     1     -12.843  16.375 -20.798  1.00  0.00     0.003 C 
ATOM      6  C   UNL     1     -11.914  16.380 -19.584  1.00  0.00     0.004 C 
ENDBRANCH   1   5
TORSDOF 2
ENDMDL
MODEL 4
REMARK VINA RESULT:    -3.045      7.557      8.111
REMARK INTER + INTRA:          -3.435
REMARK INTER:                  -3.424
REMARK INTRA:                  -0.011
REMARK UNBOUND:                -0.034
REMARK SMILES CCCC(=O)[O-]
REMARK SMILES IDX 3 1 4 2 5 3 6 4 2 5 1 6
REMARK H PARENT
REMARK Flexibility Score: inf
ROOT
ATOM      1  C   UNL     1     -10.728  14.098 -14.265  1.00  0.00     0.052 C 
ENDROOT
BRANCH   1   2
ATOM      2  C   UNL     1     -11.320  14.198 -12.893  1.00  0.00     0.041 C 
ATOM      3  O   UNL     1     -10.771  14.918 -12.016  1.00  0.00    -0.550 OA
ATOM      4  O   UNL     1     -12.458  13.471 -12.571  1.00  0.00    -0.550 OA
ENDBRANCH   1   2
BRANCH   1   5
ATOM      5  C   UNL     1      -9.420  14.891 -14.379  1.00  0.00     0.003 C 
ATOM      6  C   UNL     1      -8.827  14.835 -15.787  1.00  0.00     0.004 C 
ENDBRANCH   1   5
TORSDOF 2
ENDMDL
MODEL 5
REMARK VINA RESULT:    -3.031      7.843      9.151
REMARK INTER + INTRA:          -3.419
REMARK INTER:                  -3.409
REMARK INTRA:                  -0.010
REMARK UNBOUND:                -0.034
REMARK SMILES CCCC(=O)[O-]
REMARK SMILES IDX 3 1 4 2 5 3 6 4 2 5 1 6
REMARK H PARENT
REMARK Flexibility Score: inf
ROOT
ATOM      1  C   UNL     1      -4.949  17.504 -14.859  1.00  0.00     0.052 C 
ENDROOT
BRANCH   1   2
ATOM      2  C   UNL     1      -5.915  17.425 -16.001  1.00  0.00     0.041 C 
ATOM      3  O   UNL     1      -6.029  18.390 -16.804  1.00  0.00    -0.550 OA
ATOM      4  O   UNL     1      -6.713  16.300 -16.160  1.00  0.00    -0.550 OA
ENDBRANCH   1   2
BRANCH   1   5
ATOM      5  C   UNL     1      -5.595  17.068 -13.538  1.00  0.00     0.003 C 
ATOM      6  C   UNL     1      -5.448  18.125 -12.443  1.00  0.00     0.004 C 
ENDBRANCH   1   5
TORSDOF 2
ENDMDL
MODEL 6
REMARK VINA RESULT:    -3.013      6.344      7.698
REMARK INTER + INTRA:          -3.399
REMARK INTER:                  -3.388
REMARK INTRA:                  -0.012
REMARK UNBOUND:                -0.034
REMARK SMILES CCCC(=O)[O-]
REMARK SMILES IDX 3 1 4 2 5 3 6 4 2 5 1 6
REMARK H PARENT
REMARK Flexibility Score: inf
ROOT
ATOM      1  C   UNL     1      -9.735  14.556 -14.440  1.00  0.00     0.052 C 
ENDROOT
BRANCH   1   2
ATOM      2  C   UNL     1     -10.004  14.158 -15.859  1.00  0.00     0.041 C 
ATOM      3  O   UNL     1     -11.020  13.470 -16.144  1.00  0.00    -0.550 OA
ATOM      4  O   UNL     1      -9.115  14.520 -16.863  1.00  0.00    -0.550 OA
ENDBRANCH   1   2
BRANCH   1   5
ATOM      5  C   UNL     1     -10.888  14.155 -13.511  1.00  0.00     0.003 C 
ATOM      6  C   UNL     1     -10.834  14.886 -12.169  1.00  0.00     0.004 C 
ENDBRANCH   1   5
TORSDOF 2
ENDMDL
MODEL 7
REMARK VINA RESULT:    -2.870      6.383      7.093
REMARK INTER + INTRA:          -3.239
REMARK INTER:                  -3.230
REMARK INTRA:                  -0.010
REMARK UNBOUND:                -0.034
REMARK SMILES CCCC(=O)[O-]
REMARK SMILES IDX 3 1 4 2 5 3 6 4 2 5 1 6
REMARK H PARENT
REMARK Flexibility Score: inf
ROOT
ATOM      1  C   UNL     1      -9.419  14.219 -15.926  1.00  0.00     0.052 C 
ENDROOT
BRANCH   1   2
ATOM      2  C   UNL     1      -8.282  14.700 -16.775  1.00  0.00     0.041 C 
ATOM      3  O   UNL     1      -7.734  15.808 -16.533  1.00  0.00    -0.550 OA
ATOM      4  O   UNL     1      -7.851  13.940 -17.854  1.00  0.00    -0.550 OA
ENDBRANCH   1   2
BRANCH   1   5
ATOM      5  C   UNL     1      -9.392  14.854 -14.530  1.00  0.00     0.003 C 
ATOM      6  C   UNL     1     -10.521  14.341 -13.636  1.00  0.00     0.004 C 
ENDBRANCH   1   5
TORSDOF 2
ENDMDL
MODEL 8
REMARK VINA RESULT:    -2.830      9.977     10.463
REMARK INTER + INTRA:          -3.195
REMARK INTER:                  -3.181
REMARK INTRA:                  -0.014
REMARK UNBOUND:                -0.034
REMARK SMILES CCCC(=O)[O-]
REMARK SMILES IDX 3 1 4 2 5 3 6 4 2 5 1 6
REMARK H PARENT
REMARK Flexibility Score: inf
ROOT
ATOM      1  C   UNL     1     -21.377  17.695 -26.394  1.00  0.00     0.052 C 
ENDROOT
BRANCH   1   2
ATOM      2  C   UNL     1     -20.734  18.606 -25.394  1.00  0.00     0.041 C 
ATOM      3  O   UNL     1     -21.148  19.788 -25.254  1.00  0.00    -0.550 OA
ATOM      4  O   UNL     1     -19.655  18.161 -24.641  1.00  0.00    -0.550 OA
ENDBRANCH   1   2
BRANCH   1   5
ATOM      5  C   UNL     1     -21.158  18.185 -27.831  1.00  0.00     0.003 C 
ATOM      6  C   UNL     1     -20.357  17.188 -28.669  1.00  0.00     0.004 C 
ENDBRANCH   1   5
TORSDOF 2
ENDMDL
MODEL 9
REMARK VINA RESULT:    -2.768     10.791     11.300
REMARK INTER + INTRA:          -3.126
REMARK INTER:                  -3.084
REMARK INTRA:                  -0.042
REMARK UNBOUND:                -0.034
REMARK SMILES CCCC(=O)[O-]
REMARK SMILES IDX 3 1 4 2 5 3 6 4 2 5 1 6
REMARK H PARENT
REMARK Flexibility Score: inf
ROOT
ATOM      1  C   UNL     1     -20.850  18.826 -25.375  1.00  0.00     0.052 C 
ENDROOT
BRANCH   1   2
ATOM      2  C   UNL     1     -21.648  17.901 -26.243  1.00  0.00     0.041 C 
ATOM      3  O   UNL     1     -22.462  17.090 -25.725  1.00  0.00    -0.550 OA
ATOM      4  O   UNL     1     -21.467  17.910 -27.619  1.00  0.00    -0.550 OA
ENDBRANCH   1   2
BRANCH   1   5
ATOM      5  C   UNL     1     -21.473  20.226 -25.317  1.00  0.00     0.003 C 
ATOM      6  C   UNL     1     -22.534  20.345 -24.222  1.00  0.00     0.004 C 
ENDBRANCH   1   5
TORSDOF 2
ENDMDL
