MODEL 1
REMARK VINA RESULT:     4.903      0.000      0.000
REMARK INTER + INTRA:           4.920
REMARK INTER:                   5.190
REMARK INTRA:                  -0.270
REMARK UNBOUND:                -0.270
REMARK SMILES C=C1CC[C@H](C(C)C)[C@@H]2C=C(C)CC[C@@H]12
REMARK SMILES IDX 12 1 11 2 10 3 9 4 15 5 14 6 13 7 2 8 1 9 3 10 4 11 5 12
REMARK SMILES IDX 6 13 7 14 8 15
REMARK H PARENT
REMARK Flexibility Score: inf
ROOT
ATOM      1  C   UNL     1     136.894 137.487 167.366  1.00  0.00     0.039 C 
ATOM      2  C   UNL     1     136.761 138.266 166.085  1.00  0.00    -0.077 C 
ATOM      3  C   UNL     1     136.778 137.599 164.909  1.00  0.00    -0.024 C 
ATOM      4  C   UNL     1     136.747 138.338 163.578  1.00  0.00     0.022 C 
ATOM      5  C   UNL     1     135.790 139.548 163.749  1.00  0.00     0.022 C 
ATOM      6  C   UNL     1     136.374 140.487 164.818  1.00  0.00     0.013 C 
ATOM      7  C   UNL     1     136.503 139.763 166.174  1.00  0.00     0.031 C 
ATOM      8  C   UNL     1     135.464 140.167 162.401  1.00  0.00    -0.074 C 
ATOM      9  C   UNL     1     135.655 141.465 162.105  1.00  0.00     0.008 C 
ATOM     10  C   UNL     1     134.875 139.250 161.354  1.00  0.00     0.031 C 
ATOM     11  C   UNL     1     135.024 137.765 161.742  1.00  0.00     0.009 C 
ATOM     12  C   UNL     1     136.456 137.485 162.272  1.00  0.00    -0.001 C 
ENDROOT
BRANCH  12  13
ATOM     13  C   UNL     1     136.817 135.961 162.354  1.00  0.00    -0.014 C 
ATOM     14  C   UNL     1     138.263 135.713 161.876  1.00  0.00     0.007 C 
ATOM     15  C   UNL     1     135.882 135.074 161.508  1.00  0.00     0.007 C 
ENDBRANCH  12  13
TORSDOF 1
ENDMDL
MODEL 2
REMARK VINA RESULT:     7.682      1.057      4.171
REMARK INTER + INTRA:           7.861
REMARK INTER:                   8.140
REMARK INTRA:                  -0.279
REMARK UNBOUND:                -0.270
REMARK SMILES C=C1CC[C@H](C(C)C)[C@@H]2C=C(C)CC[C@@H]12
REMARK SMILES IDX 12 1 11 2 10 3 9 4 15 5 14 6 13 7 2 8 1 9 3 10 4 11 5 12
REMARK SMILES IDX 6 13 7 14 8 15
REMARK H PARENT
REMARK Flexibility Score: inf
ROOT
ATOM      1  C   UNL     1     137.556 134.875 162.064  1.00  0.00     0.039 C 
ATOM      2  C   UNL     1     136.855 136.191 162.264  1.00  0.00    -0.077 C 
ATOM      3  C   UNL     1     136.737 136.685 163.518  1.00  0.00    -0.024 C 
ATOM      4  C   UNL     1     135.953 137.960 163.797  1.00  0.00     0.022 C 
ATOM      5  C   UNL     1     136.232 138.935 162.622  1.00  0.00     0.022 C 
ATOM      6  C   UNL     1     135.697 138.304 161.325  1.00  0.00     0.013 C 
ATOM      7  C   UNL     1     136.404 136.965 161.033  1.00  0.00     0.031 C 
ATOM      8  C   UNL     1     135.739 140.332 162.956  1.00  0.00    -0.074 C 
ATOM      9  C   UNL     1     134.879 141.028 162.191  1.00  0.00     0.008 C 
ATOM     10  C   UNL     1     136.276 140.960 164.222  1.00  0.00     0.031 C 
ATOM     11  C   UNL     1     136.977 139.925 165.124  1.00  0.00     0.009 C 
ATOM     12  C   UNL     1     136.127 138.630 165.225  1.00  0.00    -0.001 C 
ENDROOT
BRANCH  12  13
ATOM     13  C   UNL     1     136.567 137.670 166.384  1.00  0.00    -0.014 C 
ATOM     14  C   UNL     1     135.580 137.750 167.568  1.00  0.00     0.007 C 
ATOM     15  C   UNL     1     137.977 137.982 166.923  1.00  0.00     0.007 C 
ENDBRANCH  12  13
TORSDOF 1
ENDMDL
