MODEL 1
REMARK VINA RESULT:    -3.616      0.000      0.000
REMARK INTER + INTRA:          -7.735
REMARK INTER:                  -6.364
REMARK INTRA:                  -1.370
REMARK UNBOUND:                -1.370
REMARK SMILES CCCCCCCCCCCCCCC(=O)[O-]
REMARK SMILES IDX 9 1 10 2 11 3 12 4 13 5 14 6 15 7 16 8 17 9 8 10 7 11 6 12
REMARK SMILES IDX 5 13 4 14 3 15 2 16 1 17
REMARK H PARENT
REMARK Flexibility Score: inf
ROOT
ATOM      1  C   UNL     1      86.118  26.713  26.205  1.00  0.00     0.000 C 
ENDROOT
BRANCH   1   2
ATOM      2  C   UNL     1      85.044  25.631  26.409  1.00  0.00     0.000 C 
BRANCH   2   3
ATOM      3  C   UNL     1      85.660  24.235  26.654  1.00  0.00     0.000 C 
BRANCH   3   4
ATOM      4  C   UNL     1      85.807  23.877  28.145  1.00  0.00     0.000 C 
BRANCH   4   5
ATOM      5  C   UNL     1      84.490  23.509  28.856  1.00  0.00     0.006 C 
BRANCH   5   6
ATOM      6  C   UNL     1      83.815  24.684  29.582  1.00  0.00     0.053 C 
BRANCH   6   7
ATOM      7  C   UNL     1      82.832  24.215  30.611  1.00  0.00     0.041 C 
ATOM      8  O   UNL     1      81.632  24.595  30.560  1.00  0.00    -0.550 OA
ATOM      9  O   UNL     1      83.248  23.386  31.644  1.00  0.00    -0.550 OA
ENDBRANCH   6   7
ENDBRANCH   5   6
ENDBRANCH   4   5
ENDBRANCH   3   4
ENDBRANCH   2   3
ENDBRANCH   1   2
BRANCH   1  10
ATOM     10  C   UNL     1      85.994  27.871  27.210  1.00  0.00     0.000 C 
BRANCH  10  11
ATOM     11  C   UNL     1      86.204  27.417  28.664  1.00  0.00    -0.000 C 
BRANCH  11  12
ATOM     12  C   UNL     1      87.554  27.880  29.238  1.00  0.00    -0.000 C 
BRANCH  12  13
ATOM     13  C   UNL     1      87.719  29.408  29.208  1.00  0.00    -0.000 C 
BRANCH  13  14
ATOM     14  C   UNL     1      89.067  29.801  28.586  1.00  0.00    -0.000 C 
BRANCH  14  15
ATOM     15  C   UNL     1      89.785  28.616  27.915  1.00  0.00    -0.000 C 
BRANCH  15  16
ATOM     16  C   UNL     1      89.810  28.663  26.376  1.00  0.00    -0.003 C 
ATOM     17  C   UNL     1      89.908  30.085  25.823  1.00  0.00     0.004 C 
ENDBRANCH  15  16
ENDBRANCH  14  15
ENDBRANCH  13  14
ENDBRANCH  12  13
ENDBRANCH  11  12
ENDBRANCH  10  11
ENDBRANCH   1  10
TORSDOF 13
ENDMDL
MODEL 2
REMARK VINA RESULT:    -3.594      1.382      2.328
REMARK INTER + INTRA:          -7.696
REMARK INTER:                  -5.553
REMARK INTRA:                  -2.143
REMARK UNBOUND:                -1.370
REMARK SMILES CCCCCCCCCCCCCCC(=O)[O-]
REMARK SMILES IDX 9 1 10 2 11 3 12 4 13 5 14 6 15 7 16 8 17 9 8 10 7 11 6 12
REMARK SMILES IDX 5 13 4 14 3 15 2 16 1 17
REMARK H PARENT
REMARK Flexibility Score: inf
ROOT
ATOM      1  C   UNL     1      85.425  29.140  27.576  1.00  0.00     0.000 C 
ENDROOT
BRANCH   1   2
ATOM      2  C   UNL     1      85.751  28.382  26.277  1.00  0.00     0.000 C 
BRANCH   2   3
ATOM      3  C   UNL     1      86.374  26.995  26.551  1.00  0.00     0.000 C 
BRANCH   3   4
ATOM      4  C   UNL     1      86.473  26.646  28.049  1.00  0.00     0.000 C 
BRANCH   4   5
ATOM      5  C   UNL     1      86.037  25.213  28.410  1.00  0.00     0.006 C 
BRANCH   5   6
ATOM      6  C   UNL     1      84.542  24.931  28.181  1.00  0.00     0.053 C 
BRANCH   6   7
ATOM      7  C   UNL     1      83.789  24.822  29.471  1.00  0.00     0.041 C 
ATOM      8  O   UNL     1      83.263  25.844  29.986  1.00  0.00    -0.550 OA
ATOM      9  O   UNL     1      83.696  23.599  30.122  1.00  0.00    -0.550 OA
ENDBRANCH   6   7
ENDBRANCH   5   6
ENDBRANCH   4   5
ENDBRANCH   3   4
ENDBRANCH   2   3
ENDBRANCH   1   2
BRANCH   1  10
ATOM     10  C   UNL     1      86.182  30.473  27.693  1.00  0.00     0.000 C 
BRANCH  10  11
ATOM     11  C   UNL     1      86.995  30.579  28.994  1.00  0.00    -0.000 C 
BRANCH  11  12
ATOM     12  C   UNL     1      88.510  30.468  28.755  1.00  0.00    -0.000 C 
BRANCH  12  13
ATOM     13  C   UNL     1      89.010  29.014  28.768  1.00  0.00    -0.000 C 
BRANCH  13  14
ATOM     14  C   UNL     1      89.782  28.690  27.482  1.00  0.00    -0.000 C 
BRANCH  14  15
ATOM     15  C   UNL     1      89.731  29.829  26.447  1.00  0.00    -0.000 C 
BRANCH  15  16
ATOM     16  C   UNL     1      89.034  29.468  25.123  1.00  0.00    -0.003 C 
ATOM     17  C   UNL     1      88.268  30.642  24.512  1.00  0.00     0.004 C 
ENDBRANCH  15  16
ENDBRANCH  14  15
ENDBRANCH  13  14
ENDBRANCH  12  13
ENDBRANCH  11  12
ENDBRANCH  10  11
ENDBRANCH   1  10
TORSDOF 13
ENDMDL
MODEL 3
REMARK VINA RESULT:    -3.557      2.286      2.999
REMARK INTER + INTRA:          -7.631
REMARK INTER:                  -5.161
REMARK INTRA:                  -2.470
REMARK UNBOUND:                -1.370
REMARK SMILES CCCCCCCCCCCCCCC(=O)[O-]
REMARK SMILES IDX 9 1 10 2 11 3 12 4 13 5 14 6 15 7 16 8 17 9 8 10 7 11 6 12
REMARK SMILES IDX 5 13 4 14 3 15 2 16 1 17
REMARK H PARENT
REMARK Flexibility Score: inf
ROOT
ATOM      1  C   UNL     1      86.363  29.351  25.147  1.00  0.00     0.000 C 
ENDROOT
BRANCH   1   2
ATOM      2  C   UNL     1      86.810  27.900  25.393  1.00  0.00     0.000 C 
BRANCH   2   3
ATOM      3  C   UNL     1      85.824  27.131  26.301  1.00  0.00     0.000 C 
BRANCH   3   4
ATOM      4  C   UNL     1      86.460  26.611  27.604  1.00  0.00     0.000 C 
BRANCH   4   5
ATOM      5  C   UNL     1      85.729  27.031  28.894  1.00  0.00     0.006 C 
BRANCH   5   6
ATOM      6  C   UNL     1      84.199  27.109  28.756  1.00  0.00     0.053 C 
BRANCH   6   7
ATOM      7  C   UNL     1      83.585  27.970  29.817  1.00  0.00     0.041 C 
ATOM      8  O   UNL     1      82.992  27.443  30.795  1.00  0.00    -0.550 OA
ATOM      9  O   UNL     1      83.639  29.353  29.708  1.00  0.00    -0.550 OA
ENDBRANCH   6   7
ENDBRANCH   5   6
ENDBRANCH   4   5
ENDBRANCH   3   4
ENDBRANCH   2   3
ENDBRANCH   1   2
BRANCH   1  10
ATOM     10  C   UNL     1      85.556  29.933  26.320  1.00  0.00     0.000 C 
BRANCH  10  11
ATOM     11  C   UNL     1      86.349  30.978  27.122  1.00  0.00    -0.000 C 
BRANCH  11  12
ATOM     12  C   UNL     1      86.802  30.450  28.493  1.00  0.00    -0.000 C 
BRANCH  12  13
ATOM     13  C   UNL     1      88.325  30.527  28.687  1.00  0.00    -0.000 C 
BRANCH  13  14
ATOM     14  C   UNL     1      88.932  29.122  28.814  1.00  0.00    -0.000 C 
BRANCH  14  15
ATOM     15  C   UNL     1      89.692  28.681  27.549  1.00  0.00    -0.000 C 
BRANCH  15  16
ATOM     16  C   UNL     1      89.839  29.769  26.470  1.00  0.00    -0.003 C 
ATOM     17  C   UNL     1      90.275  29.212  25.115  1.00  0.00     0.004 C 
ENDBRANCH  15  16
ENDBRANCH  14  15
ENDBRANCH  13  14
ENDBRANCH  12  13
ENDBRANCH  11  12
ENDBRANCH  10  11
ENDBRANCH   1  10
TORSDOF 13
ENDMDL
MODEL 4
REMARK VINA RESULT:    -3.552      2.140      3.002
REMARK INTER + INTRA:          -7.622
REMARK INTER:                  -5.349
REMARK INTRA:                  -2.273
REMARK UNBOUND:                -1.370
REMARK SMILES CCCCCCCCCCCCCCC(=O)[O-]
REMARK SMILES IDX 9 1 10 2 11 3 12 4 13 5 14 6 15 7 16 8 17 9 8 10 7 11 6 12
REMARK SMILES IDX 5 13 4 14 3 15 2 16 1 17
REMARK H PARENT
REMARK Flexibility Score: inf
ROOT
ATOM      1  C   UNL     1      85.800  29.518  25.255  1.00  0.00     0.000 C 
ENDROOT
BRANCH   1   2
ATOM      2  C   UNL     1      86.543  28.422  24.473  1.00  0.00     0.000 C 
BRANCH   2   3
ATOM      3  C   UNL     1      86.680  27.115  25.285  1.00  0.00     0.000 C 
BRANCH   3   4
ATOM      4  C   UNL     1      85.791  27.072  26.543  1.00  0.00     0.000 C 
BRANCH   4   5
ATOM      5  C   UNL     1      86.467  26.482  27.795  1.00  0.00     0.006 C 
BRANCH   5   6
ATOM      6  C   UNL     1      85.487  25.892  28.823  1.00  0.00     0.053 C 
BRANCH   6   7
ATOM      7  C   UNL     1      85.304  24.416  28.638  1.00  0.00     0.041 C 
ATOM      8  O   UNL     1      86.085  23.770  27.891  1.00  0.00    -0.550 OA
ATOM      9  O   UNL     1      84.250  23.762  29.263  1.00  0.00    -0.550 OA
ENDBRANCH   6   7
ENDBRANCH   5   6
ENDBRANCH   4   5
ENDBRANCH   3   4
ENDBRANCH   2   3
ENDBRANCH   1   2
BRANCH   1  10
ATOM     10  C   UNL     1      86.593  30.833  25.336  1.00  0.00     0.000 C 
BRANCH  10  11
ATOM     11  C   UNL     1      86.655  31.398  26.765  1.00  0.00    -0.000 C 
BRANCH  11  12
ATOM     12  C   UNL     1      86.449  30.316  27.838  1.00  0.00    -0.000 C 
BRANCH  12  13
ATOM     13  C   UNL     1      87.456  30.424  28.994  1.00  0.00    -0.000 C 
BRANCH  13  14
ATOM     14  C   UNL     1      88.896  30.288  28.479  1.00  0.00    -0.000 C 
BRANCH  14  15
ATOM     15  C   UNL     1      89.267  28.840  28.111  1.00  0.00    -0.000 C 
BRANCH  15  16
ATOM     16  C   UNL     1      89.749  28.645  26.662  1.00  0.00    -0.003 C 
ATOM     17  C   UNL     1      90.023  29.965  25.940  1.00  0.00     0.004 C 
ENDBRANCH  15  16
ENDBRANCH  14  15
ENDBRANCH  13  14
ENDBRANCH  12  13
ENDBRANCH  11  12
ENDBRANCH  10  11
ENDBRANCH   1  10
TORSDOF 13
ENDMDL
MODEL 5
REMARK VINA RESULT:    -3.474      4.267      6.707
REMARK INTER + INTRA:          -7.484
REMARK INTER:                  -5.858
REMARK INTRA:                  -1.626
REMARK UNBOUND:                -1.370
REMARK SMILES CCCCCCCCCCCCCCC(=O)[O-]
REMARK SMILES IDX 9 1 10 2 11 3 12 4 13 5 14 6 15 7 16 8 17 9 8 10 7 11 6 12
REMARK SMILES IDX 5 13 4 14 3 15 2 16 1 17
REMARK H PARENT
REMARK Flexibility Score: inf
ROOT
ATOM      1  C   UNL     1      87.874  29.527  29.446  1.00  0.00     0.000 C 
ENDROOT
BRANCH   1   2
ATOM      2  C   UNL     1      87.238  30.736  28.738  1.00  0.00     0.000 C 
BRANCH   2   3
ATOM      3  C   UNL     1      85.694  30.666  28.737  1.00  0.00     0.000 C 
BRANCH   3   4
ATOM      4  C   UNL     1      85.022  31.819  29.508  1.00  0.00     0.000 C 
BRANCH   4   5
ATOM      5  C   UNL     1      85.782  32.289  30.764  1.00  0.00     0.006 C 
BRANCH   5   6
ATOM      6  C   UNL     1      85.032  32.039  32.084  1.00  0.00     0.053 C 
BRANCH   6   7
ATOM      7  C   UNL     1      85.586  32.864  33.206  1.00  0.00     0.041 C 
ATOM      8  O   UNL     1      86.380  33.810  32.964  1.00  0.00    -0.550 OA
ATOM      9  O   UNL     1      85.250  32.565  34.520  1.00  0.00    -0.550 OA
ENDBRANCH   6   7
ENDBRANCH   5   6
ENDBRANCH   4   5
ENDBRANCH   3   4
ENDBRANCH   2   3
ENDBRANCH   1   2
BRANCH   1  10
ATOM     10  C   UNL     1      89.040  28.918  28.651  1.00  0.00     0.000 C 
BRANCH  10  11
ATOM     11  C   UNL     1      89.354  29.704  27.366  1.00  0.00    -0.000 C 
BRANCH  11  12
ATOM     12  C   UNL     1      89.215  28.843  26.099  1.00  0.00    -0.000 C 
BRANCH  12  13
ATOM     13  C   UNL     1      87.772  28.792  25.571  1.00  0.00    -0.000 C 
BRANCH  13  14
ATOM     14  C   UNL     1      87.088  27.478  25.976  1.00  0.00    -0.000 C 
BRANCH  14  15
ATOM     15  C   UNL     1      85.806  27.698  26.799  1.00  0.00    -0.000 C 
BRANCH  15  16
ATOM     16  C   UNL     1      85.397  26.511  27.689  1.00  0.00    -0.003 C 
ATOM     17  C   UNL     1      86.389  26.242  28.820  1.00  0.00     0.004 C 
ENDBRANCH  15  16
ENDBRANCH  14  15
ENDBRANCH  13  14
ENDBRANCH  12  13
ENDBRANCH  11  12
ENDBRANCH  10  11
ENDBRANCH   1  10
TORSDOF 13
ENDMDL
MODEL 6
REMARK VINA RESULT:    -3.448      4.922      7.585
REMARK INTER + INTRA:          -7.439
REMARK INTER:                  -5.184
REMARK INTRA:                  -2.255
REMARK UNBOUND:                -1.370
REMARK SMILES CCCCCCCCCCCCCCC(=O)[O-]
REMARK SMILES IDX 9 1 10 2 11 3 12 4 13 5 14 6 15 7 16 8 17 9 8 10 7 11 6 12
REMARK SMILES IDX 5 13 4 14 3 15 2 16 1 17
REMARK H PARENT
REMARK Flexibility Score: inf
ROOT
ATOM      1  C   UNL     1      87.802  29.214  29.364  1.00  0.00     0.000 C 
ENDROOT
BRANCH   1   2
ATOM      2  C   UNL     1      89.075  29.660  28.626  1.00  0.00     0.000 C 
BRANCH   2   3
ATOM      3  C   UNL     1      89.747  28.496  27.863  1.00  0.00     0.000 C 
BRANCH   3   4
ATOM      4  C   UNL     1      89.936  28.770  26.359  1.00  0.00     0.000 C 
BRANCH   4   5
ATOM      5  C   UNL     1      89.970  30.261  25.971  1.00  0.00     0.006 C 
BRANCH   5   6
ATOM      6  C   UNL     1      90.908  30.586  24.796  1.00  0.00     0.053 C 
BRANCH   6   7
ATOM      7  C   UNL     1      90.259  31.494  23.797  1.00  0.00     0.041 C 
ATOM      8  O   UNL     1      89.004  31.550  23.712  1.00  0.00    -0.550 OA
ATOM      9  O   UNL     1      91.042  32.255  22.938  1.00  0.00    -0.550 OA
ENDBRANCH   6   7
ENDBRANCH   5   6
ENDBRANCH   4   5
ENDBRANCH   3   4
ENDBRANCH   2   3
ENDBRANCH   1   2
BRANCH   1  10
ATOM     10  C   UNL     1      87.414  27.758  29.056  1.00  0.00     0.000 C 
BRANCH  10  11
ATOM     11  C   UNL     1      86.073  27.648  28.311  1.00  0.00    -0.000 C 
BRANCH  11  12
ATOM     12  C   UNL     1      86.228  27.812  26.790  1.00  0.00    -0.000 C 
BRANCH  12  13
ATOM     13  C   UNL     1      85.467  29.030  26.242  1.00  0.00    -0.000 C 
BRANCH  13  14
ATOM     14  C   UNL     1      86.442  30.142  25.828  1.00  0.00    -0.000 C 
BRANCH  14  15
ATOM     15  C   UNL     1      86.349  31.388  26.728  1.00  0.00    -0.000 C 
BRANCH  15  16
ATOM     16  C   UNL     1      85.040  31.511  27.527  1.00  0.00    -0.003 C 
ATOM     17  C   UNL     1      85.271  31.768  29.017  1.00  0.00     0.004 C 
ENDBRANCH  15  16
ENDBRANCH  14  15
ENDBRANCH  13  14
ENDBRANCH  12  13
ENDBRANCH  11  12
ENDBRANCH  10  11
ENDBRANCH   1  10
TORSDOF 13
ENDMDL
MODEL 7
REMARK VINA RESULT:    -3.447      2.620      3.622
REMARK INTER + INTRA:          -7.437
REMARK INTER:                  -5.220
REMARK INTRA:                  -2.217
REMARK UNBOUND:                -1.370
REMARK SMILES CCCCCCCCCCCCCCC(=O)[O-]
REMARK SMILES IDX 9 1 10 2 11 3 12 4 13 5 14 6 15 7 16 8 17 9 8 10 7 11 6 12
REMARK SMILES IDX 5 13 4 14 3 15 2 16 1 17
REMARK H PARENT
REMARK Flexibility Score: inf
ROOT
ATOM      1  C   UNL     1      86.632  27.334  25.802  1.00  0.00     0.000 C 
ENDROOT
BRANCH   1   2
ATOM      2  C   UNL     1      85.320  27.703  26.516  1.00  0.00     0.000 C 
BRANCH   2   3
ATOM      3  C   UNL     1      85.184  27.003  27.886  1.00  0.00     0.000 C 
BRANCH   3   4
ATOM      4  C   UNL     1      86.288  25.965  28.163  1.00  0.00     0.000 C 
BRANCH   4   5
ATOM      5  C   UNL     1      85.808  24.501  28.200  1.00  0.00     0.006 C 
BRANCH   5   6
ATOM      6  C   UNL     1      84.530  24.236  27.388  1.00  0.00     0.053 C 
BRANCH   6   7
ATOM      7  C   UNL     1      84.834  23.906  25.958  1.00  0.00     0.041 C 
ATOM      8  O   UNL     1      84.078  24.316  25.039  1.00  0.00    -0.550 OA
ATOM      9  O   UNL     1      85.934  23.118  25.645  1.00  0.00    -0.550 OA
ENDBRANCH   6   7
ENDBRANCH   5   6
ENDBRANCH   4   5
ENDBRANCH   3   4
ENDBRANCH   2   3
ENDBRANCH   1   2
BRANCH   1  10
ATOM     10  C   UNL     1      87.545  28.550  25.569  1.00  0.00     0.000 C 
BRANCH  10  11
ATOM     11  C   UNL     1      88.956  28.349  26.147  1.00  0.00    -0.000 C 
BRANCH  11  12
ATOM     12  C   UNL     1      89.360  29.469  27.120  1.00  0.00    -0.000 C 
BRANCH  12  13
ATOM     13  C   UNL     1      89.299  29.029  28.592  1.00  0.00    -0.000 C 
BRANCH  13  14
ATOM     14  C   UNL     1      87.874  29.167  29.146  1.00  0.00    -0.000 C 
BRANCH  14  15
ATOM     15  C   UNL     1      87.347  30.612  29.091  1.00  0.00    -0.000 C 
BRANCH  15  16
ATOM     16  C   UNL     1      85.954  30.768  28.453  1.00  0.00    -0.003 C 
ATOM     17  C   UNL     1      85.994  31.468  27.094  1.00  0.00     0.004 C 
ENDBRANCH  15  16
ENDBRANCH  14  15
ENDBRANCH  13  14
ENDBRANCH  12  13
ENDBRANCH  11  12
ENDBRANCH  10  11
ENDBRANCH   1  10
TORSDOF 13
ENDMDL
MODEL 8
REMARK VINA RESULT:    -3.392      4.327      7.181
REMARK INTER + INTRA:          -7.340
REMARK INTER:                  -5.114
REMARK INTRA:                  -2.226
REMARK UNBOUND:                -1.370
REMARK SMILES CCCCCCCCCCCCCCC(=O)[O-]
REMARK SMILES IDX 9 1 10 2 11 3 12 4 13 5 14 6 15 7 16 8 17 9 8 10 7 11 6 12
REMARK SMILES IDX 5 13 4 14 3 15 2 16 1 17
REMARK H PARENT
REMARK Flexibility Score: inf
ROOT
ATOM      1  C   UNL     1      87.828  29.991  29.398  1.00  0.00     0.000 C 
ENDROOT
BRANCH   1   2
ATOM      2  C   UNL     1      88.935  30.107  28.337  1.00  0.00     0.000 C 
BRANCH   2   3
ATOM      3  C   UNL     1      89.604  28.747  28.039  1.00  0.00     0.000 C 
BRANCH   3   4
ATOM      4  C   UNL     1      89.975  28.551  26.557  1.00  0.00     0.000 C 
BRANCH   4   5
ATOM      5  C   UNL     1      90.065  29.851  25.734  1.00  0.00     0.006 C 
BRANCH   5   6
ATOM      6  C   UNL     1      89.165  29.872  24.487  1.00  0.00     0.053 C 
BRANCH   6   7
ATOM      7  C   UNL     1      88.610  31.237  24.220  1.00  0.00     0.041 C 
ATOM      8  O   UNL     1      87.367  31.434  24.258  1.00  0.00    -0.550 OA
ATOM      9  O   UNL     1      89.463  32.285  23.897  1.00  0.00    -0.550 OA
ENDBRANCH   6   7
ENDBRANCH   5   6
ENDBRANCH   4   5
ENDBRANCH   3   4
ENDBRANCH   2   3
ENDBRANCH   1   2
BRANCH   1  10
ATOM     10  C   UNL     1      86.565  30.787  29.030  1.00  0.00     0.000 C 
BRANCH  10  11
ATOM     11  C   UNL     1      86.251  30.734  27.525  1.00  0.00    -0.000 C 
BRANCH  11  12
ATOM     12  C   UNL     1      84.843  30.187  27.235  1.00  0.00    -0.000 C 
BRANCH  12  13
ATOM     13  C   UNL     1      84.865  28.921  26.363  1.00  0.00    -0.000 C 
BRANCH  13  14
ATOM     14  C   UNL     1      86.305  28.437  26.139  1.00  0.00    -0.000 C 
BRANCH  14  15
ATOM     15  C   UNL     1      86.533  26.991  26.617  1.00  0.00    -0.000 C 
BRANCH  15  16
ATOM     16  C   UNL     1      86.484  26.799  28.143  1.00  0.00    -0.003 C 
ATOM     17  C   UNL     1      85.823  25.485  28.560  1.00  0.00     0.004 C 
ENDBRANCH  15  16
ENDBRANCH  14  15
ENDBRANCH  13  14
ENDBRANCH  12  13
ENDBRANCH  11  12
ENDBRANCH  10  11
ENDBRANCH   1  10
TORSDOF 13
ENDMDL
MODEL 9
REMARK VINA RESULT:    -3.377      1.708      3.409
REMARK INTER + INTRA:          -7.314
REMARK INTER:                  -5.294
REMARK INTRA:                  -2.020
REMARK UNBOUND:                -1.370
REMARK SMILES CCCCCCCCCCCCCCC(=O)[O-]
REMARK SMILES IDX 9 1 10 2 11 3 12 4 13 5 14 6 15 7 16 8 17 9 8 10 7 11 6 12
REMARK SMILES IDX 5 13 4 14 3 15 2 16 1 17
REMARK H PARENT
REMARK Flexibility Score: inf
ROOT
ATOM      1  C   UNL     1      86.376  29.832  24.572  1.00  0.00     0.000 C 
ENDROOT
BRANCH   1   2
ATOM      2  C   UNL     1      86.405  28.316  24.832  1.00  0.00     0.000 C 
BRANCH   2   3
ATOM      3  C   UNL     1      85.933  27.958  26.259  1.00  0.00     0.000 C 
BRANCH   3   4
ATOM      4  C   UNL     1      86.539  26.649  26.801  1.00  0.00     0.000 C 
BRANCH   4   5
ATOM      5  C   UNL     1      86.080  26.263  28.221  1.00  0.00     0.006 C 
BRANCH   5   6
ATOM      6  C   UNL     1      85.857  24.754  28.422  1.00  0.00     0.053 C 
BRANCH   6   7
ATOM      7  C   UNL     1      84.489  24.458  28.957  1.00  0.00     0.041 C 
ATOM      8  O   UNL     1      83.796  25.377  29.466  1.00  0.00    -0.550 OA
ATOM      9  O   UNL     1      83.995  23.160  28.922  1.00  0.00    -0.550 OA
ENDBRANCH   6   7
ENDBRANCH   5   6
ENDBRANCH   4   5
ENDBRANCH   3   4
ENDBRANCH   2   3
ENDBRANCH   1   2
BRANCH   1  10
ATOM     10  C   UNL     1      87.531  30.576  25.261  1.00  0.00     0.000 C 
BRANCH  10  11
ATOM     11  C   UNL     1      88.911  30.025  24.862  1.00  0.00    -0.000 C 
BRANCH  11  12
ATOM     12  C   UNL     1      89.862  29.893  26.063  1.00  0.00    -0.000 C 
BRANCH  12  13
ATOM     13  C   UNL     1      89.610  28.618  26.884  1.00  0.00    -0.000 C 
BRANCH  13  14
ATOM     14  C   UNL     1      89.641  28.923  28.389  1.00  0.00    -0.000 C 
BRANCH  14  15
ATOM     15  C   UNL     1      88.239  29.148  28.984  1.00  0.00    -0.000 C 
BRANCH  15  16
ATOM     16  C   UNL     1      87.739  30.603  28.929  1.00  0.00    -0.003 C 
ATOM     17  C   UNL     1      86.222  30.708  28.777  1.00  0.00     0.004 C 
ENDBRANCH  15  16
ENDBRANCH  14  15
ENDBRANCH  13  14
ENDBRANCH  12  13
ENDBRANCH  11  12
ENDBRANCH  10  11
ENDBRANCH   1  10
TORSDOF 13
ENDMDL
