MODEL 1
REMARK VINA RESULT:    -7.861      0.000      0.000
REMARK INTER + INTRA:          -7.861
REMARK INTER:                  -7.861
REMARK INTRA:                   0.000
REMARK UNBOUND:                 0.000
REMARK SMILES C[NH+]1CCN(C2=[NH+]c3ccccc3Oc3ccc(Cl)cc32)CC1
REMARK SMILES IDX 7 1 6 2 21 3 5 4 8 5 9 6 13 7 10 8 12 9 14 10 11 11 15 12
REMARK SMILES IDX 16 13 17 14 18 15 20 16 19 17 4 18 22 19 3 20 23 21 2 22
REMARK SMILES IDX 1 23
REMARK H PARENT 7 24 2 25
REMARK Flexibility Score: inf
ROOT
ATOM      1  N   UNL     1     132.859 141.254 143.664  1.00  0.00    -0.237 N 
ATOM      2  C   UNL     1     133.236 140.978 144.886  1.00  0.00     0.286 C 
ATOM      3  C   UNL     1     132.425 140.171 145.835  1.00  0.00     0.108 A 
ATOM      4  N   UNL     1     134.528 141.435 145.333  1.00  0.00    -0.250 N 
ATOM      5  C   UNL     1     131.638 140.861 143.013  1.00  0.00     0.168 A 
ATOM      6  C   UNL     1     131.669 140.637 141.625  1.00  0.00     0.056 A 
ATOM      7  C   UNL     1     130.392 140.881 143.673  1.00  0.00     0.173 A 
ATOM      8  C   UNL     1     130.489 140.429 140.909  1.00  0.00     0.005 A 
ATOM      9  C   UNL     1     129.212 140.704 142.939  1.00  0.00     0.052 A 
ATOM     10  O   UNL     1     130.282 141.066 145.048  1.00  0.00    -0.452 OA
ATOM     11  C   UNL     1     129.260 140.470 141.564  1.00  0.00     0.004 A 
ATOM     12  C   UNL     1     131.030 140.326 145.958  1.00  0.00     0.143 A 
ATOM     13  C   UNL     1     130.348 139.710 147.015  1.00  0.00     0.049 A 
ATOM     14  C   UNL     1     131.029 138.899 147.922  1.00  0.00     0.024 A 
ATOM     15  C   UNL     1     132.403 138.703 147.784  1.00  0.00     0.042 A 
ATOM     16  C   UNL     1     133.098 139.340 146.753  1.00  0.00     0.041 A 
ATOM     17  Cl  UNL     1     133.264 137.682 148.922  1.00  0.00    -0.084 Cl
ATOM     18  C   UNL     1     134.625 142.338 146.483  1.00  0.00     0.298 C 
ATOM     19  C   UNL     1     135.721 141.241 144.505  1.00  0.00     0.298 C 
ATOM     20  C   UNL     1     135.862 141.988 147.316  1.00  0.00     0.308 C 
ATOM     21  C   UNL     1     136.924 140.924 145.399  1.00  0.00     0.308 C 
ATOM     22  N   UNL     1     137.073 141.937 146.467  1.00  0.00    -0.331 N 
ATOM     23  C   UNL     1     138.255 141.630 147.291  1.00  0.00     0.332 C 
ATOM     24  H   UNL     1     133.529 141.790 143.066  1.00  0.00     0.312 HD
ATOM     25  H   UNL     1     137.225 142.877 146.029  1.00  0.00     0.348 HD
ENDROOT
TORSDOF 0
ENDMDL
MODEL 2
REMARK VINA RESULT:    -7.154      2.793      4.539
REMARK INTER + INTRA:          -7.154
REMARK INTER:                  -7.154
REMARK INTRA:                   0.000
REMARK UNBOUND:                 0.000
REMARK SMILES C[NH+]1CCN(C2=[NH+]c3ccccc3Oc3ccc(Cl)cc32)CC1
REMARK SMILES IDX 7 1 6 2 21 3 5 4 8 5 9 6 13 7 10 8 12 9 14 10 11 11 15 12
REMARK SMILES IDX 16 13 17 14 18 15 20 16 19 17 4 18 22 19 3 20 23 21 2 22
REMARK SMILES IDX 1 23
REMARK H PARENT 7 24 2 25
REMARK Flexibility Score: inf
ROOT
ATOM      1  N   UNL     1     130.130 139.909 145.453  1.00  0.00    -0.237 N 
ATOM      2  C   UNL     1     131.098 139.531 146.249  1.00  0.00     0.286 C 
ATOM      3  C   UNL     1     132.484 139.256 145.786  1.00  0.00     0.108 A 
ATOM      4  N   UNL     1     130.830 139.418 147.661  1.00  0.00    -0.250 N 
ATOM      5  C   UNL     1     130.196 140.121 144.032  1.00  0.00     0.168 A 
ATOM      6  C   UNL     1     129.366 141.107 143.469  1.00  0.00     0.056 A 
ATOM      7  C   UNL     1     130.908 139.258 143.174  1.00  0.00     0.173 A 
ATOM      8  C   UNL     1     129.251 141.239 142.084  1.00  0.00     0.005 A 
ATOM      9  C   UNL     1     130.760 139.378 141.786  1.00  0.00     0.052 A 
ATOM     10  O   UNL     1     131.772 138.279 143.653  1.00  0.00    -0.452 OA
ATOM     11  C   UNL     1     129.942 140.370 141.242  1.00  0.00     0.004 A 
ATOM     12  C   UNL     1     132.757 138.556 144.595  1.00  0.00     0.143 A 
ATOM     13  C   UNL     1     134.063 138.128 144.319  1.00  0.00     0.049 A 
ATOM     14  C   UNL     1     135.109 138.434 145.190  1.00  0.00     0.024 A 
ATOM     15  C   UNL     1     134.856 139.165 146.351  1.00  0.00     0.042 A 
ATOM     16  C   UNL     1     133.552 139.567 146.651  1.00  0.00     0.041 A 
ATOM     17  Cl  UNL     1     136.169 139.553 147.448  1.00  0.00    -0.084 Cl
ATOM     18  C   UNL     1     131.005 138.130 148.336  1.00  0.00     0.298 C 
ATOM     19  C   UNL     1     130.129 140.485 148.379  1.00  0.00     0.298 C 
ATOM     20  C   UNL     1     131.568 138.353 149.743  1.00  0.00     0.308 C 
ATOM     21  C   UNL     1     130.721 140.636 149.785  1.00  0.00     0.308 C 
ATOM     22  N   UNL     1     130.752 139.335 150.490  1.00  0.00    -0.331 N 
ATOM     23  C   UNL     1     131.291 139.512 151.848  1.00  0.00     0.332 C 
ATOM     24  H   UNL     1     129.204 140.120 145.891  1.00  0.00     0.312 HD
ATOM     25  H   UNL     1     129.773 138.971 150.580  1.00  0.00     0.348 HD
ENDROOT
TORSDOF 0
ENDMDL
MODEL 3
REMARK VINA RESULT:    -7.129      1.069      1.104
REMARK INTER + INTRA:          -7.129
REMARK INTER:                  -7.129
REMARK INTRA:                   0.000
REMARK UNBOUND:                 0.000
REMARK SMILES C[NH+]1CCN(C2=[NH+]c3ccccc3Oc3ccc(Cl)cc32)CC1
REMARK SMILES IDX 7 1 6 2 21 3 5 4 8 5 9 6 13 7 10 8 12 9 14 10 11 11 15 12
REMARK SMILES IDX 16 13 17 14 18 15 20 16 19 17 4 18 22 19 3 20 23 21 2 22
REMARK SMILES IDX 1 23
REMARK H PARENT 7 24 2 25
REMARK Flexibility Score: inf
ROOT
ATOM      1  N   UNL     1     133.014 141.185 144.654  1.00  0.00    -0.237 N 
ATOM      2  C   UNL     1     133.217 140.813 145.892  1.00  0.00     0.286 C 
ATOM      3  C   UNL     1     132.332 139.866 146.621  1.00  0.00     0.108 A 
ATOM      4  N   UNL     1     134.386 141.300 146.579  1.00  0.00    -0.250 N 
ATOM      5  C   UNL     1     131.942 140.785 143.782  1.00  0.00     0.168 A 
ATOM      6  C   UNL     1     132.203 140.703 142.403  1.00  0.00     0.056 A 
ATOM      7  C   UNL     1     130.611 140.663 144.232  1.00  0.00     0.173 A 
ATOM      8  C   UNL     1     131.168 140.496 141.490  1.00  0.00     0.005 A 
ATOM      9  C   UNL     1     129.575 140.489 143.304  1.00  0.00     0.052 A 
ATOM     10  O   UNL     1     130.275 140.703 145.582  1.00  0.00    -0.452 OA
ATOM     11  C   UNL     1     129.852 140.397 141.940  1.00  0.00     0.004 A 
ATOM     12  C   UNL     1     130.928 139.923 146.531  1.00  0.00     0.143 A 
ATOM     13  C   UNL     1     130.139 139.164 147.406  1.00  0.00     0.049 A 
ATOM     14  C   UNL     1     130.732 138.310 148.335  1.00  0.00     0.024 A 
ATOM     15  C   UNL     1     132.121 138.212 148.404  1.00  0.00     0.042 A 
ATOM     16  C   UNL     1     132.917 138.991 147.558  1.00  0.00     0.041 A 
ATOM     17  Cl  UNL     1     132.871 137.138 149.570  1.00  0.00    -0.084 Cl
ATOM     18  C   UNL     1     134.235 142.088 147.806  1.00  0.00     0.298 C 
ATOM     19  C   UNL     1     135.704 141.263 145.941  1.00  0.00     0.298 C 
ATOM     20  C   UNL     1     135.352 141.732 148.792  1.00  0.00     0.308 C 
ATOM     21  C   UNL     1     136.775 140.931 146.985  1.00  0.00     0.308 C 
ATOM     22  N   UNL     1     136.680 141.840 148.149  1.00  0.00    -0.331 N 
ATOM     23  C   UNL     1     137.739 141.526 149.122  1.00  0.00     0.332 C 
ATOM     24  H   UNL     1     133.725 141.818 144.221  1.00  0.00     0.312 HD
ATOM     25  H   UNL     1     136.825 142.827 147.826  1.00  0.00     0.348 HD
ENDROOT
TORSDOF 0
ENDMDL
MODEL 4
REMARK VINA RESULT:    -7.008      2.503      4.298
REMARK INTER + INTRA:          -7.008
REMARK INTER:                  -7.008
REMARK INTRA:                   0.000
REMARK UNBOUND:                 0.000
REMARK SMILES C[NH+]1CCN(C2=[NH+]c3ccccc3Oc3ccc(Cl)cc32)CC1
REMARK SMILES IDX 7 1 6 2 21 3 5 4 8 5 9 6 13 7 10 8 12 9 14 10 11 11 15 12
REMARK SMILES IDX 16 13 17 14 18 15 20 16 19 17 4 18 22 19 3 20 23 21 2 22
REMARK SMILES IDX 1 23
REMARK H PARENT 7 24 2 25
REMARK Flexibility Score: inf
ROOT
ATOM      1  N   UNL     1     130.677 140.064 145.195  1.00  0.00    -0.237 N 
ATOM      2  C   UNL     1     131.795 140.133 145.872  1.00  0.00     0.286 C 
ATOM      3  C   UNL     1     133.108 140.465 145.260  1.00  0.00     0.108 A 
ATOM      4  N   UNL     1     131.754 139.927 147.298  1.00  0.00    -0.250 N 
ATOM      5  C   UNL     1     130.493 140.275 143.784  1.00  0.00     0.168 A 
ATOM      6  C   UNL     1     129.270 140.816 143.348  1.00  0.00     0.056 A 
ATOM      7  C   UNL     1     131.402 139.787 142.823  1.00  0.00     0.173 A 
ATOM      8  C   UNL     1     128.960 140.880 141.989  1.00  0.00     0.005 A 
ATOM      9  C   UNL     1     131.067 139.825 141.463  1.00  0.00     0.052 A 
ATOM     10  O   UNL     1     132.644 139.265 143.172  1.00  0.00    -0.452 OA
ATOM     11  C   UNL     1     129.855 140.377 141.046  1.00  0.00     0.004 A 
ATOM     12  C   UNL     1     133.519 139.937 144.020  1.00  0.00     0.143 A 
ATOM     13  C   UNL     1     134.845 140.097 143.596  1.00  0.00     0.049 A 
ATOM     14  C   UNL     1     135.754 140.820 144.368  1.00  0.00     0.024 A 
ATOM     15  C   UNL     1     135.347 141.384 145.577  1.00  0.00     0.042 A 
ATOM     16  C   UNL     1     134.035 141.201 146.023  1.00  0.00     0.041 A 
ATOM     17  Cl  UNL     1     136.487 142.295 146.549  1.00  0.00    -0.084 Cl
ATOM     18  C   UNL     1     132.526 138.837 147.899  1.00  0.00     0.298 C 
ATOM     19  C   UNL     1     130.754 140.604 148.127  1.00  0.00     0.298 C 
ATOM     20  C   UNL     1     133.094 139.285 149.250  1.00  0.00     0.308 C 
ATOM     21  C   UNL     1     131.377 140.999 149.470  1.00  0.00     0.308 C 
ATOM     22  N   UNL     1     132.028 139.837 150.115  1.00  0.00    -0.331 N 
ATOM     23  C   UNL     1     132.588 140.232 151.417  1.00  0.00     0.332 C 
ATOM     24  H   UNL     1     129.802 139.869 145.733  1.00  0.00     0.312 HD
ATOM     25  H   UNL     1     131.308 139.094 150.289  1.00  0.00     0.348 HD
ENDROOT
TORSDOF 0
ENDMDL
MODEL 5
REMARK VINA RESULT:    -6.441      3.760      6.011
REMARK INTER + INTRA:          -6.441
REMARK INTER:                  -6.441
REMARK INTRA:                   0.000
REMARK UNBOUND:                 0.000
REMARK SMILES C[NH+]1CCN(C2=[NH+]c3ccccc3Oc3ccc(Cl)cc32)CC1
REMARK SMILES IDX 7 1 6 2 21 3 5 4 8 5 9 6 13 7 10 8 12 9 14 10 11 11 15 12
REMARK SMILES IDX 16 13 17 14 18 15 20 16 19 17 4 18 22 19 3 20 23 21 2 22
REMARK SMILES IDX 1 23
REMARK H PARENT 7 24 2 25
REMARK Flexibility Score: inf
ROOT
ATOM      1  N   UNL     1     130.341 139.818 146.935  1.00  0.00    -0.237 N 
ATOM      2  C   UNL     1     130.716 140.022 148.172  1.00  0.00     0.286 C 
ATOM      3  C   UNL     1     131.865 140.886 148.552  1.00  0.00     0.108 A 
ATOM      4  N   UNL     1     129.949 139.424 149.236  1.00  0.00    -0.250 N 
ATOM      5  C   UNL     1     130.937 140.351 145.739  1.00  0.00     0.168 A 
ATOM      6  C   UNL     1     130.100 140.605 144.638  1.00  0.00     0.056 A 
ATOM      7  C   UNL     1     132.334 140.444 145.570  1.00  0.00     0.173 A 
ATOM      8  C   UNL     1     130.637 140.952 143.397  1.00  0.00     0.005 A 
ATOM      9  C   UNL     1     132.863 140.759 144.312  1.00  0.00     0.052 A 
ATOM     10  O   UNL     1     133.226 140.237 146.618  1.00  0.00    -0.452 OA
ATOM     11  C   UNL     1     132.020 141.021 143.232  1.00  0.00     0.004 A 
ATOM     12  C   UNL     1     133.084 140.873 147.847  1.00  0.00     0.143 A 
ATOM     13  C   UNL     1     134.204 141.529 148.374  1.00  0.00     0.049 A 
ATOM     14  C   UNL     1     134.111 142.243 149.569  1.00  0.00     0.024 A 
ATOM     15  C   UNL     1     132.897 142.299 150.253  1.00  0.00     0.042 A 
ATOM     16  C   UNL     1     131.783 141.619 149.752  1.00  0.00     0.041 A 
ATOM     17  Cl  UNL     1     132.775 143.196 151.755  1.00  0.00    -0.084 Cl
ATOM     18  C   UNL     1     130.594 138.488 150.161  1.00  0.00     0.298 C 
ATOM     19  C   UNL     1     128.487 139.514 149.252  1.00  0.00     0.298 C 
ATOM     20  C   UNL     1     130.036 138.687 151.574  1.00  0.00     0.308 C 
ATOM     21  C   UNL     1     127.996 139.683 150.694  1.00  0.00     0.308 C 
ATOM     22  N   UNL     1     128.558 138.633 151.572  1.00  0.00    -0.331 N 
ATOM     23  C   UNL     1     128.045 138.796 152.942  1.00  0.00     0.332 C 
ATOM     24  H   UNL     1     129.490 139.230 146.783  1.00  0.00     0.312 HD
ATOM     25  H   UNL     1     128.249 137.694 151.225  1.00  0.00     0.348 HD
ENDROOT
TORSDOF 0
ENDMDL
MODEL 6
REMARK VINA RESULT:    -6.424      2.996      3.895
REMARK INTER + INTRA:          -6.424
REMARK INTER:                  -6.424
REMARK INTRA:                   0.000
REMARK UNBOUND:                 0.000
REMARK SMILES C[NH+]1CCN(C2=[NH+]c3ccccc3Oc3ccc(Cl)cc32)CC1
REMARK SMILES IDX 7 1 6 2 21 3 5 4 8 5 9 6 13 7 10 8 12 9 14 10 11 11 15 12
REMARK SMILES IDX 16 13 17 14 18 15 20 16 19 17 4 18 22 19 3 20 23 21 2 22
REMARK SMILES IDX 1 23
REMARK H PARENT 7 24 2 25
REMARK Flexibility Score: inf
ROOT
ATOM      1  N   UNL     1     133.357 140.515 146.980  1.00  0.00    -0.237 N 
ATOM      2  C   UNL     1     132.902 140.658 148.198  1.00  0.00     0.286 C 
ATOM      3  C   UNL     1     131.717 139.930 148.724  1.00  0.00     0.108 A 
ATOM      4  N   UNL     1     133.607 141.529 149.104  1.00  0.00    -0.250 N 
ATOM      5  C   UNL     1     132.831 139.671 145.940  1.00  0.00     0.168 A 
ATOM      6  C   UNL     1     133.732 139.125 145.009  1.00  0.00     0.056 A 
ATOM      7  C   UNL     1     131.447 139.531 145.712  1.00  0.00     0.173 A 
ATOM      8  C   UNL     1     133.271 138.448 143.879  1.00  0.00     0.005 A 
ATOM      9  C   UNL     1     130.994 138.879 144.557  1.00  0.00     0.052 A 
ATOM     10  O   UNL     1     130.493 140.016 146.601  1.00  0.00    -0.452 OA
ATOM     11  C   UNL     1     131.901 138.332 143.649  1.00  0.00     0.004 A 
ATOM     12  C   UNL     1     130.546 139.745 147.965  1.00  0.00     0.143 A 
ATOM     13  C   UNL     1     129.384 139.255 148.578  1.00  0.00     0.049 A 
ATOM     14  C   UNL     1     129.390 138.899 149.926  1.00  0.00     0.024 A 
ATOM     15  C   UNL     1     130.557 139.037 150.677  1.00  0.00     0.042 A 
ATOM     16  C   UNL     1     131.711 139.556 150.083  1.00  0.00     0.041 A 
ATOM     17  Cl  UNL     1     130.569 138.589 152.373  1.00  0.00    -0.084 Cl
ATOM     18  C   UNL     1     132.919 142.682 149.691  1.00  0.00     0.298 C 
ATOM     19  C   UNL     1     135.064 141.451 149.239  1.00  0.00     0.298 C 
ATOM     20  C   UNL     1     133.382 142.882 151.137  1.00  0.00     0.308 C 
ATOM     21  C   UNL     1     135.460 141.687 150.701  1.00  0.00     0.308 C 
ATOM     22  N   UNL     1     134.859 142.937 151.218  1.00  0.00    -0.331 N 
ATOM     23  C   UNL     1     135.281 143.161 152.610  1.00  0.00     0.332 C 
ATOM     24  H   UNL     1     134.226 141.040 146.728  1.00  0.00     0.312 HD
ATOM     25  H   UNL     1     135.204 143.745 150.646  1.00  0.00     0.348 HD
ENDROOT
TORSDOF 0
ENDMDL
MODEL 7
REMARK VINA RESULT:    -6.351      2.800      5.914
REMARK INTER + INTRA:          -6.351
REMARK INTER:                  -6.351
REMARK INTRA:                   0.000
REMARK UNBOUND:                 0.000
REMARK SMILES C[NH+]1CCN(C2=[NH+]c3ccccc3Oc3ccc(Cl)cc32)CC1
REMARK SMILES IDX 7 1 6 2 21 3 5 4 8 5 9 6 13 7 10 8 12 9 14 10 11 11 15 12
REMARK SMILES IDX 16 13 17 14 18 15 20 16 19 17 4 18 22 19 3 20 23 21 2 22
REMARK SMILES IDX 1 23
REMARK H PARENT 7 24 2 25
REMARK Flexibility Score: inf
ROOT
ATOM      1  N   UNL     1     130.596 140.012 146.946  1.00  0.00    -0.237 N 
ATOM      2  C   UNL     1     131.569 139.894 146.079  1.00  0.00     0.286 C 
ATOM      3  C   UNL     1     132.884 139.275 146.397  1.00  0.00     0.108 A 
ATOM      4  N   UNL     1     131.350 140.339 144.726  1.00  0.00    -0.250 N 
ATOM      5  C   UNL     1     130.593 139.596 148.323  1.00  0.00     0.168 A 
ATOM      6  C   UNL     1     129.376 139.175 148.886  1.00  0.00     0.056 A 
ATOM      7  C   UNL     1     131.708 139.778 149.167  1.00  0.00     0.173 A 
ATOM      8  C   UNL     1     129.268 138.930 150.256  1.00  0.00     0.005 A 
ATOM      9  C   UNL     1     131.580 139.562 150.546  1.00  0.00     0.052 A 
ATOM     10  O   UNL     1     132.954 140.163 148.682  1.00  0.00    -0.452 OA
ATOM     11  C   UNL     1     130.369 139.132 151.088  1.00  0.00     0.004 A 
ATOM     12  C   UNL     1     133.561 139.521 147.607  1.00  0.00     0.143 A 
ATOM     13  C   UNL     1     134.888 139.101 147.764  1.00  0.00     0.049 A 
ATOM     14  C   UNL     1     135.532 138.392 146.750  1.00  0.00     0.024 A 
ATOM     15  C   UNL     1     134.856 138.104 145.565  1.00  0.00     0.042 A 
ATOM     16  C   UNL     1     133.543 138.549 145.386  1.00  0.00     0.041 A 
ATOM     17  Cl  UNL     1     135.662 137.212 144.288  1.00  0.00    -0.084 Cl
ATOM     18  C   UNL     1     132.199 141.390 144.158  1.00  0.00     0.298 C 
ATOM     19  C   UNL     1     130.135 139.965 144.000  1.00  0.00     0.298 C 
ATOM     20  C   UNL     1     132.470 141.097 142.679  1.00  0.00     0.308 C 
ATOM     21  C   UNL     1     130.470 139.713 142.525  1.00  0.00     0.308 C 
ATOM     22  N   UNL     1     131.206 140.860 141.947  1.00  0.00    -0.331 N 
ATOM     23  C   UNL     1     131.487 140.611 140.523  1.00  0.00     0.332 C 
ATOM     24  H   UNL     1     129.696 140.420 146.603  1.00  0.00     0.312 HD
ATOM     25  H   UNL     1     130.607 141.718 142.009  1.00  0.00     0.348 HD
ENDROOT
TORSDOF 0
ENDMDL
MODEL 8
REMARK VINA RESULT:    -6.240      2.592      3.070
REMARK INTER + INTRA:          -6.240
REMARK INTER:                  -6.240
REMARK INTRA:                   0.000
REMARK UNBOUND:                 0.000
REMARK SMILES C[NH+]1CCN(C2=[NH+]c3ccccc3Oc3ccc(Cl)cc32)CC1
REMARK SMILES IDX 7 1 6 2 21 3 5 4 8 5 9 6 13 7 10 8 12 9 14 10 11 11 15 12
REMARK SMILES IDX 16 13 17 14 18 15 20 16 19 17 4 18 22 19 3 20 23 21 2 22
REMARK SMILES IDX 1 23
REMARK H PARENT 7 24 2 25
REMARK Flexibility Score: inf
ROOT
ATOM      1  N   UNL     1     133.410 139.380 145.923  1.00  0.00    -0.237 N 
ATOM      2  C   UNL     1     133.316 139.184 147.213  1.00  0.00     0.286 C 
ATOM      3  C   UNL     1     132.035 138.888 147.908  1.00  0.00     0.108 A 
ATOM      4  N   UNL     1     134.518 139.204 148.007  1.00  0.00    -0.250 N 
ATOM      5  C   UNL     1     132.348 139.361 144.953  1.00  0.00     0.168 A 
ATOM      6  C   UNL     1     132.647 138.925 143.650  1.00  0.00     0.056 A 
ATOM      7  C   UNL     1     131.086 139.937 145.205  1.00  0.00     0.173 A 
ATOM      8  C   UNL     1     131.712 139.050 142.621  1.00  0.00     0.005 A 
ATOM      9  C   UNL     1     130.167 140.088 144.159  1.00  0.00     0.052 A 
ATOM     10  O   UNL     1     130.703 140.364 146.473  1.00  0.00    -0.452 OA
ATOM     11  C   UNL     1     130.474 139.639 142.874  1.00  0.00     0.004 A 
ATOM     12  C   UNL     1     130.835 139.556 147.598  1.00  0.00     0.143 A 
ATOM     13  C   UNL     1     129.716 139.406 148.428  1.00  0.00     0.049 A 
ATOM     14  C   UNL     1     129.761 138.557 149.534  1.00  0.00     0.024 A 
ATOM     15  C   UNL     1     130.931 137.856 149.825  1.00  0.00     0.042 A 
ATOM     16  C   UNL     1     132.063 138.025 149.022  1.00  0.00     0.041 A 
ATOM     17  Cl  UNL     1     130.992 136.786 151.213  1.00  0.00    -0.084 Cl
ATOM     18  C   UNL     1     134.660 140.179 149.091  1.00  0.00     0.298 C 
ATOM     19  C   UNL     1     135.709 138.461 147.586  1.00  0.00     0.298 C 
ATOM     20  C   UNL     1     135.397 139.539 150.272  1.00  0.00     0.308 C 
ATOM     21  C   UNL     1     136.412 137.873 148.814  1.00  0.00     0.308 C 
ATOM     22  N   UNL     1     136.665 138.918 149.831  1.00  0.00    -0.331 N 
ATOM     23  C   UNL     1     137.371 138.337 150.985  1.00  0.00     0.332 C 
ATOM     24  H   UNL     1     134.367 139.535 145.530  1.00  0.00     0.312 HD
ATOM     25  H   UNL     1     137.283 139.657 149.417  1.00  0.00     0.348 HD
ENDROOT
TORSDOF 0
ENDMDL
MODEL 9
REMARK VINA RESULT:    -6.135      2.675      4.821
REMARK INTER + INTRA:          -6.135
REMARK INTER:                  -6.135
REMARK INTRA:                   0.000
REMARK UNBOUND:                 0.000
REMARK SMILES C[NH+]1CCN(C2=[NH+]c3ccccc3Oc3ccc(Cl)cc32)CC1
REMARK SMILES IDX 7 1 6 2 21 3 5 4 8 5 9 6 13 7 10 8 12 9 14 10 11 11 15 12
REMARK SMILES IDX 16 13 17 14 18 15 20 16 19 17 4 18 22 19 3 20 23 21 2 22
REMARK SMILES IDX 1 23
REMARK H PARENT 7 24 2 25
REMARK Flexibility Score: inf
ROOT
ATOM      1  N   UNL     1     132.813 140.972 148.270  1.00  0.00    -0.237 N 
ATOM      2  C   UNL     1     133.109 140.723 147.020  1.00  0.00     0.286 C 
ATOM      3  C   UNL     1     132.092 140.419 145.979  1.00  0.00     0.108 A 
ATOM      4  N   UNL     1     134.488 140.792 146.608  1.00  0.00    -0.250 N 
ATOM      5  C   UNL     1     131.508 140.997 148.875  1.00  0.00     0.168 A 
ATOM      6  C   UNL     1     131.289 141.882 149.945  1.00  0.00     0.056 A 
ATOM      7  C   UNL     1     130.516 140.044 148.565  1.00  0.00     0.173 A 
ATOM      8  C   UNL     1     130.108 141.829 150.686  1.00  0.00     0.005 A 
ATOM      9  C   UNL     1     129.349 139.977 149.336  1.00  0.00     0.052 A 
ATOM     10  O   UNL     1     130.645 139.154 147.502  1.00  0.00    -0.452 OA
ATOM     11  C   UNL     1     129.140 140.871 150.387  1.00  0.00     0.004 A 
ATOM     12  C   UNL     1     130.992 139.574 146.222  1.00  0.00     0.143 A 
ATOM     13  C   UNL     1     130.193 139.141 145.155  1.00  0.00     0.049 A 
ATOM     14  C   UNL     1     130.446 139.580 143.856  1.00  0.00     0.024 A 
ATOM     15  C   UNL     1     131.506 140.452 143.610  1.00  0.00     0.042 A 
ATOM     16  C   UNL     1     132.328 140.863 144.663  1.00  0.00     0.041 A 
ATOM     17  Cl  UNL     1     131.826 141.009 141.978  1.00  0.00    -0.084 Cl
ATOM     18  C   UNL     1     135.140 139.607 146.043  1.00  0.00     0.298 C 
ATOM     19  C   UNL     1     135.330 141.929 146.987  1.00  0.00     0.298 C 
ATOM     20  C   UNL     1     136.097 140.026 144.922  1.00  0.00     0.308 C 
ATOM     21  C   UNL     1     136.279 142.277 145.835  1.00  0.00     0.308 C 
ATOM     22  N   UNL     1     137.025 141.081 145.384  1.00  0.00    -0.331 N 
ATOM     23  C   UNL     1     137.955 141.445 144.303  1.00  0.00     0.332 C 
ATOM     24  H   UNL     1     133.603 141.220 148.909  1.00  0.00     0.312 HD
ATOM     25  H   UNL     1     137.595 140.710 146.183  1.00  0.00     0.348 HD
ENDROOT
TORSDOF 0
ENDMDL
