MODEL 1
REMARK VINA RESULT:    -2.989      0.000      0.000
REMARK INTER + INTRA:          -4.554
REMARK INTER:                  -4.037
REMARK INTRA:                  -0.517
REMARK UNBOUND:                -0.517
REMARK SMILES [NH3+]CCCC[C@H]([NH3+])C(=O)[O-]
REMARK SMILES IDX 4 1 3 2 2 3 1 4 5 8 6 9 7 10 8 14 9 15 10 16
REMARK H PARENT 1 5 1 6 1 7 7 11 7 12 7 13
REMARK Flexibility Score: inf
ROOT
ATOM      1  C   UNL     1     153.543 103.778  41.962  1.00  0.00     0.012 C 
ENDROOT
BRANCH   1   2
ATOM      2  C   UNL     1     154.926 103.598  41.317  1.00  0.00     0.061 C 
BRANCH   2   3
ATOM      3  C   UNL     1     154.850 103.014  39.897  1.00  0.00     0.258 C 
BRANCH   3   4
ATOM      4  N   UNL     1     153.596 102.285  39.701  1.00  0.00    -0.358 N 
ATOM      5  H   UNL     1     152.943 102.471  40.496  1.00  0.00     0.344 HD
ATOM      6  H   UNL     1     153.150 102.575  38.801  1.00  0.00     0.344 HD
ATOM      7  H   UNL     1     153.798 101.260  39.663  1.00  0.00     0.344 HD
ENDBRANCH   3   4
ENDBRANCH   2   3
ENDBRANCH   1   2
BRANCH   1   8
ATOM      8  C   UNL     1     152.972 105.192  41.751  1.00  0.00     0.072 C 
BRANCH   8   9
ATOM      9  C   UNL     1     151.482 105.177  41.340  1.00  0.00     0.227 C 
BRANCH   9  10
ATOM     10  N   UNL     1     150.846 103.886  41.634  1.00  0.00    -0.350 N 
ATOM     11  H   UNL     1     150.280 103.941  42.512  1.00  0.00     0.345 HD
ATOM     12  H   UNL     1     150.228 103.599  40.841  1.00  0.00     0.345 HD
ATOM     13  H   UNL     1     151.576 103.145  41.745  1.00  0.00     0.345 HD
ENDBRANCH   9  10
BRANCH   9  14
ATOM     14  C   UNL     1     151.360 105.492  39.872  1.00  0.00     0.099 C 
ATOM     15  O   UNL     1     150.869 106.589  39.493  1.00  0.00    -0.544 OA
ATOM     16  O   UNL     1     151.769 104.561  38.926  1.00  0.00    -0.544 OA
ENDBRANCH   9  14
ENDBRANCH   8   9
ENDBRANCH   1   8
TORSDOF 7
ENDMDL
MODEL 2
REMARK VINA RESULT:    -2.898      2.566      4.002
REMARK INTER + INTRA:          -4.432
REMARK INTER:                  -3.885
REMARK INTRA:                  -0.547
REMARK UNBOUND:                -0.517
REMARK SMILES [NH3+]CCCC[C@H]([NH3+])C(=O)[O-]
REMARK SMILES IDX 4 1 3 2 2 3 1 4 5 8 6 9 7 10 8 14 9 15 10 16
REMARK H PARENT 1 5 1 6 1 7 7 11 7 12 7 13
REMARK Flexibility Score: inf
ROOT
ATOM      1  C   UNL     1     151.524 104.400  42.100  1.00  0.00     0.012 C 
ENDROOT
BRANCH   1   2
ATOM      2  C   UNL     1     151.267 105.331  40.904  1.00  0.00     0.061 C 
BRANCH   2   3
ATOM      3  C   UNL     1     151.675 106.785  41.182  1.00  0.00     0.258 C 
BRANCH   3   4
ATOM      4  N   UNL     1     152.926 107.116  40.499  1.00  0.00    -0.358 N 
ATOM      5  H   UNL     1     153.534 106.267  40.431  1.00  0.00     0.344 HD
ATOM      6  H   UNL     1     152.725 107.484  39.541  1.00  0.00     0.344 HD
ATOM      7  H   UNL     1     153.431 107.850  41.045  1.00  0.00     0.344 HD
ENDBRANCH   3   4
ENDBRANCH   2   3
ENDBRANCH   1   2
BRANCH   1   8
ATOM      8  C   UNL     1     152.360 103.166  41.719  1.00  0.00     0.072 C 
BRANCH   8   9
ATOM      9  C   UNL     1     153.408 103.471  40.624  1.00  0.00     0.227 C 
BRANCH   9  10
ATOM     10  N   UNL     1     153.633 102.315  39.745  1.00  0.00    -0.350 N 
ATOM     11  H   UNL     1     153.561 102.592  38.739  1.00  0.00     0.345 HD
ATOM     12  H   UNL     1     154.576 101.903  39.925  1.00  0.00     0.345 HD
ATOM     13  H   UNL     1     152.924 101.572  39.945  1.00  0.00     0.345 HD
ENDBRANCH   9  10
BRANCH   9  14
ATOM     14  C   UNL     1     154.703 103.892  41.266  1.00  0.00     0.099 C 
ATOM     15  O   UNL     1     154.945 105.111  41.475  1.00  0.00    -0.544 OA
ATOM     16  O   UNL     1     155.650 102.936  41.612  1.00  0.00    -0.544 OA
ENDBRANCH   9  14
ENDBRANCH   8   9
ENDBRANCH   1   8
TORSDOF 7
ENDMDL
MODEL 3
REMARK VINA RESULT:    -2.889      2.151      4.042
REMARK INTER + INTRA:          -4.419
REMARK INTER:                  -3.869
REMARK INTRA:                  -0.550
REMARK UNBOUND:                -0.517
REMARK SMILES [NH3+]CCCC[C@H]([NH3+])C(=O)[O-]
REMARK SMILES IDX 4 1 3 2 2 3 1 4 5 8 6 9 7 10 8 14 9 15 10 16
REMARK H PARENT 1 5 1 6 1 7 7 11 7 12 7 13
REMARK Flexibility Score: inf
ROOT
ATOM      1  C   UNL     1     152.009 104.386  38.779  1.00  0.00     0.012 C 
ENDROOT
BRANCH   1   2
ATOM      2  C   UNL     1     151.223 105.642  39.188  1.00  0.00     0.061 C 
BRANCH   2   3
ATOM      3  C   UNL     1     151.228 105.879  40.706  1.00  0.00     0.258 C 
BRANCH   3   4
ATOM      4  N   UNL     1     150.854 104.660  41.425  1.00  0.00    -0.358 N 
ATOM      5  H   UNL     1     151.613 103.946  41.341  1.00  0.00     0.344 HD
ATOM      6  H   UNL     1     150.681 104.877  42.433  1.00  0.00     0.344 HD
ATOM      7  H   UNL     1     149.978 104.272  41.007  1.00  0.00     0.344 HD
ENDBRANCH   3   4
ENDBRANCH   2   3
ENDBRANCH   1   2
BRANCH   1   8
ATOM      8  C   UNL     1     153.532 104.596  38.839  1.00  0.00     0.072 C 
BRANCH   8   9
ATOM      9  C   UNL     1     154.247 103.524  39.693  1.00  0.00     0.227 C 
BRANCH   9  10
ATOM     10  N   UNL     1     153.501 102.258  39.720  1.00  0.00    -0.350 N 
ATOM     11  H   UNL     1     154.133 101.449  39.520  1.00  0.00     0.345 HD
ATOM     12  H   UNL     1     153.052 102.124  40.654  1.00  0.00     0.345 HD
ATOM     13  H   UNL     1     152.737 102.279  39.006  1.00  0.00     0.345 HD
ENDBRANCH   9  10
BRANCH   9  14
ATOM     14  C   UNL     1     154.442 104.039  41.094  1.00  0.00     0.099 C 
ATOM     15  O   UNL     1     155.382 104.835  41.358  1.00  0.00    -0.544 OA
ATOM     16  O   UNL     1     153.594 103.621  42.112  1.00  0.00    -0.544 OA
ENDBRANCH   9  14
ENDBRANCH   8   9
ENDBRANCH   1   8
TORSDOF 7
ENDMDL
MODEL 4
REMARK VINA RESULT:    -2.862      3.125      4.505
REMARK INTER + INTRA:          -4.383
REMARK INTER:                  -4.131
REMARK INTRA:                  -0.253
REMARK UNBOUND:                -0.517
REMARK SMILES [NH3+]CCCC[C@H]([NH3+])C(=O)[O-]
REMARK SMILES IDX 4 1 3 2 2 3 1 4 5 8 6 9 7 10 8 14 9 15 10 16
REMARK H PARENT 1 5 1 6 1 7 7 11 7 12 7 13
REMARK Flexibility Score: inf
ROOT
ATOM      1  C   UNL     1     153.428 104.160  39.493  1.00  0.00     0.012 C 
ENDROOT
BRANCH   1   2
ATOM      2  C   UNL     1     151.893 104.229  39.447  1.00  0.00     0.061 C 
BRANCH   2   3
ATOM      3  C   UNL     1     151.310 105.217  40.470  1.00  0.00     0.258 C 
BRANCH   3   4
ATOM      4  N   UNL     1     150.938 104.528  41.706  1.00  0.00    -0.358 N 
ATOM      5  H   UNL     1     150.701 105.226  42.449  1.00  0.00     0.344 HD
ATOM      6  H   UNL     1     150.119 103.901  41.535  1.00  0.00     0.344 HD
ATOM      7  H   UNL     1     151.745 103.950  42.032  1.00  0.00     0.344 HD
ENDBRANCH   3   4
ENDBRANCH   2   3
ENDBRANCH   1   2
BRANCH   1   8
ATOM      8  C   UNL     1     153.942 102.972  40.324  1.00  0.00     0.072 C 
BRANCH   8   9
ATOM      9  C   UNL     1     154.887 103.409  41.467  1.00  0.00     0.227 C 
BRANCH   9  10
ATOM     10  N   UNL     1     154.628 104.792  41.893  1.00  0.00    -0.350 N 
ATOM     11  H   UNL     1     154.155 104.812  42.825  1.00  0.00     0.345 HD
ATOM     12  H   UNL     1     155.525 105.326  41.948  1.00  0.00     0.345 HD
ATOM     13  H   UNL     1     154.020 105.273  41.191  1.00  0.00     0.345 HD
ENDBRANCH   9  10
BRANCH   9  14
ATOM     14  C   UNL     1     156.319 103.264  41.023  1.00  0.00     0.099 C 
ATOM     15  O   UNL     1     157.026 104.283  40.804  1.00  0.00    -0.544 OA
ATOM     16  O   UNL     1     156.862 101.999  40.833  1.00  0.00    -0.544 OA
ENDBRANCH   9  14
ENDBRANCH   8   9
ENDBRANCH   1   8
TORSDOF 7
ENDMDL
MODEL 5
REMARK VINA RESULT:    -2.846      1.799      2.030
REMARK INTER + INTRA:          -4.362
REMARK INTER:                  -3.801
REMARK INTRA:                  -0.561
REMARK UNBOUND:                -0.517
REMARK SMILES [NH3+]CCCC[C@H]([NH3+])C(=O)[O-]
REMARK SMILES IDX 4 1 3 2 2 3 1 4 5 8 6 9 7 10 8 14 9 15 10 16
REMARK H PARENT 1 5 1 6 1 7 7 11 7 12 7 13
REMARK Flexibility Score: inf
ROOT
ATOM      1  C   UNL     1     154.163 102.920  40.278  1.00  0.00     0.012 C 
ENDROOT
BRANCH   1   2
ATOM      2  C   UNL     1     155.098 103.445  41.379  1.00  0.00     0.061 C 
BRANCH   2   3
ATOM      3  C   UNL     1     156.045 104.547  40.880  1.00  0.00     0.258 C 
BRANCH   3   4
ATOM      4  N   UNL     1     155.561 105.870  41.276  1.00  0.00    -0.358 N 
ATOM      5  H   UNL     1     154.516 105.874  41.312  1.00  0.00     0.344 HD
ATOM      6  H   UNL     1     155.948 106.128  42.212  1.00  0.00     0.344 HD
ATOM      7  H   UNL     1     155.877 106.575  40.572  1.00  0.00     0.344 HD
ENDBRANCH   3   4
ENDBRANCH   2   3
ENDBRANCH   1   2
BRANCH   1   8
ATOM      8  C   UNL     1     152.680 102.977  40.685  1.00  0.00     0.072 C 
BRANCH   8   9
ATOM      9  C   UNL     1     152.211 104.409  41.031  1.00  0.00     0.227 C 
BRANCH   9  10
ATOM     10  N   UNL     1     150.862 104.418  41.612  1.00  0.00    -0.350 N 
ATOM     11  H   UNL     1     150.235 103.749  41.109  1.00  0.00     0.345 HD
ATOM     12  H   UNL     1     150.903 104.159  42.624  1.00  0.00     0.345 HD
ATOM     13  H   UNL     1     150.454 105.379  41.552  1.00  0.00     0.345 HD
ENDBRANCH   9  10
BRANCH   9  14
ATOM     14  C   UNL     1     152.248 105.266  39.794  1.00  0.00     0.099 C 
ATOM     15  O   UNL     1     152.959 106.305  39.757  1.00  0.00    -0.544 OA
ATOM     16  O   UNL     1     151.476 104.925  38.690  1.00  0.00    -0.544 OA
ENDBRANCH   9  14
ENDBRANCH   8   9
ENDBRANCH   1   8
TORSDOF 7
ENDMDL
MODEL 6
REMARK VINA RESULT:    -2.825      2.208      2.892
REMARK INTER + INTRA:          -4.333
REMARK INTER:                  -4.197
REMARK INTRA:                  -0.136
REMARK UNBOUND:                -0.517
REMARK SMILES [NH3+]CCCC[C@H]([NH3+])C(=O)[O-]
REMARK SMILES IDX 4 1 3 2 2 3 1 4 5 8 6 9 7 10 8 14 9 15 10 16
REMARK H PARENT 1 5 1 6 1 7 7 11 7 12 7 13
REMARK Flexibility Score: inf
ROOT
ATOM      1  C   UNL     1     155.712 102.995  41.295  1.00  0.00     0.012 C 
ENDROOT
BRANCH   1   2
ATOM      2  C   UNL     1     156.828 103.792  40.600  1.00  0.00     0.061 C 
BRANCH   2   3
ATOM      3  C   UNL     1     157.175 103.241  39.208  1.00  0.00     0.258 C 
BRANCH   3   4
ATOM      4  N   UNL     1     158.426 102.483  39.245  1.00  0.00    -0.358 N 
ATOM      5  H   UNL     1     159.200 103.086  39.608  1.00  0.00     0.344 HD
ATOM      6  H   UNL     1     158.318 101.641  39.854  1.00  0.00     0.344 HD
ATOM      7  H   UNL     1     158.666 102.172  38.276  1.00  0.00     0.344 HD
ENDBRANCH   3   4
ENDBRANCH   2   3
ENDBRANCH   1   2
BRANCH   1   8
ATOM      8  C   UNL     1     154.384 103.769  41.360  1.00  0.00     0.072 C 
BRANCH   8   9
ATOM      9  C   UNL     1     153.199 102.968  40.775  1.00  0.00     0.227 C 
BRANCH   9  10
ATOM     10  N   UNL     1     153.525 102.385  39.466  1.00  0.00    -0.350 N 
ATOM     11  H   UNL     1     152.722 102.485  38.803  1.00  0.00     0.345 HD
ATOM     12  H   UNL     1     154.368 102.853  39.063  1.00  0.00     0.345 HD
ATOM     13  H   UNL     1     153.753 101.370  39.575  1.00  0.00     0.345 HD
ENDBRANCH   9  10
BRANCH   9  14
ATOM     14  C   UNL     1     151.993 103.863  40.657  1.00  0.00     0.099 C 
ATOM     15  O   UNL     1     151.711 104.414  39.560  1.00  0.00    -0.544 OA
ATOM     16  O   UNL     1     151.194 104.101  41.769  1.00  0.00    -0.544 OA
ENDBRANCH   9  14
ENDBRANCH   8   9
ENDBRANCH   1   8
TORSDOF 7
ENDMDL
MODEL 7
REMARK VINA RESULT:    -2.795      2.344      3.368
REMARK INTER + INTRA:          -4.293
REMARK INTER:                  -3.783
REMARK INTRA:                  -0.510
REMARK UNBOUND:                -0.517
REMARK SMILES [NH3+]CCCC[C@H]([NH3+])C(=O)[O-]
REMARK SMILES IDX 4 1 3 2 2 3 1 4 5 8 6 9 7 10 8 14 9 15 10 16
REMARK H PARENT 1 5 1 6 1 7 7 11 7 12 7 13
REMARK Flexibility Score: inf
ROOT
ATOM      1  C   UNL     1     153.804 103.101  40.516  1.00  0.00     0.012 C 
ENDROOT
BRANCH   1   2
ATOM      2  C   UNL     1     152.339 102.817  40.883  1.00  0.00     0.061 C 
BRANCH   2   3
ATOM      3  C   UNL     1     151.859 103.634  42.093  1.00  0.00     0.258 C 
BRANCH   3   4
ATOM      4  N   UNL     1     150.853 104.618  41.692  1.00  0.00    -0.358 N 
ATOM      5  H   UNL     1     151.302 105.389  41.145  1.00  0.00     0.344 HD
ATOM      6  H   UNL     1     150.113 104.159  41.114  1.00  0.00     0.344 HD
ATOM      7  H   UNL     1     150.412 105.025  42.548  1.00  0.00     0.344 HD
ENDBRANCH   3   4
ENDBRANCH   2   3
ENDBRANCH   1   2
BRANCH   1   8
ATOM      8  C   UNL     1     154.431 104.199  41.392  1.00  0.00     0.072 C 
BRANCH   8   9
ATOM      9  C   UNL     1     154.850 105.445  40.577  1.00  0.00     0.227 C 
BRANCH   9  10
ATOM     10  N   UNL     1     156.093 106.039  41.087  1.00  0.00    -0.350 N 
ATOM     11  H   UNL     1     155.911 106.977  41.512  1.00  0.00     0.345 HD
ATOM     12  H   UNL     1     156.526 105.412  41.802  1.00  0.00     0.345 HD
ATOM     13  H   UNL     1     156.783 106.147  40.307  1.00  0.00     0.345 HD
ENDBRANCH   9  10
BRANCH   9  14
ATOM     14  C   UNL     1     153.741 106.463  40.602  1.00  0.00     0.099 C 
ATOM     15  O   UNL     1     153.809 107.463  41.366  1.00  0.00    -0.544 OA
ATOM     16  O   UNL     1     152.623 106.292  39.795  1.00  0.00    -0.544 OA
ENDBRANCH   9  14
ENDBRANCH   8   9
ENDBRANCH   1   8
TORSDOF 7
ENDMDL
MODEL 8
REMARK VINA RESULT:    -2.774      3.187      4.961
REMARK INTER + INTRA:          -4.263
REMARK INTER:                  -3.754
REMARK INTRA:                  -0.509
REMARK UNBOUND:                -0.517
REMARK SMILES [NH3+]CCCC[C@H]([NH3+])C(=O)[O-]
REMARK SMILES IDX 4 1 3 2 2 3 1 4 5 8 6 9 7 10 8 14 9 15 10 16
REMARK H PARENT 1 5 1 6 1 7 7 11 7 12 7 13
REMARK Flexibility Score: inf
ROOT
ATOM      1  C   UNL     1     155.707 103.011  41.394  1.00  0.00     0.012 C 
ENDROOT
BRANCH   1   2
ATOM      2  C   UNL     1     154.419 103.844  41.294  1.00  0.00     0.061 C 
BRANCH   2   3
ATOM      3  C   UNL     1     153.237 103.046  40.723  1.00  0.00     0.258 C 
BRANCH   3   4
ATOM      4  N   UNL     1     153.600 102.411  39.455  1.00  0.00    -0.358 N 
ATOM      5  H   UNL     1     154.257 101.615  39.627  1.00  0.00     0.344 HD
ATOM      6  H   UNL     1     152.742 102.064  38.969  1.00  0.00     0.344 HD
ATOM      7  H   UNL     1     154.075 103.114  38.845  1.00  0.00     0.344 HD
ENDBRANCH   3   4
ENDBRANCH   2   3
ENDBRANCH   1   2
BRANCH   1   8
ATOM      8  C   UNL     1     156.899 103.678  40.685  1.00  0.00     0.072 C 
BRANCH   8   9
ATOM      9  C   UNL     1     157.251 102.998  39.343  1.00  0.00     0.227 C 
BRANCH   9  10
ATOM     10  N   UNL     1     158.673 102.636  39.268  1.00  0.00    -0.350 N 
ATOM     11  H   UNL     1     159.063 102.849  38.321  1.00  0.00     0.345 HD
ATOM     12  H   UNL     1     159.216 103.160  39.992  1.00  0.00     0.345 HD
ATOM     13  H   UNL     1     158.792 101.616  39.465  1.00  0.00     0.345 HD
ENDBRANCH   9  10
BRANCH   9  14
ATOM     14  C   UNL     1     156.889 103.912  38.202  1.00  0.00     0.099 C 
ATOM     15  O   UNL     1     157.789 104.483  37.530  1.00  0.00    -0.544 OA
ATOM     16  O   UNL     1     155.554 104.146  37.897  1.00  0.00    -0.544 OA
ENDBRANCH   9  14
ENDBRANCH   8   9
ENDBRANCH   1   8
TORSDOF 7
ENDMDL
MODEL 9
REMARK VINA RESULT:    -2.770      2.851      3.594
REMARK INTER + INTRA:          -4.258
REMARK INTER:                  -3.726
REMARK INTRA:                  -0.533
REMARK UNBOUND:                -0.517
REMARK SMILES [NH3+]CCCC[C@H]([NH3+])C(=O)[O-]
REMARK SMILES IDX 4 1 3 2 2 3 1 4 5 8 6 9 7 10 8 14 9 15 10 16
REMARK H PARENT 1 5 1 6 1 7 7 11 7 12 7 13
REMARK Flexibility Score: inf
ROOT
ATOM      1  C   UNL     1     156.908 102.444  40.412  1.00  0.00     0.012 C 
ENDROOT
BRANCH   1   2
ATOM      2  C   UNL     1     157.500 103.700  39.751  1.00  0.00     0.061 C 
BRANCH   2   3
ATOM      3  C   UNL     1     157.568 103.590  38.220  1.00  0.00     0.258 C 
BRANCH   3   4
ATOM      4  N   UNL     1     156.350 104.119  37.605  1.00  0.00    -0.358 N 
ATOM      5  H   UNL     1     156.393 105.163  37.562  1.00  0.00     0.344 HD
ATOM      6  H   UNL     1     156.237 103.729  36.641  1.00  0.00     0.344 HD
ATOM      7  H   UNL     1     155.526 103.838  38.183  1.00  0.00     0.344 HD
ENDBRANCH   3   4
ENDBRANCH   2   3
ENDBRANCH   1   2
BRANCH   1   8
ATOM      8  C   UNL     1     155.822 102.778  41.449  1.00  0.00     0.072 C 
BRANCH   8   9
ATOM      9  C   UNL     1     154.849 103.876  40.960  1.00  0.00     0.227 C 
BRANCH   9  10
ATOM     10  N   UNL     1     154.303 104.660  42.077  1.00  0.00    -0.350 N 
ATOM     11  H   UNL     1     155.002 104.744  42.850  1.00  0.00     0.345 HD
ATOM     12  H   UNL     1     154.033 105.615  41.748  1.00  0.00     0.345 HD
ATOM     13  H   UNL     1     153.439 104.200  42.446  1.00  0.00     0.345 HD
ENDBRANCH   9  10
BRANCH   9  14
ATOM     14  C   UNL     1     153.730 103.247  40.173  1.00  0.00     0.099 C 
ATOM     15  O   UNL     1     153.776 103.210  38.915  1.00  0.00    -0.544 OA
ATOM     16  O   UNL     1     152.627 102.722  40.834  1.00  0.00    -0.544 OA
ENDBRANCH   9  14
ENDBRANCH   8   9
ENDBRANCH   1   8
TORSDOF 7
ENDMDL
