MODEL 1
REMARK VINA RESULT:    -5.503      0.000      0.000
REMARK INTER + INTRA:          -5.858
REMARK INTER:                  -5.824
REMARK INTRA:                  -0.033
REMARK UNBOUND:                -0.033
REMARK SMILES COc1ccc2ccc(=O)oc2c1
REMARK SMILES IDX 3 1 13 2 12 3 6 4 5 5 4 6 7 7 8 8 9 9 10 10 11 11 2 12 1 13
REMARK H PARENT
REMARK Flexibility Score: inf
ROOT
ATOM      1  C   UNL     1      71.494  48.437   4.103  1.00  0.00     0.122 A 
ATOM      2  C   UNL     1      70.845  48.840   5.288  1.00  0.00     0.094 A 
ATOM      3  C   UNL     1      71.520  48.796   6.511  1.00  0.00     0.142 A 
ATOM      4  C   UNL     1      72.858  48.348   6.561  1.00  0.00     0.018 A 
ATOM      5  C   UNL     1      73.503  47.947   5.384  1.00  0.00     0.016 A 
ATOM      6  C   UNL     1      72.822  47.994   4.165  1.00  0.00     0.047 A 
ATOM      7  C   UNL     1      73.506  48.316   7.799  1.00  0.00     0.019 A 
ATOM      8  C   UNL     1      72.819  48.725   8.942  1.00  0.00     0.094 A 
ATOM      9  C   UNL     1      71.495  49.158   8.817  1.00  0.00     0.336 A 
ATOM     10  O   UNL     1      70.858  49.530   9.837  1.00  0.00    -0.246 OA
ATOM     11  O   UNL     1      70.902  49.177   7.626  1.00  0.00    -0.423 OA
ENDROOT
BRANCH   1  12
ATOM     12  O   UNL     1      70.859  48.462   2.852  1.00  0.00    -0.497 OA
ATOM     13  C   UNL     1      70.511  49.652   2.151  1.00  0.00     0.278 C 
ENDBRANCH   1  12
TORSDOF 1
ENDMDL
MODEL 2
REMARK VINA RESULT:    -5.428      2.443      4.850
REMARK INTER + INTRA:          -5.779
REMARK INTER:                  -5.740
REMARK INTRA:                  -0.039
REMARK UNBOUND:                -0.033
REMARK SMILES COc1ccc2ccc(=O)oc2c1
REMARK SMILES IDX 3 1 13 2 12 3 6 4 5 5 4 6 7 7 8 8 9 9 10 10 11 11 2 12 1 13
REMARK H PARENT
REMARK Flexibility Score: inf
ROOT
ATOM      1  C   UNL     1      72.407  46.703   5.997  1.00  0.00     0.122 A 
ATOM      2  C   UNL     1      72.296  47.147   4.665  1.00  0.00     0.094 A 
ATOM      3  C   UNL     1      71.471  48.232   4.350  1.00  0.00     0.142 A 
ATOM      4  C   UNL     1      70.748  48.885   5.371  1.00  0.00     0.018 A 
ATOM      5  C   UNL     1      70.859  48.443   6.696  1.00  0.00     0.016 A 
ATOM      6  C   UNL     1      71.685  47.359   7.003  1.00  0.00     0.047 A 
ATOM      7  C   UNL     1      69.932  49.966   5.024  1.00  0.00     0.019 A 
ATOM      8  C   UNL     1      69.857  50.367   3.691  1.00  0.00     0.094 A 
ATOM      9  C   UNL     1      70.602  49.673   2.732  1.00  0.00     0.336 A 
ATOM     10  O   UNL     1      70.547  50.018   1.523  1.00  0.00    -0.246 OA
ATOM     11  O   UNL     1      71.370  48.646   3.089  1.00  0.00    -0.423 OA
ENDROOT
BRANCH   1  12
ATOM     12  O   UNL     1      73.221  45.620   6.363  1.00  0.00    -0.497 OA
ATOM     13  C   UNL     1      74.208  45.035   5.520  1.00  0.00     0.278 C 
ENDBRANCH   1  12
TORSDOF 1
ENDMDL
MODEL 3
REMARK VINA RESULT:    -5.399      1.566      2.290
REMARK INTER + INTRA:          -5.748
REMARK INTER:                  -5.711
REMARK INTRA:                  -0.037
REMARK UNBOUND:                -0.033
REMARK SMILES COc1ccc2ccc(=O)oc2c1
REMARK SMILES IDX 3 1 13 2 12 3 6 4 5 5 4 6 7 7 8 8 9 9 10 10 11 11 2 12 1 13
REMARK H PARENT
REMARK Flexibility Score: inf
ROOT
ATOM      1  C   UNL     1      71.020  48.792   4.376  1.00  0.00     0.122 A 
ATOM      2  C   UNL     1      72.019  48.123   5.112  1.00  0.00     0.094 A 
ATOM      3  C   UNL     1      72.117  48.305   6.495  1.00  0.00     0.142 A 
ATOM      4  C   UNL     1      71.211  49.162   7.158  1.00  0.00     0.018 A 
ATOM      5  C   UNL     1      70.218  49.826   6.426  1.00  0.00     0.016 A 
ATOM      6  C   UNL     1      70.126  49.639   5.045  1.00  0.00     0.047 A 
ATOM      7  C   UNL     1      71.335  49.323   8.541  1.00  0.00     0.019 A 
ATOM      8  C   UNL     1      72.340  48.639   9.223  1.00  0.00     0.094 A 
ATOM      9  C   UNL     1      73.202  47.806   8.501  1.00  0.00     0.336 A 
ATOM     10  O   UNL     1      74.117  47.181   9.098  1.00  0.00    -0.246 OA
ATOM     11  O   UNL     1      73.063  47.671   7.184  1.00  0.00    -0.423 OA
ENDROOT
BRANCH   1  12
ATOM     12  O   UNL     1      70.882  48.641   2.988  1.00  0.00    -0.497 OA
ATOM     13  C   UNL     1      70.453  49.674   2.106  1.00  0.00     0.278 C 
ENDBRANCH   1  12
TORSDOF 1
ENDMDL
MODEL 4
REMARK VINA RESULT:    -5.199      2.377      3.126
REMARK INTER + INTRA:          -5.537
REMARK INTER:                  -5.498
REMARK INTRA:                  -0.039
REMARK UNBOUND:                -0.033
REMARK SMILES COc1ccc2ccc(=O)oc2c1
REMARK SMILES IDX 3 1 13 2 12 3 6 4 5 5 4 6 7 7 8 8 9 9 10 10 11 11 2 12 1 13
REMARK H PARENT
REMARK Flexibility Score: inf
ROOT
ATOM      1  C   UNL     1      70.477  49.567   4.121  1.00  0.00     0.122 A 
ATOM      2  C   UNL     1      71.434  48.538   4.014  1.00  0.00     0.094 A 
ATOM      3  C   UNL     1      71.902  47.888   5.160  1.00  0.00     0.142 A 
ATOM      4  C   UNL     1      71.414  48.262   6.430  1.00  0.00     0.018 A 
ATOM      5  C   UNL     1      70.462  49.285   6.537  1.00  0.00     0.016 A 
ATOM      6  C   UNL     1      69.999  49.931   5.388  1.00  0.00     0.047 A 
ATOM      7  C   UNL     1      71.900  47.594   7.557  1.00  0.00     0.019 A 
ATOM      8  C   UNL     1      72.847  46.582   7.396  1.00  0.00     0.094 A 
ATOM      9  C   UNL     1      73.285  46.264   6.107  1.00  0.00     0.336 A 
ATOM     10  O   UNL     1      74.140  45.355   5.941  1.00  0.00    -0.246 OA
ATOM     11  O   UNL     1      72.806  46.917   5.051  1.00  0.00    -0.423 OA
ENDROOT
BRANCH   1  12
ATOM     12  O   UNL     1      69.977  50.249   3.002  1.00  0.00    -0.497 OA
ATOM     13  C   UNL     1      70.410  50.025   1.664  1.00  0.00     0.278 C 
ENDBRANCH   1  12
TORSDOF 1
ENDMDL
MODEL 5
REMARK VINA RESULT:    -5.199      1.302      4.562
REMARK INTER + INTRA:          -5.536
REMARK INTER:                  -5.498
REMARK INTRA:                  -0.038
REMARK UNBOUND:                -0.033
REMARK SMILES COc1ccc2ccc(=O)oc2c1
REMARK SMILES IDX 3 1 13 2 12 3 6 4 5 5 4 6 7 7 8 8 9 9 10 10 11 11 2 12 1 13
REMARK H PARENT
REMARK Flexibility Score: inf
ROOT
ATOM      1  C   UNL     1      70.721  49.377   8.571  1.00  0.00     0.122 A 
ATOM      2  C   UNL     1      70.346  49.063   7.249  1.00  0.00     0.094 A 
ATOM      3  C   UNL     1      71.306  48.639   6.326  1.00  0.00     0.142 A 
ATOM      4  C   UNL     1      72.657  48.522   6.718  1.00  0.00     0.018 A 
ATOM      5  C   UNL     1      73.030  48.834   8.032  1.00  0.00     0.016 A 
ATOM      6  C   UNL     1      72.065  49.257   8.950  1.00  0.00     0.047 A 
ATOM      7  C   UNL     1      73.593  48.095   5.773  1.00  0.00     0.019 A 
ATOM      8  C   UNL     1      73.170  47.797   4.478  1.00  0.00     0.094 A 
ATOM      9  C   UNL     1      71.815  47.935   4.159  1.00  0.00     0.336 A 
ATOM     10  O   UNL     1      71.414  47.671   2.995  1.00  0.00    -0.246 OA
ATOM     11  O   UNL     1      70.945  48.344   5.079  1.00  0.00    -0.423 OA
ENDROOT
BRANCH   1  12
ATOM     12  O   UNL     1      69.795  49.807   9.533  1.00  0.00    -0.497 OA
ATOM     13  C   UNL     1      68.393  49.569   9.464  1.00  0.00     0.278 C 
ENDBRANCH   1  12
TORSDOF 1
ENDMDL
MODEL 6
REMARK VINA RESULT:    -5.161      1.318      1.496
REMARK INTER + INTRA:          -5.496
REMARK INTER:                  -5.465
REMARK INTRA:                  -0.032
REMARK UNBOUND:                -0.033
REMARK SMILES COc1ccc2ccc(=O)oc2c1
REMARK SMILES IDX 3 1 13 2 12 3 6 4 5 5 4 6 7 7 8 8 9 9 10 10 11 11 2 12 1 13
REMARK H PARENT
REMARK Flexibility Score: inf
ROOT
ATOM      1  C   UNL     1      72.153  47.424   4.430  1.00  0.00     0.122 A 
ATOM      2  C   UNL     1      71.243  48.016   5.329  1.00  0.00     0.094 A 
ATOM      3  C   UNL     1      71.686  48.503   6.562  1.00  0.00     0.142 A 
ATOM      4  C   UNL     1      73.051  48.404   6.909  1.00  0.00     0.018 A 
ATOM      5  C   UNL     1      73.956  47.816   6.015  1.00  0.00     0.016 A 
ATOM      6  C   UNL     1      73.506  47.332   4.784  1.00  0.00     0.047 A 
ATOM      7  C   UNL     1      73.463  48.901   8.149  1.00  0.00     0.019 A 
ATOM      8  C   UNL     1      72.522  49.477   9.002  1.00  0.00     0.094 A 
ATOM      9  C   UNL     1      71.186  49.541   8.593  1.00  0.00     0.336 A 
ATOM     10  O   UNL     1      70.322  50.056   9.349  1.00  0.00    -0.246 OA
ATOM     11  O   UNL     1      70.821  49.060   7.407  1.00  0.00    -0.423 OA
ENDROOT
BRANCH   1  12
ATOM     12  O   UNL     1      71.757  46.921   3.182  1.00  0.00    -0.497 OA
ATOM     13  C   UNL     1      71.764  45.540   2.833  1.00  0.00     0.278 C 
ENDBRANCH   1  12
TORSDOF 1
ENDMDL
MODEL 7
REMARK VINA RESULT:    -5.136      1.552      4.699
REMARK INTER + INTRA:          -5.469
REMARK INTER:                  -5.435
REMARK INTRA:                  -0.035
REMARK UNBOUND:                -0.033
REMARK SMILES COc1ccc2ccc(=O)oc2c1
REMARK SMILES IDX 3 1 13 2 12 3 6 4 5 5 4 6 7 7 8 8 9 9 10 10 11 11 2 12 1 13
REMARK H PARENT
REMARK Flexibility Score: inf
ROOT
ATOM      1  C   UNL     1      70.141  49.019   8.239  1.00  0.00     0.122 A 
ATOM      2  C   UNL     1      69.801  49.344   6.911  1.00  0.00     0.094 A 
ATOM      3  C   UNL     1      70.638  48.966   5.856  1.00  0.00     0.142 A 
ATOM      4  C   UNL     1      71.828  48.255   6.122  1.00  0.00     0.018 A 
ATOM      5  C   UNL     1      72.166  47.932   7.442  1.00  0.00     0.016 A 
ATOM      6  C   UNL     1      71.325  48.312   8.491  1.00  0.00     0.047 A 
ATOM      7  C   UNL     1      72.643  47.892   5.046  1.00  0.00     0.019 A 
ATOM      8  C   UNL     1      72.261  48.238   3.751  1.00  0.00     0.094 A 
ATOM      9  C   UNL     1      71.068  48.943   3.562  1.00  0.00     0.336 A 
ATOM     10  O   UNL     1      70.706  49.265   2.400  1.00  0.00    -0.246 OA
ATOM     11  O   UNL     1      70.311  49.277   4.604  1.00  0.00    -0.423 OA
ENDROOT
BRANCH   1  12
ATOM     12  O   UNL     1      69.335  49.375   9.331  1.00  0.00    -0.497 OA
ATOM     13  C   UNL     1      67.960  49.030   9.461  1.00  0.00     0.278 C 
ENDBRANCH   1  12
TORSDOF 1
ENDMDL
MODEL 8
REMARK VINA RESULT:    -4.654      1.926      4.687
REMARK INTER + INTRA:          -4.959
REMARK INTER:                  -4.921
REMARK INTRA:                  -0.038
REMARK UNBOUND:                -0.033
REMARK SMILES COc1ccc2ccc(=O)oc2c1
REMARK SMILES IDX 3 1 13 2 12 3 6 4 5 5 4 6 7 7 8 8 9 9 10 10 11 11 2 12 1 13
REMARK H PARENT
REMARK Flexibility Score: inf
ROOT
ATOM      1  C   UNL     1      73.083  46.981   7.859  1.00  0.00     0.122 A 
ATOM      2  C   UNL     1      72.132  47.945   7.468  1.00  0.00     0.094 A 
ATOM      3  C   UNL     1      71.850  48.147   6.113  1.00  0.00     0.142 A 
ATOM      4  C   UNL     1      72.519  47.382   5.133  1.00  0.00     0.018 A 
ATOM      5  C   UNL     1      73.464  46.424   5.523  1.00  0.00     0.016 A 
ATOM      6  C   UNL     1      73.741  46.227   6.878  1.00  0.00     0.047 A 
ATOM      7  C   UNL     1      72.215  47.607   3.788  1.00  0.00     0.019 A 
ATOM      8  C   UNL     1      71.266  48.572   3.453  1.00  0.00     0.094 A 
ATOM      9  C   UNL     1      70.642  49.293   4.477  1.00  0.00     0.336 A 
ATOM     10  O   UNL     1      69.783  50.169   4.195  1.00  0.00    -0.246 OA
ATOM     11  O   UNL     1      70.951  49.058   5.750  1.00  0.00    -0.423 OA
ENDROOT
BRANCH   1  12
ATOM     12  O   UNL     1      73.401  46.742   9.205  1.00  0.00    -0.497 OA
ATOM     13  C   UNL     1      74.663  46.267   9.661  1.00  0.00     0.278 C 
ENDBRANCH   1  12
TORSDOF 1
ENDMDL
