MODEL 1
REMARK VINA RESULT:    -3.817      0.000      0.000
REMARK INTER + INTRA:          -5.736
REMARK INTER:                  -5.156
REMARK INTRA:                  -0.580
REMARK UNBOUND:                -0.580
REMARK SMILES [NH3+]CCCC[C@@H]([NH3+])C(=O)[O-]
REMARK SMILES IDX 4 1 3 2 2 3 1 4 5 8 6 9 7 10 8 14 9 15 10 16
REMARK H PARENT 1 5 1 6 1 7 7 11 7 12 7 13
REMARK Flexibility Score: inf
ROOT
ATOM      1  C   UNL     1     122.734 128.864 149.858  1.00  0.00     0.012 C 
ENDROOT
BRANCH   1   2
ATOM      2  C   UNL     1     121.882 127.864 149.060  1.00  0.00     0.061 C 
BRANCH   2   3
ATOM      3  C   UNL     1     122.666 127.301 147.867  1.00  0.00     0.258 C 
BRANCH   3   4
ATOM      4  N   UNL     1     122.285 127.975 146.626  1.00  0.00    -0.358 N 
ATOM      5  H   UNL     1     123.097 127.966 145.969  1.00  0.00     0.344 HD
ATOM      6  H   UNL     1     121.481 127.476 146.179  1.00  0.00     0.344 HD
ATOM      7  H   UNL     1     122.020 128.968 146.823  1.00  0.00     0.344 HD
ENDBRANCH   3   4
ENDBRANCH   2   3
ENDBRANCH   1   2
BRANCH   1   8
ATOM      8  C   UNL     1     122.517 130.319 149.394  1.00  0.00     0.072 C 
BRANCH   8   9
ATOM      9  C   UNL     1     123.779 130.967 148.777  1.00  0.00     0.227 C 
BRANCH   9  10
ATOM     10  N   UNL     1     124.939 130.068 148.833  1.00  0.00    -0.350 N 
ATOM     11  H   UNL     1     125.828 130.597 148.674  1.00  0.00     0.345 HD
ATOM     12  H   UNL     1     124.982 129.599 149.767  1.00  0.00     0.345 HD
ATOM     13  H   UNL     1     124.844 129.318 148.110  1.00  0.00     0.345 HD
ENDBRANCH   9  10
BRANCH   9  14
ATOM     14  C   UNL     1     123.496 131.356 147.350  1.00  0.00     0.099 C 
ATOM     15  O   UNL     1     122.428 130.989 146.793  1.00  0.00    -0.544 OA
ATOM     16  O   UNL     1     124.423 132.103 146.631  1.00  0.00    -0.544 OA
ENDBRANCH   9  14
ENDBRANCH   8   9
ENDBRANCH   1   8
TORSDOF 7
ENDMDL
MODEL 2
REMARK VINA RESULT:    -3.745      1.912      2.539
REMARK INTER + INTRA:          -5.639
REMARK INTER:                  -5.126
REMARK INTRA:                  -0.512
REMARK UNBOUND:                -0.580
REMARK SMILES [NH3+]CCCC[C@@H]([NH3+])C(=O)[O-]
REMARK SMILES IDX 4 1 3 2 2 3 1 4 5 8 6 9 7 10 8 14 9 15 10 16
REMARK H PARENT 1 5 1 6 1 7 7 11 7 12 7 13
REMARK Flexibility Score: inf
ROOT
ATOM      1  C   UNL     1     124.064 130.375 148.038  1.00  0.00     0.012 C 
ENDROOT
BRANCH   1   2
ATOM      2  C   UNL     1     123.458 129.059 148.552  1.00  0.00     0.061 C 
BRANCH   2   3
ATOM      3  C   UNL     1     123.486 127.977 147.464  1.00  0.00     0.258 C 
BRANCH   3   4
ATOM      4  N   UNL     1     122.181 127.854 146.815  1.00  0.00    -0.358 N 
ATOM      5  H   UNL     1     122.277 127.256 145.964  1.00  0.00     0.344 HD
ATOM      6  H   UNL     1     121.496 127.408 147.468  1.00  0.00     0.344 HD
ATOM      7  H   UNL     1     121.833 128.798 146.527  1.00  0.00     0.344 HD
ENDBRANCH   3   4
ENDBRANCH   2   3
ENDBRANCH   1   2
BRANCH   1   8
ATOM      8  C   UNL     1     122.984 131.386 147.601  1.00  0.00     0.072 C 
BRANCH   8   9
ATOM      9  C   UNL     1     123.299 132.087 146.259  1.00  0.00     0.227 C 
BRANCH   9  10
ATOM     10  N   UNL     1     124.663 132.631 146.232  1.00  0.00    -0.350 N 
ATOM     11  H   UNL     1     125.081 132.635 147.191  1.00  0.00     0.345 HD
ATOM     12  H   UNL     1     125.264 132.053 145.599  1.00  0.00     0.345 HD
ATOM     13  H   UNL     1     124.651 133.604 145.850  1.00  0.00     0.345 HD
ENDBRANCH   9  10
BRANCH   9  14
ATOM     14  C   UNL     1     123.109 131.112 145.127  1.00  0.00     0.099 C 
ATOM     15  O   UNL     1     123.927 131.087 144.170  1.00  0.00    -0.544 OA
ATOM     16  O   UNL     1     122.018 130.251 145.120  1.00  0.00    -0.544 OA
ENDBRANCH   9  14
ENDBRANCH   8   9
ENDBRANCH   1   8
TORSDOF 7
ENDMDL
MODEL 3
REMARK VINA RESULT:    -3.723      1.674      2.111
REMARK INTER + INTRA:          -5.609
REMARK INTER:                  -5.044
REMARK INTRA:                  -0.565
REMARK UNBOUND:                -0.580
REMARK SMILES [NH3+]CCCC[C@@H]([NH3+])C(=O)[O-]
REMARK SMILES IDX 4 1 3 2 2 3 1 4 5 8 6 9 7 10 8 14 9 15 10 16
REMARK H PARENT 1 5 1 6 1 7 7 11 7 12 7 13
REMARK Flexibility Score: inf
ROOT
ATOM      1  C   UNL     1     124.111 128.717 147.730  1.00  0.00     0.012 C 
ENDROOT
BRANCH   1   2
ATOM      2  C   UNL     1     123.200 127.524 148.063  1.00  0.00     0.061 C 
BRANCH   2   3
ATOM      3  C   UNL     1     121.873 127.614 147.299  1.00  0.00     0.258 C 
BRANCH   3   4
ATOM      4  N   UNL     1     121.929 128.654 146.273  1.00  0.00    -0.358 N 
ATOM      5  H   UNL     1     121.421 129.501 146.616  1.00  0.00     0.344 HD
ATOM      6  H   UNL     1     122.923 128.912 146.075  1.00  0.00     0.344 HD
ATOM      7  H   UNL     1     121.469 128.318 145.395  1.00  0.00     0.344 HD
ENDBRANCH   3   4
ENDBRANCH   2   3
ENDBRANCH   1   2
BRANCH   1   8
ATOM      8  C   UNL     1     124.349 129.630 148.951  1.00  0.00     0.072 C 
BRANCH   8   9
ATOM      9  C   UNL     1     123.797 131.063 148.769  1.00  0.00     0.227 C 
BRANCH   9  10
ATOM     10  N   UNL     1     124.208 131.651 147.488  1.00  0.00    -0.350 N 
ATOM     11  H   UNL     1     124.864 131.012 146.979  1.00  0.00     0.345 HD
ATOM     12  H   UNL     1     123.368 131.824 146.889  1.00  0.00     0.345 HD
ATOM     13  H   UNL     1     124.672 132.573 147.651  1.00  0.00     0.345 HD
ENDBRANCH   9  10
BRANCH   9  14
ATOM     14  C   UNL     1     122.295 131.037 148.866  1.00  0.00     0.099 C 
ATOM     15  O   UNL     1     121.735 130.712 149.945  1.00  0.00    -0.544 OA
ATOM     16  O   UNL     1     121.516 131.350 147.757  1.00  0.00    -0.544 OA
ENDBRANCH   9  14
ENDBRANCH   8   9
ENDBRANCH   1   8
TORSDOF 7
ENDMDL
MODEL 4
REMARK VINA RESULT:    -3.681      1.542      1.751
REMARK INTER + INTRA:          -5.552
REMARK INTER:                  -5.083
REMARK INTRA:                  -0.469
REMARK UNBOUND:                -0.580
REMARK SMILES [NH3+]CCCC[C@@H]([NH3+])C(=O)[O-]
REMARK SMILES IDX 4 1 3 2 2 3 1 4 5 8 6 9 7 10 8 14 9 15 10 16
REMARK H PARENT 1 5 1 6 1 7 7 11 7 12 7 13
REMARK Flexibility Score: inf
ROOT
ATOM      1  C   UNL     1     122.584 128.767 149.973  1.00  0.00     0.012 C 
ENDROOT
BRANCH   1   2
ATOM      2  C   UNL     1     121.359 127.845 150.068  1.00  0.00     0.061 C 
BRANCH   2   3
ATOM      3  C   UNL     1     121.075 127.164 148.722  1.00  0.00     0.258 C 
BRANCH   3   4
ATOM      4  N   UNL     1     122.142 126.226 148.376  1.00  0.00    -0.358 N 
ATOM      5  H   UNL     1     122.426 126.382 147.382  1.00  0.00     0.344 HD
ATOM      6  H   UNL     1     122.971 126.379 148.994  1.00  0.00     0.344 HD
ATOM      7  H   UNL     1     121.801 125.241 148.478  1.00  0.00     0.344 HD
ENDBRANCH   3   4
ENDBRANCH   2   3
ENDBRANCH   1   2
BRANCH   1   8
ATOM      8  C   UNL     1     122.337 129.977 149.047  1.00  0.00     0.072 C 
BRANCH   8   9
ATOM      9  C   UNL     1     123.528 130.296 148.114  1.00  0.00     0.227 C 
BRANCH   9  10
ATOM     10  N   UNL     1     124.813 129.918 148.717  1.00  0.00    -0.350 N 
ATOM     11  H   UNL     1     125.543 130.642 148.522  1.00  0.00     0.345 HD
ATOM     12  H   UNL     1     124.704 129.814 149.753  1.00  0.00     0.345 HD
ATOM     13  H   UNL     1     125.125 128.994 148.340  1.00  0.00     0.345 HD
ENDBRANCH   9  10
BRANCH   9  14
ATOM     14  C   UNL     1     123.344 129.581 146.802  1.00  0.00     0.099 C 
ATOM     15  O   UNL     1     123.664 128.369 146.691  1.00  0.00    -0.544 OA
ATOM     16  O   UNL     1     122.841 130.262 145.699  1.00  0.00    -0.544 OA
ENDBRANCH   9  14
ENDBRANCH   8   9
ENDBRANCH   1   8
TORSDOF 7
ENDMDL
MODEL 5
REMARK VINA RESULT:    -3.675      2.640      4.020
REMARK INTER + INTRA:          -5.544
REMARK INTER:                  -5.098
REMARK INTRA:                  -0.445
REMARK UNBOUND:                -0.580
REMARK SMILES [NH3+]CCCC[C@@H]([NH3+])C(=O)[O-]
REMARK SMILES IDX 4 1 3 2 2 3 1 4 5 8 6 9 7 10 8 14 9 15 10 16
REMARK H PARENT 1 5 1 6 1 7 7 11 7 12 7 13
REMARK Flexibility Score: inf
ROOT
ATOM      1  C   UNL     1     123.611 132.061 145.345  1.00  0.00     0.012 C 
ENDROOT
BRANCH   1   2
ATOM      2  C   UNL     1     122.786 131.693 144.101  1.00  0.00     0.061 C 
BRANCH   2   3
ATOM      3  C   UNL     1     123.589 130.790 143.155  1.00  0.00     0.258 C 
BRANCH   3   4
ATOM      4  N   UNL     1     123.759 129.454 143.725  1.00  0.00    -0.358 N 
ATOM      5  H   UNL     1     124.238 129.535 144.650  1.00  0.00     0.344 HD
ATOM      6  H   UNL     1     122.826 129.001 143.865  1.00  0.00     0.344 HD
ATOM      7  H   UNL     1     124.347 128.865 143.090  1.00  0.00     0.344 HD
ENDBRANCH   3   4
ENDBRANCH   2   3
ENDBRANCH   1   2
BRANCH   1   8
ATOM      8  C   UNL     1     122.861 131.750 146.657  1.00  0.00     0.072 C 
BRANCH   8   9
ATOM      9  C   UNL     1     123.689 130.912 147.660  1.00  0.00     0.227 C 
BRANCH   9  10
ATOM     10  N   UNL     1     123.297 131.177 149.050  1.00  0.00    -0.350 N 
ATOM     11  H   UNL     1     122.588 130.479 149.376  1.00  0.00     0.345 HD
ATOM     12  H   UNL     1     124.137 131.128 149.673  1.00  0.00     0.345 HD
ATOM     13  H   UNL     1     122.903 132.142 149.132  1.00  0.00     0.345 HD
ENDBRANCH   9  10
BRANCH   9  14
ATOM     14  C   UNL     1     123.523 129.449 147.347  1.00  0.00     0.099 C 
ATOM     15  O   UNL     1     124.332 128.606 147.814  1.00  0.00    -0.544 OA
ATOM     16  O   UNL     1     122.489 129.022 146.521  1.00  0.00    -0.544 OA
ENDBRANCH   9  14
ENDBRANCH   8   9
ENDBRANCH   1   8
TORSDOF 7
ENDMDL
MODEL 6
REMARK VINA RESULT:    -3.660      2.383      4.015
REMARK INTER + INTRA:          -5.524
REMARK INTER:                  -5.224
REMARK INTRA:                  -0.299
REMARK UNBOUND:                -0.580
REMARK SMILES [NH3+]CCCC[C@@H]([NH3+])C(=O)[O-]
REMARK SMILES IDX 4 1 3 2 2 3 1 4 5 8 6 9 7 10 8 14 9 15 10 16
REMARK H PARENT 1 5 1 6 1 7 7 11 7 12 7 13
REMARK Flexibility Score: inf
ROOT
ATOM      1  C   UNL     1     124.147 129.322 148.300  1.00  0.00     0.012 C 
ENDROOT
BRANCH   1   2
ATOM      2  C   UNL     1     124.254 130.855 148.309  1.00  0.00     0.061 C 
BRANCH   2   3
ATOM      3  C   UNL     1     123.588 131.462 147.067  1.00  0.00     0.258 C 
BRANCH   3   4
ATOM      4  N   UNL     1     124.402 132.541 146.511  1.00  0.00    -0.358 N 
ATOM      5  H   UNL     1     123.809 133.130 145.884  1.00  0.00     0.344 HD
ATOM      6  H   UNL     1     124.779 133.140 147.281  1.00  0.00     0.344 HD
ATOM      7  H   UNL     1     125.193 132.144 145.952  1.00  0.00     0.344 HD
ENDBRANCH   3   4
ENDBRANCH   2   3
ENDBRANCH   1   2
BRANCH   1   8
ATOM      8  C   UNL     1     123.430 128.793 147.040  1.00  0.00     0.072 C 
BRANCH   8   9
ATOM      9  C   UNL     1     122.277 127.808 147.352  1.00  0.00     0.227 C 
BRANCH   9  10
ATOM     10  N   UNL     1     122.761 126.592 148.017  1.00  0.00    -0.350 N 
ATOM     11  H   UNL     1     122.042 125.832 147.971  1.00  0.00     0.345 HD
ATOM     12  H   UNL     1     123.640 126.259 147.556  1.00  0.00     0.345 HD
ATOM     13  H   UNL     1     122.990 126.799 149.016  1.00  0.00     0.345 HD
ENDBRANCH   9  10
BRANCH   9  14
ATOM     14  C   UNL     1     121.251 128.494 148.214  1.00  0.00     0.099 C 
ATOM     15  O   UNL     1     120.621 129.492 147.775  1.00  0.00    -0.544 OA
ATOM     16  O   UNL     1     121.011 128.046 149.508  1.00  0.00    -0.544 OA
ENDBRANCH   9  14
ENDBRANCH   8   9
ENDBRANCH   1   8
TORSDOF 7
ENDMDL
MODEL 7
REMARK VINA RESULT:    -3.656      2.649      3.094
REMARK INTER + INTRA:          -5.519
REMARK INTER:                  -5.423
REMARK INTRA:                  -0.096
REMARK UNBOUND:                -0.580
REMARK SMILES [NH3+]CCCC[C@@H]([NH3+])C(=O)[O-]
REMARK SMILES IDX 4 1 3 2 2 3 1 4 5 8 6 9 7 10 8 14 9 15 10 16
REMARK H PARENT 1 5 1 6 1 7 7 11 7 12 7 13
REMARK Flexibility Score: inf
ROOT
ATOM      1  C   UNL     1     123.460 128.510 147.220  1.00  0.00     0.012 C 
ENDROOT
BRANCH   1   2
ATOM      2  C   UNL     1     122.993 128.442 148.682  1.00  0.00     0.061 C 
BRANCH   2   3
ATOM      3  C   UNL     1     121.788 127.503 148.833  1.00  0.00     0.258 C 
BRANCH   3   4
ATOM      4  N   UNL     1     122.114 126.155 148.368  1.00  0.00    -0.358 N 
ATOM      5  H   UNL     1     122.272 126.178 147.335  1.00  0.00     0.344 HD
ATOM      6  H   UNL     1     122.985 125.814 148.837  1.00  0.00     0.344 HD
ATOM      7  H   UNL     1     121.322 125.503 148.574  1.00  0.00     0.344 HD
ENDBRANCH   3   4
ENDBRANCH   2   3
ENDBRANCH   1   2
BRANCH   1   8
ATOM      8  C   UNL     1     122.506 129.343 146.339  1.00  0.00     0.072 C 
BRANCH   8   9
ATOM      9  C   UNL     1     123.211 130.045 145.155  1.00  0.00     0.227 C 
BRANCH   9  10
ATOM     10  N   UNL     1     123.858 129.083 144.254  1.00  0.00    -0.350 N 
ATOM     11  H   UNL     1     124.868 129.322 144.116  1.00  0.00     0.345 HD
ATOM     12  H   UNL     1     123.787 128.118 144.653  1.00  0.00     0.345 HD
ATOM     13  H   UNL     1     123.369 129.076 143.329  1.00  0.00     0.345 HD
ENDBRANCH   9  10
BRANCH   9  14
ATOM     14  C   UNL     1     122.209 130.872 144.393  1.00  0.00     0.099 C 
ATOM     15  O   UNL     1     121.084 130.391 144.099  1.00  0.00    -0.544 OA
ATOM     16  O   UNL     1     122.529 132.163 143.989  1.00  0.00    -0.544 OA
ENDBRANCH   9  14
ENDBRANCH   8   9
ENDBRANCH   1   8
TORSDOF 7
ENDMDL
MODEL 8
REMARK VINA RESULT:    -3.628      2.190      3.339
REMARK INTER + INTRA:          -5.481
REMARK INTER:                  -4.972
REMARK INTRA:                  -0.509
REMARK UNBOUND:                -0.580
REMARK SMILES [NH3+]CCCC[C@@H]([NH3+])C(=O)[O-]
REMARK SMILES IDX 4 1 3 2 2 3 1 4 5 8 6 9 7 10 8 14 9 15 10 16
REMARK H PARENT 1 5 1 6 1 7 7 11 7 12 7 13
REMARK Flexibility Score: inf
ROOT
ATOM      1  C   UNL     1     122.535 128.387 146.988  1.00  0.00     0.012 C 
ENDROOT
BRANCH   1   2
ATOM      2  C   UNL     1     123.916 128.593 147.630  1.00  0.00     0.061 C 
BRANCH   2   3
ATOM      3  C   UNL     1     123.854 129.644 148.746  1.00  0.00     0.258 C 
BRANCH   3   4
ATOM      4  N   UNL     1     124.832 130.708 148.518  1.00  0.00    -0.358 N 
ATOM      5  H   UNL     1     125.142 131.091 149.439  1.00  0.00     0.344 HD
ATOM      6  H   UNL     1     125.664 130.328 148.011  1.00  0.00     0.344 HD
ATOM      7  H   UNL     1     124.398 131.480 147.960  1.00  0.00     0.344 HD
ENDBRANCH   3   4
ENDBRANCH   2   3
ENDBRANCH   1   2
BRANCH   1   8
ATOM      8  C   UNL     1     122.195 129.490 145.964  1.00  0.00     0.072 C 
BRANCH   8   9
ATOM      9  C   UNL     1     123.402 129.925 145.099  1.00  0.00     0.227 C 
BRANCH   9  10
ATOM     10  N   UNL     1     123.358 129.328 143.758  1.00  0.00    -0.350 N 
ATOM     11  H   UNL     1     124.278 128.890 143.516  1.00  0.00     0.345 HD
ATOM     12  H   UNL     1     122.611 128.597 143.717  1.00  0.00     0.345 HD
ATOM     13  H   UNL     1     123.121 130.059 143.050  1.00  0.00     0.345 HD
ENDBRANCH   9  10
BRANCH   9  14
ATOM     14  C   UNL     1     123.428 131.427 144.994  1.00  0.00     0.099 C 
ATOM     15  O   UNL     1     122.857 132.005 144.033  1.00  0.00    -0.544 OA
ATOM     16  O   UNL     1     124.103 132.183 145.945  1.00  0.00    -0.544 OA
ENDBRANCH   9  14
ENDBRANCH   8   9
ENDBRANCH   1   8
TORSDOF 7
ENDMDL
MODEL 9
REMARK VINA RESULT:    -3.576      2.474      4.254
REMARK INTER + INTRA:          -5.410
REMARK INTER:                  -4.892
REMARK INTRA:                  -0.518
REMARK UNBOUND:                -0.580
REMARK SMILES [NH3+]CCCC[C@@H]([NH3+])C(=O)[O-]
REMARK SMILES IDX 4 1 3 2 2 3 1 4 5 8 6 9 7 10 8 14 9 15 10 16
REMARK H PARENT 1 5 1 6 1 7 7 11 7 12 7 13
REMARK Flexibility Score: inf
ROOT
ATOM      1  C   UNL     1     122.963 130.096 144.949  1.00  0.00     0.012 C 
ENDROOT
BRANCH   1   2
ATOM      2  C   UNL     1     123.291 131.520 144.473  1.00  0.00     0.061 C 
BRANCH   2   3
ATOM      3  C   UNL     1     123.062 132.542 145.594  1.00  0.00     0.258 C 
BRANCH   3   4
ATOM      4  N   UNL     1     124.270 132.712 146.401  1.00  0.00    -0.358 N 
ATOM      5  H   UNL     1     124.742 133.603 146.127  1.00  0.00     0.344 HD
ATOM      6  H   UNL     1     124.020 132.759 147.416  1.00  0.00     0.344 HD
ATOM      7  H   UNL     1     124.928 131.915 146.235  1.00  0.00     0.344 HD
ENDBRANCH   3   4
ENDBRANCH   2   3
ENDBRANCH   1   2
BRANCH   1   8
ATOM      8  C   UNL     1     121.775 130.067 145.933  1.00  0.00     0.072 C 
BRANCH   8   9
ATOM      9  C   UNL     1     121.991 129.118 147.136  1.00  0.00     0.227 C 
BRANCH   9  10
ATOM     10  N   UNL     1     122.158 127.723 146.709  1.00  0.00    -0.350 N 
ATOM     11  H   UNL     1     122.035 127.069 147.518  1.00  0.00     0.345 HD
ATOM     12  H   UNL     1     121.454 127.488 145.971  1.00  0.00     0.345 HD
ATOM     13  H   UNL     1     123.107 127.589 146.290  1.00  0.00     0.345 HD
ENDBRANCH   9  10
BRANCH   9  14
ATOM     14  C   UNL     1     123.197 129.566 147.918  1.00  0.00     0.099 C 
ATOM     15  O   UNL     1     124.215 128.828 147.990  1.00  0.00    -0.544 OA
ATOM     16  O   UNL     1     123.186 130.786 148.584  1.00  0.00    -0.544 OA
ENDBRANCH   9  14
ENDBRANCH   8   9
ENDBRANCH   1   8
TORSDOF 7
ENDMDL
