MODEL 1
REMARK VINA RESULT:    -5.371      0.000      0.000
REMARK INTER + INTRA:          -6.683
REMARK INTER:                  -6.626
REMARK INTRA:                  -0.056
REMARK UNBOUND:                -0.056
REMARK SMILES COc1cc(-c2oc3cc(O)cc(O)c3c(=O)c2O)ccc1O
REMARK SMILES IDX 6 1 18 2 16 3 17 4 15 5 13 6 12 7 10 8 9 9 8 10 7 11 5 12
REMARK SMILES IDX 3 13 22 14 4 15 21 16 20 17 2 18 1 19 23 20 19 22 14 24
REMARK SMILES IDX 11 26
REMARK H PARENT 23 21 19 23 14 25 11 27
REMARK Flexibility Score: inf
ROOT
ATOM      1  C   UNL     1      -2.003  48.172  24.649  1.00  0.00     0.180 A 
ATOM      2  C   UNL     1      -0.608  48.064  24.514  1.00  0.00     0.208 A 
ATOM      3  C   UNL     1       0.029  48.746  23.464  1.00  0.00     0.238 A 
ATOM      4  O   UNL     1       1.271  48.601  23.316  1.00  0.00    -0.285 OA
ATOM      5  C   UNL     1      -0.733  49.539  22.574  1.00  0.00     0.111 A 
ATOM      6  C   UNL     1      -0.187  50.305  21.501  1.00  0.00     0.134 A 
ATOM      7  C   UNL     1      -1.048  50.948  20.603  1.00  0.00     0.093 A 
ATOM      8  C   UNL     1      -2.431  50.909  20.778  1.00  0.00     0.123 A 
ATOM      9  C   UNL     1      -2.973  50.213  21.859  1.00  0.00     0.094 A 
ATOM     10  C   UNL     1      -2.142  49.531  22.750  1.00  0.00     0.146 A 
ATOM     11  O   UNL     1      -2.698  48.871  23.759  1.00  0.00    -0.452 OA
ENDROOT
BRANCH   1  12
ATOM     12  C   UNL     1      -2.743  47.503  25.743  1.00  0.00     0.025 A 
ATOM     13  C   UNL     1      -4.114  47.672  27.762  1.00  0.00     0.161 A 
ATOM     14  C   UNL     1      -4.109  46.275  27.873  1.00  0.00     0.157 A 
ATOM     15  C   UNL     1      -3.420  48.281  26.697  1.00  0.00     0.062 A 
ATOM     16  C   UNL     1      -3.419  45.497  26.936  1.00  0.00     0.051 A 
ATOM     17  C   UNL     1      -2.734  46.105  25.883  1.00  0.00     0.016 A 
BRANCH  13  18
ATOM     18  O   UNL     1      -4.811  48.419  28.724  1.00  0.00    -0.493 OA
ATOM     19  C   UNL     1      -4.356  48.646  30.054  1.00  0.00     0.278 C 
ENDBRANCH  13  18
BRANCH  14  20
ATOM     20  O   UNL     1      -4.795  45.666  28.924  1.00  0.00    -0.504 OA
ATOM     21  H   UNL     1      -4.830  46.084  29.847  1.00  0.00     0.293 HD
ENDBRANCH  14  20
ENDBRANCH   1  12
BRANCH   2  22
ATOM     22  O   UNL     1       0.123  47.257  25.391  1.00  0.00    -0.502 OA
ATOM     23  H   UNL     1      -0.093  46.278  25.536  1.00  0.00     0.293 HD
ENDBRANCH   2  22
BRANCH   6  24
ATOM     24  O   UNL     1       1.184  50.487  21.289  1.00  0.00    -0.507 OA
ATOM     25  H   UNL     1       1.908  50.176  21.918  1.00  0.00     0.293 HD
ENDBRANCH   6  24
BRANCH   8  26
ATOM     26  O   UNL     1      -3.257  51.575  19.875  1.00  0.00    -0.508 OA
ATOM     27  H   UNL     1      -3.915  52.283  20.181  1.00  0.00     0.293 HD
ENDBRANCH   8  26
TORSDOF 6
ENDMDL
MODEL 2
REMARK VINA RESULT:    -5.151      1.984      3.591
REMARK INTER + INTRA:          -6.412
REMARK INTER:                  -6.038
REMARK INTRA:                  -0.374
REMARK UNBOUND:                -0.056
REMARK SMILES COc1cc(-c2oc3cc(O)cc(O)c3c(=O)c2O)ccc1O
REMARK SMILES IDX 6 1 18 2 16 3 17 4 15 5 13 6 12 7 10 8 9 9 8 10 7 11 5 12
REMARK SMILES IDX 3 13 22 14 4 15 21 16 20 17 2 18 1 19 23 20 19 22 14 24
REMARK SMILES IDX 11 26
REMARK H PARENT 23 21 19 23 14 25 11 27
REMARK Flexibility Score: inf
ROOT
ATOM      1  C   UNL     1      -1.729  48.275  23.767  1.00  0.00     0.180 A 
ATOM      2  C   UNL     1      -2.320  49.519  23.482  1.00  0.00     0.208 A 
ATOM      3  C   UNL     1      -1.714  50.358  22.532  1.00  0.00     0.238 A 
ATOM      4  O   UNL     1      -2.217  51.492  22.322  1.00  0.00    -0.285 OA
ATOM      5  C   UNL     1      -0.538  49.937  21.868  1.00  0.00     0.111 A 
ATOM      6  C   UNL     1       0.137  50.688  20.860  1.00  0.00     0.134 A 
ATOM      7  C   UNL     1       1.365  50.233  20.365  1.00  0.00     0.093 A 
ATOM      8  C   UNL     1       1.911  49.024  20.792  1.00  0.00     0.123 A 
ATOM      9  C   UNL     1       1.229  48.251  21.734  1.00  0.00     0.094 A 
ATOM     10  C   UNL     1       0.021  48.696  22.273  1.00  0.00     0.146 A 
ATOM     11  O   UNL     1      -0.590  47.936  23.175  1.00  0.00    -0.452 OA
ENDROOT
BRANCH   1  12
ATOM     12  C   UNL     1      -2.322  47.325  24.737  1.00  0.00     0.025 A 
ATOM     13  C   UNL     1      -3.978  45.599  25.241  1.00  0.00     0.161 A 
ATOM     14  C   UNL     1      -3.516  45.551  26.563  1.00  0.00     0.157 A 
ATOM     15  C   UNL     1      -3.381  46.495  24.333  1.00  0.00     0.062 A 
ATOM     16  C   UNL     1      -2.473  46.391  26.974  1.00  0.00     0.051 A 
ATOM     17  C   UNL     1      -1.885  47.277  26.071  1.00  0.00     0.016 A 
BRANCH  13  18
ATOM     18  O   UNL     1      -5.029  44.746  24.868  1.00  0.00    -0.493 OA
ATOM     19  C   UNL     1      -5.089  44.028  23.640  1.00  0.00     0.278 C 
ENDBRANCH  13  18
BRANCH  14  20
ATOM     20  O   UNL     1      -4.102  44.665  27.466  1.00  0.00    -0.504 OA
ATOM     21  H   UNL     1      -4.861  44.053  27.191  1.00  0.00     0.293 HD
ENDBRANCH  14  20
ENDBRANCH   1  12
BRANCH   2  22
ATOM     22  O   UNL     1      -3.470  49.924  24.165  1.00  0.00    -0.502 OA
ATOM     23  H   UNL     1      -3.444  50.261  25.120  1.00  0.00     0.293 HD
ENDBRANCH   2  22
BRANCH   6  24
ATOM     24  O   UNL     1      -0.366  51.865  20.295  1.00  0.00    -0.507 OA
ATOM     25  H   UNL     1       0.186  52.542  19.790  1.00  0.00     0.293 HD
ENDBRANCH   6  24
BRANCH   8  26
ATOM     26  O   UNL     1       3.127  48.593  20.266  1.00  0.00    -0.508 OA
ATOM     27  H   UNL     1       3.471  47.653  20.425  1.00  0.00     0.293 HD
ENDBRANCH   8  26
TORSDOF 6
ENDMDL
MODEL 3
REMARK VINA RESULT:    -5.100      3.686      5.823
REMARK INTER + INTRA:          -6.349
REMARK INTER:                  -5.959
REMARK INTRA:                  -0.390
REMARK UNBOUND:                -0.056
REMARK SMILES COc1cc(-c2oc3cc(O)cc(O)c3c(=O)c2O)ccc1O
REMARK SMILES IDX 6 1 18 2 16 3 17 4 15 5 13 6 12 7 10 8 9 9 8 10 7 11 5 12
REMARK SMILES IDX 3 13 22 14 4 15 21 16 20 17 2 18 1 19 23 20 19 22 14 24
REMARK SMILES IDX 11 26
REMARK H PARENT 23 21 19 23 14 25 11 27
REMARK Flexibility Score: inf
ROOT
ATOM      1  C   UNL     1      -3.076  46.893  23.612  1.00  0.00     0.180 A 
ATOM      2  C   UNL     1      -3.645  48.103  23.176  1.00  0.00     0.208 A 
ATOM      3  C   UNL     1      -3.075  49.315  23.601  1.00  0.00     0.238 A 
ATOM      4  O   UNL     1      -3.622  50.393  23.252  1.00  0.00    -0.285 OA
ATOM      5  C   UNL     1      -1.936  49.302  24.440  1.00  0.00     0.111 A 
ATOM      6  C   UNL     1      -1.253  50.468  24.898  1.00  0.00     0.134 A 
ATOM      7  C   UNL     1      -0.216  50.341  25.830  1.00  0.00     0.093 A 
ATOM      8  C   UNL     1       0.206  49.088  26.271  1.00  0.00     0.123 A 
ATOM      9  C   UNL     1      -0.415  47.936  25.784  1.00  0.00     0.094 A 
ATOM     10  C   UNL     1      -1.476  48.033  24.882  1.00  0.00     0.146 A 
ATOM     11  O   UNL     1      -2.047  46.914  24.451  1.00  0.00    -0.452 OA
ENDROOT
BRANCH   1  12
ATOM     12  C   UNL     1      -3.604  45.576  23.187  1.00  0.00     0.025 A 
ATOM     13  C   UNL     1      -3.619  43.741  21.571  1.00  0.00     0.161 A 
ATOM     14  C   UNL     1      -4.623  43.105  22.313  1.00  0.00     0.157 A 
ATOM     15  C   UNL     1      -3.118  44.983  22.011  1.00  0.00     0.062 A 
ATOM     16  C   UNL     1      -5.124  43.703  23.476  1.00  0.00     0.051 A 
ATOM     17  C   UNL     1      -4.624  44.933  23.907  1.00  0.00     0.016 A 
BRANCH  13  18
ATOM     18  O   UNL     1      -3.147  43.114  20.408  1.00  0.00    -0.493 OA
ATOM     19  C   UNL     1      -1.791  43.135  19.972  1.00  0.00     0.278 C 
ENDBRANCH  13  18
BRANCH  14  20
ATOM     20  O   UNL     1      -5.122  41.875  21.884  1.00  0.00    -0.504 OA
ATOM     21  H   UNL     1      -4.591  41.274  21.265  1.00  0.00     0.293 HD
ENDBRANCH  14  20
ENDBRANCH   1  12
BRANCH   2  22
ATOM     22  O   UNL     1      -4.783  48.092  22.365  1.00  0.00    -0.502 OA
ATOM     23  H   UNL     1      -4.879  47.468  21.573  1.00  0.00     0.293 HD
ENDBRANCH   2  22
BRANCH   6  24
ATOM     24  O   UNL     1      -1.534  51.764  24.451  1.00  0.00    -0.507 OA
ATOM     25  H   UNL     1      -1.731  52.549  25.052  1.00  0.00     0.293 HD
ENDBRANCH   6  24
BRANCH   8  26
ATOM     26  O   UNL     1       1.252  48.997  27.187  1.00  0.00    -0.508 OA
ATOM     27  H   UNL     1       2.212  49.181  26.917  1.00  0.00     0.293 HD
ENDBRANCH   8  26
TORSDOF 6
ENDMDL
MODEL 4
REMARK VINA RESULT:    -4.998      3.775      5.902
REMARK INTER + INTRA:          -6.223
REMARK INTER:                  -5.846
REMARK INTRA:                  -0.377
REMARK UNBOUND:                -0.056
REMARK SMILES COc1cc(-c2oc3cc(O)cc(O)c3c(=O)c2O)ccc1O
REMARK SMILES IDX 6 1 18 2 16 3 17 4 15 5 13 6 12 7 10 8 9 9 8 10 7 11 5 12
REMARK SMILES IDX 3 13 22 14 4 15 21 16 20 17 2 18 1 19 23 20 19 22 14 24
REMARK SMILES IDX 11 26
REMARK H PARENT 23 21 19 23 14 25 11 27
REMARK Flexibility Score: inf
ROOT
ATOM      1  C   UNL     1      -2.001  47.198  22.654  1.00  0.00     0.180 A 
ATOM      2  C   UNL     1      -2.698  48.370  22.313  1.00  0.00     0.208 A 
ATOM      3  C   UNL     1      -2.463  49.542  23.053  1.00  0.00     0.238 A 
ATOM      4  O   UNL     1      -3.130  50.572  22.778  1.00  0.00    -0.285 OA
ATOM      5  C   UNL     1      -1.523  49.530  24.111  1.00  0.00     0.111 A 
ATOM      6  C   UNL     1      -1.177  50.667  24.899  1.00  0.00     0.134 A 
ATOM      7  C   UNL     1      -0.332  50.510  26.005  1.00  0.00     0.093 A 
ATOM      8  C   UNL     1       0.232  49.273  26.311  1.00  0.00     0.123 A 
ATOM      9  C   UNL     1      -0.053  48.165  25.510  1.00  0.00     0.094 A 
ATOM     10  C   UNL     1      -0.921  48.282  24.423  1.00  0.00     0.146 A 
ATOM     11  O   UNL     1      -1.174  47.202  23.694  1.00  0.00    -0.452 OA
ENDROOT
BRANCH   1  12
ATOM     12  C   UNL     1      -2.177  45.932  21.907  1.00  0.00     0.025 A 
ATOM     13  C   UNL     1      -3.406  43.844  21.571  1.00  0.00     0.161 A 
ATOM     14  C   UNL     1      -2.509  43.489  20.553  1.00  0.00     0.157 A 
ATOM     15  C   UNL     1      -3.228  45.066  22.250  1.00  0.00     0.062 A 
ATOM     16  C   UNL     1      -1.448  44.340  20.222  1.00  0.00     0.051 A 
ATOM     17  C   UNL     1      -1.277  45.549  20.897  1.00  0.00     0.016 A 
BRANCH  13  18
ATOM     18  O   UNL     1      -4.452  42.962  21.879  1.00  0.00    -0.493 OA
ATOM     19  C   UNL     1      -5.098  42.887  23.146  1.00  0.00     0.278 C 
ENDBRANCH  13  18
BRANCH  14  20
ATOM     20  O   UNL     1      -2.680  42.282  19.876  1.00  0.00    -0.504 OA
ATOM     21  H   UNL     1      -1.888  41.729  19.569  1.00  0.00     0.293 HD
ENDBRANCH  14  20
ENDBRANCH   1  12
BRANCH   2  22
ATOM     22  O   UNL     1      -3.638  48.354  21.278  1.00  0.00    -0.502 OA
ATOM     23  H   UNL     1      -3.416  48.664  20.340  1.00  0.00     0.293 HD
ENDBRANCH   2  22
BRANCH   6  24
ATOM     24  O   UNL     1      -1.610  51.969  24.626  1.00  0.00    -0.507 OA
ATOM     25  H   UNL     1      -2.488  52.359  24.935  1.00  0.00     0.293 HD
ENDBRANCH   6  24
BRANCH   8  26
ATOM     26  O   UNL     1       1.081  49.156  27.409  1.00  0.00    -0.508 OA
ATOM     27  H   UNL     1       1.445  48.257  27.705  1.00  0.00     0.293 HD
ENDBRANCH   8  26
TORSDOF 6
ENDMDL
MODEL 5
REMARK VINA RESULT:    -4.989      1.862      3.114
REMARK INTER + INTRA:          -6.212
REMARK INTER:                  -5.906
REMARK INTRA:                  -0.305
REMARK UNBOUND:                -0.056
REMARK SMILES COc1cc(-c2oc3cc(O)cc(O)c3c(=O)c2O)ccc1O
REMARK SMILES IDX 6 1 18 2 16 3 17 4 15 5 13 6 12 7 10 8 9 9 8 10 7 11 5 12
REMARK SMILES IDX 3 13 22 14 4 15 21 16 20 17 2 18 1 19 23 20 19 22 14 24
REMARK SMILES IDX 11 26
REMARK H PARENT 23 21 19 23 14 25 11 27
REMARK Flexibility Score: inf
ROOT
ATOM      1  C   UNL     1      -2.097  47.985  23.614  1.00  0.00     0.180 A 
ATOM      2  C   UNL     1      -2.472  49.335  23.506  1.00  0.00     0.208 A 
ATOM      3  C   UNL     1      -1.714  50.189  22.688  1.00  0.00     0.238 A 
ATOM      4  O   UNL     1      -2.022  51.408  22.638  1.00  0.00    -0.285 OA
ATOM      5  C   UNL     1      -0.602  49.679  21.976  1.00  0.00     0.111 A 
ATOM      6  C   UNL     1       0.211  50.444  21.088  1.00  0.00     0.134 A 
ATOM      7  C   UNL     1       1.364  49.868  20.539  1.00  0.00     0.093 A 
ATOM      8  C   UNL     1       1.696  48.538  20.792  1.00  0.00     0.123 A 
ATOM      9  C   UNL     1       0.874  47.763  21.612  1.00  0.00     0.094 A 
ATOM     10  C   UNL     1      -0.262  48.319  22.203  1.00  0.00     0.146 A 
ATOM     11  O   UNL     1      -1.011  47.551  22.985  1.00  0.00    -0.452 OA
ENDROOT
BRANCH   1  12
ATOM     12  C   UNL     1      -2.861  47.018  24.436  1.00  0.00     0.025 A 
ATOM     13  C   UNL     1      -3.194  45.886  26.578  1.00  0.00     0.161 A 
ATOM     14  C   UNL     1      -4.246  45.149  26.016  1.00  0.00     0.157 A 
ATOM     15  C   UNL     1      -2.499  46.815  25.778  1.00  0.00     0.062 A 
ATOM     16  C   UNL     1      -4.596  45.335  24.674  1.00  0.00     0.051 A 
ATOM     17  C   UNL     1      -3.905  46.257  23.886  1.00  0.00     0.016 A 
BRANCH  13  18
ATOM     18  O   UNL     1      -2.867  45.667  27.925  1.00  0.00    -0.493 OA
ATOM     19  C   UNL     1      -3.577  46.223  29.028  1.00  0.00     0.278 C 
ENDBRANCH  13  18
BRANCH  14  20
ATOM     20  O   UNL     1      -4.938  44.228  26.803  1.00  0.00    -0.504 OA
ATOM     21  H   UNL     1      -5.211  44.443  27.755  1.00  0.00     0.293 HD
ENDBRANCH  14  20
ENDBRANCH   1  12
BRANCH   2  22
ATOM     22  O   UNL     1      -3.561  49.823  24.234  1.00  0.00    -0.502 OA
ATOM     23  H   UNL     1      -4.454  50.030  23.803  1.00  0.00     0.293 HD
ENDBRANCH   2  22
BRANCH   6  24
ATOM     24  O   UNL     1      -0.080  51.754  20.694  1.00  0.00    -0.507 OA
ATOM     25  H   UNL     1      -0.079  52.080  19.739  1.00  0.00     0.293 HD
ENDBRANCH   6  24
BRANCH   8  26
ATOM     26  O   UNL     1       2.842  47.993  20.216  1.00  0.00    -0.508 OA
ATOM     27  H   UNL     1       3.248  48.382  19.372  1.00  0.00     0.293 HD
ENDBRANCH   8  26
TORSDOF 6
ENDMDL
MODEL 6
REMARK VINA RESULT:    -4.783      1.831      7.338
REMARK INTER + INTRA:          -5.958
REMARK INTER:                  -5.607
REMARK INTRA:                  -0.351
REMARK UNBOUND:                -0.056
REMARK SMILES COc1cc(-c2oc3cc(O)cc(O)c3c(=O)c2O)ccc1O
REMARK SMILES IDX 6 1 18 2 16 3 17 4 15 5 13 6 12 7 10 8 9 9 8 10 7 11 5 12
REMARK SMILES IDX 3 13 22 14 4 15 21 16 20 17 2 18 1 19 23 20 19 22 14 24
REMARK SMILES IDX 11 26
REMARK H PARENT 23 21 19 23 14 25 11 27
REMARK Flexibility Score: inf
ROOT
ATOM      1  C   UNL     1      -2.327  48.050  23.436  1.00  0.00     0.180 A 
ATOM      2  C   UNL     1      -2.774  46.799  22.975  1.00  0.00     0.208 A 
ATOM      3  C   UNL     1      -3.465  45.955  23.859  1.00  0.00     0.238 A 
ATOM      4  O   UNL     1      -3.815  44.815  23.456  1.00  0.00    -0.285 OA
ATOM      5  C   UNL     1      -3.715  46.377  25.187  1.00  0.00     0.111 A 
ATOM      6  C   UNL     1      -4.440  45.621  26.155  1.00  0.00     0.134 A 
ATOM      7  C   UNL     1      -4.513  46.079  27.476  1.00  0.00     0.093 A 
ATOM      8  C   UNL     1      -3.945  47.297  27.849  1.00  0.00     0.123 A 
ATOM      9  C   UNL     1      -3.285  48.074  26.896  1.00  0.00     0.094 A 
ATOM     10  C   UNL     1      -3.164  47.626  25.579  1.00  0.00     0.146 A 
ATOM     11  O   UNL     1      -2.519  48.390  24.705  1.00  0.00    -0.452 OA
ENDROOT
BRANCH   1  12
ATOM     12  C   UNL     1      -1.614  49.005  22.557  1.00  0.00     0.025 A 
ATOM     13  C   UNL     1       0.462  49.720  21.479  1.00  0.00     0.161 A 
ATOM     14  C   UNL     1      -0.208  50.828  20.942  1.00  0.00     0.157 A 
ATOM     15  C   UNL     1      -0.247  48.814  22.294  1.00  0.00     0.062 A 
ATOM     16  C   UNL     1      -1.565  51.031  21.218  1.00  0.00     0.051 A 
ATOM     17  C   UNL     1      -2.263  50.131  22.025  1.00  0.00     0.016 A 
BRANCH  13  18
ATOM     18  O   UNL     1       1.824  49.553  21.186  1.00  0.00    -0.493 OA
ATOM     19  C   UNL     1       2.401  48.350  20.687  1.00  0.00     0.278 C 
ENDBRANCH  13  18
BRANCH  14  20
ATOM     20  O   UNL     1       0.488  51.727  20.134  1.00  0.00    -0.504 OA
ATOM     21  H   UNL     1       1.286  51.435  19.582  1.00  0.00     0.293 HD
ENDBRANCH  14  20
ENDBRANCH   1  12
BRANCH   2  22
ATOM     22  O   UNL     1      -2.499  46.393  21.666  1.00  0.00    -0.502 OA
ATOM     23  H   UNL     1      -3.210  46.008  21.056  1.00  0.00     0.293 HD
ENDBRANCH   2  22
BRANCH   6  24
ATOM     24  O   UNL     1      -5.124  44.435  25.868  1.00  0.00    -0.507 OA
ATOM     25  H   UNL     1      -5.435  44.160  24.949  1.00  0.00     0.293 HD
ENDBRANCH   6  24
BRANCH   8  26
ATOM     26  O   UNL     1      -4.051  47.730  29.169  1.00  0.00    -0.508 OA
ATOM     27  H   UNL     1      -4.394  47.120  29.902  1.00  0.00     0.293 HD
ENDBRANCH   8  26
TORSDOF 6
ENDMDL
MODEL 7
REMARK VINA RESULT:    -4.782      3.640      5.504
REMARK INTER + INTRA:          -5.957
REMARK INTER:                  -5.631
REMARK INTRA:                  -0.326
REMARK UNBOUND:                -0.056
REMARK SMILES COc1cc(-c2oc3cc(O)cc(O)c3c(=O)c2O)ccc1O
REMARK SMILES IDX 6 1 18 2 16 3 17 4 15 5 13 6 12 7 10 8 9 9 8 10 7 11 5 12
REMARK SMILES IDX 3 13 22 14 4 15 21 16 20 17 2 18 1 19 23 20 19 22 14 24
REMARK SMILES IDX 11 26
REMARK H PARENT 23 21 19 23 14 25 11 27
REMARK Flexibility Score: inf
ROOT
ATOM      1  C   UNL     1      -1.619  47.614  23.531  1.00  0.00     0.180 A 
ATOM      2  C   UNL     1      -0.905  47.417  22.336  1.00  0.00     0.208 A 
ATOM      3  C   UNL     1      -1.214  46.306  21.533  1.00  0.00     0.238 A 
ATOM      4  O   UNL     1      -0.534  46.105  20.493  1.00  0.00    -0.285 OA
ATOM      5  C   UNL     1      -2.243  45.417  21.925  1.00  0.00     0.111 A 
ATOM      6  C   UNL     1      -2.667  44.284  21.170  1.00  0.00     0.134 A 
ATOM      7  C   UNL     1      -3.605  43.400  21.718  1.00  0.00     0.093 A 
ATOM      8  C   UNL     1      -4.183  43.643  22.963  1.00  0.00     0.123 A 
ATOM      9  C   UNL     1      -3.820  44.781  23.685  1.00  0.00     0.094 A 
ATOM     10  C   UNL     1      -2.860  45.662  23.181  1.00  0.00     0.146 A 
ATOM     11  O   UNL     1      -2.534  46.726  23.904  1.00  0.00    -0.452 OA
ENDROOT
BRANCH   1  12
ATOM     12  C   UNL     1      -1.368  48.773  24.417  1.00  0.00     0.025 A 
ATOM     13  C   UNL     1      -1.806  51.109  24.994  1.00  0.00     0.161 A 
ATOM     14  C   UNL     1      -0.875  51.018  26.038  1.00  0.00     0.157 A 
ATOM     15  C   UNL     1      -2.043  49.983  24.181  1.00  0.00     0.062 A 
ATOM     16  C   UNL     1      -0.186  49.820  26.263  1.00  0.00     0.051 A 
ATOM     17  C   UNL     1      -0.424  48.708  25.455  1.00  0.00     0.016 A 
BRANCH  13  18
ATOM     18  O   UNL     1      -2.472  52.328  24.795  1.00  0.00    -0.493 OA
ATOM     19  C   UNL     1      -3.627  52.745  25.518  1.00  0.00     0.278 C 
ENDBRANCH  13  18
BRANCH  14  20
ATOM     20  O   UNL     1      -0.638  52.129  26.847  1.00  0.00    -0.504 OA
ATOM     21  H   UNL     1       0.280  52.316  27.234  1.00  0.00     0.293 HD
ENDBRANCH  14  20
ENDBRANCH   1  12
BRANCH   2  22
ATOM     22  O   UNL     1       0.122  48.295  21.978  1.00  0.00    -0.502 OA
ATOM     23  H   UNL     1      -0.055  49.172  21.502  1.00  0.00     0.293 HD
ENDBRANCH   2  22
BRANCH   6  24
ATOM     24  O   UNL     1      -2.222  43.998  19.875  1.00  0.00    -0.507 OA
ATOM     25  H   UNL     1      -1.255  43.892  19.610  1.00  0.00     0.293 HD
ENDBRANCH   6  24
BRANCH   8  26
ATOM     26  O   UNL     1      -5.125  42.751  23.470  1.00  0.00    -0.508 OA
ATOM     27  H   UNL     1      -4.862  41.824  23.785  1.00  0.00     0.293 HD
ENDBRANCH   8  26
TORSDOF 6
ENDMDL
