MODEL 1
REMARK VINA RESULT:    -7.354      0.000      0.000
REMARK INTER + INTRA:          -7.354
REMARK INTER:                  -7.354
REMARK INTRA:                   0.000
REMARK UNBOUND:                 0.000
REMARK SMILES C[NH+]1CCN(C2=[NH+]c3ccccc3Oc3ccc(Cl)cc32)CC1
REMARK SMILES IDX 7 1 6 2 21 3 5 4 8 5 9 6 13 7 10 8 12 9 14 10 11 11 15 12
REMARK SMILES IDX 16 13 17 14 18 15 20 16 19 17 4 18 22 19 3 20 23 21 2 22
REMARK SMILES IDX 1 23
REMARK H PARENT 7 24 2 25
REMARK Flexibility Score: inf
ROOT
ATOM      1  N   UNL     1       6.348 -17.456 -32.126  1.00  0.00    -0.237 N 
ATOM      2  C   UNL     1       6.057 -16.285 -32.629  1.00  0.00     0.286 C 
ATOM      3  C   UNL     1       6.991 -15.502 -33.482  1.00  0.00     0.108 A 
ATOM      4  N   UNL     1       4.752 -15.737 -32.365  1.00  0.00    -0.250 N 
ATOM      5  C   UNL     1       7.574 -18.193 -32.272  1.00  0.00     0.168 A 
ATOM      6  C   UNL     1       7.508 -19.597 -32.277  1.00  0.00     0.056 A 
ATOM      7  C   UNL     1       8.838 -17.570 -32.211  1.00  0.00     0.173 A 
ATOM      8  C   UNL     1       8.673 -20.367 -32.235  1.00  0.00     0.005 A 
ATOM      9  C   UNL     1       9.998 -18.352 -32.134  1.00  0.00     0.052 A 
ATOM     10  O   UNL     1       8.986 -16.186 -32.232  1.00  0.00    -0.452 OA
ATOM     11  C   UNL     1       9.917 -19.745 -32.154  1.00  0.00     0.004 A 
ATOM     12  C   UNL     1       8.365 -15.391 -33.190  1.00  0.00     0.143 A 
ATOM     13  C   UNL     1       9.157 -14.471 -33.888  1.00  0.00     0.049 A 
ATOM     14  C   UNL     1       8.611 -13.700 -34.915  1.00  0.00     0.024 A 
ATOM     15  C   UNL     1       7.263 -13.839 -35.247  1.00  0.00     0.042 A 
ATOM     16  C   UNL     1       6.457 -14.728 -34.532  1.00  0.00     0.041 A 
ATOM     17  Cl  UNL     1       6.575 -12.876 -36.543  1.00  0.00    -0.084 Cl
ATOM     18  C   UNL     1       3.551 -16.420 -32.852  1.00  0.00     0.298 C 
ATOM     19  C   UNL     1       4.611 -14.369 -31.858  1.00  0.00     0.298 C 
ATOM     20  C   UNL     1       2.432 -16.299 -31.812  1.00  0.00     0.308 C 
ATOM     21  C   UNL     1       3.458 -14.310 -30.849  1.00  0.00     0.308 C 
ATOM     22  N   UNL     1       2.222 -14.887 -31.422  1.00  0.00    -0.331 N 
ATOM     23  C   UNL     1       1.122 -14.790 -30.450  1.00  0.00     0.332 C 
ATOM     24  H   UNL     1       5.599 -17.938 -31.578  1.00  0.00     0.312 HD
ATOM     25  H   UNL     1       1.949 -14.334 -32.270  1.00  0.00     0.348 HD
ENDROOT
TORSDOF 0
ENDMDL
MODEL 2
REMARK VINA RESULT:    -7.011      5.531      6.769
REMARK INTER + INTRA:          -7.011
REMARK INTER:                  -7.011
REMARK INTRA:                   0.000
REMARK UNBOUND:                 0.000
REMARK SMILES C[NH+]1CCN(C2=[NH+]c3ccccc3Oc3ccc(Cl)cc32)CC1
REMARK SMILES IDX 7 1 6 2 21 3 5 4 8 5 9 6 13 7 10 8 12 9 14 10 11 11 15 12
REMARK SMILES IDX 16 13 17 14 18 15 20 16 19 17 4 18 22 19 3 20 23 21 2 22
REMARK SMILES IDX 1 23
REMARK H PARENT 7 24 2 25
REMARK Flexibility Score: inf
ROOT
ATOM      1  N   UNL     1       8.242 -17.394 -29.021  1.00  0.00    -0.237 N 
ATOM      2  C   UNL     1       8.153 -16.898 -27.815  1.00  0.00     0.286 C 
ATOM      3  C   UNL     1       9.114 -17.214 -26.723  1.00  0.00     0.108 A 
ATOM      4  N   UNL     1       7.083 -15.976 -27.537  1.00  0.00    -0.250 N 
ATOM      5  C   UNL     1       9.229 -18.314 -29.520  1.00  0.00     0.168 A 
ATOM      6  C   UNL     1       9.594 -18.225 -30.875  1.00  0.00     0.056 A 
ATOM      7  C   UNL     1       9.690 -19.409 -28.761  1.00  0.00     0.173 A 
ATOM      8  C   UNL     1      10.407 -19.197 -31.461  1.00  0.00     0.005 A 
ATOM      9  C   UNL     1      10.477 -20.397 -29.367  1.00  0.00     0.052 A 
ATOM     10  O   UNL     1       9.395 -19.551 -27.407  1.00  0.00    -0.452 OA
ATOM     11  C   UNL     1      10.841 -20.288 -30.710  1.00  0.00     0.004 A 
ATOM     12  C   UNL     1       9.595 -18.518 -26.496  1.00  0.00     0.143 A 
ATOM     13  C   UNL     1      10.317 -18.805 -25.331  1.00  0.00     0.049 A 
ATOM     14  C   UNL     1      10.617 -17.796 -24.417  1.00  0.00     0.024 A 
ATOM     15  C   UNL     1      10.190 -16.490 -24.656  1.00  0.00     0.042 A 
ATOM     16  C   UNL     1       9.438 -16.201 -25.798  1.00  0.00     0.041 A 
ATOM     17  Cl  UNL     1      10.573 -15.217 -23.512  1.00  0.00    -0.084 Cl
ATOM     18  C   UNL     1       7.011 -14.693 -28.240  1.00  0.00     0.298 C 
ATOM     19  C   UNL     1       6.219 -16.172 -26.370  1.00  0.00     0.298 C 
ATOM     20  C   UNL     1       5.548 -14.348 -28.537  1.00  0.00     0.308 C 
ATOM     21  C   UNL     1       4.779 -15.781 -26.722  1.00  0.00     0.308 C 
ATOM     22  N   UNL     1       4.728 -14.423 -27.308  1.00  0.00    -0.331 N 
ATOM     23  C   UNL     1       3.334 -14.056 -27.608  1.00  0.00     0.332 C 
ATOM     24  H   UNL     1       7.539 -17.069 -29.723  1.00  0.00     0.312 HD
ATOM     25  H   UNL     1       5.095 -13.735 -26.607  1.00  0.00     0.348 HD
ENDROOT
TORSDOF 0
ENDMDL
MODEL 3
REMARK VINA RESULT:    -6.834      5.391      6.847
REMARK INTER + INTRA:          -6.834
REMARK INTER:                  -6.834
REMARK INTRA:                   0.000
REMARK UNBOUND:                 0.000
REMARK SMILES C[NH+]1CCN(C2=[NH+]c3ccccc3Oc3ccc(Cl)cc32)CC1
REMARK SMILES IDX 7 1 6 2 21 3 5 4 8 5 9 6 13 7 10 8 12 9 14 10 11 11 15 12
REMARK SMILES IDX 16 13 17 14 18 15 20 16 19 17 4 18 22 19 3 20 23 21 2 22
REMARK SMILES IDX 1 23
REMARK H PARENT 7 24 2 25
REMARK Flexibility Score: inf
ROOT
ATOM      1  N   UNL     1       7.903 -16.703 -29.281  1.00  0.00    -0.237 N 
ATOM      2  C   UNL     1       7.952 -16.993 -28.007  1.00  0.00     0.286 C 
ATOM      3  C   UNL     1       8.847 -18.035 -27.435  1.00  0.00     0.108 A 
ATOM      4  N   UNL     1       7.116 -16.243 -27.107  1.00  0.00    -0.250 N 
ATOM      5  C   UNL     1       8.654 -17.309 -30.347  1.00  0.00     0.168 A 
ATOM      6  C   UNL     1       8.997 -16.512 -31.454  1.00  0.00     0.056 A 
ATOM      7  C   UNL     1       8.883 -18.699 -30.412  1.00  0.00     0.173 A 
ATOM      8  C   UNL     1       9.565 -17.082 -32.596  1.00  0.00     0.005 A 
ATOM      9  C   UNL     1       9.422 -19.265 -31.575  1.00  0.00     0.052 A 
ATOM     10  O   UNL     1       8.597 -19.549 -29.346  1.00  0.00    -0.452 OA
ATOM     11  C   UNL     1       9.769 -18.459 -32.660  1.00  0.00     0.004 A 
ATOM     12  C   UNL     1       9.038 -19.286 -28.053  1.00  0.00     0.143 A 
ATOM     13  C   UNL     1       9.708 -20.309 -27.371  1.00  0.00     0.049 A 
ATOM     14  C   UNL     1      10.243 -20.084 -26.102  1.00  0.00     0.024 A 
ATOM     15  C   UNL     1      10.105 -18.832 -25.501  1.00  0.00     0.042 A 
ATOM     16  C   UNL     1       9.406 -17.817 -26.159  1.00  0.00     0.041 A 
ATOM     17  Cl  UNL     1      10.782 -18.543 -23.909  1.00  0.00    -0.084 Cl
ATOM     18  C   UNL     1       7.308 -14.799 -26.948  1.00  0.00     0.298 C 
ATOM     19  C   UNL     1       6.258 -16.935 -26.141  1.00  0.00     0.298 C 
ATOM     20  C   UNL     1       5.948 -14.113 -26.783  1.00  0.00     0.308 C 
ATOM     21  C   UNL     1       4.930 -16.182 -25.999  1.00  0.00     0.308 C 
ATOM     22  N   UNL     1       5.161 -14.751 -25.706  1.00  0.00    -0.331 N 
ATOM     23  C   UNL     1       3.874 -14.056 -25.541  1.00  0.00     0.332 C 
ATOM     24  H   UNL     1       7.270 -15.921 -29.568  1.00  0.00     0.312 HD
ATOM     25  H   UNL     1       5.686 -14.668 -24.802  1.00  0.00     0.348 HD
ENDROOT
TORSDOF 0
ENDMDL
MODEL 4
REMARK VINA RESULT:    -6.831      5.933      8.559
REMARK INTER + INTRA:          -6.831
REMARK INTER:                  -6.831
REMARK INTRA:                   0.000
REMARK UNBOUND:                 0.000
REMARK SMILES C[NH+]1CCN(C2=[NH+]c3ccccc3Oc3ccc(Cl)cc32)CC1
REMARK SMILES IDX 7 1 6 2 21 3 5 4 8 5 9 6 13 7 10 8 12 9 14 10 11 11 15 12
REMARK SMILES IDX 16 13 17 14 18 15 20 16 19 17 4 18 22 19 3 20 23 21 2 22
REMARK SMILES IDX 1 23
REMARK H PARENT 7 24 2 25
REMARK Flexibility Score: inf
ROOT
ATOM      1  N   UNL     1       7.698 -16.009 -27.846  1.00  0.00    -0.237 N 
ATOM      2  C   UNL     1       8.759 -16.769 -27.913  1.00  0.00     0.286 C 
ATOM      3  C   UNL     1       9.002 -17.924 -27.007  1.00  0.00     0.108 A 
ATOM      4  N   UNL     1       9.732 -16.491 -28.938  1.00  0.00    -0.250 N 
ATOM      5  C   UNL     1       6.602 -16.112 -26.920  1.00  0.00     0.168 A 
ATOM      6  C   UNL     1       5.324 -15.722 -27.359  1.00  0.00     0.056 A 
ATOM      7  C   UNL     1       6.796 -16.399 -25.553  1.00  0.00     0.173 A 
ATOM      8  C   UNL     1       4.259 -15.629 -26.460  1.00  0.00     0.005 A 
ATOM      9  C   UNL     1       5.729 -16.269 -24.654  1.00  0.00     0.052 A 
ATOM     10  O   UNL     1       8.024 -16.819 -25.049  1.00  0.00    -0.452 OA
ATOM     11  C   UNL     1       4.463 -15.894 -25.107  1.00  0.00     0.004 A 
ATOM     12  C   UNL     1       8.740 -17.865 -25.624  1.00  0.00     0.143 A 
ATOM     13  C   UNL     1       9.188 -18.890 -24.782  1.00  0.00     0.049 A 
ATOM     14  C   UNL     1       9.842 -20.004 -25.307  1.00  0.00     0.024 A 
ATOM     15  C   UNL     1      10.061 -20.099 -26.682  1.00  0.00     0.042 A 
ATOM     16  C   UNL     1       9.650 -19.063 -27.525  1.00  0.00     0.041 A 
ATOM     17  Cl  UNL     1      10.877 -21.502 -27.347  1.00  0.00    -0.084 Cl
ATOM     18  C   UNL     1       9.368 -16.602 -30.353  1.00  0.00     0.298 C 
ATOM     19  C   UNL     1      11.151 -16.364 -28.598  1.00  0.00     0.298 C 
ATOM     20  C   UNL     1      10.060 -15.493 -31.152  1.00  0.00     0.308 C 
ATOM     21  C   UNL     1      11.790 -15.263 -29.452  1.00  0.00     0.308 C 
ATOM     22  N   UNL     1      11.516 -15.481 -30.890  1.00  0.00    -0.331 N 
ATOM     23  C   UNL     1      12.165 -14.432 -31.692  1.00  0.00     0.332 C 
ATOM     24  H   UNL     1       7.608 -15.252 -28.562  1.00  0.00     0.312 HD
ATOM     25  H   UNL     1      11.923 -16.403 -31.179  1.00  0.00     0.348 HD
ENDROOT
TORSDOF 0
ENDMDL
MODEL 5
REMARK VINA RESULT:    -6.570      4.126      6.843
REMARK INTER + INTRA:          -6.570
REMARK INTER:                  -6.570
REMARK INTRA:                   0.000
REMARK UNBOUND:                 0.000
REMARK SMILES C[NH+]1CCN(C2=[NH+]c3ccccc3Oc3ccc(Cl)cc32)CC1
REMARK SMILES IDX 7 1 6 2 21 3 5 4 8 5 9 6 13 7 10 8 12 9 14 10 11 11 15 12
REMARK SMILES IDX 16 13 17 14 18 15 20 16 19 17 4 18 22 19 3 20 23 21 2 22
REMARK SMILES IDX 1 23
REMARK H PARENT 7 24 2 25
REMARK Flexibility Score: inf
ROOT
ATOM      1  N   UNL     1       9.692 -14.846 -32.905  1.00  0.00    -0.237 N 
ATOM      2  C   UNL     1       9.885 -15.795 -32.027  1.00  0.00     0.286 C 
ATOM      3  C   UNL     1       9.365 -17.180 -32.187  1.00  0.00     0.108 A 
ATOM      4  N   UNL     1      10.666 -15.491 -30.857  1.00  0.00    -0.250 N 
ATOM      5  C   UNL     1       8.962 -14.929 -34.142  1.00  0.00     0.168 A 
ATOM      6  C   UNL     1       9.385 -14.128 -35.217  1.00  0.00     0.056 A 
ATOM      7  C   UNL     1       7.741 -15.626 -34.249  1.00  0.00     0.173 A 
ATOM      8  C   UNL     1       8.616 -14.029 -36.379  1.00  0.00     0.005 A 
ATOM      9  C   UNL     1       6.961 -15.493 -35.405  1.00  0.00     0.052 A 
ATOM     10  O   UNL     1       7.271 -16.461 -33.239  1.00  0.00    -0.452 OA
ATOM     11  C   UNL     1       7.400 -14.704 -36.470  1.00  0.00     0.004 A 
ATOM     12  C   UNL     1       8.067 -17.447 -32.666  1.00  0.00     0.143 A 
ATOM     13  C   UNL     1       7.547 -18.745 -32.590  1.00  0.00     0.049 A 
ATOM     14  C   UNL     1       8.324 -19.794 -32.098  1.00  0.00     0.024 A 
ATOM     15  C   UNL     1       9.630 -19.550 -31.670  1.00  0.00     0.042 A 
ATOM     16  C   UNL     1      10.144 -18.252 -31.707  1.00  0.00     0.041 A 
ATOM     17  Cl  UNL     1      10.613 -20.868 -31.057  1.00  0.00    -0.084 Cl
ATOM     18  C   UNL     1      12.074 -15.108 -30.987  1.00  0.00     0.298 C 
ATOM     19  C   UNL     1      10.160 -15.821 -29.522  1.00  0.00     0.298 C 
ATOM     20  C   UNL     1      12.411 -14.026 -29.954  1.00  0.00     0.308 C 
ATOM     21  C   UNL     1      10.558 -14.718 -28.533  1.00  0.00     0.308 C 
ATOM     22  N   UNL     1      12.011 -14.450 -28.595  1.00  0.00    -0.331 N 
ATOM     23  C   UNL     1      12.375 -13.413 -27.615  1.00  0.00     0.332 C 
ATOM     24  H   UNL     1      10.141 -13.921 -32.713  1.00  0.00     0.312 HD
ATOM     25  H   UNL     1      12.531 -15.325 -28.341  1.00  0.00     0.348 HD
ENDROOT
TORSDOF 0
ENDMDL
MODEL 6
REMARK VINA RESULT:    -6.525      5.597      8.035
REMARK INTER + INTRA:          -6.525
REMARK INTER:                  -6.525
REMARK INTRA:                   0.000
REMARK UNBOUND:                 0.000
REMARK SMILES C[NH+]1CCN(C2=[NH+]c3ccccc3Oc3ccc(Cl)cc32)CC1
REMARK SMILES IDX 7 1 6 2 21 3 5 4 8 5 9 6 13 7 10 8 12 9 14 10 11 11 15 12
REMARK SMILES IDX 16 13 17 14 18 15 20 16 19 17 4 18 22 19 3 20 23 21 2 22
REMARK SMILES IDX 1 23
REMARK H PARENT 7 24 2 25
REMARK Flexibility Score: inf
ROOT
ATOM      1  N   UNL     1       7.778 -15.575 -28.298  1.00  0.00    -0.237 N 
ATOM      2  C   UNL     1       8.642 -16.532 -28.514  1.00  0.00     0.286 C 
ATOM      3  C   UNL     1       9.279 -17.324 -27.427  1.00  0.00     0.108 A 
ATOM      4  N   UNL     1       8.973 -16.854 -29.877  1.00  0.00    -0.250 N 
ATOM      5  C   UNL     1       7.294 -15.099 -27.030  1.00  0.00     0.168 A 
ATOM      6  C   UNL     1       5.979 -14.606 -26.964  1.00  0.00     0.056 A 
ATOM      7  C   UNL     1       8.142 -14.931 -25.916  1.00  0.00     0.173 A 
ATOM      8  C   UNL     1       5.513 -13.967 -25.812  1.00  0.00     0.005 A 
ATOM      9  C   UNL     1       7.676 -14.258 -24.779  1.00  0.00     0.052 A 
ATOM     10  O   UNL     1       9.446 -15.418 -25.895  1.00  0.00    -0.452 OA
ATOM     11  C   UNL     1       6.364 -13.786 -24.723  1.00  0.00     0.004 A 
ATOM     12  C   UNL     1       9.750 -16.731 -26.239  1.00  0.00     0.143 A 
ATOM     13  C   UNL     1      10.535 -17.475 -25.349  1.00  0.00     0.049 A 
ATOM     14  C   UNL     1      10.809 -18.820 -25.598  1.00  0.00     0.024 A 
ATOM     15  C   UNL     1      10.304 -19.432 -26.747  1.00  0.00     0.042 A 
ATOM     16  C   UNL     1       9.551 -18.688 -27.658  1.00  0.00     0.041 A 
ATOM     17  Cl  UNL     1      10.640 -21.125 -27.059  1.00  0.00    -0.084 Cl
ATOM     18  C   UNL     1       7.944 -17.363 -30.788  1.00  0.00     0.298 C 
ATOM     19  C   UNL     1      10.374 -16.944 -30.298  1.00  0.00     0.298 C 
ATOM     20  C   UNL     1       8.167 -16.787 -32.191  1.00  0.00     0.308 C 
ATOM     21  C   UNL     1      10.523 -16.383 -31.717  1.00  0.00     0.308 C 
ATOM     22  N   UNL     1       9.557 -17.017 -32.642  1.00  0.00    -0.331 N 
ATOM     23  C   UNL     1       9.740 -16.488 -34.003  1.00  0.00     0.332 C 
ATOM     24  H   UNL     1       7.358 -15.114 -29.138  1.00  0.00     0.312 HD
ATOM     25  H   UNL     1       9.742 -18.049 -32.673  1.00  0.00     0.348 HD
ENDROOT
TORSDOF 0
ENDMDL
MODEL 7
REMARK VINA RESULT:    -6.379      3.940      5.974
REMARK INTER + INTRA:          -6.379
REMARK INTER:                  -6.379
REMARK INTRA:                   0.000
REMARK UNBOUND:                 0.000
REMARK SMILES C[NH+]1CCN(C2=[NH+]c3ccccc3Oc3ccc(Cl)cc32)CC1
REMARK SMILES IDX 7 1 6 2 21 3 5 4 8 5 9 6 13 7 10 8 12 9 14 10 11 11 15 12
REMARK SMILES IDX 16 13 17 14 18 15 20 16 19 17 4 18 22 19 3 20 23 21 2 22
REMARK SMILES IDX 1 23
REMARK H PARENT 7 24 2 25
REMARK Flexibility Score: inf
ROOT
ATOM      1  N   UNL     1       8.222 -16.739 -29.321  1.00  0.00    -0.237 N 
ATOM      2  C   UNL     1       8.676 -17.147 -30.477  1.00  0.00     0.286 C 
ATOM      3  C   UNL     1       9.361 -18.453 -30.677  1.00  0.00     0.108 A 
ATOM      4  N   UNL     1       8.478 -16.298 -31.623  1.00  0.00    -0.250 N 
ATOM      5  C   UNL     1       8.295 -17.425 -28.059  1.00  0.00     0.168 A 
ATOM      6  C   UNL     1       7.255 -17.226 -27.134  1.00  0.00     0.056 A 
ATOM      7  C   UNL     1       9.451 -18.120 -27.646  1.00  0.00     0.173 A 
ATOM      8  C   UNL     1       7.355 -17.716 -25.830  1.00  0.00     0.005 A 
ATOM      9  C   UNL     1       9.556 -18.578 -26.326  1.00  0.00     0.052 A 
ATOM     10  O   UNL     1      10.509 -18.382 -28.512  1.00  0.00    -0.452 OA
ATOM     11  C   UNL     1       8.509 -18.384 -25.423  1.00  0.00     0.004 A 
ATOM     12  C   UNL     1      10.313 -18.951 -29.766  1.00  0.00     0.143 A 
ATOM     13  C   UNL     1      11.088 -20.068 -30.105  1.00  0.00     0.049 A 
ATOM     14  C   UNL     1      10.885 -20.731 -31.315  1.00  0.00     0.024 A 
ATOM     15  C   UNL     1       9.909 -20.278 -32.202  1.00  0.00     0.042 A 
ATOM     16  C   UNL     1       9.157 -19.142 -31.889  1.00  0.00     0.041 A 
ATOM     17  Cl  UNL     1       9.646 -21.114 -33.722  1.00  0.00    -0.084 Cl
ATOM     18  C   UNL     1       7.123 -15.987 -32.087  1.00  0.00     0.298 C 
ATOM     19  C   UNL     1       9.603 -15.962 -32.500  1.00  0.00     0.298 C 
ATOM     20  C   UNL     1       7.067 -14.535 -32.574  1.00  0.00     0.308 C 
ATOM     21  C   UNL     1       9.469 -14.510 -32.976  1.00  0.00     0.308 C 
ATOM     22  N   UNL     1       8.133 -14.266 -33.563  1.00  0.00    -0.331 N 
ATOM     23  C   UNL     1       8.040 -12.877 -34.042  1.00  0.00     0.332 C 
ATOM     24  H   UNL     1       7.716 -15.824 -29.304  1.00  0.00     0.312 HD
ATOM     25  H   UNL     1       8.003 -14.898 -34.389  1.00  0.00     0.348 HD
ENDROOT
TORSDOF 0
ENDMDL
MODEL 8
REMARK VINA RESULT:    -6.320      4.134      6.611
REMARK INTER + INTRA:          -6.320
REMARK INTER:                  -6.320
REMARK INTRA:                   0.000
REMARK UNBOUND:                 0.000
REMARK SMILES C[NH+]1CCN(C2=[NH+]c3ccccc3Oc3ccc(Cl)cc32)CC1
REMARK SMILES IDX 7 1 6 2 21 3 5 4 8 5 9 6 13 7 10 8 12 9 14 10 11 11 15 12
REMARK SMILES IDX 16 13 17 14 18 15 20 16 19 17 4 18 22 19 3 20 23 21 2 22
REMARK SMILES IDX 1 23
REMARK H PARENT 7 24 2 25
REMARK Flexibility Score: inf
ROOT
ATOM      1  N   UNL     1       7.943 -15.245 -30.392  1.00  0.00    -0.237 N 
ATOM      2  C   UNL     1       8.445 -16.401 -30.045  1.00  0.00     0.286 C 
ATOM      3  C   UNL     1       8.443 -17.597 -30.929  1.00  0.00     0.108 A 
ATOM      4  N   UNL     1       9.057 -16.513 -28.746  1.00  0.00    -0.250 N 
ATOM      5  C   UNL     1       7.302 -14.905 -31.634  1.00  0.00     0.168 A 
ATOM      6  C   UNL     1       7.430 -13.588 -32.109  1.00  0.00     0.056 A 
ATOM      7  C   UNL     1       6.402 -15.778 -32.281  1.00  0.00     0.173 A 
ATOM      8  C   UNL     1       6.688 -13.149 -33.208  1.00  0.00     0.005 A 
ATOM      9  C   UNL     1       5.637 -15.318 -33.361  1.00  0.00     0.052 A 
ATOM     10  O   UNL     1       6.242 -17.104 -31.887  1.00  0.00    -0.452 OA
ATOM     11  C   UNL     1       5.786 -14.011 -33.828  1.00  0.00     0.004 A 
ATOM     12  C   UNL     1       7.326 -17.957 -31.708  1.00  0.00     0.143 A 
ATOM     13  C   UNL     1       7.291 -19.202 -32.348  1.00  0.00     0.049 A 
ATOM     14  C   UNL     1       8.380 -20.070 -32.272  1.00  0.00     0.024 A 
ATOM     15  C   UNL     1       9.513 -19.702 -31.546  1.00  0.00     0.042 A 
ATOM     16  C   UNL     1       9.542 -18.478 -30.873  1.00  0.00     0.041 A 
ATOM     17  Cl  UNL     1      10.888 -20.788 -31.453  1.00  0.00    -0.084 Cl
ATOM     18  C   UNL     1      10.245 -15.719 -28.418  1.00  0.00     0.298 C 
ATOM     19  C   UNL     1       8.684 -17.604 -27.842  1.00  0.00     0.298 C 
ATOM     20  C   UNL     1      10.171 -15.263 -26.957  1.00  0.00     0.308 C 
ATOM     21  C   UNL     1       8.660 -17.090 -26.398  1.00  0.00     0.308 C 
ATOM     22  N   UNL     1       9.930 -16.411 -26.056  1.00  0.00    -0.331 N 
ATOM     23  C   UNL     1       9.897 -15.957 -24.656  1.00  0.00     0.332 C 
ATOM     24  H   UNL     1       8.038 -14.459 -29.709  1.00  0.00     0.312 HD
ATOM     25  H   UNL     1      10.719 -17.095 -26.151  1.00  0.00     0.348 HD
ENDROOT
TORSDOF 0
ENDMDL
MODEL 9
REMARK VINA RESULT:    -6.226      6.625      8.531
REMARK INTER + INTRA:          -6.226
REMARK INTER:                  -6.226
REMARK INTRA:                   0.000
REMARK UNBOUND:                 0.000
REMARK SMILES C[NH+]1CCN(C2=[NH+]c3ccccc3Oc3ccc(Cl)cc32)CC1
REMARK SMILES IDX 7 1 6 2 21 3 5 4 8 5 9 6 13 7 10 8 12 9 14 10 11 11 15 12
REMARK SMILES IDX 16 13 17 14 18 15 20 16 19 17 4 18 22 19 3 20 23 21 2 22
REMARK SMILES IDX 1 23
REMARK H PARENT 7 24 2 25
REMARK Flexibility Score: inf
ROOT
ATOM      1  N   UNL     1       9.842 -15.455 -25.990  1.00  0.00    -0.237 N 
ATOM      2  C   UNL     1       8.837 -15.621 -26.809  1.00  0.00     0.286 C 
ATOM      3  C   UNL     1       7.561 -14.862 -26.709  1.00  0.00     0.108 A 
ATOM      4  N   UNL     1       8.985 -16.569 -27.883  1.00  0.00    -0.250 N 
ATOM      5  C   UNL     1       9.919 -14.560 -24.866  1.00  0.00     0.168 A 
ATOM      6  C   UNL     1      11.174 -14.019 -24.534  1.00  0.00     0.056 A 
ATOM      7  C   UNL     1       8.837 -14.365 -23.983  1.00  0.00     0.173 A 
ATOM      8  C   UNL     1      11.348 -13.291 -23.354  1.00  0.00     0.005 A 
ATOM      9  C   UNL     1       9.031 -13.663 -22.786  1.00  0.00     0.052 A 
ATOM     10  O   UNL     1       7.559 -14.845 -24.258  1.00  0.00    -0.452 OA
ATOM     11  C   UNL     1      10.279 -13.121 -22.476  1.00  0.00     0.004 A 
ATOM     12  C   UNL     1       6.929 -14.611 -25.476  1.00  0.00     0.143 A 
ATOM     13  C   UNL     1       5.628 -14.091 -25.449  1.00  0.00     0.049 A 
ATOM     14  C   UNL     1       4.972 -13.762 -26.635  1.00  0.00     0.024 A 
ATOM     15  C   UNL     1       5.609 -13.958 -27.861  1.00  0.00     0.042 A 
ATOM     16  C   UNL     1       6.892 -14.510 -27.898  1.00  0.00     0.041 A 
ATOM     17  Cl  UNL     1       4.789 -13.538 -29.354  1.00  0.00    -0.084 Cl
ATOM     18  C   UNL     1      10.001 -16.361 -28.918  1.00  0.00     0.298 C 
ATOM     19  C   UNL     1       7.962 -17.592 -28.114  1.00  0.00     0.298 C 
ATOM     20  C   UNL     1      10.608 -17.709 -29.322  1.00  0.00     0.308 C 
ATOM     21  C   UNL     1       8.631 -18.902 -28.545  1.00  0.00     0.308 C 
ATOM     22  N   UNL     1       9.550 -18.679 -29.682  1.00  0.00    -0.331 N 
ATOM     23  C   UNL     1      10.156 -19.954 -30.099  1.00  0.00     0.332 C 
ATOM     24  H   UNL     1      10.709 -16.009 -26.180  1.00  0.00     0.312 HD
ATOM     25  H   UNL     1       9.003 -18.304 -30.495  1.00  0.00     0.348 HD
ENDROOT
TORSDOF 0
ENDMDL
