MODEL 1
REMARK VINA RESULT:    -3.129      0.000      0.000
REMARK INTER + INTRA:          -3.636
REMARK INTER:                  -3.586
REMARK INTRA:                  -0.050
REMARK UNBOUND:                -0.050
REMARK SMILES O=C([O-])c1cc(O)c(O)c(O)c1
REMARK SMILES IDX 4 1 5 2 12 3 6 4 10 5 8 6 2 7 1 8 3 9 7 10 11 12 9 14
REMARK H PARENT 7 11 11 13 9 15
REMARK Flexibility Score: inf
ROOT
ATOM      1  C   UNL     1      -1.875   2.155  -0.555  1.00  0.00     0.005 A 
ATOM      2  C   UNL     1      -2.440   1.909   0.705  1.00  0.00     0.060 A 
ATOM      3  C   UNL     1      -0.707   2.930  -0.639  1.00  0.00     0.060 A 
ATOM      4  C   UNL     1      -1.851   2.426   1.864  1.00  0.00     0.162 A 
ATOM      5  C   UNL     1      -0.105   3.454   0.511  1.00  0.00     0.162 A 
ATOM      6  C   UNL     1      -0.681   3.201   1.779  1.00  0.00     0.200 A 
ENDROOT
BRANCH   1   7
ATOM      7  C   UNL     1      -2.498   1.608  -1.781  1.00  0.00     0.072 C 
ATOM      8  O   UNL     1      -1.786   1.244  -2.755  1.00  0.00    -0.545 OA
ATOM      9  O   UNL     1      -3.879   1.486  -1.876  1.00  0.00    -0.545 OA
ENDBRANCH   1   7
BRANCH   4  10
ATOM     10  O   UNL     1      -2.449   2.154   3.095  1.00  0.00    -0.504 OA
ATOM     11  H   UNL     1      -3.102   2.793   3.532  1.00  0.00     0.293 HD
ENDBRANCH   4  10
BRANCH   5  12
ATOM     12  O   UNL     1       1.054   4.215   0.346  1.00  0.00    -0.504 OA
ATOM     13  H   UNL     1       1.196   5.129   0.753  1.00  0.00     0.293 HD
ENDBRANCH   5  12
BRANCH   6  14
ATOM     14  O   UNL     1      -0.126   3.698   2.962  1.00  0.00    -0.502 OA
ATOM     15  H   UNL     1      -0.660   3.933   3.785  1.00  0.00     0.293 HD
ENDBRANCH   6  14
TORSDOF 4
ENDMDL
MODEL 2
REMARK VINA RESULT:    -3.093      0.076      2.445
REMARK INTER + INTRA:          -3.595
REMARK INTER:                  -3.546
REMARK INTRA:                  -0.050
REMARK UNBOUND:                -0.050
REMARK SMILES O=C([O-])c1cc(O)c(O)c(O)c1
REMARK SMILES IDX 4 1 5 2 12 3 6 4 10 5 8 6 2 7 1 8 3 9 7 10 11 12 9 14
REMARK H PARENT 7 11 11 13 9 15
REMARK Flexibility Score: inf
ROOT
ATOM      1  C   UNL     1      -1.917   2.155  -0.541  1.00  0.00     0.005 A 
ATOM      2  C   UNL     1      -0.778   2.970  -0.630  1.00  0.00     0.060 A 
ATOM      3  C   UNL     1      -2.453   1.870   0.724  1.00  0.00     0.060 A 
ATOM      4  C   UNL     1      -0.184   3.492   0.523  1.00  0.00     0.162 A 
ATOM      5  C   UNL     1      -1.871   2.384   1.888  1.00  0.00     0.162 A 
ATOM      6  C   UNL     1      -0.722   3.206   1.791  1.00  0.00     0.200 A 
ENDROOT
BRANCH   1   7
ATOM      7  C   UNL     1      -2.546   1.603  -1.762  1.00  0.00     0.072 C 
ATOM      8  O   UNL     1      -1.840   1.253  -2.745  1.00  0.00    -0.545 OA
ATOM      9  O   UNL     1      -3.927   1.461  -1.841  1.00  0.00    -0.545 OA
ENDBRANCH   1   7
BRANCH   4  10
ATOM     10  O   UNL     1       0.947   4.298   0.386  1.00  0.00    -0.504 OA
ATOM     11  H   UNL     1       0.906   5.222  -0.027  1.00  0.00     0.293 HD
ENDBRANCH   4  10
BRANCH   5  12
ATOM     12  O   UNL     1      -2.463   2.054   3.109  1.00  0.00    -0.504 OA
ATOM     13  H   UNL     1      -2.091   1.370   3.752  1.00  0.00     0.293 HD
ENDBRANCH   5  12
BRANCH   6  14
ATOM     14  O   UNL     1      -0.097   3.748   2.917  1.00  0.00    -0.502 OA
ATOM     15  H   UNL     1       0.047   4.736   3.066  1.00  0.00     0.293 HD
ENDBRANCH   6  14
TORSDOF 4
ENDMDL
MODEL 3
REMARK VINA RESULT:    -2.884      1.767      3.149
REMARK INTER + INTRA:          -3.355
REMARK INTER:                  -3.303
REMARK INTRA:                  -0.052
REMARK UNBOUND:                -0.050
REMARK SMILES O=C([O-])c1cc(O)c(O)c(O)c1
REMARK SMILES IDX 4 1 5 2 12 3 6 4 10 5 8 6 2 7 1 8 3 9 7 10 11 12 9 14
REMARK H PARENT 7 11 11 13 9 15
REMARK Flexibility Score: inf
ROOT
ATOM      1  C   UNL     1      -0.467   1.894  -1.722  1.00  0.00     0.005 A 
ATOM      2  C   UNL     1       0.081   2.934  -0.957  1.00  0.00     0.060 A 
ATOM      3  C   UNL     1      -1.591   1.209  -1.235  1.00  0.00     0.060 A 
ATOM      4  C   UNL     1      -0.480   3.287   0.274  1.00  0.00     0.162 A 
ATOM      5  C   UNL     1      -2.166   1.550  -0.005  1.00  0.00     0.162 A 
ATOM      6  C   UNL     1      -1.607   2.600   0.762  1.00  0.00     0.200 A 
ENDROOT
BRANCH   1   7
ATOM      7  C   UNL     1       0.128   1.521  -3.025  1.00  0.00     0.072 C 
ATOM      8  O   UNL     1       1.273   1.935  -3.349  1.00  0.00    -0.545 OA
ATOM      9  O   UNL     1      -0.568   0.706  -3.911  1.00  0.00    -0.545 OA
ENDBRANCH   1   7
BRANCH   4  10
ATOM     10  O   UNL     1       0.099   4.328   1.000  1.00  0.00    -0.504 OA
ATOM     11  H   UNL     1      -0.456   5.028   1.479  1.00  0.00     0.293 HD
ENDBRANCH   4  10
BRANCH   5  12
ATOM     12  O   UNL     1      -3.282   0.821   0.412  1.00  0.00    -0.504 OA
ATOM     13  H   UNL     1      -3.882   1.091   1.178  1.00  0.00     0.293 HD
ENDBRANCH   5  12
BRANCH   6  14
ATOM     14  O   UNL     1      -2.138   2.985   1.996  1.00  0.00    -0.502 OA
ATOM     15  H   UNL     1      -1.632   3.514   2.691  1.00  0.00     0.293 HD
ENDBRANCH   6  14
TORSDOF 4
ENDMDL
MODEL 4
REMARK VINA RESULT:    -2.881      1.524      3.161
REMARK INTER + INTRA:          -3.351
REMARK INTER:                  -3.307
REMARK INTRA:                  -0.045
REMARK UNBOUND:                -0.050
REMARK SMILES O=C([O-])c1cc(O)c(O)c(O)c1
REMARK SMILES IDX 4 1 5 2 12 3 6 4 10 5 8 6 2 7 1 8 3 9 7 10 11 12 9 14
REMARK H PARENT 7 11 11 13 9 15
REMARK Flexibility Score: inf
ROOT
ATOM      1  C   UNL     1      -0.442   2.936  -0.645  1.00  0.00     0.005 A 
ATOM      2  C   UNL     1      -0.043   3.503   0.575  1.00  0.00     0.060 A 
ATOM      3  C   UNL     1      -1.527   2.047  -0.661  1.00  0.00     0.060 A 
ATOM      4  C   UNL     1      -0.715   3.188   1.761  1.00  0.00     0.162 A 
ATOM      5  C   UNL     1      -2.210   1.721   0.517  1.00  0.00     0.162 A 
ATOM      6  C   UNL     1      -1.803   2.296   1.744  1.00  0.00     0.200 A 
ENDROOT
BRANCH   1   7
ATOM      7  C   UNL     1       0.269   3.270  -1.900  1.00  0.00     0.072 C 
ATOM      8  O   UNL     1       0.096   4.386  -2.458  1.00  0.00    -0.545 OA
ATOM      9  O   UNL     1       1.141   2.356  -2.480  1.00  0.00    -0.545 OA
ENDBRANCH   1   7
BRANCH   4  10
ATOM     10  O   UNL     1      -0.283   3.776   2.950  1.00  0.00    -0.504 OA
ATOM     11  H   UNL     1      -0.927   4.186   3.616  1.00  0.00     0.293 HD
ENDBRANCH   4  10
BRANCH   5  12
ATOM     12  O   UNL     1      -3.279   0.827   0.419  1.00  0.00    -0.504 OA
ATOM     13  H   UNL     1      -3.561   0.371  -0.437  1.00  0.00     0.293 HD
ENDBRANCH   5  12
BRANCH   6  14
ATOM     14  O   UNL     1      -2.446   2.010   2.951  1.00  0.00    -0.502 OA
ATOM     15  H   UNL     1      -2.550   1.081   3.332  1.00  0.00     0.293 HD
ENDBRANCH   6  14
TORSDOF 4
ENDMDL
MODEL 5
REMARK VINA RESULT:    -2.876      1.757      2.366
REMARK INTER + INTRA:          -3.346
REMARK INTER:                  -3.294
REMARK INTRA:                  -0.052
REMARK UNBOUND:                -0.050
REMARK SMILES O=C([O-])c1cc(O)c(O)c(O)c1
REMARK SMILES IDX 4 1 5 2 12 3 6 4 10 5 8 6 2 7 1 8 3 9 7 10 11 12 9 14
REMARK H PARENT 7 11 11 13 9 15
REMARK Flexibility Score: inf
ROOT
ATOM      1  C   UNL     1      -0.480   1.909  -1.686  1.00  0.00     0.005 A 
ATOM      2  C   UNL     1      -1.591   1.198  -1.209  1.00  0.00     0.060 A 
ATOM      3  C   UNL     1       0.045   2.954  -0.910  1.00  0.00     0.060 A 
ATOM      4  C   UNL     1      -2.171   1.523   0.021  1.00  0.00     0.162 A 
ATOM      5  C   UNL     1      -0.522   3.292   0.324  1.00  0.00     0.162 A 
ATOM      6  C   UNL     1      -1.643   2.570   0.799  1.00  0.00     0.200 A 
ENDROOT
BRANCH   1   7
ATOM      7  C   UNL     1       0.134   1.564  -2.989  1.00  0.00     0.072 C 
ATOM      8  O   UNL     1       1.261   2.026  -3.309  1.00  0.00    -0.545 OA
ATOM      9  O   UNL     1      -0.526   0.724  -3.878  1.00  0.00    -0.545 OA
ENDBRANCH   1   7
BRANCH   4  10
ATOM     10  O   UNL     1      -3.275   0.789   0.456  1.00  0.00    -0.504 OA
ATOM     11  H   UNL     1      -3.219  -0.202   0.658  1.00  0.00     0.293 HD
ENDBRANCH   4  10
BRANCH   5  12
ATOM     12  O   UNL     1       0.057   4.344   1.036  1.00  0.00    -0.504 OA
ATOM     13  H   UNL     1       0.101   4.390   2.044  1.00  0.00     0.293 HD
ENDBRANCH   5  12
BRANCH   6  14
ATOM     14  O   UNL     1      -2.253   2.862   2.022  1.00  0.00    -0.502 OA
ATOM     15  H   UNL     1      -3.232   2.718   2.217  1.00  0.00     0.293 HD
ENDBRANCH   6  14
TORSDOF 4
ENDMDL
MODEL 6
REMARK VINA RESULT:    -2.849      1.261      4.083
REMARK INTER + INTRA:          -3.315
REMARK INTER:                  -3.262
REMARK INTRA:                  -0.053
REMARK UNBOUND:                -0.050
REMARK SMILES O=C([O-])c1cc(O)c(O)c(O)c1
REMARK SMILES IDX 4 1 5 2 12 3 6 4 10 5 8 6 2 7 1 8 3 9 7 10 11 12 9 14
REMARK H PARENT 7 11 11 13 9 15
REMARK Flexibility Score: inf
ROOT
ATOM      1  C   UNL     1      -1.457   2.646   0.892  1.00  0.00     0.005 A 
ATOM      2  C   UNL     1      -2.563   2.354   1.704  1.00  0.00     0.060 A 
ATOM      3  C   UNL     1      -1.482   2.263  -0.458  1.00  0.00     0.060 A 
ATOM      4  C   UNL     1      -3.677   1.692   1.180  1.00  0.00     0.162 A 
ATOM      5  C   UNL     1      -2.590   1.599  -0.999  1.00  0.00     0.162 A 
ATOM      6  C   UNL     1      -3.702   1.309  -0.173  1.00  0.00     0.200 A 
ENDROOT
BRANCH   1   7
ATOM      7  C   UNL     1      -0.277   3.348   1.447  1.00  0.00     0.072 C 
ATOM      8  O   UNL     1       0.776   3.468   0.767  1.00  0.00    -0.545 OA
ATOM      9  O   UNL     1      -0.315   3.885   2.729  1.00  0.00    -0.545 OA
ENDBRANCH   1   7
BRANCH   4  10
ATOM     10  O   UNL     1      -4.754   1.423   2.025  1.00  0.00    -0.504 OA
ATOM     11  H   UNL     1      -4.697   1.542   3.029  1.00  0.00     0.293 HD
ENDBRANCH   4  10
BRANCH   5  12
ATOM     12  O   UNL     1      -2.539   1.250  -2.350  1.00  0.00    -0.504 OA
ATOM     13  H   UNL     1      -3.074   1.708  -3.074  1.00  0.00     0.293 HD
ENDBRANCH   5  12
BRANCH   6  14
ATOM     14  O   UNL     1      -4.836   0.649  -0.656  1.00  0.00    -0.502 OA
ATOM     15  H   UNL     1      -4.883   0.181  -1.550  1.00  0.00     0.293 HD
ENDBRANCH   6  14
TORSDOF 4
ENDMDL
MODEL 7
REMARK VINA RESULT:    -2.823      1.765      4.634
REMARK INTER + INTRA:          -3.286
REMARK INTER:                  -3.234
REMARK INTRA:                  -0.052
REMARK UNBOUND:                -0.050
REMARK SMILES O=C([O-])c1cc(O)c(O)c(O)c1
REMARK SMILES IDX 4 1 5 2 12 3 6 4 10 5 8 6 2 7 1 8 3 9 7 10 11 12 9 14
REMARK H PARENT 7 11 11 13 9 15
REMARK Flexibility Score: inf
ROOT
ATOM      1  C   UNL     1       0.018   2.775  -0.979  1.00  0.00     0.005 A 
ATOM      2  C   UNL     1      -1.263   2.289  -0.678  1.00  0.00     0.060 A 
ATOM      3  C   UNL     1       0.518   2.619  -2.281  1.00  0.00     0.060 A 
ATOM      4  C   UNL     1      -2.035   1.658  -1.659  1.00  0.00     0.162 A 
ATOM      5  C   UNL     1      -0.241   1.989  -3.275  1.00  0.00     0.162 A 
ATOM      6  C   UNL     1      -1.533   1.502  -2.964  1.00  0.00     0.200 A 
ENDROOT
BRANCH   1   7
ATOM      7  C   UNL     1       0.835   3.443   0.059  1.00  0.00     0.072 C 
ATOM      8  O   UNL     1       1.841   4.132  -0.260  1.00  0.00    -0.545 OA
ATOM      9  O   UNL     1       0.503   3.322   1.404  1.00  0.00    -0.545 OA
ENDBRANCH   1   7
BRANCH   4  10
ATOM     10  O   UNL     1      -3.303   1.191  -1.313  1.00  0.00    -0.504 OA
ATOM     11  H   UNL     1      -3.739   0.408  -1.786  1.00  0.00     0.293 HD
ENDBRANCH   4  10
BRANCH   5  12
ATOM     12  O   UNL     1       0.325   1.872  -4.545  1.00  0.00    -0.504 OA
ATOM     13  H   UNL     1      -0.193   1.957  -5.408  1.00  0.00     0.293 HD
ENDBRANCH   5  12
BRANCH   6  14
ATOM     14  O   UNL     1      -2.338   0.866  -3.913  1.00  0.00    -0.502 OA
ATOM     15  H   UNL     1      -3.174   1.268  -4.310  1.00  0.00     0.293 HD
ENDBRANCH   6  14
TORSDOF 4
ENDMDL
MODEL 8
REMARK VINA RESULT:    -2.818      1.774      5.260
REMARK INTER + INTRA:          -3.280
REMARK INTER:                  -3.228
REMARK INTRA:                  -0.052
REMARK UNBOUND:                -0.050
REMARK SMILES O=C([O-])c1cc(O)c(O)c(O)c1
REMARK SMILES IDX 4 1 5 2 12 3 6 4 10 5 8 6 2 7 1 8 3 9 7 10 11 12 9 14
REMARK H PARENT 7 11 11 13 9 15
REMARK Flexibility Score: inf
ROOT
ATOM      1  C   UNL     1      -0.004   2.768  -0.941  1.00  0.00     0.005 A 
ATOM      2  C   UNL     1       0.460   2.643  -2.259  1.00  0.00     0.060 A 
ATOM      3  C   UNL     1      -1.268   2.257  -0.612  1.00  0.00     0.060 A 
ATOM      4  C   UNL     1      -0.323   2.018  -3.234  1.00  0.00     0.162 A 
ATOM      5  C   UNL     1      -2.066   1.628  -1.576  1.00  0.00     0.162 A 
ATOM      6  C   UNL     1      -1.591   1.505  -2.904  1.00  0.00     0.200 A 
ENDROOT
BRANCH   1   7
ATOM      7  C   UNL     1       0.826   3.430   0.091  1.00  0.00     0.072 C 
ATOM      8  O   UNL     1       0.528   3.336   1.312  1.00  0.00    -0.545 OA
ATOM      9  O   UNL     1       1.949   4.165  -0.271  1.00  0.00    -0.545 OA
ENDBRANCH   1   7
BRANCH   4  10
ATOM     10  O   UNL     1       0.180   1.916  -4.532  1.00  0.00    -0.504 OA
ATOM     11  H   UNL     1      -0.253   2.385  -5.318  1.00  0.00     0.293 HD
ENDBRANCH   4  10
BRANCH   5  12
ATOM     12  O   UNL     1      -3.312   1.146  -1.171  1.00  0.00    -0.504 OA
ATOM     13  H   UNL     1      -3.592   0.178  -1.231  1.00  0.00     0.293 HD
ENDBRANCH   5  12
BRANCH   6  14
ATOM     14  O   UNL     1      -2.341   0.888  -3.909  1.00  0.00    -0.502 OA
ATOM     15  H   UNL     1      -3.133   0.287  -3.737  1.00  0.00     0.293 HD
ENDBRANCH   6  14
TORSDOF 4
ENDMDL
MODEL 9
REMARK VINA RESULT:    -2.802      1.263      2.963
REMARK INTER + INTRA:          -3.262
REMARK INTER:                  -3.209
REMARK INTRA:                  -0.053
REMARK UNBOUND:                -0.050
REMARK SMILES O=C([O-])c1cc(O)c(O)c(O)c1
REMARK SMILES IDX 4 1 5 2 12 3 6 4 10 5 8 6 2 7 1 8 3 9 7 10 11 12 9 14
REMARK H PARENT 7 11 11 13 9 15
REMARK Flexibility Score: inf
ROOT
ATOM      1  C   UNL     1      -2.445   1.921   0.398  1.00  0.00     0.005 A 
ATOM      2  C   UNL     1      -1.738   2.060  -0.806  1.00  0.00     0.060 A 
ATOM      3  C   UNL     1      -1.905   2.467   1.572  1.00  0.00     0.060 A 
ATOM      4  C   UNL     1      -0.512   2.733  -0.839  1.00  0.00     0.162 A 
ATOM      5  C   UNL     1      -0.680   3.145   1.557  1.00  0.00     0.162 A 
ATOM      6  C   UNL     1       0.027   3.282   0.338  1.00  0.00     0.200 A 
ENDROOT
BRANCH   1   7
ATOM      7  C   UNL     1      -3.742   1.208   0.433  1.00  0.00     0.072 C 
ATOM      8  O   UNL     1      -4.313   0.862  -0.636  1.00  0.00    -0.545 OA
ATOM      9  O   UNL     1      -4.348   0.907   1.647  1.00  0.00    -0.545 OA
ENDBRANCH   1   7
BRANCH   4  10
ATOM     10  O   UNL     1       0.155   2.848  -2.059  1.00  0.00    -0.504 OA
ATOM     11  H   UNL     1       0.195   2.087  -2.727  1.00  0.00     0.293 HD
ENDBRANCH   4  10
BRANCH   5  12
ATOM     12  O   UNL     1      -0.209   3.660   2.766  1.00  0.00    -0.504 OA
ATOM     13  H   UNL     1       0.375   4.480   2.844  1.00  0.00     0.293 HD
ENDBRANCH   5  12
BRANCH   6  14
ATOM     14  O   UNL     1       1.254   3.947   0.260  1.00  0.00    -0.502 OA
ATOM     15  H   UNL     1       1.502   4.749   0.821  1.00  0.00     0.293 HD
ENDBRANCH   6  14
TORSDOF 4
ENDMDL
