MODEL 1
REMARK VINA RESULT:    -4.846      0.000      0.000
REMARK INTER + INTRA:          -5.261
REMARK INTER:                  -5.129
REMARK INTRA:                  -0.131
REMARK UNBOUND:                -0.131
REMARK SMILES C=C(C)[C@@H]1CC=C(C)CC1
REMARK SMILES IDX 8 1 7 2 6 3 5 4 4 5 10 6 9 7 2 8 1 9 3 10
REMARK H PARENT
REMARK Flexibility Score: inf
ROOT
ATOM      1  C   UNL     1      23.401  29.232  13.807  1.00  0.00     0.039 C 
ATOM      2  C   UNL     1      22.948  29.375  15.234  1.00  0.00    -0.077 C 
ATOM      3  C   UNL     1      22.300  30.500  15.606  1.00  0.00    -0.027 C 
ATOM      4  C   UNL     1      21.760  30.716  16.999  1.00  0.00     0.035 C 
ATOM      5  C   UNL     1      22.473  29.837  18.040  1.00  0.00     0.018 C 
ATOM      6  C   UNL     1      22.541  28.386  17.541  1.00  0.00     0.013 C 
ATOM      7  C   UNL     1      23.347  28.313  16.238  1.00  0.00     0.031 C 
ENDROOT
BRANCH   5   8
ATOM      8  C   UNL     1      21.793  29.929  19.401  1.00  0.00    -0.077 C 
ATOM      9  C   UNL     1      20.499  30.276  19.484  1.00  0.00     0.008 C 
ATOM     10  C   UNL     1      22.542  29.628  20.675  1.00  0.00     0.039 C 
ENDBRANCH   5   8
TORSDOF 1
ENDMDL
MODEL 2
REMARK VINA RESULT:    -4.756      1.160      4.425
REMARK INTER + INTRA:          -5.166
REMARK INTER:                  -5.038
REMARK INTRA:                  -0.128
REMARK UNBOUND:                -0.131
REMARK SMILES C=C(C)[C@@H]1CC=C(C)CC1
REMARK SMILES IDX 8 1 7 2 6 3 5 4 4 5 10 6 9 7 2 8 1 9 3 10
REMARK H PARENT
REMARK Flexibility Score: inf
ROOT
ATOM      1  C   UNL     1      20.754  30.083  19.929  1.00  0.00     0.039 C 
ATOM      2  C   UNL     1      21.469  30.194  18.610  1.00  0.00    -0.077 C 
ATOM      3  C   UNL     1      20.854  30.818  17.582  1.00  0.00    -0.027 C 
ATOM      4  C   UNL     1      21.508  31.027  16.238  1.00  0.00     0.035 C 
ATOM      5  C   UNL     1      22.645  30.024  15.982  1.00  0.00     0.018 C 
ATOM      6  C   UNL     1      23.575  29.966  17.203  1.00  0.00     0.013 C 
ATOM      7  C   UNL     1      22.799  29.489  18.437  1.00  0.00     0.031 C 
ENDROOT
BRANCH   5   8
ATOM      8  C   UNL     1      23.411  30.366  14.711  1.00  0.00    -0.077 C 
ATOM      9  C   UNL     1      24.125  31.501  14.640  1.00  0.00     0.008 C 
ATOM     10  C   UNL     1      23.398  29.448  13.514  1.00  0.00     0.039 C 
ENDBRANCH   5   8
TORSDOF 1
ENDMDL
MODEL 3
REMARK VINA RESULT:    -4.623      1.231      4.287
REMARK INTER + INTRA:          -5.025
REMARK INTER:                  -4.893
REMARK INTRA:                  -0.131
REMARK UNBOUND:                -0.131
REMARK SMILES C=C(C)[C@@H]1CC=C(C)CC1
REMARK SMILES IDX 8 1 7 2 6 3 5 4 4 5 10 6 9 7 2 8 1 9 3 10
REMARK H PARENT
REMARK Flexibility Score: inf
ROOT
ATOM      1  C   UNL     1      23.322  28.794  21.951  1.00  0.00     0.039 C 
ATOM      2  C   UNL     1      22.961  29.270  20.570  1.00  0.00    -0.077 C 
ATOM      3  C   UNL     1      21.860  30.035  20.408  1.00  0.00    -0.027 C 
ATOM      4  C   UNL     1      21.444  30.605  19.074  1.00  0.00     0.035 C 
ATOM      5  C   UNL     1      22.031  29.812  17.894  1.00  0.00     0.018 C 
ATOM      6  C   UNL     1      23.535  29.587  18.113  1.00  0.00     0.013 C 
ATOM      7  C   UNL     1      23.767  28.767  19.389  1.00  0.00     0.031 C 
ENDROOT
BRANCH   5   8
ATOM      8  C   UNL     1      21.756  30.507  16.567  1.00  0.00    -0.077 C 
ATOM      9  C   UNL     1      20.757  31.398  16.469  1.00  0.00     0.008 C 
ATOM     10  C   UNL     1      22.594  30.226  15.344  1.00  0.00     0.039 C 
ENDBRANCH   5   8
TORSDOF 1
ENDMDL
MODEL 4
REMARK VINA RESULT:    -4.540      1.671      3.035
REMARK INTER + INTRA:          -4.937
REMARK INTER:                  -4.807
REMARK INTRA:                  -0.129
REMARK UNBOUND:                -0.131
REMARK SMILES C=C(C)[C@@H]1CC=C(C)CC1
REMARK SMILES IDX 8 1 7 2 6 3 5 4 4 5 10 6 9 7 2 8 1 9 3 10
REMARK H PARENT
REMARK Flexibility Score: inf
ROOT
ATOM      1  C   UNL     1      20.604  31.500  16.500  1.00  0.00     0.039 C 
ATOM      2  C   UNL     1      21.326  30.453  17.305  1.00  0.00    -0.077 C 
ATOM      3  C   UNL     1      21.500  30.650  18.629  1.00  0.00    -0.027 C 
ATOM      4  C   UNL     1      22.163  29.636  19.530  1.00  0.00     0.035 C 
ATOM      5  C   UNL     1      23.074  28.674  18.750  1.00  0.00     0.018 C 
ATOM      6  C   UNL     1      22.329  28.127  17.524  1.00  0.00     0.013 C 
ATOM      7  C   UNL     1      21.948  29.275  16.581  1.00  0.00     0.031 C 
ENDROOT
BRANCH   5   8
ATOM      8  C   UNL     1      23.585  27.549  19.642  1.00  0.00    -0.077 C 
ATOM      9  C   UNL     1      23.807  26.330  19.126  1.00  0.00     0.008 C 
ATOM     10  C   UNL     1      23.861  27.772  21.108  1.00  0.00     0.039 C 
ENDBRANCH   5   8
TORSDOF 1
ENDMDL
MODEL 5
REMARK VINA RESULT:    -4.457      1.201      4.600
REMARK INTER + INTRA:          -4.849
REMARK INTER:                  -4.721
REMARK INTRA:                  -0.127
REMARK UNBOUND:                -0.131
REMARK SMILES C=C(C)[C@@H]1CC=C(C)CC1
REMARK SMILES IDX 8 1 7 2 6 3 5 4 4 5 10 6 9 7 2 8 1 9 3 10
REMARK H PARENT
REMARK Flexibility Score: inf
ROOT
ATOM      1  C   UNL     1      23.036  30.766  21.941  1.00  0.00     0.039 C 
ATOM      2  C   UNL     1      22.868  30.353  20.503  1.00  0.00    -0.077 C 
ATOM      3  C   UNL     1      23.964  30.058  19.774  1.00  0.00    -0.027 C 
ATOM      4  C   UNL     1      23.896  29.584  18.342  1.00  0.00     0.035 C 
ATOM      5  C   UNL     1      22.582  29.993  17.657  1.00  0.00     0.018 C 
ATOM      6  C   UNL     1      21.390  29.642  18.560  1.00  0.00     0.013 C 
ATOM      7  C   UNL     1      21.485  30.410  19.884  1.00  0.00     0.031 C 
ENDROOT
BRANCH   5   8
ATOM      8  C   UNL     1      22.451  29.351  16.282  1.00  0.00    -0.077 C 
ATOM      9  C   UNL     1      22.052  28.073  16.171  1.00  0.00     0.008 C 
ATOM     10  C   UNL     1      22.751  30.123  15.021  1.00  0.00     0.039 C 
ENDBRANCH   5   8
TORSDOF 1
ENDMDL
MODEL 6
REMARK VINA RESULT:    -4.401      1.364      2.824
REMARK INTER + INTRA:          -4.790
REMARK INTER:                  -4.660
REMARK INTRA:                  -0.130
REMARK UNBOUND:                -0.131
REMARK SMILES C=C(C)[C@@H]1CC=C(C)CC1
REMARK SMILES IDX 8 1 7 2 6 3 5 4 4 5 10 6 9 7 2 8 1 9 3 10
REMARK H PARENT
REMARK Flexibility Score: inf
ROOT
ATOM      1  C   UNL     1      22.244  29.850  15.753  1.00  0.00     0.039 C 
ATOM      2  C   UNL     1      22.352  29.963  17.249  1.00  0.00    -0.077 C 
ATOM      3  C   UNL     1      23.536  29.702  17.842  1.00  0.00    -0.027 C 
ATOM      4  C   UNL     1      23.759  29.838  19.329  1.00  0.00     0.035 C 
ATOM      5  C   UNL     1      22.445  29.752  20.124  1.00  0.00     0.018 C 
ATOM      6  C   UNL     1      21.392  30.676  19.494  1.00  0.00     0.013 C 
ATOM      7  C   UNL     1      21.096  30.237  18.054  1.00  0.00     0.031 C 
ENDROOT
BRANCH   5   8
ATOM      8  C   UNL     1      22.665  30.076  21.595  1.00  0.00    -0.077 C 
ATOM      9  C   UNL     1      23.414  31.135  21.946  1.00  0.00     0.008 C 
ATOM     10  C   UNL     1      22.050  29.236  22.687  1.00  0.00     0.039 C 
ENDBRANCH   5   8
TORSDOF 1
ENDMDL
MODEL 7
REMARK VINA RESULT:    -4.329      1.490      3.138
REMARK INTER + INTRA:          -4.713
REMARK INTER:                  -4.585
REMARK INTRA:                  -0.128
REMARK UNBOUND:                -0.131
REMARK SMILES C=C(C)[C@@H]1CC=C(C)CC1
REMARK SMILES IDX 8 1 7 2 6 3 5 4 4 5 10 6 9 7 2 8 1 9 3 10
REMARK H PARENT
REMARK Flexibility Score: inf
ROOT
ATOM      1  C   UNL     1      20.367  31.854  16.192  1.00  0.00     0.039 C 
ATOM      2  C   UNL     1      21.192  30.781  16.849  1.00  0.00    -0.077 C 
ATOM      3  C   UNL     1      22.079  30.088  16.103  1.00  0.00    -0.027 C 
ATOM      4  C   UNL     1      22.989  29.030  16.680  1.00  0.00     0.035 C 
ATOM      5  C   UNL     1      22.446  28.452  17.997  1.00  0.00     0.018 C 
ATOM      6  C   UNL     1      22.029  29.593  18.936  1.00  0.00     0.013 C 
ATOM      7  C   UNL     1      20.910  30.423  18.295  1.00  0.00     0.031 C 
ENDROOT
BRANCH   5   8
ATOM      8  C   UNL     1      23.462  27.528  18.656  1.00  0.00    -0.077 C 
ATOM      9  C   UNL     1      24.125  26.621  17.919  1.00  0.00     0.008 C 
ATOM     10  C   UNL     1      23.757  27.609  20.133  1.00  0.00     0.039 C 
ENDBRANCH   5   8
TORSDOF 1
ENDMDL
MODEL 8
REMARK VINA RESULT:    -4.014      7.806     10.799
REMARK INTER + INTRA:          -4.380
REMARK INTER:                  -4.250
REMARK INTRA:                  -0.130
REMARK UNBOUND:                -0.131
REMARK SMILES C=C(C)[C@@H]1CC=C(C)CC1
REMARK SMILES IDX 8 1 7 2 6 3 5 4 4 5 10 6 9 7 2 8 1 9 3 10
REMARK H PARENT
REMARK Flexibility Score: inf
ROOT
ATOM      1  C   UNL     1      22.171  27.031  30.474  1.00  0.00     0.039 C 
ATOM      2  C   UNL     1      21.869  27.572  29.103  1.00  0.00    -0.077 C 
ATOM      3  C   UNL     1      21.493  28.862  28.977  1.00  0.00    -0.027 C 
ATOM      4  C   UNL     1      21.220  29.512  27.642  1.00  0.00     0.035 C 
ATOM      5  C   UNL     1      20.874  28.481  26.554  1.00  0.00     0.018 C 
ATOM      6  C   UNL     1      21.901  27.339  26.571  1.00  0.00     0.013 C 
ATOM      7  C   UNL     1      21.868  26.618  27.925  1.00  0.00     0.031 C 
ENDROOT
BRANCH   5   8
ATOM      8  C   UNL     1      20.785  29.133  25.181  1.00  0.00    -0.077 C 
ATOM      9  C   UNL     1      21.735  29.995  24.783  1.00  0.00     0.008 C 
ATOM     10  C   UNL     1      19.649  28.827  24.237  1.00  0.00     0.039 C 
ENDBRANCH   5   8
TORSDOF 1
ENDMDL
MODEL 9
REMARK VINA RESULT:    -3.626     10.828     13.920
REMARK INTER + INTRA:          -3.970
REMARK INTER:                  -3.841
REMARK INTRA:                  -0.128
REMARK UNBOUND:                -0.131
REMARK SMILES C=C(C)[C@@H]1CC=C(C)CC1
REMARK SMILES IDX 8 1 7 2 6 3 5 4 4 5 10 6 9 7 2 8 1 9 3 10
REMARK H PARENT
REMARK Flexibility Score: inf
ROOT
ATOM      1  C   UNL     1      15.724  33.677  31.108  1.00  0.00     0.039 C 
ATOM      2  C   UNL     1      16.894  32.849  30.650  1.00  0.00    -0.077 C 
ATOM      3  C   UNL     1      17.747  33.367  29.741  1.00  0.00    -0.027 C 
ATOM      4  C   UNL     1      18.978  32.638  29.259  1.00  0.00     0.035 C 
ATOM      5  C   UNL     1      18.866  31.117  29.457  1.00  0.00     0.018 C 
ATOM      6  C   UNL     1      18.394  30.809  30.886  1.00  0.00     0.013 C 
ATOM      7  C   UNL     1      17.005  31.414  31.125  1.00  0.00     0.031 C 
ENDROOT
BRANCH   5   8
ATOM      8  C   UNL     1      20.183  30.419  29.140  1.00  0.00    -0.077 C 
ATOM      9  C   UNL     1      20.977  29.996  30.137  1.00  0.00     0.008 C 
ATOM     10  C   UNL     1      20.622  30.177  27.718  1.00  0.00     0.039 C 
ENDBRANCH   5   8
TORSDOF 1
ENDMDL
