MODEL 1
REMARK VINA RESULT:    -2.522      0.000      0.000
REMARK INTER + INTRA:          -8.662
REMARK INTER:                  -6.355
REMARK INTRA:                  -2.306
REMARK UNBOUND:                -2.306
REMARK SMILES CCCCCCCCCCCCCCCCCCCCCCCCCCCC(=O)[O-]
REMARK SMILES IDX 15 1 16 2 17 3 18 4 19 5 20 6 21 7 22 8 23 9 24 10 25 11
REMARK SMILES IDX 26 12 27 13 28 14 29 15 30 16 14 17 13 18 12 19 11 20 10 21
REMARK SMILES IDX 9 22 8 23 7 24 6 25 5 26 4 27 3 28 2 29 1 30
REMARK H PARENT
REMARK Flexibility Score: inf
ROOT
ATOM      1  C   UNL     1       0.384 -36.337  45.267  1.00  0.00     0.000 C 
ENDROOT
BRANCH   1   2
ATOM      2  C   UNL     1       0.241 -34.846  45.611  1.00  0.00     0.000 C 
BRANCH   2   3
ATOM      3  C   UNL     1       1.534 -34.056  45.342  1.00  0.00     0.000 C 
BRANCH   3   4
ATOM      4  C   UNL     1       2.720 -34.966  44.987  1.00  0.00     0.000 C 
BRANCH   4   5
ATOM      5  C   UNL     1       3.669 -35.202  46.172  1.00  0.00     0.000 C 
BRANCH   5   6
ATOM      6  C   UNL     1       3.706 -36.688  46.556  1.00  0.00     0.000 C 
BRANCH   6   7
ATOM      7  C   UNL     1       3.016 -36.977  47.900  1.00  0.00     0.000 C 
BRANCH   7   8
ATOM      8  C   UNL     1       1.476 -37.022  47.843  1.00  0.00     0.000 C 
BRANCH   8   9
ATOM      9  C   UNL     1       0.759 -36.395  49.056  1.00  0.00     0.000 C 
BRANCH   9  10
ATOM     10  C   UNL     1      -0.366 -35.403  48.705  1.00  0.00     0.000 C 
BRANCH  10  11
ATOM     11  C   UNL     1      -0.047 -33.923  48.996  1.00  0.00     0.000 C 
BRANCH  11  12
ATOM     12  C   UNL     1       1.454 -33.591  49.125  1.00  0.00     0.006 C 
BRANCH  12  13
ATOM     13  C   UNL     1       1.794 -32.105  48.933  1.00  0.00     0.053 C 
BRANCH  13  14
ATOM     14  C   UNL     1       3.129 -31.915  48.282  1.00  0.00     0.041 C 
ATOM     15  O   UNL     1       3.537 -30.757  47.999  1.00  0.00    -0.550 OA
ATOM     16  O   UNL     1       3.912 -33.018  47.962  1.00  0.00    -0.550 OA
ENDBRANCH  13  14
ENDBRANCH  12  13
ENDBRANCH  11  12
ENDBRANCH  10  11
ENDBRANCH   9  10
ENDBRANCH   8   9
ENDBRANCH   7   8
ENDBRANCH   6   7
ENDBRANCH   5   6
ENDBRANCH   4   5
ENDBRANCH   3   4
ENDBRANCH   2   3
ENDBRANCH   1   2
BRANCH   1  17
ATOM     17  C   UNL     1      -0.423 -36.724  44.015  1.00  0.00     0.000 C 
BRANCH  17  18
ATOM     18  C   UNL     1      -1.937 -36.785  44.280  1.00  0.00     0.000 C 
BRANCH  18  19
ATOM     19  C   UNL     1      -2.272 -37.120  45.745  1.00  0.00     0.000 C 
BRANCH  19  20
ATOM     20  C   UNL     1      -3.011 -35.968  46.460  1.00  0.00     0.000 C 
BRANCH  20  21
ATOM     21  C   UNL     1      -4.504 -36.248  46.724  1.00  0.00     0.000 C 
BRANCH  21  22
ATOM     22  C   UNL     1      -5.297 -36.773  45.515  1.00  0.00    -0.000 C 
BRANCH  22  23
ATOM     23  C   UNL     1      -5.559 -35.687  44.458  1.00  0.00    -0.000 C 
BRANCH  23  24
ATOM     24  C   UNL     1      -5.188 -34.280  44.951  1.00  0.00    -0.000 C 
BRANCH  24  25
ATOM     25  C   UNL     1      -6.420 -33.439  45.328  1.00  0.00    -0.000 C 
BRANCH  25  26
ATOM     26  C   UNL     1      -7.052 -33.889  46.662  1.00  0.00    -0.000 C 
BRANCH  26  27
ATOM     27  C   UNL     1      -6.958 -32.840  47.787  1.00  0.00    -0.000 C 
BRANCH  27  28
ATOM     28  C   UNL     1      -5.579 -32.161  47.905  1.00  0.00    -0.000 C 
BRANCH  28  29
ATOM     29  C   UNL     1      -4.464 -33.153  48.271  1.00  0.00    -0.003 C 
ATOM     30  C   UNL     1      -3.128 -32.726  47.670  1.00  0.00     0.004 C 
ENDBRANCH  28  29
ENDBRANCH  27  28
ENDBRANCH  26  27
ENDBRANCH  25  26
ENDBRANCH  24  25
ENDBRANCH  23  24
ENDBRANCH  22  23
ENDBRANCH  21  22
ENDBRANCH  20  21
ENDBRANCH  19  20
ENDBRANCH  18  19
ENDBRANCH  17  18
ENDBRANCH   1  17
TORSDOF 26
ENDMDL
MODEL 2
REMARK VINA RESULT:    -1.842      3.099      7.343
REMARK INTER + INTRA:          -6.948
REMARK INTER:                  -5.759
REMARK INTRA:                  -1.189
REMARK UNBOUND:                -2.306
REMARK SMILES CCCCCCCCCCCCCCCCCCCCCCCCCCCC(=O)[O-]
REMARK SMILES IDX 15 1 16 2 17 3 18 4 19 5 20 6 21 7 22 8 23 9 24 10 25 11
REMARK SMILES IDX 26 12 27 13 28 14 29 15 30 16 14 17 13 18 12 19 11 20 10 21
REMARK SMILES IDX 9 22 8 23 7 24 6 25 5 26 4 27 3 28 2 29 1 30
REMARK H PARENT
REMARK Flexibility Score: inf
ROOT
ATOM      1  C   UNL     1       1.078 -35.543  44.360  1.00  0.00     0.000 C 
ENDROOT
BRANCH   1   2
ATOM      2  C   UNL     1       0.469 -36.881  43.909  1.00  0.00     0.000 C 
BRANCH   2   3
ATOM      3  C   UNL     1      -0.938 -37.108  44.489  1.00  0.00     0.000 C 
BRANCH   3   4
ATOM      4  C   UNL     1      -1.346 -36.022  45.496  1.00  0.00     0.000 C 
BRANCH   4   5
ATOM      5  C   UNL     1      -1.317 -36.514  46.951  1.00  0.00     0.000 C 
BRANCH   5   6
ATOM      6  C   UNL     1      -2.690 -37.057  47.373  1.00  0.00     0.000 C 
BRANCH   6   7
ATOM      7  C   UNL     1      -3.842 -36.090  47.050  1.00  0.00     0.000 C 
BRANCH   7   8
ATOM      8  C   UNL     1      -5.194 -36.768  46.747  1.00  0.00     0.000 C 
BRANCH   8   9
ATOM      9  C   UNL     1      -5.509 -36.956  45.249  1.00  0.00     0.000 C 
BRANCH   9  10
ATOM     10  C   UNL     1      -4.627 -36.132  44.291  1.00  0.00     0.000 C 
BRANCH  10  11
ATOM     11  C   UNL     1      -5.176 -34.736  43.936  1.00  0.00     0.000 C 
BRANCH  11  12
ATOM     12  C   UNL     1      -6.330 -34.241  44.830  1.00  0.00     0.006 C 
BRANCH  12  13
ATOM     13  C   UNL     1      -5.908 -33.236  45.913  1.00  0.00     0.053 C 
BRANCH  13  14
ATOM     14  C   UNL     1      -6.798 -33.302  47.116  1.00  0.00     0.041 C 
ATOM     15  O   UNL     1      -7.452 -34.350  47.365  1.00  0.00    -0.550 OA
ATOM     16  O   UNL     1      -6.929 -32.196  47.948  1.00  0.00    -0.550 OA
ENDBRANCH  13  14
ENDBRANCH  12  13
ENDBRANCH  11  12
ENDBRANCH  10  11
ENDBRANCH   9  10
ENDBRANCH   8   9
ENDBRANCH   7   8
ENDBRANCH   6   7
ENDBRANCH   5   6
ENDBRANCH   4   5
ENDBRANCH   3   4
ENDBRANCH   2   3
ENDBRANCH   1   2
BRANCH   1  17
ATOM     17  C   UNL     1       2.530 -35.700  44.846  1.00  0.00     0.000 C 
BRANCH  17  18
ATOM     18  C   UNL     1       2.632 -35.850  46.373  1.00  0.00     0.000 C 
BRANCH  18  19
ATOM     19  C   UNL     1       1.786 -37.016  46.915  1.00  0.00     0.000 C 
BRANCH  19  20
ATOM     20  C   UNL     1       1.846 -37.125  48.454  1.00  0.00     0.000 C 
BRANCH  20  21
ATOM     21  C   UNL     1       2.995 -36.322  49.096  1.00  0.00     0.000 C 
BRANCH  21  22
ATOM     22  C   UNL     1       3.800 -35.439  48.128  1.00  0.00    -0.000 C 
BRANCH  22  23
ATOM     23  C   UNL     1       4.663 -34.393  48.854  1.00  0.00    -0.000 C 
BRANCH  23  24
ATOM     24  C   UNL     1       4.313 -32.953  48.446  1.00  0.00    -0.000 C 
BRANCH  24  25
ATOM     25  C   UNL     1       2.958 -32.489  49.009  1.00  0.00    -0.000 C 
BRANCH  25  26
ATOM     26  C   UNL     1       1.880 -32.364  47.914  1.00  0.00    -0.000 C 
BRANCH  26  27
ATOM     27  C   UNL     1       0.895 -33.549  47.863  1.00  0.00    -0.000 C 
BRANCH  27  28
ATOM     28  C   UNL     1       0.013 -33.691  49.119  1.00  0.00    -0.000 C 
BRANCH  28  29
ATOM     29  C   UNL     1      -1.213 -32.766  49.085  1.00  0.00    -0.003 C 
ATOM     30  C   UNL     1      -2.491 -33.555  48.812  1.00  0.00     0.004 C 
ENDBRANCH  28  29
ENDBRANCH  27  28
ENDBRANCH  26  27
ENDBRANCH  25  26
ENDBRANCH  24  25
ENDBRANCH  23  24
ENDBRANCH  22  23
ENDBRANCH  21  22
ENDBRANCH  20  21
ENDBRANCH  19  20
ENDBRANCH  18  19
ENDBRANCH  17  18
ENDBRANCH   1  17
TORSDOF 26
ENDMDL
MODEL 3
REMARK VINA RESULT:    -1.780      2.988      7.901
REMARK INTER + INTRA:          -6.792
REMARK INTER:                  -5.036
REMARK INTRA:                  -1.756
REMARK UNBOUND:                -2.306
REMARK SMILES CCCCCCCCCCCCCCCCCCCCCCCCCCCC(=O)[O-]
REMARK SMILES IDX 15 1 16 2 17 3 18 4 19 5 20 6 21 7 22 8 23 9 24 10 25 11
REMARK SMILES IDX 26 12 27 13 28 14 29 15 30 16 14 17 13 18 12 19 11 20 10 21
REMARK SMILES IDX 9 22 8 23 7 24 6 25 5 26 4 27 3 28 2 29 1 30
REMARK H PARENT
REMARK Flexibility Score: inf
ROOT
ATOM      1  C   UNL     1      -0.790 -34.112  44.811  1.00  0.00     0.000 C 
ENDROOT
BRANCH   1   2
ATOM      2  C   UNL     1      -1.933 -34.767  45.604  1.00  0.00     0.000 C 
BRANCH   2   3
ATOM      3  C   UNL     1      -2.075 -36.267  45.294  1.00  0.00     0.000 C 
BRANCH   3   4
ATOM      4  C   UNL     1      -2.210 -37.124  46.563  1.00  0.00     0.000 C 
BRANCH   4   5
ATOM      5  C   UNL     1      -1.934 -36.334  47.850  1.00  0.00     0.000 C 
BRANCH   5   6
ATOM      6  C   UNL     1      -3.055 -36.551  48.877  1.00  0.00     0.000 C 
BRANCH   6   7
ATOM      7  C   UNL     1      -4.142 -35.464  48.817  1.00  0.00     0.000 C 
BRANCH   7   8
ATOM      8  C   UNL     1      -3.618 -34.016  48.891  1.00  0.00     0.000 C 
BRANCH   8   9
ATOM      9  C   UNL     1      -4.113 -33.084  47.767  1.00  0.00     0.000 C 
BRANCH   9  10
ATOM     10  C   UNL     1      -5.645 -32.996  47.623  1.00  0.00     0.000 C 
BRANCH  10  11
ATOM     11  C   UNL     1      -6.388 -34.343  47.714  1.00  0.00     0.000 C 
BRANCH  11  12
ATOM     12  C   UNL     1      -6.998 -34.844  46.389  1.00  0.00     0.006 C 
BRANCH  12  13
ATOM     13  C   UNL     1      -6.532 -34.073  45.145  1.00  0.00     0.053 C 
BRANCH  13  14
ATOM     14  C   UNL     1      -5.622 -34.896  44.284  1.00  0.00     0.041 C 
ATOM     15  O   UNL     1      -5.311 -36.066  44.629  1.00  0.00    -0.550 OA
ATOM     16  O   UNL     1      -5.095 -34.359  43.115  1.00  0.00    -0.550 OA
ENDBRANCH  13  14
ENDBRANCH  12  13
ENDBRANCH  11  12
ENDBRANCH  10  11
ENDBRANCH   9  10
ENDBRANCH   8   9
ENDBRANCH   7   8
ENDBRANCH   6   7
ENDBRANCH   5   6
ENDBRANCH   4   5
ENDBRANCH   3   4
ENDBRANCH   2   3
ENDBRANCH   1   2
BRANCH   1  17
ATOM     17  C   UNL     1       0.393 -33.717  45.715  1.00  0.00     0.000 C 
BRANCH  17  18
ATOM     18  C   UNL     1       0.287 -34.319  47.126  1.00  0.00     0.000 C 
BRANCH  18  19
ATOM     19  C   UNL     1       0.106 -33.248  48.217  1.00  0.00     0.000 C 
BRANCH  19  20
ATOM     20  C   UNL     1       1.452 -32.714  48.751  1.00  0.00     0.000 C 
BRANCH  20  21
ATOM     21  C   UNL     1       2.650 -32.987  47.820  1.00  0.00     0.000 C 
BRANCH  21  22
ATOM     22  C   UNL     1       4.034 -32.890  48.485  1.00  0.00    -0.000 C 
BRANCH  22  23
ATOM     23  C   UNL     1       4.480 -34.216  49.125  1.00  0.00    -0.000 C 
BRANCH  23  24
ATOM     24  C   UNL     1       4.140 -35.436  48.256  1.00  0.00    -0.000 C 
BRANCH  24  25
ATOM     25  C   UNL     1       2.924 -36.219  48.782  1.00  0.00    -0.000 C 
BRANCH  25  26
ATOM     26  C   UNL     1       2.224 -37.031  47.672  1.00  0.00    -0.000 C 
BRANCH  26  27
ATOM     27  C   UNL     1       2.999 -37.070  46.340  1.00  0.00    -0.000 C 
BRANCH  27  28
ATOM     28  C   UNL     1       2.377 -36.210  45.222  1.00  0.00    -0.000 C 
BRANCH  28  29
ATOM     29  C   UNL     1       3.137 -34.893  45.000  1.00  0.00    -0.003 C 
ATOM     30  C   UNL     1       2.828 -34.304  43.627  1.00  0.00     0.004 C 
ENDBRANCH  28  29
ENDBRANCH  27  28
ENDBRANCH  26  27
ENDBRANCH  25  26
ENDBRANCH  24  25
ENDBRANCH  23  24
ENDBRANCH  22  23
ENDBRANCH  21  22
ENDBRANCH  20  21
ENDBRANCH  19  20
ENDBRANCH  18  19
ENDBRANCH  17  18
ENDBRANCH   1  17
TORSDOF 26
ENDMDL
MODEL 4
REMARK VINA RESULT:    -1.634      5.060      7.787
REMARK INTER + INTRA:          -6.425
REMARK INTER:                  -4.854
REMARK INTRA:                  -1.571
REMARK UNBOUND:                -2.306
REMARK SMILES CCCCCCCCCCCCCCCCCCCCCCCCCCCC(=O)[O-]
REMARK SMILES IDX 15 1 16 2 17 3 18 4 19 5 20 6 21 7 22 8 23 9 24 10 25 11
REMARK SMILES IDX 26 12 27 13 28 14 29 15 30 16 14 17 13 18 12 19 11 20 10 21
REMARK SMILES IDX 9 22 8 23 7 24 6 25 5 26 4 27 3 28 2 29 1 30
REMARK H PARENT
REMARK Flexibility Score: inf
ROOT
ATOM      1  C   UNL     1      -6.223 -33.861  45.686  1.00  0.00     0.000 C 
ENDROOT
BRANCH   1   2
ATOM      2  C   UNL     1      -7.178 -34.797  46.445  1.00  0.00     0.000 C 
BRANCH   2   3
ATOM      3  C   UNL     1      -6.466 -36.056  46.971  1.00  0.00     0.000 C 
BRANCH   3   4
ATOM      4  C   UNL     1      -6.052 -35.929  48.446  1.00  0.00     0.000 C 
BRANCH   4   5
ATOM      5  C   UNL     1      -5.196 -37.109  48.930  1.00  0.00     0.000 C 
BRANCH   5   6
ATOM      6  C   UNL     1      -3.714 -36.713  49.011  1.00  0.00     0.000 C 
BRANCH   6   7
ATOM      7  C   UNL     1      -3.465 -35.244  48.627  1.00  0.00     0.000 C 
BRANCH   7   8
ATOM      8  C   UNL     1      -1.987 -34.805  48.662  1.00  0.00     0.000 C 
BRANCH   8   9
ATOM      9  C   UNL     1      -0.964 -35.940  48.452  1.00  0.00     0.000 C 
BRANCH   9  10
ATOM     10  C   UNL     1      -0.082 -35.796  47.196  1.00  0.00     0.000 C 
BRANCH  10  11
ATOM     11  C   UNL     1       0.222 -34.345  46.774  1.00  0.00     0.000 C 
BRANCH  11  12
ATOM     12  C   UNL     1       1.665 -34.095  46.290  1.00  0.00     0.006 C 
BRANCH  12  13
ATOM     13  C   UNL     1       2.557 -33.364  47.305  1.00  0.00     0.053 C 
BRANCH  13  14
ATOM     14  C   UNL     1       3.244 -34.316  48.235  1.00  0.00     0.041 C 
ATOM     15  O   UNL     1       2.627 -35.317  48.687  1.00  0.00    -0.550 OA
ATOM     16  O   UNL     1       4.557 -34.082  48.627  1.00  0.00    -0.550 OA
ENDBRANCH  13  14
ENDBRANCH  12  13
ENDBRANCH  11  12
ENDBRANCH  10  11
ENDBRANCH   9  10
ENDBRANCH   8   9
ENDBRANCH   7   8
ENDBRANCH   6   7
ENDBRANCH   5   6
ENDBRANCH   4   5
ENDBRANCH   3   4
ENDBRANCH   2   3
ENDBRANCH   1   2
BRANCH   1  17
ATOM     17  C   UNL     1      -5.584 -32.810  46.610  1.00  0.00     0.000 C 
BRANCH  17  18
ATOM     18  C   UNL     1      -6.583 -32.218  47.618  1.00  0.00     0.000 C 
BRANCH  18  19
ATOM     19  C   UNL     1      -5.945 -31.161  48.538  1.00  0.00     0.000 C 
BRANCH  19  20
ATOM     20  C   UNL     1      -6.986 -30.183  49.125  1.00  0.00     0.000 C 
BRANCH  20  21
ATOM     21  C   UNL     1      -6.544 -28.707  49.102  1.00  0.00     0.000 C 
BRANCH  21  22
ATOM     22  C   UNL     1      -5.799 -28.264  47.832  1.00  0.00    -0.000 C 
BRANCH  22  23
ATOM     23  C   UNL     1      -5.534 -26.749  47.794  1.00  0.00    -0.000 C 
BRANCH  23  24
ATOM     24  C   UNL     1      -6.507 -25.957  48.680  1.00  0.00    -0.000 C 
BRANCH  24  25
ATOM     25  C   UNL     1      -7.510 -25.123  47.862  1.00  0.00    -0.000 C 
BRANCH  25  26
ATOM     26  C   UNL     1      -7.643 -23.681  48.392  1.00  0.00    -0.000 C 
BRANCH  26  27
ATOM     27  C   UNL     1      -8.024 -22.648  47.313  1.00  0.00    -0.000 C 
BRANCH  27  28
ATOM     28  C   UNL     1      -9.266 -21.802  47.659  1.00  0.00    -0.000 C 
BRANCH  28  29
ATOM     29  C   UNL     1     -10.556 -22.374  47.051  1.00  0.00    -0.003 C 
ATOM     30  C   UNL     1     -11.721 -22.268  48.031  1.00  0.00     0.004 C 
ENDBRANCH  28  29
ENDBRANCH  27  28
ENDBRANCH  26  27
ENDBRANCH  25  26
ENDBRANCH  24  25
ENDBRANCH  23  24
ENDBRANCH  22  23
ENDBRANCH  21  22
ENDBRANCH  20  21
ENDBRANCH  19  20
ENDBRANCH  18  19
ENDBRANCH  17  18
ENDBRANCH   1  17
TORSDOF 26
ENDMDL
MODEL 5
REMARK VINA RESULT:    -1.460      5.169      9.610
REMARK INTER + INTRA:          -5.986
REMARK INTER:                  -5.624
REMARK INTRA:                  -0.362
REMARK UNBOUND:                -2.306
REMARK SMILES CCCCCCCCCCCCCCCCCCCCCCCCCCCC(=O)[O-]
REMARK SMILES IDX 15 1 16 2 17 3 18 4 19 5 20 6 21 7 22 8 23 9 24 10 25 11
REMARK SMILES IDX 26 12 27 13 28 14 29 15 30 16 14 17 13 18 12 19 11 20 10 21
REMARK SMILES IDX 9 22 8 23 7 24 6 25 5 26 4 27 3 28 2 29 1 30
REMARK H PARENT
REMARK Flexibility Score: inf
ROOT
ATOM      1  C   UNL     1      -4.090 -34.300  47.229  1.00  0.00     0.000 C 
ENDROOT
BRANCH   1   2
ATOM      2  C   UNL     1      -5.265 -35.277  47.059  1.00  0.00     0.000 C 
BRANCH   2   3
ATOM      3  C   UNL     1      -6.595 -34.684  47.557  1.00  0.00     0.000 C 
BRANCH   3   4
ATOM      4  C   UNL     1      -6.784 -33.218  47.137  1.00  0.00     0.000 C 
BRANCH   4   5
ATOM      5  C   UNL     1      -5.873 -32.253  47.910  1.00  0.00     0.000 C 
BRANCH   5   6
ATOM      6  C   UNL     1      -6.689 -31.109  48.531  1.00  0.00     0.000 C 
BRANCH   6   7
ATOM      7  C   UNL     1      -6.105 -29.720  48.220  1.00  0.00     0.000 C 
BRANCH   7   8
ATOM      8  C   UNL     1      -6.745 -28.556  49.003  1.00  0.00     0.000 C 
BRANCH   8   9
ATOM      9  C   UNL     1      -5.870 -27.292  49.125  1.00  0.00     0.000 C 
BRANCH   9  10
ATOM     10  C   UNL     1      -5.656 -26.520  47.808  1.00  0.00     0.000 C 
BRANCH  10  11
ATOM     11  C   UNL     1      -4.698 -25.316  47.905  1.00  0.00     0.000 C 
BRANCH  11  12
ATOM     12  C   UNL     1      -5.214 -24.017  47.255  1.00  0.00     0.006 C 
BRANCH  12  13
ATOM     13  C   UNL     1      -6.295 -23.287  48.067  1.00  0.00     0.053 C 
BRANCH  13  14
ATOM     14  C   UNL     1      -7.356 -22.700  47.188  1.00  0.00     0.041 C 
ATOM     15  O   UNL     1      -8.541 -23.122  47.256  1.00  0.00    -0.550 OA
ATOM     16  O   UNL     1      -7.031 -21.707  46.271  1.00  0.00    -0.550 OA
ENDBRANCH  13  14
ENDBRANCH  12  13
ENDBRANCH  11  12
ENDBRANCH  10  11
ENDBRANCH   9  10
ENDBRANCH   8   9
ENDBRANCH   7   8
ENDBRANCH   6   7
ENDBRANCH   5   6
ENDBRANCH   4   5
ENDBRANCH   3   4
ENDBRANCH   2   3
ENDBRANCH   1   2
BRANCH   1  17
ATOM     17  C   UNL     1      -3.177 -34.687  48.406  1.00  0.00     0.000 C 
BRANCH  17  18
ATOM     18  C   UNL     1      -2.379 -35.974  48.140  1.00  0.00     0.000 C 
BRANCH  18  19
ATOM     19  C   UNL     1      -2.755 -36.643  46.805  1.00  0.00     0.000 C 
BRANCH  19  20
ATOM     20  C   UNL     1      -1.760 -36.304  45.674  1.00  0.00     0.000 C 
BRANCH  20  21
ATOM     21  C   UNL     1      -0.346 -36.882  45.887  1.00  0.00     0.000 C 
BRANCH  21  22
ATOM     22  C   UNL     1       0.801 -36.043  45.301  1.00  0.00    -0.000 C 
BRANCH  22  23
ATOM     23  C   UNL     1       2.096 -36.852  45.114  1.00  0.00    -0.000 C 
BRANCH  23  24
ATOM     24  C   UNL     1       3.312 -36.180  45.770  1.00  0.00    -0.000 C 
BRANCH  24  25
ATOM     25  C   UNL     1       3.802 -36.930  47.022  1.00  0.00    -0.000 C 
BRANCH  25  26
ATOM     26  C   UNL     1       2.763 -36.908  48.162  1.00  0.00    -0.000 C 
BRANCH  26  27
ATOM     27  C   UNL     1       2.879 -35.688  49.095  1.00  0.00    -0.000 C 
BRANCH  27  28
ATOM     28  C   UNL     1       2.033 -34.475  48.658  1.00  0.00    -0.000 C 
BRANCH  28  29
ATOM     29  C   UNL     1       2.857 -33.181  48.579  1.00  0.00    -0.003 C 
ATOM     30  C   UNL     1       4.327 -33.480  48.301  1.00  0.00     0.004 C 
ENDBRANCH  28  29
ENDBRANCH  27  28
ENDBRANCH  26  27
ENDBRANCH  25  26
ENDBRANCH  24  25
ENDBRANCH  23  24
ENDBRANCH  22  23
ENDBRANCH  21  22
ENDBRANCH  20  21
ENDBRANCH  19  20
ENDBRANCH  18  19
ENDBRANCH  17  18
ENDBRANCH   1  17
TORSDOF 26
ENDMDL
MODEL 6
REMARK VINA RESULT:    -1.155      3.073      6.299
REMARK INTER + INTRA:          -5.217
REMARK INTER:                  -3.292
REMARK INTRA:                  -1.925
REMARK UNBOUND:                -2.306
REMARK SMILES CCCCCCCCCCCCCCCCCCCCCCCCCCCC(=O)[O-]
REMARK SMILES IDX 15 1 16 2 17 3 18 4 19 5 20 6 21 7 22 8 23 9 24 10 25 11
REMARK SMILES IDX 26 12 27 13 28 14 29 15 30 16 14 17 13 18 12 19 11 20 10 21
REMARK SMILES IDX 9 22 8 23 7 24 6 25 5 26 4 27 3 28 2 29 1 30
REMARK H PARENT
REMARK Flexibility Score: inf
ROOT
ATOM      1  C   UNL     1       1.675 -33.921  43.915  1.00  0.00     0.000 C 
ENDROOT
BRANCH   1   2
ATOM      2  C   UNL     1       0.604 -35.024  43.898  1.00  0.00     0.000 C 
BRANCH   2   3
ATOM      3  C   UNL     1      -0.391 -34.891  45.064  1.00  0.00     0.000 C 
BRANCH   3   4
ATOM      4  C   UNL     1       0.188 -35.394  46.397  1.00  0.00     0.000 C 
BRANCH   4   5
ATOM      5  C   UNL     1      -0.071 -36.889  46.635  1.00  0.00     0.000 C 
BRANCH   5   6
ATOM      6  C   UNL     1      -1.511 -37.125  47.113  1.00  0.00     0.000 C 
BRANCH   6   7
ATOM      7  C   UNL     1      -1.728 -36.724  48.583  1.00  0.00     0.000 C 
BRANCH   7   8
ATOM      8  C   UNL     1      -3.148 -36.985  49.125  1.00  0.00     0.000 C 
BRANCH   8   9
ATOM      9  C   UNL     1      -4.269 -36.187  48.429  1.00  0.00     0.000 C 
BRANCH   9  10
ATOM     10  C   UNL     1      -5.160 -37.011  47.480  1.00  0.00     0.000 C 
BRANCH  10  11
ATOM     11  C   UNL     1      -5.443 -36.353  46.114  1.00  0.00     0.000 C 
BRANCH  11  12
ATOM     12  C   UNL     1      -6.256 -35.045  46.175  1.00  0.00     0.006 C 
BRANCH  12  13
ATOM     13  C   UNL     1      -6.890 -34.629  44.838  1.00  0.00     0.053 C 
BRANCH  13  14
ATOM     14  C   UNL     1      -5.870 -34.513  43.747  1.00  0.00     0.041 C 
ATOM     15  O   UNL     1      -5.033 -35.436  43.561  1.00  0.00    -0.550 OA
ATOM     16  O   UNL     1      -5.824 -33.372  42.954  1.00  0.00    -0.550 OA
ENDBRANCH  13  14
ENDBRANCH  12  13
ENDBRANCH  11  12
ENDBRANCH  10  11
ENDBRANCH   9  10
ENDBRANCH   8   9
ENDBRANCH   7   8
ENDBRANCH   6   7
ENDBRANCH   5   6
ENDBRANCH   4   5
ENDBRANCH   3   4
ENDBRANCH   2   3
ENDBRANCH   1   2
BRANCH   1  17
ATOM     17  C   UNL     1       3.102 -34.497  43.906  1.00  0.00     0.000 C 
BRANCH  17  18
ATOM     18  C   UNL     1       3.761 -34.471  45.295  1.00  0.00     0.000 C 
BRANCH  18  19
ATOM     19  C   UNL     1       3.036 -35.370  46.314  1.00  0.00     0.000 C 
BRANCH  19  20
ATOM     20  C   UNL     1       3.789 -35.465  47.659  1.00  0.00     0.000 C 
BRANCH  20  21
ATOM     21  C   UNL     1       3.022 -34.865  48.853  1.00  0.00     0.000 C 
BRANCH  21  22
ATOM     22  C   UNL     1       1.988 -33.785  48.493  1.00  0.00    -0.000 C 
BRANCH  22  23
ATOM     23  C   UNL     1       0.592 -34.082  49.067  1.00  0.00    -0.000 C 
BRANCH  23  24
ATOM     24  C   UNL     1      -0.308 -32.838  49.104  1.00  0.00    -0.000 C 
BRANCH  24  25
ATOM     25  C   UNL     1      -1.807 -33.189  49.103  1.00  0.00    -0.000 C 
BRANCH  25  26
ATOM     26  C   UNL     1      -2.363 -33.377  47.677  1.00  0.00    -0.000 C 
BRANCH  26  27
ATOM     27  C   UNL     1      -3.689 -32.636  47.416  1.00  0.00    -0.000 C 
BRANCH  27  28
ATOM     28  C   UNL     1      -4.511 -32.345  48.688  1.00  0.00    -0.000 C 
BRANCH  28  29
ATOM     29  C   UNL     1      -5.632 -31.323  48.444  1.00  0.00    -0.003 C 
ATOM     30  C   UNL     1      -6.935 -32.018  48.059  1.00  0.00     0.004 C 
ENDBRANCH  28  29
ENDBRANCH  27  28
ENDBRANCH  26  27
ENDBRANCH  25  26
ENDBRANCH  24  25
ENDBRANCH  23  24
ENDBRANCH  22  23
ENDBRANCH  21  22
ENDBRANCH  20  21
ENDBRANCH  19  20
ENDBRANCH  18  19
ENDBRANCH  17  18
ENDBRANCH   1  17
TORSDOF 26
ENDMDL
MODEL 7
REMARK VINA RESULT:    -0.863      3.154      6.787
REMARK INTER + INTRA:          -4.482
REMARK INTER:                  -4.931
REMARK INTRA:                   0.449
REMARK UNBOUND:                -2.306
REMARK SMILES CCCCCCCCCCCCCCCCCCCCCCCCCCCC(=O)[O-]
REMARK SMILES IDX 15 1 16 2 17 3 18 4 19 5 20 6 21 7 22 8 23 9 24 10 25 11
REMARK SMILES IDX 26 12 27 13 28 14 29 15 30 16 14 17 13 18 12 19 11 20 10 21
REMARK SMILES IDX 9 22 8 23 7 24 6 25 5 26 4 27 3 28 2 29 1 30
REMARK H PARENT
REMARK Flexibility Score: inf
ROOT
ATOM      1  C   UNL     1       1.415 -34.625  44.133  1.00  0.00     0.000 C 
ENDROOT
BRANCH   1   2
ATOM      2  C   UNL     1       0.820 -36.007  43.816  1.00  0.00     0.000 C 
BRANCH   2   3
ATOM      3  C   UNL     1      -0.293 -36.405  44.801  1.00  0.00     0.000 C 
BRANCH   3   4
ATOM      4  C   UNL     1      -0.379 -35.460  46.010  1.00  0.00     0.000 C 
BRANCH   4   5
ATOM      5  C   UNL     1       0.146 -36.097  47.305  1.00  0.00     0.000 C 
BRANCH   5   6
ATOM      6  C   UNL     1      -0.910 -37.021  47.929  1.00  0.00     0.000 C 
BRANCH   6   7
ATOM      7  C   UNL     1      -2.301 -36.369  48.014  1.00  0.00     0.000 C 
BRANCH   7   8
ATOM      8  C   UNL     1      -3.419 -37.121  47.264  1.00  0.00     0.000 C 
BRANCH   8   9
ATOM      9  C   UNL     1      -3.823 -36.508  45.908  1.00  0.00     0.000 C 
BRANCH   9  10
ATOM     10  C   UNL     1      -3.381 -35.047  45.698  1.00  0.00     0.000 C 
BRANCH  10  11
ATOM     11  C   UNL     1      -4.394 -34.159  44.948  1.00  0.00     0.000 C 
BRANCH  11  12
ATOM     12  C   UNL     1      -5.817 -34.743  44.835  1.00  0.00     0.006 C 
BRANCH  12  13
ATOM     13  C   UNL     1      -6.110 -35.893  45.812  1.00  0.00     0.053 C 
BRANCH  13  14
ATOM     14  C   UNL     1      -6.739 -35.404  47.080  1.00  0.00     0.041 C 
ATOM     15  O   UNL     1      -6.530 -36.009  48.165  1.00  0.00    -0.550 OA
ATOM     16  O   UNL     1      -7.579 -34.296  47.061  1.00  0.00    -0.550 OA
ENDBRANCH  13  14
ENDBRANCH  12  13
ENDBRANCH  11  12
ENDBRANCH  10  11
ENDBRANCH   9  10
ENDBRANCH   8   9
ENDBRANCH   7   8
ENDBRANCH   6   7
ENDBRANCH   5   6
ENDBRANCH   4   5
ENDBRANCH   3   4
ENDBRANCH   2   3
ENDBRANCH   1   2
BRANCH   1  17
ATOM     17  C   UNL     1       2.947 -34.605  43.990  1.00  0.00     0.000 C 
BRANCH  17  18
ATOM     18  C   UNL     1       3.670 -34.625  45.348  1.00  0.00     0.000 C 
BRANCH  18  19
ATOM     19  C   UNL     1       3.229 -35.800  46.240  1.00  0.00     0.000 C 
BRANCH  19  20
ATOM     20  C   UNL     1       3.948 -35.807  47.606  1.00  0.00     0.000 C 
BRANCH  20  21
ATOM     21  C   UNL     1       4.159 -34.406  48.212  1.00  0.00     0.000 C 
BRANCH  21  22
ATOM     22  C   UNL     1       3.186 -33.323  47.717  1.00  0.00    -0.000 C 
BRANCH  22  23
ATOM     23  C   UNL     1       3.164 -32.082  48.625  1.00  0.00    -0.000 C 
BRANCH  23  24
ATOM     24  C   UNL     1       1.751 -31.738  49.121  1.00  0.00    -0.000 C 
BRANCH  24  25
ATOM     25  C   UNL     1       0.807 -32.954  49.114  1.00  0.00    -0.000 C 
BRANCH  25  26
ATOM     26  C   UNL     1      -0.676 -32.543  49.011  1.00  0.00    -0.000 C 
BRANCH  26  27
ATOM     27  C   UNL     1      -1.440 -33.230  47.861  1.00  0.00    -0.000 C 
BRANCH  27  28
ATOM     28  C   UNL     1      -2.849 -32.658  47.608  1.00  0.00    -0.000 C 
BRANCH  28  29
ATOM     29  C   UNL     1      -3.664 -32.507  48.901  1.00  0.00    -0.003 C 
ATOM     30  C   UNL     1      -5.121 -32.169  48.597  1.00  0.00     0.004 C 
ENDBRANCH  28  29
ENDBRANCH  27  28
ENDBRANCH  26  27
ENDBRANCH  25  26
ENDBRANCH  24  25
ENDBRANCH  23  24
ENDBRANCH  22  23
ENDBRANCH  21  22
ENDBRANCH  20  21
ENDBRANCH  19  20
ENDBRANCH  18  19
ENDBRANCH  17  18
ENDBRANCH   1  17
TORSDOF 26
ENDMDL
