MODEL 1
REMARK VINA RESULT:    -3.139      0.000      0.000
REMARK INTER + INTRA:          -3.726
REMARK INTER:                  -3.690
REMARK INTRA:                  -0.037
REMARK UNBOUND:                -0.037
REMARK SMILES O=C([O-])CCC(=O)[O-]
REMARK SMILES IDX 4 1 2 2 1 3 3 4 5 5 6 6 7 7 8 8
REMARK H PARENT
REMARK Flexibility Score: inf
ROOT
ATOM      1  C   UNL     1      -3.883 -13.431   7.217  1.00  0.00     0.059 C 
ENDROOT
BRANCH   1   2
ATOM      2  C   UNL     1      -2.498 -13.967   7.015  1.00  0.00     0.042 C 
ATOM      3  O   UNL     1      -2.129 -14.355   5.875  1.00  0.00    -0.550 OA
ATOM      4  O   UNL     1      -1.603 -14.000   8.076  1.00  0.00    -0.550 OA
ENDBRANCH   1   2
BRANCH   1   5
ATOM      5  C   UNL     1      -4.817 -13.832   6.070  1.00  0.00     0.059 C 
BRANCH   5   6
ATOM      6  C   UNL     1      -6.257 -13.741   6.471  1.00  0.00     0.042 C 
ATOM      7  O   UNL     1      -6.710 -14.489   7.377  1.00  0.00    -0.550 OA
ATOM      8  O   UNL     1      -7.088 -12.802   5.875  1.00  0.00    -0.550 OA
ENDBRANCH   5   6
ENDBRANCH   1   5
TORSDOF 3
ENDMDL
MODEL 2
REMARK VINA RESULT:    -3.110      0.183      1.159
REMARK INTER + INTRA:          -3.692
REMARK INTER:                  -3.650
REMARK INTRA:                  -0.043
REMARK UNBOUND:                -0.037
REMARK SMILES O=C([O-])CCC(=O)[O-]
REMARK SMILES IDX 4 1 2 2 1 3 3 4 5 5 6 6 7 7 8 8
REMARK H PARENT
REMARK Flexibility Score: inf
ROOT
ATOM      1  C   UNL     1      -3.762 -13.443   7.288  1.00  0.00     0.059 C 
ENDROOT
BRANCH   1   2
ATOM      2  C   UNL     1      -2.408 -14.049   7.074  1.00  0.00     0.042 C 
ATOM      3  O   UNL     1      -2.103 -14.539   5.954  1.00  0.00    -0.550 OA
ATOM      4  O   UNL     1      -1.470 -14.036   8.097  1.00  0.00    -0.550 OA
ENDBRANCH   1   2
BRANCH   1   5
ATOM      5  C   UNL     1      -4.664 -13.627   6.063  1.00  0.00     0.059 C 
BRANCH   5   6
ATOM      6  C   UNL     1      -6.110 -13.688   6.445  1.00  0.00     0.042 C 
ATOM      7  O   UNL     1      -6.949 -12.941   5.876  1.00  0.00    -0.550 OA
ATOM      8  O   UNL     1      -6.540 -14.601   7.400  1.00  0.00    -0.550 OA
ENDBRANCH   5   6
ENDBRANCH   1   5
TORSDOF 3
ENDMDL
MODEL 3
REMARK VINA RESULT:    -3.101      0.176      4.339
REMARK INTER + INTRA:          -3.682
REMARK INTER:                  -3.635
REMARK INTRA:                  -0.047
REMARK UNBOUND:                -0.037
REMARK SMILES O=C([O-])CCC(=O)[O-]
REMARK SMILES IDX 4 1 2 2 1 3 3 4 5 5 6 6 7 7 8 8
REMARK H PARENT
REMARK Flexibility Score: inf
ROOT
ATOM      1  C   UNL     1      -4.763 -13.638   6.039  1.00  0.00     0.059 C 
ENDROOT
BRANCH   1   2
ATOM      2  C   UNL     1      -6.200 -13.635   6.463  1.00  0.00     0.042 C 
ATOM      3  O   UNL     1      -6.592 -14.405   7.379  1.00  0.00    -0.550 OA
ATOM      4  O   UNL     1      -7.097 -12.753   5.875  1.00  0.00    -0.550 OA
ENDBRANCH   1   2
BRANCH   1   5
ATOM      5  C   UNL     1      -3.826 -13.343   7.217  1.00  0.00     0.059 C 
BRANCH   5   6
ATOM      6  C   UNL     1      -2.517 -14.056   7.073  1.00  0.00     0.042 C 
ATOM      7  O   UNL     1      -2.250 -14.686   6.016  1.00  0.00    -0.550 OA
ATOM      8  O   UNL     1      -1.573 -13.990   8.090  1.00  0.00    -0.550 OA
ENDBRANCH   5   6
ENDBRANCH   1   5
TORSDOF 3
ENDMDL
MODEL 4
REMARK VINA RESULT:    -2.928      0.238      4.203
REMARK INTER + INTRA:          -3.478
REMARK INTER:                  -3.449
REMARK INTRA:                  -0.029
REMARK UNBOUND:                -0.037
REMARK SMILES O=C([O-])CCC(=O)[O-]
REMARK SMILES IDX 4 1 2 2 1 3 3 4 5 5 6 6 7 7 8 8
REMARK H PARENT
REMARK Flexibility Score: inf
ROOT
ATOM      1  C   UNL     1      -4.689 -14.000   6.137  1.00  0.00     0.059 C 
ENDROOT
BRANCH   1   2
ATOM      2  C   UNL     1      -6.117 -13.782   6.536  1.00  0.00     0.042 C 
ATOM      3  O   UNL     1      -6.759 -12.799   6.082  1.00  0.00    -0.550 OA
ATOM      4  O   UNL     1      -6.750 -14.688   7.377  1.00  0.00    -0.550 OA
ENDBRANCH   1   2
BRANCH   1   5
ATOM      5  C   UNL     1      -3.720 -13.344   7.127  1.00  0.00     0.059 C 
BRANCH   5   6
ATOM      6  C   UNL     1      -2.371 -13.995   7.094  1.00  0.00     0.042 C 
ATOM      7  O   UNL     1      -1.647 -14.003   8.123  1.00  0.00    -0.550 OA
ATOM      8  O   UNL     1      -1.932 -14.629   5.939  1.00  0.00    -0.550 OA
ENDBRANCH   5   6
ENDBRANCH   1   5
TORSDOF 3
ENDMDL
MODEL 5
REMARK VINA RESULT:    -1.828      1.240      4.225
REMARK INTER + INTRA:          -2.186
REMARK INTER:                  -2.077
REMARK INTRA:                  -0.108
REMARK UNBOUND:                -0.037
REMARK SMILES O=C([O-])CCC(=O)[O-]
REMARK SMILES IDX 4 1 2 2 1 3 3 4 5 5 6 6 7 7 8 8
REMARK H PARENT
REMARK Flexibility Score: inf
ROOT
ATOM      1  C   UNL     1      -4.000 -13.103   6.942  1.00  0.00     0.059 C 
ENDROOT
BRANCH   1   2
ATOM      2  C   UNL     1      -5.222 -13.904   6.606  1.00  0.00     0.042 C 
ATOM      3  O   UNL     1      -5.286 -15.122   6.917  1.00  0.00    -0.550 OA
ATOM      4  O   UNL     1      -6.305 -13.294   5.987  1.00  0.00    -0.550 OA
ENDBRANCH   1   2
BRANCH   1   5
ATOM      5  C   UNL     1      -2.727 -13.763   6.401  1.00  0.00     0.059 C 
BRANCH   5   6
ATOM      6  C   UNL     1      -1.862 -14.286   7.506  1.00  0.00     0.042 C 
ATOM      7  O   UNL     1      -0.699 -13.835   7.669  1.00  0.00    -0.550 OA
ATOM      8  O   UNL     1      -2.357 -15.244   8.383  1.00  0.00    -0.550 OA
ENDBRANCH   5   6
ENDBRANCH   1   5
TORSDOF 3
ENDMDL
