MODEL 1
REMARK VINA RESULT:     6.703      0.000      0.000
REMARK INTER + INTRA:          11.083
REMARK INTER:                  12.189
REMARK INTRA:                  -1.106
REMARK UNBOUND:                -1.106
REMARK SMILES CCCCCCCCCCCCCC[C@H](C)C(=O)[O-]
REMARK SMILES IDX 9 1 10 2 11 3 12 4 13 5 14 6 15 7 16 8 17 9 18 10 19 11 8 12
REMARK SMILES IDX 7 13 6 14 5 15 4 16 3 17 2 18 1 19
REMARK H PARENT
REMARK Flexibility Score: inf
ROOT
ATOM      1  C   UNL     1      11.863  -1.655 -17.175  1.00  0.00     0.000 C 
ENDROOT
BRANCH   1   2
ATOM      2  C   UNL     1      10.879  -2.339 -16.213  1.00  0.00     0.000 C 
BRANCH   2   3
ATOM      3  C   UNL     1      10.943  -3.866 -16.359  1.00  0.00     0.000 C 
BRANCH   3   4
ATOM      4  C   UNL     1      11.492  -4.317 -17.726  1.00  0.00     0.000 C 
BRANCH   4   5
ATOM      5  C   UNL     1      11.956  -5.785 -17.795  1.00  0.00     0.001 C 
BRANCH   5   6
ATOM      6  C   UNL     1      12.888  -6.136 -18.973  1.00  0.00     0.009 C 
BRANCH   6   7
ATOM      7  C   UNL     1      14.393  -6.128 -18.609  1.00  0.00     0.032 C 
ATOM      8  C   UNL     1      15.256  -6.082 -19.876  1.00  0.00     0.014 C 
BRANCH   7   9
ATOM      9  C   UNL     1      14.779  -7.333 -17.797  1.00  0.00     0.044 C 
ATOM     10  O   UNL     1      14.934  -8.450 -18.359  1.00  0.00    -0.550 OA
ATOM     11  O   UNL     1      14.922  -7.237 -16.417  1.00  0.00    -0.550 OA
ENDBRANCH   7   9
ENDBRANCH   6   7
ENDBRANCH   5   6
ENDBRANCH   4   5
ENDBRANCH   3   4
ENDBRANCH   2   3
ENDBRANCH   1   2
BRANCH   1  12
ATOM     12  C   UNL     1      12.732  -0.594 -16.481  1.00  0.00     0.000 C 
BRANCH  12  13
ATOM     13  C   UNL     1      13.261   0.470 -17.458  1.00  0.00    -0.000 C 
BRANCH  13  14
ATOM     14  C   UNL     1      12.738   1.879 -17.136  1.00  0.00    -0.000 C 
BRANCH  14  15
ATOM     15  C   UNL     1      11.430   1.859 -16.330  1.00  0.00    -0.000 C 
BRANCH  15  16
ATOM     16  C   UNL     1      11.493   2.854 -15.161  1.00  0.00    -0.000 C 
BRANCH  16  17
ATOM     17  C   UNL     1      10.624   2.422 -13.969  1.00  0.00    -0.000 C 
BRANCH  17  18
ATOM     18  C   UNL     1      10.500   0.895 -13.850  1.00  0.00    -0.003 C 
ATOM     19  C   UNL     1       9.323   0.508 -12.959  1.00  0.00     0.004 C 
ENDBRANCH  17  18
ENDBRANCH  16  17
ENDBRANCH  15  16
ENDBRANCH  14  15
ENDBRANCH  13  14
ENDBRANCH  12  13
ENDBRANCH   1  12
TORSDOF 14
ENDMDL
MODEL 2
REMARK VINA RESULT:     7.284      1.223      3.223
REMARK INTER + INTRA:          12.138
REMARK INTER:                  13.212
REMARK INTRA:                  -1.074
REMARK UNBOUND:                -1.106
REMARK SMILES CCCCCCCCCCCCCC[C@H](C)C(=O)[O-]
REMARK SMILES IDX 9 1 10 2 11 3 12 4 13 5 14 6 15 7 16 8 17 9 18 10 19 11 8 12
REMARK SMILES IDX 7 13 6 14 5 15 4 16 3 17 2 18 1 19
REMARK H PARENT
REMARK Flexibility Score: inf
ROOT
ATOM      1  C   UNL     1      11.926  -1.577 -16.956  1.00  0.00     0.000 C 
ENDROOT
BRANCH   1   2
ATOM      2  C   UNL     1      10.757  -2.312 -16.282  1.00  0.00     0.000 C 
BRANCH   2   3
ATOM      3  C   UNL     1      10.945  -3.834 -16.367  1.00  0.00     0.000 C 
BRANCH   3   4
ATOM      4  C   UNL     1      11.487  -4.297 -17.732  1.00  0.00     0.000 C 
BRANCH   4   5
ATOM      5  C   UNL     1      11.909  -5.778 -17.803  1.00  0.00     0.001 C 
BRANCH   5   6
ATOM      6  C   UNL     1      12.854  -6.148 -18.964  1.00  0.00     0.009 C 
BRANCH   6   7
ATOM      7  C   UNL     1      14.355  -6.130 -18.583  1.00  0.00     0.032 C 
ATOM      8  C   UNL     1      15.232  -6.076 -19.840  1.00  0.00     0.014 C 
BRANCH   7   9
ATOM      9  C   UNL     1      14.741  -7.334 -17.769  1.00  0.00     0.044 C 
ATOM     10  O   UNL     1      14.890  -8.453 -18.328  1.00  0.00    -0.550 OA
ATOM     11  O   UNL     1      14.891  -7.234 -16.390  1.00  0.00    -0.550 OA
ENDBRANCH   7   9
ENDBRANCH   6   7
ENDBRANCH   5   6
ENDBRANCH   4   5
ENDBRANCH   3   4
ENDBRANCH   2   3
ENDBRANCH   1   2
BRANCH   1  12
ATOM     12  C   UNL     1      12.607  -0.563 -16.024  1.00  0.00     0.000 C 
BRANCH  12  13
ATOM     13  C   UNL     1      11.636   0.511 -15.506  1.00  0.00    -0.000 C 
BRANCH  13  14
ATOM     14  C   UNL     1      11.911   1.897 -16.110  1.00  0.00    -0.000 C 
BRANCH  14  15
ATOM     15  C   UNL     1      13.337   2.032 -16.665  1.00  0.00    -0.000 C 
BRANCH  15  16
ATOM     16  C   UNL     1      13.319   2.151 -18.196  1.00  0.00    -0.000 C 
BRANCH  16  17
ATOM     17  C   UNL     1      13.919   0.919 -18.893  1.00  0.00    -0.000 C 
BRANCH  17  18
ATOM     18  C   UNL     1      15.298   0.537 -18.336  1.00  0.00    -0.003 C 
ATOM     19  C   UNL     1      16.351   0.520 -19.440  1.00  0.00     0.004 C 
ENDBRANCH  17  18
ENDBRANCH  16  17
ENDBRANCH  15  16
ENDBRANCH  14  15
ENDBRANCH  13  14
ENDBRANCH  12  13
ENDBRANCH   1  12
TORSDOF 14
ENDMDL
MODEL 3
REMARK VINA RESULT:     7.320      2.729      7.420
REMARK INTER + INTRA:          12.204
REMARK INTER:                  12.601
REMARK INTRA:                  -0.397
REMARK UNBOUND:                -1.106
REMARK SMILES CCCCCCCCCCCCCC[C@H](C)C(=O)[O-]
REMARK SMILES IDX 9 1 10 2 11 3 12 4 13 5 14 6 15 7 16 8 17 9 18 10 19 11 8 12
REMARK SMILES IDX 7 13 6 14 5 15 4 16 3 17 2 18 1 19
REMARK H PARENT
REMARK Flexibility Score: inf
ROOT
ATOM      1  C   UNL     1      11.861  -0.755 -14.890  1.00  0.00     0.000 C 
ENDROOT
BRANCH   1   2
ATOM      2  C   UNL     1      10.541  -0.059 -14.522  1.00  0.00     0.000 C 
BRANCH   2   3
ATOM      3  C   UNL     1      10.781   1.415 -14.163  1.00  0.00     0.000 C 
BRANCH   3   4
ATOM      4  C   UNL     1      10.859   2.330 -15.400  1.00  0.00     0.000 C 
BRANCH   4   5
ATOM      5  C   UNL     1      12.262   2.473 -16.021  1.00  0.00     0.001 C 
BRANCH   5   6
ATOM      6  C   UNL     1      12.603   1.467 -17.140  1.00  0.00     0.009 C 
BRANCH   6   7
ATOM      7  C   UNL     1      13.909   1.796 -17.904  1.00  0.00     0.032 C 
ATOM      8  C   UNL     1      13.602   2.200 -19.352  1.00  0.00     0.014 C 
BRANCH   7   9
ATOM      9  C   UNL     1      14.861   0.632 -17.913  1.00  0.00     0.044 C 
ATOM     10  O   UNL     1      15.288   0.172 -19.005  1.00  0.00    -0.550 OA
ATOM     11  O   UNL     1      15.241   0.024 -16.721  1.00  0.00    -0.550 OA
ENDBRANCH   7   9
ENDBRANCH   6   7
ENDBRANCH   5   6
ENDBRANCH   4   5
ENDBRANCH   3   4
ENDBRANCH   2   3
ENDBRANCH   1   2
BRANCH   1  12
ATOM     12  C   UNL     1      11.820  -1.409 -16.280  1.00  0.00     0.000 C 
BRANCH  12  13
ATOM     13  C   UNL     1      10.659  -2.407 -16.431  1.00  0.00    -0.000 C 
BRANCH  13  14
ATOM     14  C   UNL     1      11.126  -3.870 -16.364  1.00  0.00    -0.000 C 
BRANCH  14  15
ATOM     15  C   UNL     1      11.340  -4.490 -17.754  1.00  0.00    -0.000 C 
BRANCH  15  16
ATOM     16  C   UNL     1      12.174  -5.777 -17.656  1.00  0.00    -0.000 C 
BRANCH  16  17
ATOM     17  C   UNL     1      12.825  -6.164 -18.994  1.00  0.00    -0.000 C 
BRANCH  17  18
ATOM     18  C   UNL     1      14.358  -6.217 -18.912  1.00  0.00    -0.003 C 
ATOM     19  C   UNL     1      14.820  -7.363 -18.017  1.00  0.00     0.004 C 
ENDBRANCH  17  18
ENDBRANCH  16  17
ENDBRANCH  15  16
ENDBRANCH  14  15
ENDBRANCH  13  14
ENDBRANCH  12  13
ENDBRANCH   1  12
TORSDOF 14
ENDMDL
MODEL 4
REMARK VINA RESULT:     7.654      3.150      8.496
REMARK INTER + INTRA:          12.812
REMARK INTER:                  12.651
REMARK INTRA:                   0.161
REMARK UNBOUND:                -1.106
REMARK SMILES CCCCCCCCCCCCCC[C@H](C)C(=O)[O-]
REMARK SMILES IDX 9 1 10 2 11 3 12 4 13 5 14 6 15 7 16 8 17 9 18 10 19 11 8 12
REMARK SMILES IDX 7 13 6 14 5 15 4 16 3 17 2 18 1 19
REMARK H PARENT
REMARK Flexibility Score: inf
ROOT
ATOM      1  C   UNL     1      12.374  -0.893 -16.766  1.00  0.00     0.000 C 
ENDROOT
BRANCH   1   2
ATOM      2  C   UNL     1      12.905   0.029 -17.875  1.00  0.00     0.000 C 
BRANCH   2   3
ATOM      3  C   UNL     1      13.783   1.143 -17.288  1.00  0.00     0.000 C 
BRANCH   3   4
ATOM      4  C   UNL     1      12.988   2.415 -16.940  1.00  0.00     0.000 C 
BRANCH   4   5
ATOM      5  C   UNL     1      11.650   2.174 -16.212  1.00  0.00     0.001 C 
BRANCH   5   6
ATOM      6  C   UNL     1      11.493   2.881 -14.851  1.00  0.00     0.009 C 
BRANCH   6   7
ATOM      7  C   UNL     1      10.237   2.445 -14.057  1.00  0.00     0.032 C 
ATOM      8  C   UNL     1      10.121   3.238 -12.749  1.00  0.00     0.014 C 
BRANCH   7   9
ATOM      9  C   UNL     1      10.259   0.976 -13.738  1.00  0.00     0.044 C 
ATOM     10  O   UNL     1      11.166   0.240 -14.210  1.00  0.00    -0.550 OA
ATOM     11  O   UNL     1       9.256   0.409 -12.960  1.00  0.00    -0.550 OA
ENDBRANCH   7   9
ENDBRANCH   6   7
ENDBRANCH   5   6
ENDBRANCH   4   5
ENDBRANCH   3   4
ENDBRANCH   2   3
ENDBRANCH   1   2
BRANCH   1  12
ATOM     12  C   UNL     1      11.393  -1.953 -17.292  1.00  0.00     0.000 C 
BRANCH  12  13
ATOM     13  C   UNL     1      10.817  -2.834 -16.171  1.00  0.00    -0.000 C 
BRANCH  13  14
ATOM     14  C   UNL     1      11.146  -4.323 -16.362  1.00  0.00    -0.000 C 
BRANCH  14  15
ATOM     15  C   UNL     1      11.517  -4.669 -17.813  1.00  0.00    -0.000 C 
BRANCH  15  16
ATOM     16  C   UNL     1      12.252  -6.016 -17.882  1.00  0.00    -0.000 C 
BRANCH  16  17
ATOM     17  C   UNL     1      13.184  -6.120 -19.101  1.00  0.00    -0.000 C 
BRANCH  17  18
ATOM     18  C   UNL     1      14.658  -6.288 -18.705  1.00  0.00    -0.003 C 
ATOM     19  C   UNL     1      14.912  -7.666 -18.101  1.00  0.00     0.004 C 
ENDBRANCH  17  18
ENDBRANCH  16  17
ENDBRANCH  15  16
ENDBRANCH  14  15
ENDBRANCH  13  14
ENDBRANCH  12  13
ENDBRANCH   1  12
TORSDOF 14
ENDMDL
MODEL 5
REMARK VINA RESULT:     8.771      6.137      8.954
REMARK INTER + INTRA:          14.844
REMARK INTER:                  15.291
REMARK INTRA:                  -0.448
REMARK UNBOUND:                -1.106
REMARK SMILES CCCCCCCCCCCCCC[C@H](C)C(=O)[O-]
REMARK SMILES IDX 9 1 10 2 11 3 12 4 13 5 14 6 15 7 16 8 17 9 18 10 19 11 8 12
REMARK SMILES IDX 7 13 6 14 5 15 4 16 3 17 2 18 1 19
REMARK H PARENT
REMARK Flexibility Score: inf
ROOT
ATOM      1  C   UNL     1       6.399   1.077 -13.848  1.00  0.00     0.000 C 
ENDROOT
BRANCH   1   2
ATOM      2  C   UNL     1       7.565   1.667 -13.039  1.00  0.00     0.000 C 
BRANCH   2   3
ATOM      3  C   UNL     1       8.852   0.860 -13.264  1.00  0.00     0.000 C 
BRANCH   3   4
ATOM      4  C   UNL     1       9.969   1.682 -13.933  1.00  0.00     0.000 C 
BRANCH   4   5
ATOM      5  C   UNL     1      10.982   0.864 -14.758  1.00  0.00     0.001 C 
BRANCH   5   6
ATOM      6  C   UNL     1      11.777   1.656 -15.815  1.00  0.00     0.009 C 
BRANCH   6   7
ATOM      7  C   UNL     1      12.231   0.805 -17.028  1.00  0.00     0.032 C 
ATOM      8  C   UNL     1      12.325  -0.677 -16.643  1.00  0.00     0.014 C 
BRANCH   7   9
ATOM      9  C   UNL     1      13.563   1.257 -17.561  1.00  0.00     0.044 C 
ATOM     10  O   UNL     1      13.977   2.423 -17.322  1.00  0.00    -0.550 OA
ATOM     11  O   UNL     1      14.326   0.412 -18.358  1.00  0.00    -0.550 OA
ENDBRANCH   7   9
ENDBRANCH   6   7
ENDBRANCH   5   6
ENDBRANCH   4   5
ENDBRANCH   3   4
ENDBRANCH   2   3
ENDBRANCH   1   2
BRANCH   1  12
ATOM     12  C   UNL     1       5.078   1.828 -13.622  1.00  0.00     0.000 C 
BRANCH  12  13
ATOM     13  C   UNL     1       3.922   0.890 -13.235  1.00  0.00    -0.000 C 
BRANCH  13  14
ATOM     14  C   UNL     1       2.923   0.680 -14.384  1.00  0.00    -0.000 C 
BRANCH  14  15
ATOM     15  C   UNL     1       1.467   0.598 -13.899  1.00  0.00    -0.000 C 
BRANCH  15  16
ATOM     16  C   UNL     1       0.503   0.451 -15.086  1.00  0.00    -0.000 C 
BRANCH  16  17
ATOM     17  C   UNL     1       0.828  -0.767 -15.966  1.00  0.00    -0.000 C 
BRANCH  17  18
ATOM     18  C   UNL     1       0.465  -0.544 -17.442  1.00  0.00    -0.003 C 
ATOM     19  C   UNL     1       0.018  -1.846 -18.100  1.00  0.00     0.004 C 
ENDBRANCH  17  18
ENDBRANCH  16  17
ENDBRANCH  15  16
ENDBRANCH  14  15
ENDBRANCH  13  14
ENDBRANCH  12  13
ENDBRANCH   1  12
TORSDOF 14
ENDMDL
MODEL 6
REMARK VINA RESULT:     9.121      7.013     10.548
REMARK INTER + INTRA:          15.480
REMARK INTER:                  15.863
REMARK INTRA:                  -0.383
REMARK UNBOUND:                -1.106
REMARK SMILES CCCCCCCCCCCCCC[C@H](C)C(=O)[O-]
REMARK SMILES IDX 9 1 10 2 11 3 12 4 13 5 14 6 15 7 16 8 17 9 18 10 19 11 8 12
REMARK SMILES IDX 7 13 6 14 5 15 4 16 3 17 2 18 1 19
REMARK H PARENT
REMARK Flexibility Score: inf
ROOT
ATOM      1  C   UNL     1       7.910   1.534 -12.957  1.00  0.00     0.000 C 
ENDROOT
BRANCH   1   2
ATOM      2  C   UNL     1       6.727   1.539 -13.938  1.00  0.00     0.000 C 
BRANCH   2   3
ATOM      3  C   UNL     1       5.392   1.633 -13.184  1.00  0.00     0.000 C 
BRANCH   3   4
ATOM      4  C   UNL     1       4.299   0.729 -13.782  1.00  0.00     0.000 C 
BRANCH   4   5
ATOM      5  C   UNL     1       2.851   1.171 -13.493  1.00  0.00     0.001 C 
BRANCH   5   6
ATOM      6  C   UNL     1       1.746   0.252 -14.054  1.00  0.00     0.009 C 
BRANCH   6   7
ATOM      7  C   UNL     1       1.067   0.795 -15.335  1.00  0.00     0.032 C 
ATOM      8  C   UNL     1      -0.124   1.693 -14.977  1.00  0.00     0.014 C 
BRANCH   7   9
ATOM      9  C   UNL     1       0.590  -0.316 -16.230  1.00  0.00     0.044 C 
ATOM     10  O   UNL     1       0.795  -0.260 -17.471  1.00  0.00    -0.550 OA
ATOM     11  O   UNL     1      -0.120  -1.389 -15.702  1.00  0.00    -0.550 OA
ENDBRANCH   7   9
ENDBRANCH   6   7
ENDBRANCH   5   6
ENDBRANCH   4   5
ENDBRANCH   3   4
ENDBRANCH   2   3
ENDBRANCH   1   2
BRANCH   1  12
ATOM     12  C   UNL     1       9.198   0.976 -13.583  1.00  0.00     0.000 C 
BRANCH  12  13
ATOM     13  C   UNL     1      10.378   1.958 -13.485  1.00  0.00    -0.000 C 
BRANCH  13  14
ATOM     14  C   UNL     1      10.899   2.396 -14.863  1.00  0.00    -0.000 C 
BRANCH  14  15
ATOM     15  C   UNL     1      11.758   1.319 -15.544  1.00  0.00    -0.000 C 
BRANCH  15  16
ATOM     16  C   UNL     1      12.364   1.850 -16.852  1.00  0.00    -0.000 C 
BRANCH  16  17
ATOM     17  C   UNL     1      13.108   0.762 -17.644  1.00  0.00    -0.000 C 
BRANCH  17  18
ATOM     18  C   UNL     1      14.239   1.333 -18.513  1.00  0.00    -0.003 C 
ATOM     19  C   UNL     1      15.433   0.384 -18.552  1.00  0.00     0.004 C 
ENDBRANCH  17  18
ENDBRANCH  16  17
ENDBRANCH  15  16
ENDBRANCH  14  15
ENDBRANCH  13  14
ENDBRANCH  12  13
ENDBRANCH   1  12
TORSDOF 14
ENDMDL
MODEL 7
REMARK VINA RESULT:     9.574      5.089      8.024
REMARK INTER + INTRA:          16.304
REMARK INTER:                  16.818
REMARK INTRA:                  -0.514
REMARK UNBOUND:                -1.106
REMARK SMILES CCCCCCCCCCCCCC[C@H](C)C(=O)[O-]
REMARK SMILES IDX 9 1 10 2 11 3 12 4 13 5 14 6 15 7 16 8 17 9 18 10 19 11 8 12
REMARK SMILES IDX 7 13 6 14 5 15 4 16 3 17 2 18 1 19
REMARK H PARENT
REMARK Flexibility Score: inf
ROOT
ATOM      1  C   UNL     1       8.370   1.650 -13.636  1.00  0.00     0.000 C 
ENDROOT
BRANCH   1   2
ATOM      2  C   UNL     1       9.438   0.674 -13.117  1.00  0.00     0.000 C 
BRANCH   2   3
ATOM      3  C   UNL     1      10.744   0.820 -13.911  1.00  0.00     0.000 C 
BRANCH   3   4
ATOM      4  C   UNL     1      10.616   1.781 -15.108  1.00  0.00     0.000 C 
BRANCH   4   5
ATOM      5  C   UNL     1      11.946   2.167 -15.785  1.00  0.00     0.001 C 
BRANCH   5   6
ATOM      6  C   UNL     1      12.473   1.172 -16.838  1.00  0.00     0.009 C 
BRANCH   6   7
ATOM      7  C   UNL     1      13.725   1.670 -17.603  1.00  0.00     0.032 C 
ATOM      8  C   UNL     1      13.342   2.165 -19.003  1.00  0.00     0.014 C 
BRANCH   7   9
ATOM      9  C   UNL     1      14.767   0.593 -17.733  1.00  0.00     0.044 C 
ATOM     10  O   UNL     1      15.214   0.019 -16.704  1.00  0.00    -0.550 OA
ATOM     11  O   UNL     1      15.277   0.253 -18.981  1.00  0.00    -0.550 OA
ENDBRANCH   7   9
ENDBRANCH   6   7
ENDBRANCH   5   6
ENDBRANCH   4   5
ENDBRANCH   3   4
ENDBRANCH   2   3
ENDBRANCH   1   2
BRANCH   1  12
ATOM     12  C   UNL     1       6.974   1.364 -13.059  1.00  0.00     0.000 C 
BRANCH  12  13
ATOM     13  C   UNL     1       5.864   1.468 -14.118  1.00  0.00    -0.000 C 
BRANCH  13  14
ATOM     14  C   UNL     1       4.540   1.991 -13.537  1.00  0.00    -0.000 C 
BRANCH  14  15
ATOM     15  C   UNL     1       3.542   0.865 -13.225  1.00  0.00    -0.000 C 
BRANCH  15  16
ATOM     16  C   UNL     1       2.754   0.469 -14.484  1.00  0.00    -0.000 C 
BRANCH  16  17
ATOM     17  C   UNL     1       1.248   0.316 -14.217  1.00  0.00    -0.000 C 
BRANCH  17  18
ATOM     18  C   UNL     1       0.422   0.255 -15.510  1.00  0.00    -0.003 C 
ATOM     19  C   UNL     1       0.858  -0.916 -16.385  1.00  0.00     0.004 C 
ENDBRANCH  17  18
ENDBRANCH  16  17
ENDBRANCH  15  16
ENDBRANCH  14  15
ENDBRANCH  13  14
ENDBRANCH  12  13
ENDBRANCH   1  12
TORSDOF 14
ENDMDL
