MODEL 1
REMARK VINA RESULT:    -4.664      0.000      0.000
REMARK INTER + INTRA:          -5.618
REMARK INTER:                  -5.482
REMARK INTRA:                  -0.136
REMARK UNBOUND:                -0.136
REMARK SMILES O=C([O-])C=Cc1ccc(O)c(O)c1
REMARK SMILES IDX 6 1 13 2 7 3 11 4 8 5 9 6 5 7 4 8 2 9 1 10 3 11 12 12 10 14
REMARK H PARENT 12 13 10 15
REMARK Flexibility Score: inf
ROOT
ATOM      1  C   UNL     1      21.653  42.057  28.018  1.00  0.00    -0.022 A 
ATOM      2  C   UNL     1      21.697  42.878  29.158  1.00  0.00     0.058 A 
ATOM      3  C   UNL     1      21.156  40.745  28.145  1.00  0.00     0.012 A 
ATOM      4  C   UNL     1      21.281  42.398  30.404  1.00  0.00     0.157 A 
ATOM      5  C   UNL     1      20.740  40.264  29.389  1.00  0.00     0.051 A 
ATOM      6  C   UNL     1      20.802  41.084  30.523  1.00  0.00     0.157 A 
ENDROOT
BRANCH   1   7
ATOM      7  C   UNL     1      22.097  42.621  26.719  1.00  0.00     0.010 C 
ATOM      8  C   UNL     1      21.576  42.265  25.536  1.00  0.00     0.025 C 
BRANCH   8   9
ATOM      9  C   UNL     1      22.052  42.837  24.265  1.00  0.00     0.064 C 
ATOM     10  O   UNL     1      22.778  42.171  23.479  1.00  0.00    -0.545 OA
ATOM     11  O   UNL     1      21.696  44.137  23.926  1.00  0.00    -0.545 OA
ENDBRANCH   8   9
ENDBRANCH   1   7
BRANCH   4  12
ATOM     12  O   UNL     1      21.350  43.242  31.512  1.00  0.00    -0.504 OA
ATOM     13  H   UNL     1      20.530  43.696  31.896  1.00  0.00     0.293 HD
ENDBRANCH   4  12
BRANCH   6  14
ATOM     14  O   UNL     1      20.387  40.599  31.762  1.00  0.00    -0.504 OA
ATOM     15  H   UNL     1      20.004  39.666  31.866  1.00  0.00     0.293 HD
ENDBRANCH   6  14
TORSDOF 4
ENDMDL
MODEL 2
REMARK VINA RESULT:    -4.022      3.477      7.132
REMARK INTER + INTRA:          -4.864
REMARK INTER:                  -4.735
REMARK INTRA:                  -0.129
REMARK UNBOUND:                -0.136
REMARK SMILES O=C([O-])C=Cc1ccc(O)c(O)c1
REMARK SMILES IDX 6 1 13 2 7 3 11 4 8 5 9 6 5 7 4 8 2 9 1 10 3 11 12 12 10 14
REMARK H PARENT 12 13 10 15
REMARK Flexibility Score: inf
ROOT
ATOM      1  C   UNL     1      22.924  46.112  28.298  1.00  0.00    -0.022 A 
ATOM      2  C   UNL     1      22.700  45.006  27.461  1.00  0.00     0.058 A 
ATOM      3  C   UNL     1      23.111  47.380  27.714  1.00  0.00     0.012 A 
ATOM      4  C   UNL     1      22.687  45.151  26.070  1.00  0.00     0.157 A 
ATOM      5  C   UNL     1      23.098  47.527  26.325  1.00  0.00     0.051 A 
ATOM      6  C   UNL     1      22.890  46.417  25.496  1.00  0.00     0.157 A 
ENDROOT
BRANCH   1   7
ATOM      7  C   UNL     1      22.916  45.903  29.768  1.00  0.00     0.010 C 
ATOM      8  C   UNL     1      21.873  45.402  30.444  1.00  0.00     0.025 C 
BRANCH   8   9
ATOM      9  C   UNL     1      21.898  45.221  31.905  1.00  0.00     0.064 C 
ATOM     10  O   UNL     1      20.834  45.053  32.561  1.00  0.00    -0.545 OA
ATOM     11  O   UNL     1      23.115  45.238  32.574  1.00  0.00    -0.545 OA
ENDBRANCH   8   9
ENDBRANCH   1   7
BRANCH   4  12
ATOM     12  O   UNL     1      22.472  44.027  25.273  1.00  0.00    -0.504 OA
ATOM     13  H   UNL     1      22.624  44.039  24.272  1.00  0.00     0.293 HD
ENDBRANCH   4  12
BRANCH   6  14
ATOM     14  O   UNL     1      22.880  46.568  24.111  1.00  0.00    -0.504 OA
ATOM     15  H   UNL     1      22.300  47.264  23.657  1.00  0.00     0.293 HD
ENDBRANCH   6  14
TORSDOF 4
ENDMDL
MODEL 3
REMARK VINA RESULT:    -3.820      3.586      6.796
REMARK INTER + INTRA:          -4.627
REMARK INTER:                  -4.495
REMARK INTRA:                  -0.131
REMARK UNBOUND:                -0.136
REMARK SMILES O=C([O-])C=Cc1ccc(O)c(O)c1
REMARK SMILES IDX 6 1 13 2 7 3 11 4 8 5 9 6 5 7 4 8 2 9 1 10 3 11 12 12 10 14
REMARK H PARENT 12 13 10 15
REMARK Flexibility Score: inf
ROOT
ATOM      1  C   UNL     1      22.026  45.111  30.753  1.00  0.00    -0.022 A 
ATOM      2  C   UNL     1      21.612  43.792  31.002  1.00  0.00     0.058 A 
ATOM      3  C   UNL     1      22.384  45.474  29.439  1.00  0.00     0.012 A 
ATOM      4  C   UNL     1      21.578  42.844  29.975  1.00  0.00     0.157 A 
ATOM      5  C   UNL     1      22.350  44.529  28.411  1.00  0.00     0.051 A 
ATOM      6  C   UNL     1      21.951  43.212  28.672  1.00  0.00     0.157 A 
ENDROOT
BRANCH   1   7
ATOM      7  C   UNL     1      22.032  46.079  31.878  1.00  0.00     0.010 C 
ATOM      8  C   UNL     1      21.288  45.941  32.984  1.00  0.00     0.025 C 
BRANCH   8   9
ATOM      9  C   UNL     1      21.312  46.929  34.076  1.00  0.00     0.064 C 
ATOM     10  O   UNL     1      21.981  46.728  35.125  1.00  0.00    -0.545 OA
ATOM     11  O   UNL     1      20.581  48.104  33.948  1.00  0.00    -0.545 OA
ENDBRANCH   8   9
ENDBRANCH   1   7
BRANCH   4  12
ATOM     12  O   UNL     1      21.171  41.543  30.266  1.00  0.00    -0.504 OA
ATOM     13  H   UNL     1      21.003  40.856  29.541  1.00  0.00     0.293 HD
ENDBRANCH   4  12
BRANCH   6  14
ATOM     14  O   UNL     1      21.921  42.272  27.643  1.00  0.00    -0.504 OA
ATOM     15  H   UNL     1      21.169  42.251  26.965  1.00  0.00     0.293 HD
ENDBRANCH   6  14
TORSDOF 4
ENDMDL
MODEL 4
REMARK VINA RESULT:    -3.803     14.816     16.679
REMARK INTER + INTRA:          -4.605
REMARK INTER:                  -4.478
REMARK INTRA:                  -0.127
REMARK UNBOUND:                -0.136
REMARK SMILES O=C([O-])C=Cc1ccc(O)c(O)c1
REMARK SMILES IDX 6 1 13 2 7 3 11 4 8 5 9 6 5 7 4 8 2 9 1 10 3 11 12 12 10 14
REMARK H PARENT 12 13 10 15
REMARK Flexibility Score: inf
ROOT
ATOM      1  C   UNL     1      14.899  29.508  21.339  1.00  0.00    -0.022 A 
ATOM      2  C   UNL     1      16.119  29.529  20.644  1.00  0.00     0.058 A 
ATOM      3  C   UNL     1      13.714  29.238  20.625  1.00  0.00     0.012 A 
ATOM      4  C   UNL     1      16.162  29.313  19.263  1.00  0.00     0.157 A 
ATOM      5  C   UNL     1      13.755  29.021  19.245  1.00  0.00     0.051 A 
ATOM      6  C   UNL     1      14.975  29.060  18.557  1.00  0.00     0.157 A 
ENDROOT
BRANCH   1   7
ATOM      7  C   UNL     1      14.912  29.734  22.806  1.00  0.00     0.010 C 
ATOM      8  C   UNL     1      15.494  28.903  23.682  1.00  0.00     0.025 C 
BRANCH   8   9
ATOM      9  C   UNL     1      15.476  29.154  25.134  1.00  0.00     0.064 C 
ATOM     10  O   UNL     1      15.323  28.212  25.957  1.00  0.00    -0.545 OA
ATOM     11  O   UNL     1      15.628  30.452  25.603  1.00  0.00    -0.545 OA
ENDBRANCH   8   9
ENDBRANCH   1   7
BRANCH   4  12
ATOM     12  O   UNL     1      17.393  29.352  18.608  1.00  0.00    -0.504 OA
ATOM     13  H   UNL     1      17.650  28.673  17.902  1.00  0.00     0.293 HD
ENDBRANCH   4  12
BRANCH   6  14
ATOM     14  O   UNL     1      15.010  28.844  17.181  1.00  0.00    -0.504 OA
ATOM     15  H   UNL     1      14.963  29.613  16.522  1.00  0.00     0.293 HD
ENDBRANCH   6  14
TORSDOF 4
ENDMDL
MODEL 5
REMARK VINA RESULT:    -3.787      0.826      1.861
REMARK INTER + INTRA:          -4.587
REMARK INTER:                  -4.459
REMARK INTRA:                  -0.128
REMARK UNBOUND:                -0.136
REMARK SMILES O=C([O-])C=Cc1ccc(O)c(O)c1
REMARK SMILES IDX 6 1 13 2 7 3 11 4 8 5 9 6 5 7 4 8 2 9 1 10 3 11 12 12 10 14
REMARK H PARENT 12 13 10 15
REMARK Flexibility Score: inf
ROOT
ATOM      1  C   UNL     1      21.853  42.515  28.002  1.00  0.00    -0.022 A 
ATOM      2  C   UNL     1      21.334  41.222  28.178  1.00  0.00     0.058 A 
ATOM      3  C   UNL     1      21.938  43.371  29.118  1.00  0.00     0.012 A 
ATOM      4  C   UNL     1      20.883  40.793  29.430  1.00  0.00     0.157 A 
ATOM      5  C   UNL     1      21.489  42.945  30.371  1.00  0.00     0.051 A 
ATOM      6  C   UNL     1      20.958  41.659  30.534  1.00  0.00     0.157 A 
ENDROOT
BRANCH   1   7
ATOM      7  C   UNL     1      22.327  42.914  26.652  1.00  0.00     0.010 C 
ATOM      8  C   UNL     1      21.699  42.583  25.515  1.00  0.00     0.025 C 
BRANCH   8   9
ATOM      9  C   UNL     1      22.206  42.987  24.193  1.00  0.00     0.064 C 
ATOM     10  O   UNL     1      22.685  42.141  23.390  1.00  0.00    -0.545 OA
ATOM     11  O   UNL     1      22.159  44.325  23.823  1.00  0.00    -0.545 OA
ENDBRANCH   8   9
ENDBRANCH   1   7
BRANCH   4  12
ATOM     12  O   UNL     1      20.365  39.506  29.560  1.00  0.00    -0.504 OA
ATOM     13  H   UNL     1      20.713  38.852  30.251  1.00  0.00     0.293 HD
ENDBRANCH   4  12
BRANCH   6  14
ATOM     14  O   UNL     1      20.510  41.240  31.785  1.00  0.00    -0.504 OA
ATOM     15  H   UNL     1      21.153  41.058  32.546  1.00  0.00     0.293 HD
ENDBRANCH   6  14
TORSDOF 4
ENDMDL
MODEL 6
REMARK VINA RESULT:    -3.726      2.781      6.296
REMARK INTER + INTRA:          -4.515
REMARK INTER:                  -4.382
REMARK INTRA:                  -0.133
REMARK UNBOUND:                -0.136
REMARK SMILES O=C([O-])C=Cc1ccc(O)c(O)c1
REMARK SMILES IDX 6 1 13 2 7 3 11 4 8 5 9 6 5 7 4 8 2 9 1 10 3 11 12 12 10 14
REMARK H PARENT 12 13 10 15
REMARK Flexibility Score: inf
ROOT
ATOM      1  C   UNL     1      22.422  44.789  28.981  1.00  0.00    -0.022 A 
ATOM      2  C   UNL     1      21.985  43.454  28.953  1.00  0.00     0.058 A 
ATOM      3  C   UNL     1      22.838  45.393  27.777  1.00  0.00     0.012 A 
ATOM      4  C   UNL     1      21.985  42.724  27.760  1.00  0.00     0.157 A 
ATOM      5  C   UNL     1      22.838  44.665  26.585  1.00  0.00     0.051 A 
ATOM      6  C   UNL     1      22.416  43.330  26.569  1.00  0.00     0.157 A 
ENDROOT
BRANCH   1   7
ATOM      7  C   UNL     1      22.391  45.520  30.272  1.00  0.00     0.010 C 
ATOM      8  C   UNL     1      22.041  44.959  31.438  1.00  0.00     0.025 C 
BRANCH   8   9
ATOM      9  C   UNL     1      22.010  45.720  32.698  1.00  0.00     0.064 C 
ATOM     10  O   UNL     1      21.138  46.606  32.905  1.00  0.00    -0.545 OA
ATOM     11  O   UNL     1      22.962  45.459  33.676  1.00  0.00    -0.545 OA
ENDBRANCH   8   9
ENDBRANCH   1   7
BRANCH   4  12
ATOM     12  O   UNL     1      21.553  41.398  27.777  1.00  0.00    -0.504 OA
ATOM     13  H   UNL     1      22.028  40.670  27.258  1.00  0.00     0.293 HD
ENDBRANCH   4  12
BRANCH   6  14
ATOM     14  O   UNL     1      22.419  42.608  25.377  1.00  0.00    -0.504 OA
ATOM     15  H   UNL     1      22.001  42.977  24.531  1.00  0.00     0.293 HD
ENDBRANCH   6  14
TORSDOF 4
ENDMDL
