MODEL 1
REMARK VINA RESULT:    17.089      0.000      0.000
REMARK INTER + INTRA:          17.813
REMARK INTER:                  18.088
REMARK INTRA:                  -0.275
REMARK UNBOUND:                -0.275
REMARK SMILES CC1=C[C@@H]2C(=C(C)CC[C@H]2C(C)C)CC1
REMARK SMILES IDX 1 1 2 2 3 3 4 4 10 5 9 6 8 7 6 8 5 9 14 10 15 11 7 12 11 13
REMARK SMILES IDX 12 14 13 15
REMARK H PARENT
REMARK Flexibility Score: inf
ROOT
ATOM      1  C   UNL     1      -3.204   6.362 -12.657  1.00  0.00     0.039 C 
ATOM      2  C   UNL     1      -1.961   5.941 -11.922  1.00  0.00    -0.076 C 
ATOM      3  C   UNL     1      -1.511   6.698 -10.898  1.00  0.00    -0.020 C 
ATOM      4  C   UNL     1      -0.238   6.399 -10.112  1.00  0.00     0.041 C 
ATOM      5  C   UNL     1      -0.484   6.408  -8.574  1.00  0.00     0.003 C 
ATOM      6  C   UNL     1       0.854   6.081  -7.882  1.00  0.00     0.009 C 
ATOM      7  C   UNL     1       1.321   4.676  -8.253  1.00  0.00     0.031 C 
ATOM      8  C   UNL     1       1.223   4.366  -9.734  1.00  0.00    -0.073 C 
ATOM      9  C   UNL     1       0.427   5.097 -10.569  1.00  0.00    -0.064 C 
ATOM     10  C   UNL     1       0.234   4.739 -12.029  1.00  0.00     0.036 C 
ATOM     11  C   UNL     1      -1.262   4.661 -12.316  1.00  0.00     0.035 C 
ATOM     12  C   UNL     1       1.931   3.115 -10.201  1.00  0.00     0.039 C 
ENDROOT
BRANCH   5  13
ATOM     13  C   UNL     1      -1.138   7.723  -8.025  1.00  0.00    -0.013 C 
ATOM     14  C   UNL     1      -2.513   7.467  -7.384  1.00  0.00     0.007 C 
ATOM     15  C   UNL     1      -0.241   8.504  -7.049  1.00  0.00     0.007 C 
ENDBRANCH   5  13
TORSDOF 1
ENDMDL
MODEL 2
REMARK VINA RESULT:    18.730      1.034      4.798
REMARK INTER + INTRA:          19.550
REMARK INTER:                  19.635
REMARK INTRA:                  -0.085
REMARK UNBOUND:                -0.275
REMARK SMILES CC1=C[C@@H]2C(=C(C)CC[C@H]2C(C)C)CC1
REMARK SMILES IDX 1 1 2 2 3 3 4 4 10 5 9 6 8 7 6 8 5 9 14 10 15 11 7 12 11 13
REMARK SMILES IDX 12 14 13 15
REMARK H PARENT
REMARK Flexibility Score: inf
ROOT
ATOM      1  C   UNL     1       2.749   2.927 -10.008  1.00  0.00     0.039 C 
ATOM      2  C   UNL     1       1.794   4.044  -9.687  1.00  0.00    -0.076 C 
ATOM      3  C   UNL     1       0.985   4.522 -10.657  1.00  0.00    -0.020 C 
ATOM      4  C   UNL     1       0.013   5.682 -10.463  1.00  0.00     0.041 C 
ATOM      5  C   UNL     1      -1.422   5.331 -10.952  1.00  0.00     0.003 C 
ATOM      6  C   UNL     1      -2.320   6.558 -10.697  1.00  0.00     0.009 C 
ATOM      7  C   UNL     1      -2.415   6.852  -9.202  1.00  0.00     0.031 C 
ATOM      8  C   UNL     1      -1.081   6.816  -8.481  1.00  0.00    -0.073 C 
ATOM      9  C   UNL     1       0.008   6.190  -9.018  1.00  0.00    -0.064 C 
ATOM     10  C   UNL     1       1.318   6.054  -8.269  1.00  0.00     0.036 C 
ATOM     11  C   UNL     1       1.731   4.586  -8.277  1.00  0.00     0.035 C 
ATOM     12  C   UNL     1      -1.067   7.375  -7.077  1.00  0.00     0.039 C 
ENDROOT
BRANCH   5  13
ATOM     13  C   UNL     1      -1.503   4.828 -12.435  1.00  0.00    -0.013 C 
ATOM     14  C   UNL     1      -2.942   4.842 -12.979  1.00  0.00     0.007 C 
ATOM     15  C   UNL     1      -0.569   5.580 -13.399  1.00  0.00     0.007 C 
ENDBRANCH   5  13
TORSDOF 1
ENDMDL
MODEL 3
REMARK VINA RESULT:    19.040      1.110      4.157
REMARK INTER + INTRA:          19.877
REMARK INTER:                  20.157
REMARK INTRA:                  -0.280
REMARK UNBOUND:                -0.275
REMARK SMILES CC1=C[C@@H]2C(=C(C)CC[C@H]2C(C)C)CC1
REMARK SMILES IDX 1 1 2 2 3 3 4 4 10 5 9 6 8 7 6 8 5 9 14 10 15 11 7 12 11 13
REMARK SMILES IDX 12 14 13 15
REMARK H PARENT
REMARK Flexibility Score: inf
ROOT
ATOM      1  C   UNL     1      -2.500   8.612  -7.151  1.00  0.00     0.039 C 
ATOM      2  C   UNL     1      -1.542   7.626  -7.763  1.00  0.00    -0.076 C 
ATOM      3  C   UNL     1      -1.956   6.853  -8.790  1.00  0.00    -0.020 C 
ATOM      4  C   UNL     1      -1.093   5.787  -9.458  1.00  0.00     0.041 C 
ATOM      5  C   UNL     1      -1.074   5.935 -11.007  1.00  0.00     0.003 C 
ATOM      6  C   UNL     1      -0.166   4.826 -11.575  1.00  0.00     0.009 C 
ATOM      7  C   UNL     1       1.270   5.007 -11.090  1.00  0.00     0.031 C 
ATOM      8  C   UNL     1       1.386   5.295  -9.606  1.00  0.00    -0.073 C 
ATOM      9  C   UNL     1       0.324   5.750  -8.878  1.00  0.00    -0.064 C 
ATOM     10  C   UNL     1       0.447   6.143  -7.419  1.00  0.00     0.036 C 
ATOM     11  C   UNL     1      -0.125   7.546  -7.245  1.00  0.00     0.035 C 
ATOM     12  C   UNL     1       2.774   5.199  -9.015  1.00  0.00     0.039 C 
ENDROOT
BRANCH   5  13
ATOM     13  C   UNL     1      -2.490   5.952 -11.680  1.00  0.00    -0.013 C 
ATOM     14  C   UNL     1      -2.638   7.094 -12.701  1.00  0.00     0.007 C 
ATOM     15  C   UNL     1      -2.889   4.614 -12.325  1.00  0.00     0.007 C 
ENDBRANCH   5  13
TORSDOF 1
ENDMDL
