MODEL 1
REMARK VINA RESULT:    -6.523      0.000      0.000
REMARK INTER + INTRA:         -11.006
REMARK INTER:                  -9.956
REMARK INTRA:                  -1.050
REMARK UNBOUND:                -1.050
REMARK SMILES CC(=O)CCC=C(C)CCC=C(C)CCC=C(C)C
REMARK SMILES IDX 10 1 11 2 12 3 13 4 14 5 15 6 16 7 18 8 17 9 19 10 9 11 7 12
REMARK SMILES IDX 6 13 8 14 5 15 4 16 2 17 3 18 1 19
REMARK H PARENT
REMARK Flexibility Score: inf
ROOT
ATOM      1  C   UNL     1      30.311  18.684  26.058  1.00  0.00     0.032 C 
ENDROOT
BRANCH   1   2
ATOM      2  C   UNL     1      31.516  18.347  25.219  1.00  0.00    -0.028 C 
ATOM      3  C   UNL     1      32.038  19.158  24.269  1.00  0.00    -0.077 C 
ATOM      4  C   UNL     1      31.471  20.533  23.997  1.00  0.00     0.039 C 
BRANCH   3   5
ATOM      5  C   UNL     1      33.229  18.681  23.468  1.00  0.00     0.034 C 
BRANCH   5   6
ATOM      6  C   UNL     1      34.474  19.518  23.786  1.00  0.00     0.032 C 
BRANCH   6   7
ATOM      7  C   UNL     1      35.284  18.895  24.897  1.00  0.00    -0.028 C 
ATOM      8  C   UNL     1      36.183  21.116  25.603  1.00  0.00     0.039 C 
ATOM      9  C   UNL     1      36.065  19.618  25.729  1.00  0.00    -0.080 C 
ATOM     10  C   UNL     1      36.847  18.931  26.819  1.00  0.00     0.039 C 
ENDBRANCH   6   7
ENDBRANCH   5   6
ENDBRANCH   3   5
ENDBRANCH   1   2
BRANCH   1  11
ATOM     11  C   UNL     1      30.174  17.707  27.231  1.00  0.00     0.034 C 
BRANCH  11  12
ATOM     12  C   UNL     1      28.876  17.933  27.976  1.00  0.00    -0.077 C 
ATOM     13  C   UNL     1      27.785  18.327  27.280  1.00  0.00    -0.028 C 
ATOM     14  C   UNL     1      28.836  17.721  29.470  1.00  0.00     0.039 C 
BRANCH  13  15
ATOM     15  C   UNL     1      26.414  18.533  27.880  1.00  0.00     0.035 C 
BRANCH  15  16
ATOM     16  C   UNL     1      25.816  19.886  27.471  1.00  0.00     0.079 C 
BRANCH  16  17
ATOM     17  C   UNL     1      26.309  21.001  28.357  1.00  0.00     0.130 C 
ATOM     18  O   UNL     1      26.430  22.127  27.897  1.00  0.00    -0.300 OA
ATOM     19  C   UNL     1      26.655  20.758  29.796  1.00  0.00     0.087 C 
ENDBRANCH  16  17
ENDBRANCH  15  16
ENDBRANCH  13  15
ENDBRANCH  11  12
ENDBRANCH   1  11
TORSDOF 9
ENDMDL
MODEL 2
REMARK VINA RESULT:    -6.294      5.900      9.286
REMARK INTER + INTRA:         -10.656
REMARK INTER:                  -9.759
REMARK INTRA:                  -0.897
REMARK UNBOUND:                -1.050
REMARK SMILES CC(=O)CCC=C(C)CCC=C(C)CCC=C(C)C
REMARK SMILES IDX 10 1 11 2 12 3 13 4 14 5 15 6 16 7 18 8 17 9 19 10 9 11 7 12
REMARK SMILES IDX 6 13 8 14 5 15 4 16 2 17 3 18 1 19
REMARK H PARENT
REMARK Flexibility Score: inf
ROOT
ATOM      1  C   UNL     1      33.173  20.160  20.125  1.00  0.00     0.032 C 
ENDROOT
BRANCH   1   2
ATOM      2  C   UNL     1      33.098  20.401  21.611  1.00  0.00    -0.028 C 
ATOM      3  C   UNL     1      32.551  19.538  22.499  1.00  0.00    -0.077 C 
ATOM      4  C   UNL     1      31.998  18.198  22.071  1.00  0.00     0.039 C 
BRANCH   3   5
ATOM      5  C   UNL     1      32.503  19.921  23.962  1.00  0.00     0.034 C 
BRANCH   5   6
ATOM      6  C   UNL     1      33.872  20.422  24.441  1.00  0.00     0.032 C 
BRANCH   6   7
ATOM      7  C   UNL     1      34.581  19.373  25.264  1.00  0.00    -0.028 C 
ATOM      8  C   UNL     1      36.823  20.297  24.665  1.00  0.00     0.039 C 
ATOM      9  C   UNL     1      35.927  19.310  25.370  1.00  0.00    -0.080 C 
ATOM     10  C   UNL     1      36.568  18.237  26.211  1.00  0.00     0.039 C 
ENDBRANCH   6   7
ENDBRANCH   5   6
ENDBRANCH   3   5
ENDBRANCH   1   2
BRANCH   1  11
ATOM     11  C   UNL     1      34.015  21.241  19.440  1.00  0.00     0.034 C 
BRANCH  11  12
ATOM     12  C   UNL     1      33.819  21.211  17.940  1.00  0.00    -0.077 C 
ATOM     13  C   UNL     1      32.575  21.012  17.449  1.00  0.00    -0.028 C 
ATOM     14  C   UNL     1      35.014  21.397  17.036  1.00  0.00     0.039 C 
BRANCH  13  15
ATOM     15  C   UNL     1      32.222  21.017  15.980  1.00  0.00     0.035 C 
BRANCH  15  16
ATOM     16  C   UNL     1      31.161  19.958  15.650  1.00  0.00     0.079 C 
BRANCH  16  17
ATOM     17  C   UNL     1      31.771  18.587  15.513  1.00  0.00     0.130 C 
ATOM     18  O   UNL     1      32.957  18.479  15.239  1.00  0.00    -0.300 OA
ATOM     19  C   UNL     1      30.950  17.346  15.705  1.00  0.00     0.087 C 
ENDBRANCH  16  17
ENDBRANCH  15  16
ENDBRANCH  13  15
ENDBRANCH  11  12
ENDBRANCH   1  11
TORSDOF 9
ENDMDL
MODEL 3
REMARK VINA RESULT:    -6.222      2.758      8.305
REMARK INTER + INTRA:         -10.545
REMARK INTER:                  -9.389
REMARK INTRA:                  -1.156
REMARK UNBOUND:                -1.050
REMARK SMILES CC(=O)CCC=C(C)CCC=C(C)CCC=C(C)C
REMARK SMILES IDX 10 1 11 2 12 3 13 4 14 5 15 6 16 7 18 8 17 9 19 10 9 11 7 12
REMARK SMILES IDX 6 13 8 14 5 15 4 16 2 17 3 18 1 19
REMARK H PARENT
REMARK Flexibility Score: inf
ROOT
ATOM      1  C   UNL     1      29.487  19.247  25.964  1.00  0.00     0.032 C 
ENDROOT
BRANCH   1   2
ATOM      2  C   UNL     1      28.044  18.910  26.242  1.00  0.00    -0.028 C 
ATOM      3  C   UNL     1      27.602  18.314  27.373  1.00  0.00    -0.077 C 
ATOM      4  C   UNL     1      28.537  17.971  28.511  1.00  0.00     0.039 C 
BRANCH   3   5
ATOM      5  C   UNL     1      26.130  17.994  27.508  1.00  0.00     0.034 C 
BRANCH   5   6
ATOM      6  C   UNL     1      25.422  19.033  28.387  1.00  0.00     0.032 C 
BRANCH   6   7
ATOM      7  C   UNL     1      24.969  20.221  27.573  1.00  0.00    -0.028 C 
ATOM      8  C   UNL     1      26.781  21.662  28.510  1.00  0.00     0.039 C 
ATOM      9  C   UNL     1      25.584  21.423  27.625  1.00  0.00    -0.080 C 
ATOM     10  C   UNL     1      25.079  22.567  26.784  1.00  0.00     0.039 C 
ENDBRANCH   6   7
ENDBRANCH   5   6
ENDBRANCH   3   5
ENDBRANCH   1   2
BRANCH   1  11
ATOM     11  C   UNL     1      29.678  19.656  24.500  1.00  0.00     0.034 C 
BRANCH  11  12
ATOM     12  C   UNL     1      31.136  19.574  24.101  1.00  0.00    -0.077 C 
ATOM     13  C   UNL     1      32.021  19.036  24.971  1.00  0.00    -0.028 C 
ATOM     14  C   UNL     1      31.562  20.097  22.750  1.00  0.00     0.039 C 
BRANCH  13  15
ATOM     15  C   UNL     1      33.491  18.836  24.685  1.00  0.00     0.035 C 
BRANCH  15  16
ATOM     16  C   UNL     1      34.313  20.076  25.060  1.00  0.00     0.079 C 
BRANCH  16  17
ATOM     17  C   UNL     1      35.759  19.728  25.308  1.00  0.00     0.130 C 
ATOM     18  O   UNL     1      36.620  20.158  24.554  1.00  0.00    -0.300 OA
ATOM     19  C   UNL     1      36.165  18.864  26.464  1.00  0.00     0.087 C 
ENDBRANCH  16  17
ENDBRANCH  15  16
ENDBRANCH  13  15
ENDBRANCH  11  12
ENDBRANCH   1  11
TORSDOF 9
ENDMDL
MODEL 4
REMARK VINA RESULT:    -6.155      5.650      9.753
REMARK INTER + INTRA:         -10.444
REMARK INTER:                  -9.475
REMARK INTRA:                  -0.969
REMARK UNBOUND:                -1.050
REMARK SMILES CC(=O)CCC=C(C)CCC=C(C)CCC=C(C)C
REMARK SMILES IDX 10 1 11 2 12 3 13 4 14 5 15 6 16 7 18 8 17 9 19 10 9 11 7 12
REMARK SMILES IDX 6 13 8 14 5 15 4 16 2 17 3 18 1 19
REMARK H PARENT
REMARK Flexibility Score: inf
ROOT
ATOM      1  C   UNL     1      32.789  19.973  20.519  1.00  0.00     0.032 C 
ENDROOT
BRANCH   1   2
ATOM      2  C   UNL     1      32.778  20.097  22.021  1.00  0.00    -0.028 C 
ATOM      3  C   UNL     1      32.578  19.064  22.872  1.00  0.00    -0.077 C 
ATOM      4  C   UNL     1      32.396  17.647  22.377  1.00  0.00     0.039 C 
BRANCH   3   5
ATOM      5  C   UNL     1      32.550  19.333  24.360  1.00  0.00     0.034 C 
BRANCH   5   6
ATOM      6  C   UNL     1      31.479  18.478  25.050  1.00  0.00     0.032 C 
BRANCH   6   7
ATOM      7  C   UNL     1      30.222  19.273  25.304  1.00  0.00    -0.028 C 
ATOM      8  C   UNL     1      29.741  18.005  27.401  1.00  0.00     0.039 C 
ATOM      9  C   UNL     1      29.424  19.062  26.374  1.00  0.00    -0.080 C 
ATOM     10  C   UNL     1      28.182  19.895  26.566  1.00  0.00     0.039 C 
ENDBRANCH   6   7
ENDBRANCH   5   6
ENDBRANCH   3   5
ENDBRANCH   1   2
BRANCH   1  11
ATOM     11  C   UNL     1      33.870  20.870  19.907  1.00  0.00     0.034 C 
BRANCH  11  12
ATOM     12  C   UNL     1      33.665  21.025  18.416  1.00  0.00    -0.077 C 
ATOM     13  C   UNL     1      32.459  20.718  17.888  1.00  0.00    -0.028 C 
ATOM     14  C   UNL     1      34.810  21.511  17.560  1.00  0.00     0.039 C 
BRANCH  13  15
ATOM     15  C   UNL     1      32.093  20.879  16.431  1.00  0.00     0.035 C 
BRANCH  15  16
ATOM     16  C   UNL     1      31.400  19.626  15.880  1.00  0.00     0.079 C 
BRANCH  16  17
ATOM     17  C   UNL     1      32.393  18.539  15.558  1.00  0.00     0.130 C 
ATOM     18  O   UNL     1      32.100  17.372  15.773  1.00  0.00    -0.300 OA
ATOM     19  C   UNL     1      33.739  18.859  14.978  1.00  0.00     0.087 C 
ENDBRANCH  16  17
ENDBRANCH  15  16
ENDBRANCH  13  15
ENDBRANCH  11  12
ENDBRANCH   1  11
TORSDOF 9
ENDMDL
MODEL 5
REMARK VINA RESULT:    -6.138      2.855      8.187
REMARK INTER + INTRA:         -10.418
REMARK INTER:                  -9.543
REMARK INTRA:                  -0.875
REMARK UNBOUND:                -1.050
REMARK SMILES CC(=O)CCC=C(C)CCC=C(C)CCC=C(C)C
REMARK SMILES IDX 10 1 11 2 12 3 13 4 14 5 15 6 16 7 18 8 17 9 19 10 9 11 7 12
REMARK SMILES IDX 6 13 8 14 5 15 4 16 2 17 3 18 1 19
REMARK H PARENT
REMARK Flexibility Score: inf
ROOT
ATOM      1  C   UNL     1      34.773  18.992  24.501  1.00  0.00     0.032 C 
ENDROOT
BRANCH   1   2
ATOM      2  C   UNL     1      33.371  19.239  24.995  1.00  0.00    -0.028 C 
ATOM      3  C   UNL     1      32.256  18.728  24.422  1.00  0.00    -0.077 C 
ATOM      4  C   UNL     1      32.327  17.797  23.233  1.00  0.00     0.039 C 
BRANCH   3   5
ATOM      5  C   UNL     1      30.903  19.090  24.994  1.00  0.00     0.034 C 
BRANCH   5   6
ATOM      6  C   UNL     1      30.578  18.224  26.218  1.00  0.00     0.032 C 
BRANCH   6   7
ATOM      7  C   UNL     1      29.336  18.714  26.921  1.00  0.00    -0.028 C 
ATOM      8  C   UNL     1      29.828  17.327  28.939  1.00  0.00     0.039 C 
ATOM      9  C   UNL     1      28.987  18.309  28.162  1.00  0.00    -0.080 C 
ATOM     10  C   UNL     1      27.732  18.840  28.805  1.00  0.00     0.039 C 
ENDBRANCH   6   7
ENDBRANCH   5   6
ENDBRANCH   3   5
ENDBRANCH   1   2
BRANCH   1  11
ATOM     11  C   UNL     1      35.714  18.680  25.669  1.00  0.00     0.034 C 
BRANCH  11  12
ATOM     12  C   UNL     1      36.693  19.813  25.893  1.00  0.00    -0.077 C 
ATOM     13  C   UNL     1      37.199  20.002  27.133  1.00  0.00    -0.028 C 
ATOM     14  C   UNL     1      37.071  20.702  24.733  1.00  0.00     0.039 C 
BRANCH  13  15
ATOM     15  C   UNL     1      38.226  21.051  27.490  1.00  0.00     0.035 C 
BRANCH  15  16
ATOM     16  C   UNL     1      37.665  22.076  28.484  1.00  0.00     0.079 C 
BRANCH  16  17
ATOM     17  C   UNL     1      37.204  23.330  27.787  1.00  0.00     0.130 C 
ATOM     18  O   UNL     1      36.043  23.693  27.905  1.00  0.00    -0.300 OA
ATOM     19  C   UNL     1      38.143  24.146  26.949  1.00  0.00     0.087 C 
ENDBRANCH  16  17
ENDBRANCH  15  16
ENDBRANCH  13  15
ENDBRANCH  11  12
ENDBRANCH   1  11
TORSDOF 9
ENDMDL
MODEL 6
REMARK VINA RESULT:    -6.030      5.823      9.488
REMARK INTER + INTRA:         -10.252
REMARK INTER:                  -9.306
REMARK INTRA:                  -0.946
REMARK UNBOUND:                -1.050
REMARK SMILES CC(=O)CCC=C(C)CCC=C(C)CCC=C(C)C
REMARK SMILES IDX 10 1 11 2 12 3 13 4 14 5 15 6 16 7 18 8 17 9 19 10 9 11 7 12
REMARK SMILES IDX 6 13 8 14 5 15 4 16 2 17 3 18 1 19
REMARK H PARENT
REMARK Flexibility Score: inf
ROOT
ATOM      1  C   UNL     1      33.480  20.787  21.083  1.00  0.00     0.032 C 
ENDROOT
BRANCH   1   2
ATOM      2  C   UNL     1      33.517  19.959  22.342  1.00  0.00    -0.028 C 
ATOM      3  C   UNL     1      32.889  20.290  23.495  1.00  0.00    -0.077 C 
ATOM      4  C   UNL     1      32.029  21.529  23.606  1.00  0.00     0.039 C 
BRANCH   3   5
ATOM      5  C   UNL     1      33.042  19.390  24.700  1.00  0.00     0.034 C 
BRANCH   5   6
ATOM      6  C   UNL     1      34.523  19.122  24.999  1.00  0.00     0.032 C 
BRANCH   6   7
ATOM      7  C   UNL     1      35.279  20.410  25.216  1.00  0.00    -0.028 C 
ATOM      8  C   UNL     1      36.858  19.312  26.810  1.00  0.00     0.039 C 
ATOM      9  C   UNL     1      36.345  20.504  26.041  1.00  0.00    -0.080 C 
ATOM     10  C   UNL     1      37.055  21.823  26.211  1.00  0.00     0.039 C 
ENDBRANCH   6   7
ENDBRANCH   5   6
ENDBRANCH   3   5
ENDBRANCH   1   2
BRANCH   1  11
ATOM     11  C   UNL     1      32.884  19.985  19.922  1.00  0.00     0.034 C 
BRANCH  11  12
ATOM     12  C   UNL     1      33.294  20.575  18.590  1.00  0.00    -0.077 C 
ATOM     13  C   UNL     1      32.615  20.209  17.478  1.00  0.00    -0.028 C 
ATOM     14  C   UNL     1      34.447  21.547  18.537  1.00  0.00     0.039 C 
BRANCH  13  15
ATOM     15  C   UNL     1      32.874  20.760  16.095  1.00  0.00     0.035 C 
BRANCH  15  16
ATOM     16  C   UNL     1      33.094  19.637  15.072  1.00  0.00     0.079 C 
BRANCH  16  17
ATOM     17  C   UNL     1      34.406  18.931  15.299  1.00  0.00     0.130 C 
ATOM     18  O   UNL     1      34.425  17.712  15.395  1.00  0.00    -0.300 OA
ATOM     19  C   UNL     1      35.693  19.693  15.409  1.00  0.00     0.087 C 
ENDBRANCH  16  17
ENDBRANCH  15  16
ENDBRANCH  13  15
ENDBRANCH  11  12
ENDBRANCH   1  11
TORSDOF 9
ENDMDL
MODEL 7
REMARK VINA RESULT:    -5.990      1.427      2.291
REMARK INTER + INTRA:         -10.191
REMARK INTER:                  -9.118
REMARK INTRA:                  -1.073
REMARK UNBOUND:                -1.050
REMARK SMILES CC(=O)CCC=C(C)CCC=C(C)CCC=C(C)C
REMARK SMILES IDX 10 1 11 2 12 3 13 4 14 5 15 6 16 7 18 8 17 9 19 10 9 11 7 12
REMARK SMILES IDX 6 13 8 14 5 15 4 16 2 17 3 18 1 19
REMARK H PARENT
REMARK Flexibility Score: inf
ROOT
ATOM      1  C   UNL     1      31.254  18.536  25.222  1.00  0.00     0.032 C 
ENDROOT
BRANCH   1   2
ATOM      2  C   UNL     1      32.602  19.134  24.912  1.00  0.00    -0.028 C 
ATOM      3  C   UNL     1      33.144  19.197  23.674  1.00  0.00    -0.077 C 
ATOM      4  C   UNL     1      32.402  18.704  22.453  1.00  0.00     0.039 C 
BRANCH   3   5
ATOM      5  C   UNL     1      34.527  19.788  23.506  1.00  0.00     0.034 C 
BRANCH   5   6
ATOM      6  C   UNL     1      35.094  20.244  24.857  1.00  0.00     0.032 C 
BRANCH   6   7
ATOM      7  C   UNL     1      36.583  20.477  24.775  1.00  0.00    -0.028 C 
ATOM      8  C   UNL     1      37.076  18.178  25.615  1.00  0.00     0.039 C 
ATOM      9  C   UNL     1      37.493  19.539  25.119  1.00  0.00    -0.080 C 
ATOM     10  C   UNL     1      38.965  19.840  25.012  1.00  0.00     0.039 C 
ENDBRANCH   6   7
ENDBRANCH   5   6
ENDBRANCH   3   5
ENDBRANCH   1   2
BRANCH   1  11
ATOM     11  C   UNL     1      30.166  19.615  25.222  1.00  0.00     0.034 C 
BRANCH  11  12
ATOM     12  C   UNL     1      29.036  19.245  26.158  1.00  0.00    -0.077 C 
ATOM     13  C   UNL     1      29.322  18.553  27.285  1.00  0.00    -0.028 C 
ATOM     14  C   UNL     1      27.624  19.651  25.808  1.00  0.00     0.039 C 
BRANCH  13  15
ATOM     15  C   UNL     1      28.308  18.168  28.336  1.00  0.00     0.035 C 
BRANCH  15  16
ATOM     16  C   UNL     1      28.281  19.177  29.492  1.00  0.00     0.079 C 
BRANCH  16  17
ATOM     17  C   UNL     1      27.059  20.057  29.432  1.00  0.00     0.130 C 
ATOM     18  O   UNL     1      27.163  21.250  29.682  1.00  0.00    -0.300 OA
ATOM     19  C   UNL     1      25.714  19.500  29.071  1.00  0.00     0.087 C 
ENDBRANCH  16  17
ENDBRANCH  15  16
ENDBRANCH  13  15
ENDBRANCH  11  12
ENDBRANCH   1  11
TORSDOF 9
ENDMDL
MODEL 8
REMARK VINA RESULT:    -5.973      3.218      4.408
REMARK INTER + INTRA:         -10.165
REMARK INTER:                  -9.331
REMARK INTRA:                  -0.833
REMARK UNBOUND:                -1.050
REMARK SMILES CC(=O)CCC=C(C)CCC=C(C)CCC=C(C)C
REMARK SMILES IDX 10 1 11 2 12 3 13 4 14 5 15 6 16 7 18 8 17 9 19 10 9 11 7 12
REMARK SMILES IDX 6 13 8 14 5 15 4 16 2 17 3 18 1 19
REMARK H PARENT
REMARK Flexibility Score: inf
ROOT
ATOM      1  C   UNL     1      31.169  19.093  24.579  1.00  0.00     0.032 C 
ENDROOT
BRANCH   1   2
ATOM      2  C   UNL     1      32.102  19.799  23.629  1.00  0.00    -0.028 C 
ATOM      3  C   UNL     1      32.097  19.631  22.286  1.00  0.00    -0.077 C 
ATOM      4  C   UNL     1      31.092  18.735  21.599  1.00  0.00     0.039 C 
BRANCH   3   5
ATOM      5  C   UNL     1      33.118  20.371  21.449  1.00  0.00     0.034 C 
BRANCH   5   6
ATOM      6  C   UNL     1      33.005  19.973  19.972  1.00  0.00     0.032 C 
BRANCH   6   7
ATOM      7  C   UNL     1      33.826  20.887  19.095  1.00  0.00    -0.028 C 
ATOM      8  C   UNL     1      33.705  19.294  17.175  1.00  0.00     0.039 C 
ATOM      9  C   UNL     1      34.149  20.584  17.818  1.00  0.00    -0.080 C 
ATOM     10  C   UNL     1      34.971  21.544  16.998  1.00  0.00     0.039 C 
ENDBRANCH   6   7
ENDBRANCH   5   6
ENDBRANCH   3   5
ENDBRANCH   1   2
BRANCH   1  11
ATOM     11  C   UNL     1      29.902  19.923  24.814  1.00  0.00     0.034 C 
BRANCH  11  12
ATOM     12  C   UNL     1      29.048  19.311  25.903  1.00  0.00    -0.077 C 
ATOM     13  C   UNL     1      27.714  19.534  25.888  1.00  0.00    -0.028 C 
ATOM     14  C   UNL     1      29.706  18.477  26.976  1.00  0.00     0.039 C 
BRANCH  13  15
ATOM     15  C   UNL     1      26.734  18.941  26.874  1.00  0.00     0.035 C 
BRANCH  15  16
ATOM     16  C   UNL     1      25.751  19.995  27.397  1.00  0.00     0.079 C 
BRANCH  16  17
ATOM     17  C   UNL     1      26.442  21.017  28.263  1.00  0.00     0.130 C 
ATOM     18  O   UNL     1      26.402  22.198  27.950  1.00  0.00    -0.300 OA
ATOM     19  C   UNL     1      27.180  20.615  29.505  1.00  0.00     0.087 C 
ENDBRANCH  16  17
ENDBRANCH  15  16
ENDBRANCH  13  15
ENDBRANCH  11  12
ENDBRANCH   1  11
TORSDOF 9
ENDMDL
MODEL 9
REMARK VINA RESULT:    -5.915      7.175      8.890
REMARK INTER + INTRA:         -10.078
REMARK INTER:                  -8.433
REMARK INTRA:                  -1.644
REMARK UNBOUND:                -1.050
REMARK SMILES CC(=O)CCC=C(C)CCC=C(C)CCC=C(C)C
REMARK SMILES IDX 10 1 11 2 12 3 13 4 14 5 15 6 16 7 18 8 17 9 19 10 9 11 7 12
REMARK SMILES IDX 6 13 8 14 5 15 4 16 2 17 3 18 1 19
REMARK H PARENT
REMARK Flexibility Score: inf
ROOT
ATOM      1  C   UNL     1      36.512  21.120  25.138  1.00  0.00     0.032 C 
ENDROOT
BRANCH   1   2
ATOM      2  C   UNL     1      37.106  19.811  24.685  1.00  0.00    -0.028 C 
ATOM      3  C   UNL     1      37.095  18.672  25.416  1.00  0.00    -0.077 C 
ATOM      4  C   UNL     1      36.421  18.600  26.767  1.00  0.00     0.039 C 
BRANCH   3   5
ATOM      5  C   UNL     1      37.764  17.435  24.860  1.00  0.00     0.034 C 
BRANCH   5   6
ATOM      6  C   UNL     1      39.155  17.241  25.478  1.00  0.00     0.032 C 
BRANCH   6   7
ATOM      7  C   UNL     1      40.240  17.377  24.438  1.00  0.00    -0.028 C 
ATOM      8  C   UNL     1      40.715  19.733  25.118  1.00  0.00     0.039 C 
ATOM      9  C   UNL     1      40.956  18.511  24.268  1.00  0.00    -0.080 C 
ATOM     10  C   UNL     1      42.026  18.577  23.210  1.00  0.00     0.039 C 
ENDBRANCH   6   7
ENDBRANCH   5   6
ENDBRANCH   3   5
ENDBRANCH   1   2
BRANCH   1  11
ATOM     11  C   UNL     1      37.608  22.076  25.623  1.00  0.00     0.034 C 
BRANCH  11  12
ATOM     12  C   UNL     1      37.452  22.374  27.098  1.00  0.00    -0.077 C 
ATOM     13  C   UNL     1      38.080  21.578  27.994  1.00  0.00    -0.028 C 
ATOM     14  C   UNL     1      36.599  23.542  27.530  1.00  0.00     0.039 C 
BRANCH  13  15
ATOM     15  C   UNL     1      38.063  21.789  29.490  1.00  0.00     0.035 C 
BRANCH  15  16
ATOM     16  C   UNL     1      37.930  20.461  30.247  1.00  0.00     0.079 C 
BRANCH  16  17
ATOM     17  C   UNL     1      38.571  20.533  31.609  1.00  0.00     0.130 C 
ATOM     18  O   UNL     1      37.903  20.885  32.571  1.00  0.00    -0.300 OA
ATOM     19  C   UNL     1      40.015  20.182  31.811  1.00  0.00     0.087 C 
ENDBRANCH  16  17
ENDBRANCH  15  16
ENDBRANCH  13  15
ENDBRANCH  11  12
ENDBRANCH   1  11
TORSDOF 9
ENDMDL
