MODEL 1
REMARK VINA RESULT:    -3.560      0.000      0.000
REMARK INTER + INTRA:          -4.296
REMARK INTER:                  -4.185
REMARK INTRA:                  -0.112
REMARK UNBOUND:                -0.112
REMARK SMILES O=C([O-])CCC(=O)[O-]
REMARK SMILES IDX 4 1 2 2 1 3 3 4 5 5 6 6 7 7 8 8
REMARK H PARENT
REMARK Flexibility Score: inf
ROOT
ATOM      1  C   UNL     1       7.503 -13.696  -1.908  1.00  0.00     0.059 C 
ENDROOT
BRANCH   1   2
ATOM      2  C   UNL     1       7.780 -12.567  -0.962  1.00  0.00     0.042 C 
ATOM      3  O   UNL     1       8.758 -12.628  -0.172  1.00  0.00    -0.550 OA
ATOM      4  O   UNL     1       6.932 -11.468  -0.924  1.00  0.00    -0.550 OA
ENDBRANCH   1   2
BRANCH   1   5
ATOM      5  C   UNL     1       7.241 -13.190  -3.331  1.00  0.00     0.059 C 
BRANCH   5   6
ATOM      6  C   UNL     1       5.792 -13.298  -3.695  1.00  0.00     0.042 C 
ATOM      7  O   UNL     1       4.937 -13.592  -2.818  1.00  0.00    -0.550 OA
ATOM      8  O   UNL     1       5.381 -13.035  -4.996  1.00  0.00    -0.550 OA
ENDBRANCH   5   6
ENDBRANCH   1   5
TORSDOF 3
ENDMDL
MODEL 2
REMARK VINA RESULT:    -3.554      0.092      3.845
REMARK INTER + INTRA:          -4.289
REMARK INTER:                  -4.178
REMARK INTRA:                  -0.111
REMARK UNBOUND:                -0.112
REMARK SMILES O=C([O-])CCC(=O)[O-]
REMARK SMILES IDX 4 1 2 2 1 3 3 4 5 5 6 6 7 7 8 8
REMARK H PARENT
REMARK Flexibility Score: inf
ROOT
ATOM      1  C   UNL     1       7.240 -13.184  -3.315  1.00  0.00     0.059 C 
ENDROOT
BRANCH   1   2
ATOM      2  C   UNL     1       5.788 -13.318  -3.661  1.00  0.00     0.042 C 
ATOM      3  O   UNL     1       5.395 -13.104  -4.837  1.00  0.00    -0.550 OA
ATOM      4  O   UNL     1       4.865 -13.636  -2.673  1.00  0.00    -0.550 OA
ENDBRANCH   1   2
BRANCH   1   5
ATOM      5  C   UNL     1       7.537 -13.709  -1.906  1.00  0.00     0.059 C 
BRANCH   5   6
ATOM      6  C   UNL     1       7.805 -12.591  -0.946  1.00  0.00     0.042 C 
ATOM      7  O   UNL     1       8.800 -12.641  -0.176  1.00  0.00    -0.550 OA
ATOM      8  O   UNL     1       6.977 -11.476  -0.931  1.00  0.00    -0.550 OA
ENDBRANCH   5   6
ENDBRANCH   1   5
TORSDOF 3
ENDMDL
MODEL 3
REMARK VINA RESULT:    -3.374      1.280      1.723
REMARK INTER + INTRA:          -4.077
REMARK INTER:                  -4.038
REMARK INTRA:                  -0.039
REMARK UNBOUND:                -0.112
REMARK SMILES O=C([O-])CCC(=O)[O-]
REMARK SMILES IDX 4 1 2 2 1 3 3 4 5 5 6 6 7 7 8 8
REMARK H PARENT
REMARK Flexibility Score: inf
ROOT
ATOM      1  C   UNL     1       7.152 -11.996  -1.244  1.00  0.00     0.059 C 
ENDROOT
BRANCH   1   2
ATOM      2  C   UNL     1       8.368 -11.709  -0.417  1.00  0.00     0.042 C 
ATOM      3  O   UNL     1       9.129 -12.647  -0.063  1.00  0.00    -0.550 OA
ATOM      4  O   UNL     1       8.635 -10.411  -0.002  1.00  0.00    -0.550 OA
ENDBRANCH   1   2
BRANCH   1   5
ATOM      5  C   UNL     1       7.216 -13.388  -1.881  1.00  0.00     0.059 C 
BRANCH   5   6
ATOM      6  C   UNL     1       6.648 -13.386  -3.267  1.00  0.00     0.042 C 
ATOM      7  O   UNL     1       7.414 -13.388  -4.267  1.00  0.00    -0.550 OA
ATOM      8  O   UNL     1       5.272 -13.422  -3.454  1.00  0.00    -0.550 OA
ENDBRANCH   5   6
ENDBRANCH   1   5
TORSDOF 3
ENDMDL
MODEL 4
REMARK VINA RESULT:    -3.350      1.747      3.910
REMARK INTER + INTRA:          -4.049
REMARK INTER:                  -3.929
REMARK INTRA:                  -0.120
REMARK UNBOUND:                -0.112
REMARK SMILES O=C([O-])CCC(=O)[O-]
REMARK SMILES IDX 4 1 2 2 1 3 3 4 5 5 6 6 7 7 8 8
REMARK H PARENT
REMARK Flexibility Score: inf
ROOT
ATOM      1  C   UNL     1       5.757 -13.160  -4.529  1.00  0.00     0.059 C 
ENDROOT
BRANCH   1   2
ATOM      2  C   UNL     1       5.294 -11.789  -4.920  1.00  0.00     0.042 C 
ATOM      3  O   UNL     1       5.197 -10.882  -4.052  1.00  0.00    -0.550 OA
ATOM      4  O   UNL     1       4.929 -11.526  -6.234  1.00  0.00    -0.550 OA
ENDBRANCH   1   2
BRANCH   1   5
ATOM      5  C   UNL     1       7.177 -13.135  -3.954  1.00  0.00     0.059 C 
BRANCH   5   6
ATOM      6  C   UNL     1       7.186 -13.473  -2.495  1.00  0.00     0.042 C 
ATOM      7  O   UNL     1       8.134 -14.143  -2.005  1.00  0.00    -0.550 OA
ATOM      8  O   UNL     1       6.167 -13.015  -1.669  1.00  0.00    -0.550 OA
ENDBRANCH   5   6
ENDBRANCH   1   5
TORSDOF 3
ENDMDL
MODEL 5
REMARK VINA RESULT:    -3.346      1.736      2.151
REMARK INTER + INTRA:          -4.044
REMARK INTER:                  -3.921
REMARK INTRA:                  -0.123
REMARK UNBOUND:                -0.112
REMARK SMILES O=C([O-])CCC(=O)[O-]
REMARK SMILES IDX 4 1 2 2 1 3 3 4 5 5 6 6 7 7 8 8
REMARK H PARENT
REMARK Flexibility Score: inf
ROOT
ATOM      1  C   UNL     1       7.226 -13.048  -3.897  1.00  0.00     0.059 C 
ENDROOT
BRANCH   1   2
ATOM      2  C   UNL     1       7.251 -13.421  -2.445  1.00  0.00     0.042 C 
ATOM      3  O   UNL     1       8.123 -14.218  -2.011  1.00  0.00    -0.550 OA
ATOM      4  O   UNL     1       6.286 -12.920  -1.582  1.00  0.00    -0.550 OA
ENDBRANCH   1   2
BRANCH   1   5
ATOM      5  C   UNL     1       5.812 -13.141  -4.480  1.00  0.00     0.059 C 
BRANCH   5   6
ATOM      6  C   UNL     1       5.292 -11.795  -4.881  1.00  0.00     0.042 C 
ATOM      7  O   UNL     1       5.198 -10.871  -4.030  1.00  0.00    -0.550 OA
ATOM      8  O   UNL     1       4.948 -11.549  -6.205  1.00  0.00    -0.550 OA
ENDBRANCH   5   6
ENDBRANCH   1   5
TORSDOF 3
ENDMDL
MODEL 6
REMARK VINA RESULT:    -3.268      1.841      4.070
REMARK INTER + INTRA:          -3.953
REMARK INTER:                  -3.854
REMARK INTRA:                  -0.099
REMARK UNBOUND:                -0.112
REMARK SMILES O=C([O-])CCC(=O)[O-]
REMARK SMILES IDX 4 1 2 2 1 3 3 4 5 5 6 6 7 7 8 8
REMARK H PARENT
REMARK Flexibility Score: inf
ROOT
ATOM      1  C   UNL     1       6.723 -12.152  -1.828  1.00  0.00     0.059 C 
ENDROOT
BRANCH   1   2
ATOM      2  C   UNL     1       7.375 -13.318  -2.508  1.00  0.00     0.042 C 
ATOM      3  O   UNL     1       8.051 -14.143  -1.841  1.00  0.00    -0.550 OA
ATOM      4  O   UNL     1       7.269 -13.467  -3.885  1.00  0.00    -0.550 OA
ENDBRANCH   1   2
BRANCH   1   5
ATOM      5  C   UNL     1       7.676 -10.958  -1.713  1.00  0.00     0.059 C 
BRANCH   5   6
ATOM      6  C   UNL     1       8.114 -10.737  -0.298  1.00  0.00     0.042 C 
ATOM      7  O   UNL     1       9.245 -11.135   0.086  1.00  0.00    -0.550 OA
ATOM      8  O   UNL     1       7.287 -10.056   0.587  1.00  0.00    -0.550 OA
ENDBRANCH   5   6
ENDBRANCH   1   5
TORSDOF 3
ENDMDL
MODEL 7
REMARK VINA RESULT:    -3.088      1.864      2.313
REMARK INTER + INTRA:          -3.741
REMARK INTER:                  -3.660
REMARK INTRA:                  -0.080
REMARK UNBOUND:                -0.112
REMARK SMILES O=C([O-])CCC(=O)[O-]
REMARK SMILES IDX 4 1 2 2 1 3 3 4 5 5 6 6 7 7 8 8
REMARK H PARENT
REMARK Flexibility Score: inf
ROOT
ATOM      1  C   UNL     1       6.343 -12.459  -1.439  1.00  0.00     0.059 C 
ENDROOT
BRANCH   1   2
ATOM      2  C   UNL     1       7.678 -13.098  -1.203  1.00  0.00     0.042 C 
ATOM      3  O   UNL     1       8.462 -12.627  -0.339  1.00  0.00    -0.550 OA
ATOM      4  O   UNL     1       8.072 -14.188  -1.969  1.00  0.00    -0.550 OA
ENDBRANCH   1   2
BRANCH   1   5
ATOM      5  C   UNL     1       5.489 -13.276  -2.414  1.00  0.00     0.059 C 
BRANCH   5   6
ATOM      6  C   UNL     1       4.280 -13.850  -1.741  1.00  0.00     0.042 C 
ATOM      7  O   UNL     1       3.997 -13.523  -0.558  1.00  0.00    -0.550 OA
ATOM      8  O   UNL     1       3.445 -14.717  -2.434  1.00  0.00    -0.550 OA
ENDBRANCH   5   6
ENDBRANCH   1   5
TORSDOF 3
ENDMDL
MODEL 8
REMARK VINA RESULT:    -3.067      2.324      2.850
REMARK INTER + INTRA:          -3.717
REMARK INTER:                  -3.599
REMARK INTRA:                  -0.118
REMARK UNBOUND:                -0.112
REMARK SMILES O=C([O-])CCC(=O)[O-]
REMARK SMILES IDX 4 1 2 2 1 3 3 4 5 5 6 6 7 7 8 8
REMARK H PARENT
REMARK Flexibility Score: inf
ROOT
ATOM      1  C   UNL     1       7.443 -10.575  -0.213  1.00  0.00     0.059 C 
ENDROOT
BRANCH   1   2
ATOM      2  C   UNL     1       8.719 -11.300   0.092  1.00  0.00     0.042 C 
ATOM      3  O   UNL     1       9.717 -10.669   0.530  1.00  0.00    -0.550 OA
ATOM      4  O   UNL     1       8.819 -12.664  -0.150  1.00  0.00    -0.550 OA
ENDBRANCH   1   2
BRANCH   1   5
ATOM      5  C   UNL     1       7.397 -10.097  -1.668  1.00  0.00     0.059 C 
BRANCH   5   6
ATOM      6  C   UNL     1       6.454 -10.922  -2.489  1.00  0.00     0.042 C 
ATOM      7  O   UNL     1       5.428 -10.396  -2.996  1.00  0.00    -0.550 OA
ATOM      8  O   UNL     1       6.729 -12.263  -2.726  1.00  0.00    -0.550 OA
ENDBRANCH   5   6
ENDBRANCH   1   5
TORSDOF 3
ENDMDL
MODEL 9
REMARK VINA RESULT:    -3.049      1.526      4.101
REMARK INTER + INTRA:          -3.695
REMARK INTER:                  -3.635
REMARK INTRA:                  -0.060
REMARK UNBOUND:                -0.112
REMARK SMILES O=C([O-])CCC(=O)[O-]
REMARK SMILES IDX 4 1 2 2 1 3 3 4 5 5 6 6 7 7 8 8
REMARK H PARENT
REMARK Flexibility Score: inf
ROOT
ATOM      1  C   UNL     1       5.698 -12.571  -4.602  1.00  0.00     0.059 C 
ENDROOT
BRANCH   1   2
ATOM      2  C   UNL     1       4.431 -13.341  -4.383  1.00  0.00     0.042 C 
ATOM      3  O   UNL     1       4.117 -13.728  -3.228  1.00  0.00    -0.550 OA
ATOM      4  O   UNL     1       3.621 -13.668  -5.463  1.00  0.00    -0.550 OA
ENDBRANCH   1   2
BRANCH   1   5
ATOM      5  C   UNL     1       6.916 -13.313  -4.042  1.00  0.00     0.059 C 
BRANCH   5   6
ATOM      6  C   UNL     1       7.308 -12.789  -2.695  1.00  0.00     0.042 C 
ATOM      7  O   UNL     1       7.374 -11.547  -2.491  1.00  0.00    -0.550 OA
ATOM      8  O   UNL     1       7.564 -13.672  -1.653  1.00  0.00    -0.550 OA
ENDBRANCH   5   6
ENDBRANCH   1   5
TORSDOF 3
ENDMDL
