MODEL 1
REMARK VINA RESULT:    -3.466      0.000      0.000
REMARK INTER + INTRA:          -4.112
REMARK INTER:                  -4.073
REMARK INTRA:                  -0.038
REMARK UNBOUND:                -0.038
REMARK SMILES CCCCC(=O)[O-]
REMARK SMILES IDX 4 1 5 2 6 3 7 4 3 5 2 6 1 7
REMARK H PARENT
REMARK Flexibility Score: inf
ROOT
ATOM      1  C   UNL     1      11.824 -29.096  23.247  1.00  0.00     0.053 C 
ENDROOT
BRANCH   1   2
ATOM      2  C   UNL     1      12.573 -30.336  22.873  1.00  0.00     0.041 C 
ATOM      3  O   UNL     1      12.327 -30.922  21.786  1.00  0.00    -0.550 OA
ATOM      4  O   UNL     1      13.509 -30.874  23.749  1.00  0.00    -0.550 OA
ENDBRANCH   1   2
BRANCH   1   5
ATOM      5  C   UNL     1      12.530 -28.374  24.402  1.00  0.00     0.006 C 
BRANCH   5   6
ATOM      6  C   UNL     1      13.106 -27.012  23.982  1.00  0.00    -0.003 C 
ATOM      7  C   UNL     1      13.872 -26.320  25.110  1.00  0.00     0.004 C 
ENDBRANCH   5   6
ENDBRANCH   1   5
TORSDOF 3
ENDMDL
MODEL 2
REMARK VINA RESULT:    -3.457      1.939      2.478
REMARK INTER + INTRA:          -4.102
REMARK INTER:                  -4.036
REMARK INTRA:                  -0.066
REMARK UNBOUND:                -0.038
REMARK SMILES CCCCC(=O)[O-]
REMARK SMILES IDX 4 1 5 2 6 3 7 4 3 5 2 6 1 7
REMARK H PARENT
REMARK Flexibility Score: inf
ROOT
ATOM      1  C   UNL     1      12.622 -30.874  22.475  1.00  0.00     0.053 C 
ENDROOT
BRANCH   1   2
ATOM      2  C   UNL     1      13.563 -31.176  21.352  1.00  0.00     0.041 C 
ATOM      3  O   UNL     1      13.225 -31.974  20.438  1.00  0.00    -0.550 OA
ATOM      4  O   UNL     1      14.835 -30.615  21.340  1.00  0.00    -0.550 OA
ENDBRANCH   1   2
BRANCH   1   5
ATOM      5  C   UNL     1      13.380 -30.249  23.654  1.00  0.00     0.006 C 
BRANCH   5   6
ATOM      6  C   UNL     1      12.675 -29.003  24.214  1.00  0.00    -0.003 C 
ATOM      7  C   UNL     1      11.414 -28.637  23.431  1.00  0.00     0.004 C 
ENDBRANCH   5   6
ENDBRANCH   1   5
TORSDOF 3
ENDMDL
MODEL 3
REMARK VINA RESULT:    -3.417      2.047      2.754
REMARK INTER + INTRA:          -4.055
REMARK INTER:                  -4.030
REMARK INTRA:                  -0.025
REMARK UNBOUND:                -0.038
REMARK SMILES CCCCC(=O)[O-]
REMARK SMILES IDX 4 1 5 2 6 3 7 4 3 5 2 6 1 7
REMARK H PARENT
REMARK Flexibility Score: inf
ROOT
ATOM      1  C   UNL     1      13.633 -31.538  22.952  1.00  0.00     0.053 C 
ENDROOT
BRANCH   1   2
ATOM      2  C   UNL     1      13.874 -32.169  21.617  1.00  0.00     0.041 C 
ATOM      3  O   UNL     1      13.318 -31.705  20.586  1.00  0.00    -0.550 OA
ATOM      4  O   UNL     1      14.673 -33.302  21.516  1.00  0.00    -0.550 OA
ENDBRANCH   1   2
BRANCH   1   5
ATOM      5  C   UNL     1      12.658 -30.361  22.819  1.00  0.00     0.006 C 
BRANCH   5   6
ATOM      6  C   UNL     1      12.813 -29.336  23.953  1.00  0.00    -0.003 C 
ATOM      7  C   UNL     1      11.701 -28.287  23.958  1.00  0.00     0.004 C 
ENDBRANCH   5   6
ENDBRANCH   1   5
TORSDOF 3
ENDMDL
MODEL 4
REMARK VINA RESULT:    -3.387      2.259      3.915
REMARK INTER + INTRA:          -4.019
REMARK INTER:                  -3.920
REMARK INTRA:                  -0.099
REMARK UNBOUND:                -0.038
REMARK SMILES CCCCC(=O)[O-]
REMARK SMILES IDX 4 1 5 2 6 3 7 4 3 5 2 6 1 7
REMARK H PARENT
REMARK Flexibility Score: inf
ROOT
ATOM      1  C   UNL     1      13.716 -28.970  23.260  1.00  0.00     0.053 C 
ENDROOT
BRANCH   1   2
ATOM      2  C   UNL     1      12.851 -27.977  23.968  1.00  0.00     0.041 C 
ATOM      3  O   UNL     1      13.328 -26.873  24.343  1.00  0.00    -0.550 OA
ATOM      4  O   UNL     1      11.528 -28.289  24.259  1.00  0.00    -0.550 OA
ENDBRANCH   1   2
BRANCH   1   5
ATOM      5  C   UNL     1      13.129 -30.382  23.395  1.00  0.00     0.006 C 
BRANCH   5   6
ATOM      6  C   UNL     1      12.690 -30.969  22.043  1.00  0.00    -0.003 C 
ATOM      7  C   UNL     1      11.247 -30.613  21.686  1.00  0.00     0.004 C 
ENDBRANCH   5   6
ENDBRANCH   1   5
TORSDOF 3
ENDMDL
MODEL 5
REMARK VINA RESULT:    -3.374      2.325      3.832
REMARK INTER + INTRA:          -4.004
REMARK INTER:                  -3.910
REMARK INTRA:                  -0.094
REMARK UNBOUND:                -0.038
REMARK SMILES CCCCC(=O)[O-]
REMARK SMILES IDX 4 1 5 2 6 3 7 4 3 5 2 6 1 7
REMARK H PARENT
REMARK Flexibility Score: inf
ROOT
ATOM      1  C   UNL     1      13.718 -28.835  23.285  1.00  0.00     0.053 C 
ENDROOT
BRANCH   1   2
ATOM      2  C   UNL     1      12.845 -27.847  23.991  1.00  0.00     0.041 C 
ATOM      3  O   UNL     1      11.598 -28.018  24.033  1.00  0.00    -0.550 OA
ATOM      4  O   UNL     1      13.403 -26.709  24.561  1.00  0.00    -0.550 OA
ENDBRANCH   1   2
BRANCH   1   5
ATOM      5  C   UNL     1      13.182 -30.260  23.486  1.00  0.00     0.006 C 
BRANCH   5   6
ATOM      6  C   UNL     1      12.787 -30.932  22.161  1.00  0.00    -0.003 C 
ATOM      7  C   UNL     1      11.360 -30.593  21.730  1.00  0.00     0.004 C 
ENDBRANCH   5   6
ENDBRANCH   1   5
TORSDOF 3
ENDMDL
MODEL 6
REMARK VINA RESULT:    -3.318      1.385      2.076
REMARK INTER + INTRA:          -3.938
REMARK INTER:                  -3.861
REMARK INTRA:                  -0.077
REMARK UNBOUND:                -0.038
REMARK SMILES CCCCC(=O)[O-]
REMARK SMILES IDX 4 1 5 2 6 3 7 4 3 5 2 6 1 7
REMARK H PARENT
REMARK Flexibility Score: inf
ROOT
ATOM      1  C   UNL     1      13.888 -29.665  22.938  1.00  0.00     0.053 C 
ENDROOT
BRANCH   1   2
ATOM      2  C   UNL     1      14.394 -30.923  23.570  1.00  0.00     0.041 C 
ATOM      3  O   UNL     1      13.585 -31.774  24.026  1.00  0.00    -0.550 OA
ATOM      4  O   UNL     1      15.761 -31.135  23.700  1.00  0.00    -0.550 OA
ENDBRANCH   1   2
BRANCH   1   5
ATOM      5  C   UNL     1      12.368 -29.549  23.121  1.00  0.00     0.006 C 
BRANCH   5   6
ATOM      6  C   UNL     1      11.975 -28.411  24.076  1.00  0.00    -0.003 C 
ATOM      7  C   UNL     1      13.044 -27.322  24.168  1.00  0.00     0.004 C 
ENDBRANCH   5   6
ENDBRANCH   1   5
TORSDOF 3
ENDMDL
MODEL 7
REMARK VINA RESULT:    -3.296     10.242     10.949
REMARK INTER + INTRA:          -3.912
REMARK INTER:                  -3.805
REMARK INTRA:                  -0.107
REMARK UNBOUND:                -0.038
REMARK SMILES CCCCC(=O)[O-]
REMARK SMILES IDX 4 1 5 2 6 3 7 4 3 5 2 6 1 7
REMARK H PARENT
REMARK Flexibility Score: inf
ROOT
ATOM      1  C   UNL     1      22.048 -25.125  20.724  1.00  0.00     0.053 C 
ENDROOT
BRANCH   1   2
ATOM      2  C   UNL     1      23.177 -24.992  19.753  1.00  0.00     0.041 C 
ATOM      3  O   UNL     1      23.396 -25.898  18.906  1.00  0.00    -0.550 OA
ATOM      4  O   UNL     1      24.020 -23.888  19.813  1.00  0.00    -0.550 OA
ENDBRANCH   1   2
BRANCH   1   5
ATOM      5  C   UNL     1      20.818 -25.729  20.034  1.00  0.00     0.006 C 
BRANCH   5   6
ATOM      6  C   UNL     1      20.241 -26.930  20.801  1.00  0.00    -0.003 C 
ATOM      7  C   UNL     1      21.201 -28.119  20.844  1.00  0.00     0.004 C 
ENDBRANCH   5   6
ENDBRANCH   1   5
TORSDOF 3
ENDMDL
MODEL 8
REMARK VINA RESULT:    -3.219      2.187      3.749
REMARK INTER + INTRA:          -3.822
REMARK INTER:                  -3.730
REMARK INTRA:                  -0.092
REMARK UNBOUND:                -0.038
REMARK SMILES CCCCC(=O)[O-]
REMARK SMILES IDX 4 1 5 2 6 3 7 4 3 5 2 6 1 7
REMARK H PARENT
REMARK Flexibility Score: inf
ROOT
ATOM      1  C   UNL     1      13.492 -30.168  23.606  1.00  0.00     0.053 C 
ENDROOT
BRANCH   1   2
ATOM      2  C   UNL     1      12.462 -29.100  23.794  1.00  0.00     0.041 C 
ATOM      3  O   UNL     1      11.439 -29.068  23.059  1.00  0.00    -0.550 OA
ATOM      4  O   UNL     1      12.655 -28.108  24.748  1.00  0.00    -0.550 OA
ENDBRANCH   1   2
BRANCH   1   5
ATOM      5  C   UNL     1      14.492 -29.761  22.515  1.00  0.00     0.006 C 
BRANCH   5   6
ATOM      6  C   UNL     1      14.671 -30.848  21.444  1.00  0.00    -0.003 C 
ATOM      7  C   UNL     1      13.358 -31.543  21.082  1.00  0.00     0.004 C 
ENDBRANCH   5   6
ENDBRANCH   1   5
TORSDOF 3
ENDMDL
MODEL 9
REMARK VINA RESULT:    -3.210      2.942      4.143
REMARK INTER + INTRA:          -3.812
REMARK INTER:                  -3.714
REMARK INTRA:                  -0.098
REMARK UNBOUND:                -0.038
REMARK SMILES CCCCC(=O)[O-]
REMARK SMILES IDX 4 1 5 2 6 3 7 4 3 5 2 6 1 7
REMARK H PARENT
REMARK Flexibility Score: inf
ROOT
ATOM      1  C   UNL     1      15.111 -32.535  23.410  1.00  0.00     0.053 C 
ENDROOT
BRANCH   1   2
ATOM      2  C   UNL     1      14.880 -33.367  22.188  1.00  0.00     0.041 C 
ATOM      3  O   UNL     1      15.404 -34.508  22.089  1.00  0.00    -0.550 OA
ATOM      4  O   UNL     1      14.125 -32.863  21.135  1.00  0.00    -0.550 OA
ENDBRANCH   1   2
BRANCH   1   5
ATOM      5  C   UNL     1      13.784 -31.961  23.924  1.00  0.00     0.006 C 
BRANCH   5   6
ATOM      6  C   UNL     1      13.652 -30.453  23.658  1.00  0.00    -0.003 C 
ATOM      7  C   UNL     1      12.489 -30.117  22.726  1.00  0.00     0.004 C 
ENDBRANCH   5   6
ENDBRANCH   1   5
TORSDOF 3
ENDMDL
