MODEL 1
REMARK VINA RESULT:    -3.963      0.000      0.000
REMARK INTER + INTRA:          -5.899
REMARK INTER:                  -5.354
REMARK INTRA:                  -0.545
REMARK UNBOUND:                -0.545
REMARK SMILES CC(=O)CCC=C(C)CCC=C(C)C
REMARK SMILES IDX 7 1 6 2 8 3 9 4 10 5 11 6 13 7 12 8 14 9 5 10 4 11 2 12 3 13
REMARK SMILES IDX 1 14
REMARK H PARENT
REMARK Flexibility Score: inf
ROOT
ATOM      1  C   UNL     1      74.882  74.818  83.612  1.00  0.00    -0.077 C 
ATOM      2  C   UNL     1      76.118  75.281  83.320  1.00  0.00    -0.028 C 
ATOM      3  C   UNL     1      73.789  75.725  84.125  1.00  0.00     0.039 C 
ENDROOT
BRANCH   1   4
ATOM      4  C   UNL     1      74.579  73.347  83.403  1.00  0.00     0.034 C 
BRANCH   4   5
ATOM      5  C   UNL     1      73.494  73.132  82.338  1.00  0.00     0.032 C 
BRANCH   5   6
ATOM      6  C   UNL     1      72.374  72.253  82.847  1.00  0.00    -0.028 C 
ATOM      7  C   UNL     1      73.508  70.124  82.169  1.00  0.00     0.039 C 
ATOM      8  C   UNL     1      72.386  70.902  82.814  1.00  0.00    -0.080 C 
ATOM      9  C   UNL     1      71.224  70.130  83.381  1.00  0.00     0.039 C 
ENDBRANCH   5   6
ENDBRANCH   4   5
ENDBRANCH   1   4
BRANCH   2  10
ATOM     10  C   UNL     1      76.563  76.710  83.512  1.00  0.00     0.035 C 
BRANCH  10  11
ATOM     11  C   UNL     1      76.280  77.540  82.251  1.00  0.00     0.079 C 
BRANCH  11  12
ATOM     12  C   UNL     1      75.701  78.911  82.522  1.00  0.00     0.130 C 
ATOM     13  O   UNL     1      76.415  79.886  82.346  1.00  0.00    -0.300 OA
ATOM     14  C   UNL     1      74.292  79.124  83.003  1.00  0.00     0.087 C 
ENDBRANCH  11  12
ENDBRANCH  10  11
ENDBRANCH   2  10
TORSDOF 6
ENDMDL
MODEL 2
REMARK VINA RESULT:    -3.882      3.137      7.226
REMARK INTER + INTRA:          -5.788
REMARK INTER:                  -5.310
REMARK INTRA:                  -0.479
REMARK UNBOUND:                -0.545
REMARK SMILES CC(=O)CCC=C(C)CCC=C(C)C
REMARK SMILES IDX 7 1 6 2 8 3 9 4 10 5 11 6 13 7 12 8 14 9 5 10 4 11 2 12 3 13
REMARK SMILES IDX 1 14
REMARK H PARENT
REMARK Flexibility Score: inf
ROOT
ATOM      1  C   UNL     1      74.665  74.741  83.685  1.00  0.00    -0.077 C 
ATOM      2  C   UNL     1      73.407  74.326  83.412  1.00  0.00    -0.028 C 
ATOM      3  C   UNL     1      75.745  73.781  84.124  1.00  0.00     0.039 C 
ENDROOT
BRANCH   1   4
ATOM      4  C   UNL     1      75.005  76.211  83.530  1.00  0.00     0.034 C 
BRANCH   4   5
ATOM      5  C   UNL     1      76.126  76.434  82.505  1.00  0.00     0.032 C 
BRANCH   5   6
ATOM      6  C   UNL     1      77.138  77.445  82.993  1.00  0.00    -0.028 C 
ATOM      7  C   UNL     1      75.785  79.415  82.243  1.00  0.00     0.039 C 
ATOM      8  C   UNL     1      76.979  78.785  82.917  1.00  0.00    -0.080 C 
ATOM      9  C   UNL     1      78.045  79.697  83.466  1.00  0.00     0.039 C 
ENDBRANCH   5   6
ENDBRANCH   4   5
ENDBRANCH   1   4
BRANCH   2  10
ATOM     10  C   UNL     1      72.927  72.903  83.555  1.00  0.00     0.035 C 
BRANCH  10  11
ATOM     11  C   UNL     1      73.151  72.121  82.253  1.00  0.00     0.079 C 
BRANCH  11  12
ATOM     12  C   UNL     1      73.730  70.737  82.447  1.00  0.00     0.130 C 
ATOM     13  O   UNL     1      73.042  69.774  82.143  1.00  0.00    -0.300 OA
ATOM     14  C   UNL     1      75.107  70.495  83.001  1.00  0.00     0.087 C 
ENDBRANCH  11  12
ENDBRANCH  10  11
ENDBRANCH   2  10
TORSDOF 6
ENDMDL
MODEL 3
REMARK VINA RESULT:    -3.839      2.857      7.217
REMARK INTER + INTRA:          -5.730
REMARK INTER:                  -5.286
REMARK INTRA:                  -0.444
REMARK UNBOUND:                -0.545
REMARK SMILES CC(=O)CCC=C(C)CCC=C(C)C
REMARK SMILES IDX 7 1 6 2 8 3 9 4 10 5 11 6 13 7 12 8 14 9 5 10 4 11 2 12 3 13
REMARK SMILES IDX 1 14
REMARK H PARENT
REMARK Flexibility Score: inf
ROOT
ATOM      1  C   UNL     1      74.747  74.525  83.658  1.00  0.00    -0.077 C 
ATOM      2  C   UNL     1      74.550  73.187  83.652  1.00  0.00    -0.028 C 
ATOM      3  C   UNL     1      73.628  75.496  83.954  1.00  0.00     0.039 C 
ENDROOT
BRANCH   1   4
ATOM      4  C   UNL     1      76.136  75.066  83.378  1.00  0.00     0.034 C 
BRANCH   4   5
ATOM      5  C   UNL     1      76.108  76.211  82.356  1.00  0.00     0.032 C 
BRANCH   5   6
ATOM      6  C   UNL     1      77.085  77.307  82.714  1.00  0.00    -0.028 C 
ATOM      7  C   UNL     1      75.418  79.143  82.358  1.00  0.00     0.039 C 
ATOM      8  C   UNL     1      76.777  78.623  82.758  1.00  0.00    -0.080 C 
ATOM      9  C   UNL     1      77.828  79.623  83.161  1.00  0.00     0.039 C 
ENDBRANCH   5   6
ENDBRANCH   4   5
ENDBRANCH   1   4
BRANCH   2  10
ATOM     10  C   UNL     1      73.217  72.519  83.882  1.00  0.00     0.035 C 
BRANCH  10  11
ATOM     11  C   UNL     1      72.725  71.835  82.598  1.00  0.00     0.079 C 
BRANCH  11  12
ATOM     12  C   UNL     1      73.150  70.390  82.456  1.00  0.00     0.130 C 
ATOM     13  O   UNL     1      74.345  70.141  82.410  1.00  0.00    -0.300 OA
ATOM     14  C   UNL     1      72.171  69.254  82.362  1.00  0.00     0.087 C 
ENDBRANCH  11  12
ENDBRANCH  10  11
ENDBRANCH   2  10
TORSDOF 6
ENDMDL
MODEL 4
REMARK VINA RESULT:    -3.523      3.836      7.494
REMARK INTER + INTRA:          -5.303
REMARK INTER:                  -4.671
REMARK INTRA:                  -0.632
REMARK UNBOUND:                -0.545
REMARK SMILES CC(=O)CCC=C(C)CCC=C(C)C
REMARK SMILES IDX 7 1 6 2 8 3 9 4 10 5 11 6 13 7 12 8 14 9 5 10 4 11 2 12 3 13
REMARK SMILES IDX 1 14
REMARK H PARENT
REMARK Flexibility Score: inf
ROOT
ATOM      1  C   UNL     1      73.165  72.624  82.853  1.00  0.00    -0.077 C 
ATOM      2  C   UNL     1      73.865  71.468  82.807  1.00  0.00    -0.028 C 
ATOM      3  C   UNL     1      71.785  72.698  83.463  1.00  0.00     0.039 C 
ENDROOT
BRANCH   1   4
ATOM      4  C   UNL     1      73.790  73.887  82.293  1.00  0.00     0.034 C 
BRANCH   4   5
ATOM      5  C   UNL     1      74.050  74.931  83.387  1.00  0.00     0.032 C 
BRANCH   5   6
ATOM      6  C   UNL     1      75.488  74.909  83.853  1.00  0.00    -0.028 C 
ATOM      7  C   UNL     1      76.166  76.835  82.400  1.00  0.00     0.039 C 
ATOM      8  C   UNL     1      76.437  75.783  83.448  1.00  0.00    -0.080 C 
ATOM      9  C   UNL     1      77.832  75.683  84.007  1.00  0.00     0.039 C 
ENDBRANCH   5   6
ENDBRANCH   4   5
ENDBRANCH   1   4
BRANCH   2  10
ATOM     10  C   UNL     1      73.351  70.137  83.297  1.00  0.00     0.035 C 
BRANCH  10  11
ATOM     11  C   UNL     1      72.623  69.389  82.170  1.00  0.00     0.079 C 
BRANCH  11  12
ATOM     12  C   UNL     1      71.394  68.628  82.617  1.00  0.00     0.130 C 
ATOM     13  O   UNL     1      71.470  67.413  82.715  1.00  0.00    -0.300 OA
ATOM     14  C   UNL     1      70.088  69.299  82.939  1.00  0.00     0.087 C 
ENDBRANCH  11  12
ENDBRANCH  10  11
ENDBRANCH   2  10
TORSDOF 6
ENDMDL
MODEL 5
REMARK VINA RESULT:    -3.427      1.236      1.713
REMARK INTER + INTRA:          -5.174
REMARK INTER:                  -4.657
REMARK INTRA:                  -0.517
REMARK UNBOUND:                -0.545
REMARK SMILES CC(=O)CCC=C(C)CCC=C(C)C
REMARK SMILES IDX 7 1 6 2 8 3 9 4 10 5 11 6 13 7 12 8 14 9 5 10 4 11 2 12 3 13
REMARK SMILES IDX 1 14
REMARK H PARENT
REMARK Flexibility Score: inf
ROOT
ATOM      1  C   UNL     1      74.540  73.788  82.995  1.00  0.00    -0.077 C 
ATOM      2  C   UNL     1      74.949  75.027  82.638  1.00  0.00    -0.028 C 
ATOM      3  C   UNL     1      75.192  73.027  84.125  1.00  0.00     0.039 C 
ENDROOT
BRANCH   1   4
ATOM      4  C   UNL     1      73.381  73.152  82.252  1.00  0.00     0.034 C 
BRANCH   4   5
ATOM      5  C   UNL     1      72.413  72.437  83.205  1.00  0.00     0.032 C 
BRANCH   5   6
ATOM      6  C   UNL     1      71.903  71.141  82.618  1.00  0.00    -0.028 C 
ATOM      7  C   UNL     1      73.641  69.742  83.757  1.00  0.00     0.039 C 
ATOM      8  C   UNL     1      72.420  69.922  82.889  1.00  0.00    -0.080 C 
ATOM      9  C   UNL     1      71.805  68.695  82.268  1.00  0.00     0.039 C 
ENDBRANCH   5   6
ENDBRANCH   4   5
ENDBRANCH   1   4
BRANCH   2  10
ATOM     10  C   UNL     1      76.106  75.760  83.269  1.00  0.00     0.035 C 
BRANCH  10  11
ATOM     11  C   UNL     1      76.508  76.973  82.418  1.00  0.00     0.079 C 
BRANCH  11  12
ATOM     12  C   UNL     1      75.953  78.292  82.908  1.00  0.00     0.130 C 
ATOM     13  O   UNL     1      74.845  78.299  83.422  1.00  0.00    -0.300 OA
ATOM     14  C   UNL     1      76.700  79.592  82.783  1.00  0.00     0.087 C 
ENDBRANCH  11  12
ENDBRANCH  10  11
ENDBRANCH   2  10
TORSDOF 6
ENDMDL
MODEL 6
REMARK VINA RESULT:    -3.350      3.003      7.252
REMARK INTER + INTRA:          -5.070
REMARK INTER:                  -4.503
REMARK INTRA:                  -0.567
REMARK UNBOUND:                -0.545
REMARK SMILES CC(=O)CCC=C(C)CCC=C(C)C
REMARK SMILES IDX 7 1 6 2 8 3 9 4 10 5 11 6 13 7 12 8 14 9 5 10 4 11 2 12 3 13
REMARK SMILES IDX 1 14
REMARK H PARENT
REMARK Flexibility Score: inf
ROOT
ATOM      1  C   UNL     1      74.585  73.238  83.397  1.00  0.00    -0.077 C 
ATOM      2  C   UNL     1      75.098  72.008  83.625  1.00  0.00    -0.028 C 
ATOM      3  C   UNL     1      73.421  73.457  82.459  1.00  0.00     0.039 C 
ENDROOT
BRANCH   1   4
ATOM      4  C   UNL     1      75.183  74.430  84.118  1.00  0.00     0.034 C 
BRANCH   4   5
ATOM      5  C   UNL     1      76.221  75.160  83.253  1.00  0.00     0.032 C 
BRANCH   5   6
ATOM      6  C   UNL     1      75.676  76.456  82.697  1.00  0.00    -0.028 C 
ATOM      7  C   UNL     1      77.554  77.837  83.616  1.00  0.00     0.039 C 
ATOM      8  C   UNL     1      76.285  77.657  82.819  1.00  0.00    -0.080 C 
ATOM      9  C   UNL     1      75.661  78.877  82.195  1.00  0.00     0.039 C 
ENDBRANCH   5   6
ENDBRANCH   4   5
ENDBRANCH   1   4
BRANCH   2  10
ATOM     10  C   UNL     1      74.621  70.745  82.951  1.00  0.00     0.035 C 
BRANCH  10  11
ATOM     11  C   UNL     1      73.906  69.831  83.957  1.00  0.00     0.079 C 
BRANCH  11  12
ATOM     12  C   UNL     1      72.414  69.711  83.743  1.00  0.00     0.130 C 
ATOM     13  O   UNL     1      71.727  70.712  83.881  1.00  0.00    -0.300 OA
ATOM     14  C   UNL     1      71.740  68.418  83.376  1.00  0.00     0.087 C 
ENDBRANCH  11  12
ENDBRANCH  10  11
ENDBRANCH   2  10
TORSDOF 6
ENDMDL
MODEL 7
REMARK VINA RESULT:    -3.339      2.399      4.381
REMARK INTER + INTRA:          -5.055
REMARK INTER:                  -4.674
REMARK INTRA:                  -0.381
REMARK UNBOUND:                -0.545
REMARK SMILES CC(=O)CCC=C(C)CCC=C(C)C
REMARK SMILES IDX 7 1 6 2 8 3 9 4 10 5 11 6 13 7 12 8 14 9 5 10 4 11 2 12 3 13
REMARK SMILES IDX 1 14
REMARK H PARENT
REMARK Flexibility Score: inf
ROOT
ATOM      1  C   UNL     1      72.736  71.348  82.925  1.00  0.00    -0.077 C 
ATOM      2  C   UNL     1      72.651  72.697  82.972  1.00  0.00    -0.028 C 
ATOM      3  C   UNL     1      73.915  70.643  82.298  1.00  0.00     0.039 C 
ENDROOT
BRANCH   1   4
ATOM      4  C   UNL     1      71.622  70.519  83.535  1.00  0.00     0.034 C 
BRANCH   4   5
ATOM      5  C   UNL     1      71.155  69.404  82.589  1.00  0.00     0.032 C 
BRANCH   5   6
ATOM      6  C   UNL     1      69.913  68.715  83.105  1.00  0.00    -0.028 C 
ATOM      7  C   UNL     1      71.110  66.577  83.629  1.00  0.00     0.039 C 
ATOM      8  C   UNL     1      69.887  67.461  83.611  1.00  0.00    -0.080 C 
ATOM      9  C   UNL     1      68.592  66.889  84.125  1.00  0.00     0.039 C 
ENDBRANCH   5   6
ENDBRANCH   4   5
ENDBRANCH   1   4
BRANCH   2  10
ATOM     10  C   UNL     1      73.669  73.638  82.377  1.00  0.00     0.035 C 
BRANCH  10  11
ATOM     11  C   UNL     1      74.077  74.711  83.397  1.00  0.00     0.079 C 
BRANCH  11  12
ATOM     12  C   UNL     1      75.532  75.121  83.325  1.00  0.00     0.130 C 
ATOM     13  O   UNL     1      76.334  74.532  84.034  1.00  0.00    -0.300 OA
ATOM     14  C   UNL     1      76.030  76.221  82.430  1.00  0.00     0.087 C 
ENDBRANCH  11  12
ENDBRANCH  10  11
ENDBRANCH   2  10
TORSDOF 6
ENDMDL
MODEL 8
REMARK VINA RESULT:    -3.304      3.291      7.936
REMARK INTER + INTRA:          -5.007
REMARK INTER:                  -4.676
REMARK INTRA:                  -0.331
REMARK UNBOUND:                -0.545
REMARK SMILES CC(=O)CCC=C(C)CCC=C(C)C
REMARK SMILES IDX 7 1 6 2 8 3 9 4 10 5 11 6 13 7 12 8 14 9 5 10 4 11 2 12 3 13
REMARK SMILES IDX 1 14
REMARK H PARENT
REMARK Flexibility Score: inf
ROOT
ATOM      1  C   UNL     1      76.222  76.316  83.092  1.00  0.00    -0.077 C 
ATOM      2  C   UNL     1      75.111  75.595  82.818  1.00  0.00    -0.028 C 
ATOM      3  C   UNL     1      77.369  75.742  83.890  1.00  0.00     0.039 C 
ENDROOT
BRANCH   1   4
ATOM      4  C   UNL     1      76.327  77.735  82.569  1.00  0.00     0.034 C 
BRANCH   4   5
ATOM      5  C   UNL     1      77.614  78.425  83.043  1.00  0.00     0.032 C 
BRANCH   5   6
ATOM      6  C   UNL     1      77.491  79.931  82.999  1.00  0.00    -0.028 C 
ATOM      7  C   UNL     1      79.968  80.305  83.053  1.00  0.00     0.039 C 
ATOM      8  C   UNL     1      78.540  80.784  82.962  1.00  0.00    -0.080 C 
ATOM      9  C   UNL     1      78.294  82.268  82.888  1.00  0.00     0.039 C 
ENDBRANCH   5   6
ENDBRANCH   4   5
ENDBRANCH   1   4
BRANCH   2  10
ATOM     10  C   UNL     1      74.863  74.189  83.303  1.00  0.00     0.035 C 
BRANCH  10  11
ATOM     11  C   UNL     1      73.556  73.636  82.717  1.00  0.00     0.079 C 
BRANCH  11  12
ATOM     12  C   UNL     1      73.442  72.127  82.754  1.00  0.00     0.130 C 
ATOM     13  O   UNL     1      72.402  71.616  82.369  1.00  0.00    -0.300 OA
ATOM     14  C   UNL     1      74.547  71.235  83.249  1.00  0.00     0.087 C 
ENDBRANCH  11  12
ENDBRANCH  10  11
ENDBRANCH   2  10
TORSDOF 6
ENDMDL
MODEL 9
REMARK VINA RESULT:    -3.303      3.881      8.035
REMARK INTER + INTRA:          -5.006
REMARK INTER:                  -4.618
REMARK INTRA:                  -0.388
REMARK UNBOUND:                -0.545
REMARK SMILES CC(=O)CCC=C(C)CCC=C(C)C
REMARK SMILES IDX 7 1 6 2 8 3 9 4 10 5 11 6 13 7 12 8 14 9 5 10 4 11 2 12 3 13
REMARK SMILES IDX 1 14
REMARK H PARENT
REMARK Flexibility Score: inf
ROOT
ATOM      1  C   UNL     1      73.413  72.265  82.935  1.00  0.00    -0.077 C 
ATOM      2  C   UNL     1      72.219  71.631  82.957  1.00  0.00    -0.028 C 
ATOM      3  C   UNL     1      74.669  71.622  83.476  1.00  0.00     0.039 C 
ENDROOT
BRANCH   1   4
ATOM      4  C   UNL     1      73.498  73.655  82.336  1.00  0.00     0.034 C 
BRANCH   4   5
ATOM      5  C   UNL     1      73.980  74.692  83.360  1.00  0.00     0.032 C 
BRANCH   5   6
ATOM      6  C   UNL     1      75.359  75.212  83.026  1.00  0.00    -0.028 C 
ATOM      7  C   UNL     1      74.828  77.560  83.721  1.00  0.00     0.039 C 
ATOM      8  C   UNL     1      75.764  76.487  83.220  1.00  0.00    -0.080 C 
ATOM      9  C   UNL     1      77.177  76.883  82.877  1.00  0.00     0.039 C 
ENDBRANCH   5   6
ENDBRANCH   4   5
ENDBRANCH   1   4
BRANCH   2  10
ATOM     10  C   UNL     1      71.988  70.264  83.552  1.00  0.00     0.035 C 
BRANCH  10  11
ATOM     11  C   UNL     1      71.411  69.305  82.500  1.00  0.00     0.079 C 
BRANCH  11  12
ATOM     12  C   UNL     1      70.622  68.148  83.074  1.00  0.00     0.130 C 
ATOM     13  O   UNL     1      69.510  68.374  83.526  1.00  0.00    -0.300 OA
ATOM     14  C   UNL     1      71.149  66.741  83.118  1.00  0.00     0.087 C 
ENDBRANCH  11  12
ENDBRANCH  10  11
ENDBRANCH   2  10
TORSDOF 6
ENDMDL
