MODEL 1
REMARK VINA RESULT:    -3.636      0.000      0.000
REMARK INTER + INTRA:          -5.349
REMARK INTER:                  -5.124
REMARK INTRA:                  -0.225
REMARK UNBOUND:                -0.225
REMARK SMILES CCCCCCCCC(=O)[O-]
REMARK SMILES IDX 6 1 7 2 8 3 9 4 10 5 11 6 5 7 4 8 3 9 2 10 1 11
REMARK H PARENT
REMARK Flexibility Score: inf
ROOT
ATOM      1  C   UNL     1       8.480  -5.858  -7.065  1.00  0.00     0.000 C 
ENDROOT
BRANCH   1   2
ATOM      2  C   UNL     1       9.800  -5.138  -6.753  1.00  0.00     0.006 C 
BRANCH   2   3
ATOM      3  C   UNL     1      10.599  -5.843  -5.648  1.00  0.00     0.053 C 
BRANCH   3   4
ATOM      4  C   UNL     1      10.825  -4.950  -4.467  1.00  0.00     0.041 C 
ATOM      5  O   UNL     1      10.565  -5.359  -3.305  1.00  0.00    -0.550 OA
ATOM      6  O   UNL     1      11.290  -3.654  -4.653  1.00  0.00    -0.550 OA
ENDBRANCH   3   4
ENDBRANCH   2   3
ENDBRANCH   1   2
BRANCH   1   7
ATOM      7  C   UNL     1       7.450  -4.883  -7.654  1.00  0.00     0.000 C 
BRANCH   7   8
ATOM      8  C   UNL     1       7.626  -4.670  -9.170  1.00  0.00    -0.000 C 
BRANCH   8   9
ATOM      9  C   UNL     1       6.426  -4.014  -9.882  1.00  0.00    -0.000 C 
BRANCH   9  10
ATOM     10  C   UNL     1       5.187  -3.792  -8.998  1.00  0.00    -0.003 C 
ATOM     11  C   UNL     1       3.874  -4.001  -9.750  1.00  0.00     0.004 C 
ENDBRANCH   9  10
ENDBRANCH   8   9
ENDBRANCH   7   8
ENDBRANCH   1   7
TORSDOF 7
ENDMDL
MODEL 2
REMARK VINA RESULT:    -3.537      0.929      1.780
REMARK INTER + INTRA:          -5.210
REMARK INTER:                  -4.757
REMARK INTRA:                  -0.452
REMARK UNBOUND:                -0.225
REMARK SMILES CCCCCCCCC(=O)[O-]
REMARK SMILES IDX 6 1 7 2 8 3 9 4 10 5 11 6 5 7 4 8 3 9 2 10 1 11
REMARK H PARENT
REMARK Flexibility Score: inf
ROOT
ATOM      1  C   UNL     1       9.511  -7.092  -6.249  1.00  0.00     0.000 C 
ENDROOT
BRANCH   1   2
ATOM      2  C   UNL     1      10.869  -6.427  -6.517  1.00  0.00     0.006 C 
BRANCH   2   3
ATOM      3  C   UNL     1      11.655  -6.170  -5.224  1.00  0.00     0.053 C 
BRANCH   3   4
ATOM      4  C   UNL     1      11.020  -5.099  -4.390  1.00  0.00     0.041 C 
ATOM      5  O   UNL     1      11.001  -3.908  -4.796  1.00  0.00    -0.550 OA
ATOM      6  O   UNL     1      10.478  -5.413  -3.150  1.00  0.00    -0.550 OA
ENDBRANCH   3   4
ENDBRANCH   2   3
ENDBRANCH   1   2
BRANCH   1   7
ATOM      7  C   UNL     1       8.357  -6.181  -6.693  1.00  0.00     0.000 C 
BRANCH   7   8
ATOM      8  C   UNL     1       8.833  -4.977  -7.527  1.00  0.00    -0.000 C 
BRANCH   8   9
ATOM      9  C   UNL     1       7.840  -4.491  -8.601  1.00  0.00    -0.000 C 
BRANCH   9  10
ATOM     10  C   UNL     1       6.377  -4.388  -8.134  1.00  0.00    -0.003 C 
ATOM     11  C   UNL     1       5.427  -3.944  -9.245  1.00  0.00     0.004 C 
ENDBRANCH   9  10
ENDBRANCH   8   9
ENDBRANCH   7   8
ENDBRANCH   1   7
TORSDOF 7
ENDMDL
MODEL 3
REMARK VINA RESULT:    -3.341      3.888      6.588
REMARK INTER + INTRA:          -4.933
REMARK INTER:                  -4.718
REMARK INTRA:                  -0.215
REMARK UNBOUND:                -0.225
REMARK SMILES CCCCCCCCC(=O)[O-]
REMARK SMILES IDX 6 1 7 2 8 3 9 4 10 5 11 6 5 7 4 8 3 9 2 10 1 11
REMARK H PARENT
REMARK Flexibility Score: inf
ROOT
ATOM      1  C   UNL     1       6.945  -4.398  -8.139  1.00  0.00     0.000 C 
ENDROOT
BRANCH   1   2
ATOM      2  C   UNL     1       6.497  -4.351  -9.607  1.00  0.00     0.006 C 
BRANCH   2   3
ATOM      3  C   UNL     1       5.641  -3.115  -9.914  1.00  0.00     0.053 C 
BRANCH   3   4
ATOM      4  C   UNL     1       4.256  -3.246  -9.359  1.00  0.00     0.041 C 
ATOM      5  O   UNL     1       3.849  -2.444  -8.477  1.00  0.00    -0.550 OA
ATOM      6  O   UNL     1       3.427  -4.273  -9.790  1.00  0.00    -0.550 OA
ENDBRANCH   3   4
ENDBRANCH   2   3
ENDBRANCH   1   2
BRANCH   1   7
ATOM      7  C   UNL     1       8.249  -5.196  -7.989  1.00  0.00     0.000 C 
BRANCH   7   8
ATOM      8  C   UNL     1       8.331  -5.962  -6.655  1.00  0.00    -0.000 C 
BRANCH   8   9
ATOM      9  C   UNL     1       9.760  -6.236  -6.145  1.00  0.00    -0.000 C 
BRANCH   9  10
ATOM     10  C   UNL     1      10.529  -4.992  -5.669  1.00  0.00    -0.003 C 
ATOM     11  C   UNL     1      10.999  -5.101  -4.219  1.00  0.00     0.004 C 
ENDBRANCH   9  10
ENDBRANCH   8   9
ENDBRANCH   7   8
ENDBRANCH   1   7
TORSDOF 7
ENDMDL
MODEL 4
REMARK VINA RESULT:    -3.273      3.219      6.076
REMARK INTER + INTRA:          -4.838
REMARK INTER:                  -4.417
REMARK INTRA:                  -0.421
REMARK UNBOUND:                -0.225
REMARK SMILES CCCCCCCCC(=O)[O-]
REMARK SMILES IDX 6 1 7 2 8 3 9 4 10 5 11 6 5 7 4 8 3 9 2 10 1 11
REMARK H PARENT
REMARK Flexibility Score: inf
ROOT
ATOM      1  C   UNL     1       8.816  -6.717  -6.395  1.00  0.00     0.000 C 
ENDROOT
BRANCH   1   2
ATOM      2  C   UNL     1       8.637  -6.276  -7.855  1.00  0.00     0.006 C 
BRANCH   2   3
ATOM      3  C   UNL     1       8.411  -4.763  -7.981  1.00  0.00     0.053 C 
BRANCH   3   4
ATOM      4  C   UNL     1       7.210  -4.448  -8.821  1.00  0.00     0.041 C 
ATOM      5  O   UNL     1       7.325  -4.325 -10.069  1.00  0.00    -0.550 OA
ATOM      6  O   UNL     1       5.973  -4.257  -8.221  1.00  0.00    -0.550 OA
ENDBRANCH   3   4
ENDBRANCH   2   3
ENDBRANCH   1   2
BRANCH   1   7
ATOM      7  C   UNL     1      10.207  -7.329  -6.174  1.00  0.00     0.000 C 
BRANCH   7   8
ATOM      8  C   UNL     1      11.026  -6.582  -5.104  1.00  0.00    -0.000 C 
BRANCH   8   9
ATOM      9  C   UNL     1      11.052  -5.048  -5.252  1.00  0.00    -0.000 C 
BRANCH   9  10
ATOM     10  C   UNL     1      11.371  -4.275  -3.960  1.00  0.00    -0.003 C 
ATOM     11  C   UNL     1      11.109  -5.095  -2.697  1.00  0.00     0.004 C 
ENDBRANCH   9  10
ENDBRANCH   8   9
ENDBRANCH   7   8
ENDBRANCH   1   7
TORSDOF 7
ENDMDL
MODEL 5
REMARK VINA RESULT:    -3.106     14.146     15.335
REMARK INTER + INTRA:          -4.603
REMARK INTER:                  -3.865
REMARK INTRA:                  -0.738
REMARK UNBOUND:                -0.225
REMARK SMILES CCCCCCCCC(=O)[O-]
REMARK SMILES IDX 6 1 7 2 8 3 9 4 10 5 11 6 5 7 4 8 3 9 2 10 1 11
REMARK H PARENT
REMARK Flexibility Score: inf
ROOT
ATOM      1  C   UNL     1      -6.267  -4.692  -4.777  1.00  0.00     0.000 C 
ENDROOT
BRANCH   1   2
ATOM      2  C   UNL     1      -6.231  -6.004  -5.573  1.00  0.00     0.006 C 
BRANCH   2   3
ATOM      3  C   UNL     1      -5.216  -5.959  -6.724  1.00  0.00     0.053 C 
BRANCH   3   4
ATOM      4  C   UNL     1      -5.743  -6.627  -7.957  1.00  0.00     0.041 C 
ATOM      5  O   UNL     1      -5.137  -7.615  -8.449  1.00  0.00    -0.550 OA
ATOM      6  O   UNL     1      -6.882  -6.137  -8.581  1.00  0.00    -0.550 OA
ENDBRANCH   3   4
ENDBRANCH   2   3
ENDBRANCH   1   2
BRANCH   1   7
ATOM      7  C   UNL     1      -7.673  -4.076  -4.797  1.00  0.00     0.000 C 
BRANCH   7   8
ATOM      8  C   UNL     1      -8.072  -3.542  -6.185  1.00  0.00    -0.000 C 
BRANCH   8   9
ATOM      9  C   UNL     1      -7.080  -2.542  -6.812  1.00  0.00    -0.000 C 
BRANCH   9  10
ATOM     10  C   UNL     1      -7.049  -2.536  -8.351  1.00  0.00    -0.003 C 
ATOM     11  C   UNL     1      -5.669  -2.866  -8.920  1.00  0.00     0.004 C 
ENDBRANCH   9  10
ENDBRANCH   8   9
ENDBRANCH   7   8
ENDBRANCH   1   7
TORSDOF 7
ENDMDL
MODEL 6
REMARK VINA RESULT:    -3.059     13.734     15.059
REMARK INTER + INTRA:          -4.537
REMARK INTER:                  -3.869
REMARK INTRA:                  -0.668
REMARK UNBOUND:                -0.225
REMARK SMILES CCCCCCCCC(=O)[O-]
REMARK SMILES IDX 6 1 7 2 8 3 9 4 10 5 11 6 5 7 4 8 3 9 2 10 1 11
REMARK H PARENT
REMARK Flexibility Score: inf
ROOT
ATOM      1  C   UNL     1      -7.051  -4.393  -5.286  1.00  0.00     0.000 C 
ENDROOT
BRANCH   1   2
ATOM      2  C   UNL     1      -7.300  -5.729  -6.002  1.00  0.00     0.006 C 
BRANCH   2   3
ATOM      3  C   UNL     1      -6.216  -6.768  -5.685  1.00  0.00     0.053 C 
BRANCH   3   4
ATOM      4  C   UNL     1      -5.046  -6.654  -6.613  1.00  0.00     0.041 C 
ATOM      5  O   UNL     1      -4.061  -5.933  -6.304  1.00  0.00    -0.550 OA
ATOM      6  O   UNL     1      -5.058  -7.317  -7.833  1.00  0.00    -0.550 OA
ENDBRANCH   3   4
ENDBRANCH   2   3
ENDBRANCH   1   2
BRANCH   1   7
ATOM      7  C   UNL     1      -8.014  -3.310  -5.796  1.00  0.00     0.000 C 
BRANCH   7   8
ATOM      8  C   UNL     1      -7.289  -2.151  -6.504  1.00  0.00    -0.000 C 
BRANCH   8   9
ATOM      9  C   UNL     1      -7.178  -2.286  -8.037  1.00  0.00    -0.000 C 
BRANCH   9  10
ATOM     10  C   UNL     1      -5.898  -2.978  -8.537  1.00  0.00    -0.003 C 
ATOM     11  C   UNL     1      -6.180  -4.278  -9.289  1.00  0.00     0.004 C 
ENDBRANCH   9  10
ENDBRANCH   8   9
ENDBRANCH   7   8
ENDBRANCH   1   7
TORSDOF 7
ENDMDL
MODEL 7
REMARK VINA RESULT:    -2.985     14.230     15.647
REMARK INTER + INTRA:          -4.432
REMARK INTER:                  -3.704
REMARK INTRA:                  -0.728
REMARK UNBOUND:                -0.225
REMARK SMILES CCCCCCCCC(=O)[O-]
REMARK SMILES IDX 6 1 7 2 8 3 9 4 10 5 11 6 5 7 4 8 3 9 2 10 1 11
REMARK H PARENT
REMARK Flexibility Score: inf
ROOT
ATOM      1  C   UNL     1      -7.231  -6.054  -5.502  1.00  0.00     0.000 C 
ENDROOT
BRANCH   1   2
ATOM      2  C   UNL     1      -7.997  -4.879  -6.129  1.00  0.00     0.006 C 
BRANCH   2   3
ATOM      3  C   UNL     1      -7.706  -3.550  -5.417  1.00  0.00     0.053 C 
BRANCH   3   4
ATOM      4  C   UNL     1      -7.425  -2.447  -6.391  1.00  0.00     0.041 C 
ATOM      5  O   UNL     1      -6.696  -2.660  -7.395  1.00  0.00    -0.550 OA
ATOM      6  O   UNL     1      -7.940  -1.177  -6.171  1.00  0.00    -0.550 OA
ENDBRANCH   3   4
ENDBRANCH   2   3
ENDBRANCH   1   2
BRANCH   1   7
ATOM      7  C   UNL     1      -5.730  -5.744  -5.411  1.00  0.00     0.000 C 
BRANCH   7   8
ATOM      8  C   UNL     1      -4.984  -6.010  -6.732  1.00  0.00    -0.000 C 
BRANCH   8   9
ATOM      9  C   UNL     1      -5.359  -7.326  -7.443  1.00  0.00    -0.000 C 
BRANCH   9  10
ATOM     10  C   UNL     1      -6.064  -7.153  -8.799  1.00  0.00    -0.003 C 
ATOM     11  C   UNL     1      -6.118  -5.697  -9.261  1.00  0.00     0.004 C 
ENDBRANCH   9  10
ENDBRANCH   8   9
ENDBRANCH   7   8
ENDBRANCH   1   7
TORSDOF 7
ENDMDL
MODEL 8
REMARK VINA RESULT:    -2.863     13.960     15.249
REMARK INTER + INTRA:          -4.260
REMARK INTER:                  -3.510
REMARK INTRA:                  -0.750
REMARK UNBOUND:                -0.225
REMARK SMILES CCCCCCCCC(=O)[O-]
REMARK SMILES IDX 6 1 7 2 8 3 9 4 10 5 11 6 5 7 4 8 3 9 2 10 1 11
REMARK H PARENT
REMARK Flexibility Score: inf
ROOT
ATOM      1  C   UNL     1      -5.988  -5.024  -8.731  1.00  0.00     0.000 C 
ENDROOT
BRANCH   1   2
ATOM      2  C   UNL     1      -6.076  -6.247  -7.807  1.00  0.00     0.006 C 
BRANCH   2   3
ATOM      3  C   UNL     1      -5.213  -6.088  -6.548  1.00  0.00     0.053 C 
BRANCH   3   4
ATOM      4  C   UNL     1      -5.657  -7.003  -5.448  1.00  0.00     0.041 C 
ATOM      5  O   UNL     1      -6.863  -7.357  -5.368  1.00  0.00    -0.550 OA
ATOM      6  O   UNL     1      -4.747  -7.437  -4.493  1.00  0.00    -0.550 OA
ENDBRANCH   3   4
ENDBRANCH   2   3
ENDBRANCH   1   2
BRANCH   1   7
ATOM      7  C   UNL     1      -7.143  -4.048  -8.461  1.00  0.00     0.000 C 
BRANCH   7   8
ATOM      8  C   UNL     1      -6.687  -2.767  -7.738  1.00  0.00    -0.000 C 
BRANCH   8   9
ATOM      9  C   UNL     1      -7.426  -2.461  -6.419  1.00  0.00    -0.000 C 
BRANCH   9  10
ATOM     10  C   UNL     1      -8.125  -3.669  -5.771  1.00  0.00    -0.003 C 
ATOM     11  C   UNL     1      -7.605  -3.975  -4.367  1.00  0.00     0.004 C 
ENDBRANCH   9  10
ENDBRANCH   8   9
ENDBRANCH   7   8
ENDBRANCH   1   7
TORSDOF 7
ENDMDL
