MODEL 1
REMARK VINA RESULT:    -6.754      0.000      0.000
REMARK INTER + INTRA:         -11.301
REMARK INTER:                  -9.913
REMARK INTRA:                  -1.388
REMARK UNBOUND:                -1.388
REMARK SMILES Cc1cc2c(C(C)C)c(O)c(O)c(C=O)c2c(O)c1-c1c(C)cc2c(C(C)C)c(O)c(O)c(C=O)c2c1O
REMARK SMILES IDX 1 1 2 2 3 3 4 4 16 5 13 6 11 7 9 8 5 9 17 10 19 11 20 12
REMARK SMILES IDX 37 13 21 14 36 15 23 16 22 17 24 18 33 19 25 20 31 21 29 22
REMARK SMILES IDX 38 23 34 25 35 26 26 27 27 28 28 29 32 30 30 32 18 34 6 36
REMARK SMILES IDX 7 37 8 38 14 39 15 40 10 41 12 43
REMARK H PARENT 38 24 32 31 30 33 18 35 10 42 12 44
REMARK Flexibility Score: inf
ROOT
ATOM      1  C   UNL     1       3.052 -13.245   0.723  1.00  0.00     0.045 C 
ATOM      2  C   UNL     1       2.316 -14.395   1.364  1.00  0.00    -0.039 A 
ATOM      3  C   UNL     1       2.170 -15.595   0.665  1.00  0.00     0.013 A 
ATOM      4  C   UNL     1       1.473 -16.694   1.212  1.00  0.00    -0.006 A 
ATOM      5  C   UNL     1       0.760 -16.507   2.431  1.00  0.00     0.039 A 
ATOM      6  C   UNL     1      -0.153 -17.513   2.857  1.00  0.00     0.072 A 
ATOM      7  C   UNL     1      -0.248 -18.725   2.152  1.00  0.00     0.169 A 
ATOM      8  C   UNL     1       0.516 -18.934   0.986  1.00  0.00     0.162 A 
ATOM      9  C   UNL     1       1.446 -17.962   0.555  1.00  0.00     0.008 A 
ATOM     10  C   UNL     1       1.018 -15.337   3.201  1.00  0.00     0.132 A 
ATOM     11  C   UNL     1       1.775 -14.278   2.656  1.00  0.00     0.031 A 
ENDROOT
BRANCH  11  12
ATOM     12  C   UNL     1       1.990 -13.035   3.439  1.00  0.00     0.031 A 
ATOM     13  C   UNL     1       3.074 -12.941   4.339  1.00  0.00     0.132 A 
ATOM     14  C   UNL     1       1.125 -11.942   3.266  1.00  0.00    -0.039 A 
ATOM     15  C   UNL     1       3.317 -11.725   5.046  1.00  0.00     0.039 A 
ATOM     16  C   UNL     1       1.300 -10.798   4.046  1.00  0.00     0.013 A 
ATOM     17  C   UNL     1       0.009 -11.986   2.251  1.00  0.00     0.045 C 
ATOM     18  C   UNL     1       2.332 -10.695   4.998  1.00  0.00    -0.006 A 
ATOM     19  C   UNL     1       4.497 -11.517   5.817  1.00  0.00     0.072 A 
ATOM     20  C   UNL     1       2.422  -9.573   5.879  1.00  0.00     0.008 A 
ATOM     21  C   UNL     1       4.648 -10.330   6.555  1.00  0.00     0.169 A 
ATOM     22  C   UNL     1       3.638  -9.361   6.573  1.00  0.00     0.162 A 
BRANCH  13  23
ATOM     23  O   UNL     1       3.880 -14.062   4.560  1.00  0.00    -0.507 OA
ATOM     24  H   UNL     1       3.848 -14.900   3.994  1.00  0.00     0.293 HD
ENDBRANCH  13  23
BRANCH  19  25
ATOM     25  C   UNL     1       5.657 -12.441   5.758  1.00  0.00     0.264 C 
ATOM     26  O   UNL     1       5.946 -13.187   6.732  1.00  0.00    -0.298 OA
ENDBRANCH  19  25
BRANCH  20  27
ATOM     27  C   UNL     1       1.231  -8.645   6.196  1.00  0.00     0.017 C 
ATOM     28  C   UNL     1       1.443  -7.173   5.796  1.00  0.00     0.012 C 
ATOM     29  C   UNL     1       0.722  -8.804   7.634  1.00  0.00     0.012 C 
ENDBRANCH  20  27
BRANCH  21  30
ATOM     30  O   UNL     1       5.836 -10.102   7.258  1.00  0.00    -0.504 OA
ATOM     31  H   UNL     1       6.170  -9.175   7.490  1.00  0.00     0.293 HD
ENDBRANCH  21  30
BRANCH  22  32
ATOM     32  O   UNL     1       3.896  -8.175   7.269  1.00  0.00    -0.504 OA
ATOM     33  H   UNL     1       4.798  -7.718   7.294  1.00  0.00     0.293 HD
ENDBRANCH  22  32
ENDBRANCH  11  12
BRANCH  10  34
ATOM     34  O   UNL     1       0.564 -15.251   4.521  1.00  0.00    -0.507 OA
ATOM     35  H   UNL     1       0.972 -14.645   5.219  1.00  0.00     0.293 HD
ENDBRANCH  10  34
BRANCH   9  36
ATOM     36  C   UNL     1       2.409 -18.286  -0.602  1.00  0.00     0.017 C 
ATOM     37  C   UNL     1       1.751 -18.015  -1.959  1.00  0.00     0.012 C 
ATOM     38  C   UNL     1       2.999 -19.708  -0.537  1.00  0.00     0.012 C 
ENDBRANCH   9  36
BRANCH   6  39
ATOM     39  C   UNL     1      -1.125 -17.309   3.954  1.00  0.00     0.264 C 
ATOM     40  O   UNL     1      -0.937 -17.825   5.089  1.00  0.00    -0.298 OA
ENDBRANCH   6  39
BRANCH   8  41
ATOM     41  O   UNL     1       0.340 -20.087   0.213  1.00  0.00    -0.504 OA
ATOM     42  H   UNL     1       0.655 -20.197  -0.740  1.00  0.00     0.293 HD
ENDBRANCH   8  41
BRANCH   7  43
ATOM     43  O   UNL     1      -1.123 -19.705   2.641  1.00  0.00    -0.504 OA
ATOM     44  H   UNL     1      -0.881 -20.677   2.765  1.00  0.00     0.293 HD
ENDBRANCH   7  43
TORSDOF 11
ENDMDL
MODEL 2
REMARK VINA RESULT:    -5.823      0.234      9.175
REMARK INTER + INTRA:          -9.935
REMARK INTER:                  -8.831
REMARK INTRA:                  -1.103
REMARK UNBOUND:                -1.388
REMARK SMILES Cc1cc2c(C(C)C)c(O)c(O)c(C=O)c2c(O)c1-c1c(C)cc2c(C(C)C)c(O)c(O)c(C=O)c2c1O
REMARK SMILES IDX 1 1 2 2 3 3 4 4 16 5 13 6 11 7 9 8 5 9 17 10 19 11 20 12
REMARK SMILES IDX 37 13 21 14 36 15 23 16 22 17 24 18 33 19 25 20 31 21 29 22
REMARK SMILES IDX 38 23 34 25 35 26 26 27 27 28 28 29 32 30 30 32 18 34 6 36
REMARK SMILES IDX 7 37 8 38 14 39 15 40 10 41 12 43
REMARK H PARENT 38 24 32 31 30 33 18 35 10 42 12 44
REMARK Flexibility Score: inf
ROOT
ATOM      1  C   UNL     1       0.128 -12.032   2.040  1.00  0.00     0.045 C 
ATOM      2  C   UNL     1       1.178 -12.006   3.123  1.00  0.00    -0.039 A 
ATOM      3  C   UNL     1       1.314 -10.869   3.923  1.00  0.00     0.013 A 
ATOM      4  C   UNL     1       2.293 -10.786   4.937  1.00  0.00    -0.006 A 
ATOM      5  C   UNL     1       3.269 -11.820   5.023  1.00  0.00     0.039 A 
ATOM      6  C   UNL     1       4.407 -11.625   5.857  1.00  0.00     0.072 A 
ATOM      7  C   UNL     1       4.495 -10.488   6.677  1.00  0.00     0.169 A 
ATOM      8  C   UNL     1       3.488  -9.503   6.643  1.00  0.00     0.162 A 
ATOM      9  C   UNL     1       2.338  -9.682   5.842  1.00  0.00     0.008 A 
ATOM     10  C   UNL     1       3.051 -13.028   4.302  1.00  0.00     0.132 A 
ATOM     11  C   UNL     1       2.022 -13.109   3.341  1.00  0.00     0.031 A 
ENDROOT
BRANCH  11  12
ATOM     12  C   UNL     1       1.835 -14.351   2.549  1.00  0.00     0.031 A 
ATOM     13  C   UNL     1       1.079 -15.421   3.073  1.00  0.00     0.132 A 
ATOM     14  C   UNL     1       2.396 -14.451   1.265  1.00  0.00    -0.039 A 
ATOM     15  C   UNL     1       0.848 -16.591   2.289  1.00  0.00     0.039 A 
ATOM     16  C   UNL     1       2.264 -15.642   0.550  1.00  0.00     0.013 A 
ATOM     17  C   UNL     1       3.138 -13.291   0.648  1.00  0.00     0.045 C 
ATOM     18  C   UNL     1       1.571 -16.751   1.069  1.00  0.00    -0.006 A 
ATOM     19  C   UNL     1      -0.058 -17.613   2.694  1.00  0.00     0.072 A 
ATOM     20  C   UNL     1       1.553 -18.005   0.384  1.00  0.00     0.008 A 
ATOM     21  C   UNL     1      -0.187 -18.778   1.919  1.00  0.00     0.169 A 
ATOM     22  C   UNL     1       0.589 -18.967   0.770  1.00  0.00     0.162 A 
BRANCH  13  23
ATOM     23  O   UNL     1       0.593 -15.341   4.382  1.00  0.00    -0.507 OA
ATOM     24  H   UNL     1       1.182 -15.375   5.205  1.00  0.00     0.293 HD
ENDBRANCH  13  23
BRANCH  19  25
ATOM     25  C   UNL     1      -0.995 -17.437   3.832  1.00  0.00     0.264 C 
ATOM     26  O   UNL     1      -0.792 -18.006   4.937  1.00  0.00    -0.298 OA
ENDBRANCH  19  25
BRANCH  20  27
ATOM     27  C   UNL     1       2.597 -18.406  -0.679  1.00  0.00     0.017 C 
ATOM     28  C   UNL     1       2.210 -18.043  -2.125  1.00  0.00     0.012 C 
ATOM     29  C   UNL     1       3.061 -19.861  -0.535  1.00  0.00     0.012 C 
ENDBRANCH  20  27
BRANCH  21  30
ATOM     30  O   UNL     1      -1.125 -19.749   2.286  1.00  0.00    -0.504 OA
ATOM     31  H   UNL     1      -1.000 -20.364   3.082  1.00  0.00     0.293 HD
ENDBRANCH  21  30
BRANCH  22  32
ATOM     32  O   UNL     1       0.347 -20.119   0.012  1.00  0.00    -0.504 OA
ATOM     33  H   UNL     1       0.784 -21.014   0.187  1.00  0.00     0.293 HD
ENDBRANCH  22  32
ENDBRANCH  11  12
BRANCH  10  34
ATOM     34  O   UNL     1       3.824 -14.161   4.580  1.00  0.00    -0.507 OA
ATOM     35  H   UNL     1       3.595 -15.092   4.261  1.00  0.00     0.293 HD
ENDBRANCH  10  34
BRANCH   9  36
ATOM     36  C   UNL     1       1.161  -8.696   5.963  1.00  0.00     0.017 C 
ATOM     37  C   UNL     1       1.595  -7.273   5.597  1.00  0.00     0.012 C 
ATOM     38  C   UNL     1       0.459  -8.735   7.333  1.00  0.00     0.012 C 
ENDBRANCH   9  36
BRANCH   6  39
ATOM     39  C   UNL     1       5.595 -12.507   5.821  1.00  0.00     0.264 C 
ATOM     40  O   UNL     1       5.717 -13.461   6.636  1.00  0.00    -0.298 OA
ENDBRANCH   6  39
BRANCH   8  41
ATOM     41  O   UNL     1       3.625  -8.313   7.366  1.00  0.00    -0.504 OA
ATOM     42  H   UNL     1       3.584  -8.241   8.372  1.00  0.00     0.293 HD
ENDBRANCH   8  41
BRANCH   7  43
ATOM     43  O   UNL     1       5.609 -10.367   7.519  1.00  0.00    -0.504 OA
ATOM     44  H   UNL     1       5.883 -11.052   8.208  1.00  0.00     0.293 HD
ENDBRANCH   7  43
TORSDOF 11
ENDMDL
MODEL 3
REMARK VINA RESULT:    -5.674      1.750      3.189
REMARK INTER + INTRA:          -9.716
REMARK INTER:                  -8.245
REMARK INTRA:                  -1.471
REMARK UNBOUND:                -1.388
REMARK SMILES Cc1cc2c(C(C)C)c(O)c(O)c(C=O)c2c(O)c1-c1c(C)cc2c(C(C)C)c(O)c(O)c(C=O)c2c1O
REMARK SMILES IDX 1 1 2 2 3 3 4 4 16 5 13 6 11 7 9 8 5 9 17 10 19 11 20 12
REMARK SMILES IDX 37 13 21 14 36 15 23 16 22 17 24 18 33 19 25 20 31 21 29 22
REMARK SMILES IDX 38 23 34 25 35 26 26 27 27 28 28 29 32 30 30 32 18 34 6 36
REMARK SMILES IDX 7 37 8 38 14 39 15 40 10 41 12 43
REMARK H PARENT 38 24 32 31 30 33 18 35 10 42 12 44
REMARK Flexibility Score: inf
ROOT
ATOM      1  C   UNL     1       0.092 -14.604   4.236  1.00  0.00     0.045 C 
ATOM      2  C   UNL     1       0.897 -14.821   2.980  1.00  0.00    -0.039 A 
ATOM      3  C   UNL     1       0.653 -15.947   2.190  1.00  0.00     0.013 A 
ATOM      4  C   UNL     1       1.392 -16.206   1.015  1.00  0.00    -0.006 A 
ATOM      5  C   UNL     1       2.523 -15.389   0.731  1.00  0.00     0.039 A 
ATOM      6  C   UNL     1       3.425 -15.793  -0.294  1.00  0.00     0.072 A 
ATOM      7  C   UNL     1       3.129 -16.909  -1.094  1.00  0.00     0.169 A 
ATOM      8  C   UNL     1       1.969 -17.672  -0.856  1.00  0.00     0.162 A 
ATOM      9  C   UNL     1       1.046 -17.280   0.139  1.00  0.00     0.008 A 
ATOM     10  C   UNL     1       2.688 -14.174   1.456  1.00  0.00     0.132 A 
ATOM     11  C   UNL     1       1.891 -13.906   2.589  1.00  0.00     0.031 A 
ENDROOT
BRANCH  11  12
ATOM     12  C   UNL     1       2.107 -12.667   3.377  1.00  0.00     0.031 A 
ATOM     13  C   UNL     1       3.130 -12.611   4.348  1.00  0.00     0.132 A 
ATOM     14  C   UNL     1       1.304 -11.539   3.138  1.00  0.00    -0.039 A 
ATOM     15  C   UNL     1       3.378 -11.401   5.064  1.00  0.00     0.039 A 
ATOM     16  C   UNL     1       1.476 -10.397   3.921  1.00  0.00     0.013 A 
ATOM     17  C   UNL     1       0.260 -11.544   2.049  1.00  0.00     0.045 C 
ATOM     18  C   UNL     1       2.444 -10.329   4.941  1.00  0.00    -0.006 A 
ATOM     19  C   UNL     1       4.510 -11.237   5.912  1.00  0.00     0.072 A 
ATOM     20  C   UNL     1       2.523  -9.205   5.819  1.00  0.00     0.008 A 
ATOM     21  C   UNL     1       4.662 -10.051   6.652  1.00  0.00     0.169 A 
ATOM     22  C   UNL     1       3.697  -9.039   6.594  1.00  0.00     0.162 A 
BRANCH  13  23
ATOM     23  O   UNL     1       3.869 -13.764   4.632  1.00  0.00    -0.507 OA
ATOM     24  H   UNL     1       3.485 -14.700   4.609  1.00  0.00     0.293 HD
ENDBRANCH  13  23
BRANCH  19  25
ATOM     25  C   UNL     1       5.630 -12.211   5.939  1.00  0.00     0.264 C 
ATOM     26  O   UNL     1       5.719 -13.076   6.851  1.00  0.00    -0.298 OA
ENDBRANCH  19  25
BRANCH  20  27
ATOM     27  C   UNL     1       1.355  -8.222   6.048  1.00  0.00     0.017 C 
ATOM     28  C   UNL     1       1.737  -6.735   5.928  1.00  0.00     0.012 C 
ATOM     29  C   UNL     1       0.561  -8.532   7.323  1.00  0.00     0.012 C 
ENDBRANCH  20  27
BRANCH  21  30
ATOM     30  O   UNL     1       5.808  -9.868   7.433  1.00  0.00    -0.504 OA
ATOM     31  H   UNL     1       5.820  -9.296   8.268  1.00  0.00     0.293 HD
ENDBRANCH  21  30
BRANCH  22  32
ATOM     32  O   UNL     1       3.958  -7.858   7.299  1.00  0.00    -0.504 OA
ATOM     33  H   UNL     1       3.885  -6.932   6.898  1.00  0.00     0.293 HD
ENDBRANCH  22  32
ENDBRANCH  11  12
BRANCH  10  34
ATOM     34  O   UNL     1       3.608 -13.215   1.020  1.00  0.00    -0.507 OA
ATOM     35  H   UNL     1       4.474 -13.437   0.549  1.00  0.00     0.293 HD
ENDBRANCH  10  34
BRANCH   9  36
ATOM     36  C   UNL     1      -0.307 -18.006   0.256  1.00  0.00     0.017 C 
ATOM     37  C   UNL     1      -0.124 -19.424   0.807  1.00  0.00     0.012 C 
ATOM     38  C   UNL     1      -1.122 -18.012  -1.051  1.00  0.00     0.012 C 
ENDBRANCH   9  36
BRANCH   6  39
ATOM     39  C   UNL     1       4.751 -15.168  -0.495  1.00  0.00     0.264 C 
ATOM     40  O   UNL     1       4.951 -14.363  -1.444  1.00  0.00    -0.298 OA
ENDBRANCH   6  39
BRANCH   8  41
ATOM     41  O   UNL     1       1.729 -18.851  -1.569  1.00  0.00    -0.504 OA
ATOM     42  H   UNL     1       0.831 -19.132  -1.935  1.00  0.00     0.293 HD
ENDBRANCH   8  41
BRANCH   7  43
ATOM     43  O   UNL     1       4.022 -17.235  -2.125  1.00  0.00    -0.504 OA
ATOM     44  H   UNL     1       5.027 -17.234  -2.033  1.00  0.00     0.293 HD
ENDBRANCH   7  43
TORSDOF 11
ENDMDL
MODEL 4
REMARK VINA RESULT:    -5.519      2.848      4.532
REMARK INTER + INTRA:          -9.488
REMARK INTER:                  -8.340
REMARK INTRA:                  -1.147
REMARK UNBOUND:                -1.388
REMARK SMILES Cc1cc2c(C(C)C)c(O)c(O)c(C=O)c2c(O)c1-c1c(C)cc2c(C(C)C)c(O)c(O)c(C=O)c2c1O
REMARK SMILES IDX 1 1 2 2 3 3 4 4 16 5 13 6 11 7 9 8 5 9 17 10 19 11 20 12
REMARK SMILES IDX 37 13 21 14 36 15 23 16 22 17 24 18 33 19 25 20 31 21 29 22
REMARK SMILES IDX 38 23 34 25 35 26 26 27 27 28 28 29 32 30 30 32 18 34 6 36
REMARK SMILES IDX 7 37 8 38 14 39 15 40 10 41 12 43
REMARK H PARENT 38 24 32 31 30 33 18 35 10 42 12 44
REMARK Flexibility Score: inf
ROOT
ATOM      1  C   UNL     1       0.563 -13.091   3.869  1.00  0.00     0.045 C 
ATOM      2  C   UNL     1       1.607 -13.046   2.782  1.00  0.00    -0.039 A 
ATOM      3  C   UNL     1       1.829 -14.177   1.992  1.00  0.00     0.013 A 
ATOM      4  C   UNL     1       2.808 -14.194   0.975  1.00  0.00    -0.006 A 
ATOM      5  C   UNL     1       3.700 -13.088   0.874  1.00  0.00     0.039 A 
ATOM      6  C   UNL     1       4.846 -13.202   0.036  1.00  0.00     0.072 A 
ATOM      7  C   UNL     1       5.019 -14.337  -0.773  1.00  0.00     0.169 A 
ATOM      8  C   UNL     1       4.093 -15.398  -0.723  1.00  0.00     0.162 A 
ATOM      9  C   UNL     1       2.936 -15.301   0.082  1.00  0.00     0.008 A 
ATOM     10  C   UNL     1       3.389 -11.892   1.582  1.00  0.00     0.132 A 
ATOM     11  C   UNL     1       2.361 -11.883   2.548  1.00  0.00     0.031 A 
ENDROOT
BRANCH  11  12
ATOM     12  C   UNL     1       2.080 -10.650   3.327  1.00  0.00     0.031 A 
ATOM     13  C   UNL     1       2.882 -10.315   4.439  1.00  0.00     0.132 A 
ATOM     14  C   UNL     1       1.027  -9.805   2.941  1.00  0.00    -0.039 A 
ATOM     15  C   UNL     1       2.651  -9.100   5.152  1.00  0.00     0.039 A 
ATOM     16  C   UNL     1       0.734  -8.678   3.710  1.00  0.00     0.013 A 
ATOM     17  C   UNL     1       0.208 -10.096   1.707  1.00  0.00     0.045 C 
ATOM     18  C   UNL     1       1.473  -8.349   4.862  1.00  0.00    -0.006 A 
ATOM     19  C   UNL     1       3.543  -8.626   6.157  1.00  0.00     0.072 A 
ATOM     20  C   UNL     1       1.083  -7.268   5.713  1.00  0.00     0.008 A 
ATOM     21  C   UNL     1       3.225  -7.463   6.880  1.00  0.00     0.169 A 
ATOM     22  C   UNL     1       2.026  -6.780   6.651  1.00  0.00     0.162 A 
BRANCH  13  23
ATOM     23  O   UNL     1       3.876 -11.204   4.861  1.00  0.00    -0.507 OA
ATOM     24  H   UNL     1       3.893 -11.638   5.775  1.00  0.00     0.293 HD
ENDBRANCH  13  23
BRANCH  19  25
ATOM     25  C   UNL     1       4.882  -9.227   6.377  1.00  0.00     0.264 C 
ATOM     26  O   UNL     1       5.034 -10.216   7.144  1.00  0.00    -0.298 OA
ENDBRANCH  19  25
BRANCH  20  27
ATOM     27  C   UNL     1      -0.342  -6.679   5.737  1.00  0.00     0.017 C 
ATOM     28  C   UNL     1      -0.440  -5.222   5.247  1.00  0.00     0.012 C 
ATOM     29  C   UNL     1      -1.054  -6.906   7.077  1.00  0.00     0.012 C 
ENDBRANCH  20  27
BRANCH  21  30
ATOM     30  O   UNL     1       4.134  -6.966   7.820  1.00  0.00    -0.504 OA
ATOM     31  H   UNL     1       4.008  -6.080   8.293  1.00  0.00     0.293 HD
ENDBRANCH  21  30
BRANCH  22  32
ATOM     32  O   UNL     1       1.818  -5.588   7.356  1.00  0.00    -0.504 OA
ATOM     33  H   UNL     1       1.650  -5.543   8.352  1.00  0.00     0.293 HD
ENDBRANCH  22  32
ENDBRANCH  11  12
BRANCH  10  34
ATOM     34  O   UNL     1       4.069 -10.705   1.289  1.00  0.00    -0.507 OA
ATOM     35  H   UNL     1       3.629  -9.796   1.256  1.00  0.00     0.293 HD
ENDBRANCH  10  34
BRANCH   9  36
ATOM     36  C   UNL     1       1.839 -16.377  -0.023  1.00  0.00     0.017 C 
ATOM     37  C   UNL     1       0.602 -15.833  -0.745  1.00  0.00     0.012 C 
ATOM     38  C   UNL     1       1.467 -17.016   1.328  1.00  0.00     0.012 C 
ENDBRANCH   9  36
BRANCH   6  39
ATOM     39  C   UNL     1       5.960 -12.228   0.057  1.00  0.00     0.264 C 
ATOM     40  O   UNL     1       7.113 -12.572   0.433  1.00  0.00    -0.298 OA
ENDBRANCH   6  39
BRANCH   8  41
ATOM     41  O   UNL     1       4.321 -16.581  -1.434  1.00  0.00    -0.504 OA
ATOM     42  H   UNL     1       3.949 -16.784  -2.350  1.00  0.00     0.293 HD
ENDBRANCH   8  41
BRANCH   7  43
ATOM     43  O   UNL     1       6.136 -14.379  -1.619  1.00  0.00    -0.504 OA
ATOM     44  H   UNL     1       6.091 -14.449  -2.624  1.00  0.00     0.293 HD
ENDBRANCH   7  43
TORSDOF 11
ENDMDL
MODEL 5
REMARK VINA RESULT:    -5.493      1.607      9.118
REMARK INTER + INTRA:          -9.451
REMARK INTER:                  -8.856
REMARK INTRA:                  -0.595
REMARK UNBOUND:                -1.388
REMARK SMILES Cc1cc2c(C(C)C)c(O)c(O)c(C=O)c2c(O)c1-c1c(C)cc2c(C(C)C)c(O)c(O)c(C=O)c2c1O
REMARK SMILES IDX 1 1 2 2 3 3 4 4 16 5 13 6 11 7 9 8 5 9 17 10 19 11 20 12
REMARK SMILES IDX 37 13 21 14 36 15 23 16 22 17 24 18 33 19 25 20 31 21 29 22
REMARK SMILES IDX 38 23 34 25 35 26 26 27 27 28 28 29 32 30 30 32 18 34 6 36
REMARK SMILES IDX 7 37 8 38 14 39 15 40 10 41 12 43
REMARK H PARENT 38 24 32 31 30 33 18 35 10 42 12 44
REMARK Flexibility Score: inf
ROOT
ATOM      1  C   UNL     1       4.269 -14.360   4.469  1.00  0.00     0.045 C 
ATOM      2  C   UNL     1       3.371 -13.161   4.297  1.00  0.00    -0.039 A 
ATOM      3  C   UNL     1       3.653 -11.982   4.992  1.00  0.00     0.013 A 
ATOM      4  C   UNL     1       2.832 -10.839   4.880  1.00  0.00    -0.006 A 
ATOM      5  C   UNL     1       1.599 -10.955   4.177  1.00  0.00     0.039 A 
ATOM      6  C   UNL     1       0.648  -9.900   4.277  1.00  0.00     0.072 A 
ATOM      7  C   UNL     1       0.978  -8.713   4.952  1.00  0.00     0.169 A 
ATOM      8  C   UNL     1       2.230  -8.575   5.583  1.00  0.00     0.162 A 
ATOM      9  C   UNL     1       3.200  -9.596   5.480  1.00  0.00     0.008 A 
ATOM     10  C   UNL     1       1.380 -12.104   3.366  1.00  0.00     0.132 A 
ATOM     11  C   UNL     1       2.253 -13.210   3.445  1.00  0.00     0.031 A 
ENDROOT
BRANCH  11  12
ATOM     12  C   UNL     1       1.987 -14.430   2.642  1.00  0.00     0.031 A 
ATOM     13  C   UNL     1       1.237 -15.492   3.191  1.00  0.00     0.132 A 
ATOM     14  C   UNL     1       2.465 -14.516   1.324  1.00  0.00    -0.039 A 
ATOM     15  C   UNL     1       0.929 -16.639   2.399  1.00  0.00     0.039 A 
ATOM     16  C   UNL     1       2.260 -15.688   0.595  1.00  0.00     0.013 A 
ATOM     17  C   UNL     1       3.198 -13.362   0.686  1.00  0.00     0.045 C 
ATOM     18  C   UNL     1       1.571 -16.791   1.134  1.00  0.00    -0.006 A 
ATOM     19  C   UNL     1       0.023 -17.647   2.839  1.00  0.00     0.072 A 
ATOM     20  C   UNL     1       1.480 -18.029   0.426  1.00  0.00     0.008 A 
ATOM     21  C   UNL     1      -0.183 -18.793   2.051  1.00  0.00     0.169 A 
ATOM     22  C   UNL     1       0.517 -18.976   0.853  1.00  0.00     0.162 A 
BRANCH  13  23
ATOM     23  O   UNL     1       0.834 -15.428   4.528  1.00  0.00    -0.507 OA
ATOM     24  H   UNL     1      -0.078 -15.107   4.828  1.00  0.00     0.293 HD
ENDBRANCH  13  23
BRANCH  19  25
ATOM     25  C   UNL     1      -0.838 -17.472   4.035  1.00  0.00     0.264 C 
ATOM     26  O   UNL     1      -0.566 -18.048   5.123  1.00  0.00    -0.298 OA
ENDBRANCH  19  25
BRANCH  20  27
ATOM     27  C   UNL     1       2.446 -18.432  -0.707  1.00  0.00     0.017 C 
ATOM     28  C   UNL     1       1.864 -18.291  -2.125  1.00  0.00     0.012 C 
ATOM     29  C   UNL     1       3.104 -19.798  -0.467  1.00  0.00     0.012 C 
ENDBRANCH  20  27
BRANCH  21  30
ATOM     30  O   UNL     1      -1.121 -19.748   2.456  1.00  0.00    -0.504 OA
ATOM     31  H   UNL     1      -1.635 -20.327   1.803  1.00  0.00     0.293 HD
ENDBRANCH  21  30
BRANCH  22  32
ATOM     32  O   UNL     1       0.200 -20.105   0.088  1.00  0.00    -0.504 OA
ATOM     33  H   UNL     1      -0.607 -20.168  -0.519  1.00  0.00     0.293 HD
ENDBRANCH  22  32
ENDBRANCH  11  12
BRANCH  10  34
ATOM     34  O   UNL     1       0.326 -12.125   2.446  1.00  0.00    -0.507 OA
ATOM     35  H   UNL     1      -0.186 -12.958   2.194  1.00  0.00     0.293 HD
ENDBRANCH  10  34
BRANCH   9  36
ATOM     36  C   UNL     1       4.627  -9.351   6.006  1.00  0.00     0.017 C 
ATOM     37  C   UNL     1       4.919 -10.223   7.232  1.00  0.00     0.012 C 
ATOM     38  C   UNL     1       4.938  -7.868   6.284  1.00  0.00     0.012 C 
ENDBRANCH   9  36
BRANCH   6  39
ATOM     39  C   UNL     1      -0.751 -10.027   3.808  1.00  0.00     0.264 C 
ATOM     40  O   UNL     1      -1.125  -9.484   2.734  1.00  0.00    -0.298 OA
ENDBRANCH   6  39
BRANCH   8  41
ATOM     41  O   UNL     1       2.520  -7.446   6.357  1.00  0.00    -0.504 OA
ATOM     42  H   UNL     1       2.821  -7.468   7.320  1.00  0.00     0.293 HD
ENDBRANCH   8  41
BRANCH   7  43
ATOM     43  O   UNL     1       0.026  -7.683   4.978  1.00  0.00    -0.504 OA
ATOM     44  H   UNL     1       0.094  -6.828   4.446  1.00  0.00     0.293 HD
ENDBRANCH   7  43
TORSDOF 11
ENDMDL
MODEL 6
REMARK VINA RESULT:    -5.403      3.374      8.997
REMARK INTER + INTRA:          -9.318
REMARK INTER:                  -7.831
REMARK INTRA:                  -1.487
REMARK UNBOUND:                -1.388
REMARK SMILES Cc1cc2c(C(C)C)c(O)c(O)c(C=O)c2c(O)c1-c1c(C)cc2c(C(C)C)c(O)c(O)c(C=O)c2c1O
REMARK SMILES IDX 1 1 2 2 3 3 4 4 16 5 13 6 11 7 9 8 5 9 17 10 19 11 20 12
REMARK SMILES IDX 37 13 21 14 36 15 23 16 22 17 24 18 33 19 25 20 31 21 29 22
REMARK SMILES IDX 38 23 34 25 35 26 26 27 27 28 28 29 32 30 30 32 18 34 6 36
REMARK SMILES IDX 7 37 8 38 14 39 15 40 10 41 12 43
REMARK H PARENT 38 24 32 31 30 33 18 35 10 42 12 44
REMARK Flexibility Score: inf
ROOT
ATOM      1  C   UNL     1       3.744 -12.788   4.858  1.00  0.00     0.045 C 
ATOM      2  C   UNL     1       2.896 -11.662   4.324  1.00  0.00    -0.039 A 
ATOM      3  C   UNL     1       2.576 -10.585   5.155  1.00  0.00     0.013 A 
ATOM      4  C   UNL     1       1.769  -9.516   4.709  1.00  0.00    -0.006 A 
ATOM      5  C   UNL     1       1.130  -9.630   3.442  1.00  0.00     0.039 A 
ATOM      6  C   UNL     1       0.116  -8.693   3.094  1.00  0.00     0.072 A 
ATOM      7  C   UNL     1      -0.154  -7.601   3.935  1.00  0.00     0.169 A 
ATOM      8  C   UNL     1       0.535  -7.451   5.156  1.00  0.00     0.162 A 
ATOM      9  C   UNL     1       1.561  -8.354   5.514  1.00  0.00     0.008 A 
ATOM     10  C   UNL     1       1.559 -10.655   2.550  1.00  0.00     0.132 A 
ATOM     11  C   UNL     1       2.421 -11.677   3.001  1.00  0.00     0.031 A 
ENDROOT
BRANCH  11  12
ATOM     12  C   UNL     1       2.817 -12.776   2.084  1.00  0.00     0.031 A 
ATOM     13  C   UNL     1       3.997 -12.670   1.316  1.00  0.00     0.132 A 
ATOM     14  C   UNL     1       2.027 -13.934   2.001  1.00  0.00    -0.039 A 
ATOM     15  C   UNL     1       4.411 -13.752   0.482  1.00  0.00     0.039 A 
ATOM     16  C   UNL     1       2.375 -14.939   1.097  1.00  0.00     0.013 A 
ATOM     17  C   UNL     1       0.807 -14.108   2.872  1.00  0.00     0.045 C 
ATOM     18  C   UNL     1       3.509 -14.838   0.270  1.00  0.00    -0.006 A 
ATOM     19  C   UNL     1       5.680 -13.772  -0.164  1.00  0.00     0.072 A 
ATOM     20  C   UNL     1       3.783 -15.810  -0.741  1.00  0.00     0.008 A 
ATOM     21  C   UNL     1       6.003 -14.826  -1.036  1.00  0.00     0.169 A 
ATOM     22  C   UNL     1       5.081 -15.843  -1.307  1.00  0.00     0.162 A 
BRANCH  13  23
ATOM     23  O   UNL     1       4.732 -11.481   1.349  1.00  0.00    -0.507 OA
ATOM     24  H   UNL     1       4.319 -10.561   1.266  1.00  0.00     0.293 HD
ENDBRANCH  13  23
BRANCH  19  25
ATOM     25  C   UNL     1       6.751 -12.796   0.160  1.00  0.00     0.264 C 
ATOM     26  O   UNL     1       7.555 -13.003   1.108  1.00  0.00    -0.298 OA
ENDBRANCH  19  25
BRANCH  20  27
ATOM     27  C   UNL     1       2.710 -16.755  -1.322  1.00  0.00     0.017 C 
ATOM     28  C   UNL     1       1.523 -16.040  -1.993  1.00  0.00     0.012 C 
ATOM     29  C   UNL     1       2.268 -17.834  -0.325  1.00  0.00     0.012 C 
ENDBRANCH  20  27
BRANCH  21  30
ATOM     30  O   UNL     1       7.275 -14.875  -1.617  1.00  0.00    -0.504 OA
ATOM     31  H   UNL     1       7.422 -14.996  -2.612  1.00  0.00     0.293 HD
ENDBRANCH  21  30
BRANCH  22  32
ATOM     32  O   UNL     1       5.505 -16.897  -2.125  1.00  0.00    -0.504 OA
ATOM     33  H   UNL     1       5.613 -16.826  -3.128  1.00  0.00     0.293 HD
ENDBRANCH  22  32
ENDBRANCH  11  12
BRANCH  10  34
ATOM     34  O   UNL     1       1.169 -10.626   1.207  1.00  0.00    -0.507 OA
ATOM     35  H   UNL     1       0.242 -10.371   0.894  1.00  0.00     0.293 HD
ENDBRANCH  10  34
BRANCH   9  36
ATOM     36  C   UNL     1       2.434  -8.067   6.749  1.00  0.00     0.017 C 
ATOM     37  C   UNL     1       1.586  -8.034   8.026  1.00  0.00     0.012 C 
ATOM     38  C   UNL     1       3.300  -6.800   6.616  1.00  0.00     0.012 C 
ENDBRANCH   9  36
BRANCH   6  39
ATOM     39  C   UNL     1      -0.782  -8.870   1.931  1.00  0.00     0.264 C 
ATOM     40  O   UNL     1      -0.624  -8.189   0.882  1.00  0.00    -0.298 OA
ENDBRANCH   6  39
BRANCH   8  41
ATOM     41  O   UNL     1       0.189  -6.436   6.053  1.00  0.00    -0.504 OA
ATOM     42  H   UNL     1       0.187  -6.529   7.058  1.00  0.00     0.293 HD
ENDBRANCH   8  41
BRANCH   7  43
ATOM     43  O   UNL     1      -1.125  -6.677   3.524  1.00  0.00    -0.504 OA
ATOM     44  H   UNL     1      -1.271  -6.387   2.568  1.00  0.00     0.293 HD
ENDBRANCH   7  43
TORSDOF 11
ENDMDL
MODEL 7
REMARK VINA RESULT:    -5.238      2.874      9.422
REMARK INTER + INTRA:          -9.076
REMARK INTER:                  -8.134
REMARK INTRA:                  -0.941
REMARK UNBOUND:                -1.388
REMARK SMILES Cc1cc2c(C(C)C)c(O)c(O)c(C=O)c2c(O)c1-c1c(C)cc2c(C(C)C)c(O)c(O)c(C=O)c2c1O
REMARK SMILES IDX 1 1 2 2 3 3 4 4 16 5 13 6 11 7 9 8 5 9 17 10 19 11 20 12
REMARK SMILES IDX 37 13 21 14 36 15 23 16 22 17 24 18 33 19 25 20 31 21 29 22
REMARK SMILES IDX 38 23 34 25 35 26 26 27 27 28 28 29 32 30 30 32 18 34 6 36
REMARK SMILES IDX 7 37 8 38 14 39 15 40 10 41 12 43
REMARK H PARENT 38 24 32 31 30 33 18 35 10 42 12 44
REMARK Flexibility Score: inf
ROOT
ATOM      1  C   UNL     1      -0.311  -9.911   2.017  1.00  0.00     0.045 C 
ATOM      2  C   UNL     1       0.624  -9.567   3.149  1.00  0.00    -0.039 A 
ATOM      3  C   UNL     1       0.376  -8.433   3.928  1.00  0.00     0.013 A 
ATOM      4  C   UNL     1       1.231  -8.056   4.986  1.00  0.00    -0.006 A 
ATOM      5  C   UNL     1       2.462  -8.755   5.145  1.00  0.00     0.039 A 
ATOM      6  C   UNL     1       3.445  -8.225   6.029  1.00  0.00     0.072 A 
ATOM      7  C   UNL     1       3.149  -7.106   6.825  1.00  0.00     0.169 A 
ATOM      8  C   UNL     1       1.900  -6.463   6.717  1.00  0.00     0.162 A 
ATOM      9  C   UNL     1       0.899  -6.981   5.865  1.00  0.00     0.008 A 
ATOM     10  C   UNL     1       2.649  -9.980   4.444  1.00  0.00     0.132 A 
ATOM     11  C   UNL     1       1.743 -10.369   3.436  1.00  0.00     0.031 A 
ENDROOT
BRANCH  11  12
ATOM     12  C   UNL     1       1.974 -11.618   2.666  1.00  0.00     0.031 A 
ATOM     13  C   UNL     1       3.021 -11.688   1.723  1.00  0.00     0.132 A 
ATOM     14  C   UNL     1       1.160 -12.740   2.896  1.00  0.00    -0.039 A 
ATOM     15  C   UNL     1       3.282 -12.907   1.027  1.00  0.00     0.039 A 
ATOM     16  C   UNL     1       1.347 -13.891   2.130  1.00  0.00     0.013 A 
ATOM     17  C   UNL     1       0.088 -12.719   3.957  1.00  0.00     0.045 C 
ATOM     18  C   UNL     1       2.341 -13.973   1.136  1.00  0.00    -0.006 A 
ATOM     19  C   UNL     1       4.435 -13.085   0.209  1.00  0.00     0.072 A 
ATOM     20  C   UNL     1       2.437 -15.108   0.272  1.00  0.00     0.008 A 
ATOM     21  C   UNL     1       4.601 -14.279  -0.513  1.00  0.00     0.169 A 
ATOM     22  C   UNL     1       3.631 -15.286  -0.470  1.00  0.00     0.162 A 
BRANCH  13  23
ATOM     23  O   UNL     1       3.772 -10.542   1.446  1.00  0.00    -0.507 OA
ATOM     24  H   UNL     1       3.870 -10.141   0.522  1.00  0.00     0.293 HD
ENDBRANCH  13  23
BRANCH  19  25
ATOM     25  C   UNL     1       5.560 -12.115   0.202  1.00  0.00     0.264 C 
ATOM     26  O   UNL     1       6.736 -12.481   0.469  1.00  0.00    -0.298 OA
ENDBRANCH  19  25
BRANCH  20  27
ATOM     27  C   UNL     1       1.272 -16.087   0.024  1.00  0.00     0.017 C 
ATOM     28  C   UNL     1       1.489 -17.499   0.599  1.00  0.00     0.012 C 
ATOM     29  C   UNL     1       0.814 -16.105  -1.440  1.00  0.00     0.012 C 
ENDBRANCH  20  27
BRANCH  21  30
ATOM     30  O   UNL     1       5.766 -14.474  -1.263  1.00  0.00    -0.504 OA
ATOM     31  H   UNL     1       6.577 -14.964  -0.904  1.00  0.00     0.293 HD
ENDBRANCH  21  30
BRANCH  22  32
ATOM     32  O   UNL     1       3.905 -16.475  -1.155  1.00  0.00    -0.504 OA
ATOM     33  H   UNL     1       4.832 -16.762  -1.442  1.00  0.00     0.293 HD
ENDBRANCH  22  32
ENDBRANCH  11  12
BRANCH  10  34
ATOM     34  O   UNL     1       3.705 -10.832   4.787  1.00  0.00    -0.507 OA
ATOM     35  H   UNL     1       3.587 -11.805   5.034  1.00  0.00     0.293 HD
ENDBRANCH  10  34
BRANCH   9  36
ATOM     36  C   UNL     1      -0.520  -6.386   5.904  1.00  0.00     0.017 C 
ATOM     37  C   UNL     1      -0.564  -5.020   5.209  1.00  0.00     0.012 C 
ATOM     38  C   UNL     1      -1.125  -6.317   7.319  1.00  0.00     0.012 C 
ENDBRANCH   9  36
BRANCH   6  39
ATOM     39  C   UNL     1       4.840  -8.718   6.074  1.00  0.00     0.264 C 
ATOM     40  O   UNL     1       5.182  -9.623   6.882  1.00  0.00    -0.298 OA
ENDBRANCH   6  39
BRANCH   8  41
ATOM     41  O   UNL     1       1.642  -5.280   7.417  1.00  0.00    -0.504 OA
ATOM     42  H   UNL     1       0.752  -4.804   7.438  1.00  0.00     0.293 HD
ENDBRANCH   8  41
BRANCH   7  43
ATOM     43  O   UNL     1       4.132  -6.654   7.718  1.00  0.00    -0.504 OA
ATOM     44  H   UNL     1       4.929  -6.093   7.456  1.00  0.00     0.293 HD
ENDBRANCH   7  43
TORSDOF 11
ENDMDL
MODEL 8
REMARK VINA RESULT:    -5.145      1.837      8.965
REMARK INTER + INTRA:          -8.940
REMARK INTER:                  -8.439
REMARK INTRA:                  -0.500
REMARK UNBOUND:                -1.388
REMARK SMILES Cc1cc2c(C(C)C)c(O)c(O)c(C=O)c2c(O)c1-c1c(C)cc2c(C(C)C)c(O)c(O)c(C=O)c2c1O
REMARK SMILES IDX 1 1 2 2 3 3 4 4 16 5 13 6 11 7 9 8 5 9 17 10 19 11 20 12
REMARK SMILES IDX 37 13 21 14 36 15 23 16 22 17 24 18 33 19 25 20 31 21 29 22
REMARK SMILES IDX 38 23 34 25 35 26 26 27 27 28 28 29 32 30 30 32 18 34 6 36
REMARK SMILES IDX 7 37 8 38 14 39 15 40 10 41 12 43
REMARK H PARENT 38 24 32 31 30 33 18 35 10 42 12 44
REMARK Flexibility Score: inf
ROOT
ATOM      1  C   UNL     1       4.595 -14.073   4.397  1.00  0.00     0.045 C 
ATOM      2  C   UNL     1       3.602 -12.939   4.403  1.00  0.00    -0.039 A 
ATOM      3  C   UNL     1       3.751 -11.896   5.321  1.00  0.00     0.013 A 
ATOM      4  C   UNL     1       2.838 -10.822   5.382  1.00  0.00    -0.006 A 
ATOM      5  C   UNL     1       1.648 -10.898   4.603  1.00  0.00     0.039 A 
ATOM      6  C   UNL     1       0.604  -9.961   4.847  1.00  0.00     0.072 A 
ATOM      7  C   UNL     1       0.801  -8.903   5.750  1.00  0.00     0.169 A 
ATOM      8  C   UNL     1       2.011  -8.789   6.463  1.00  0.00     0.162 A 
ATOM      9  C   UNL     1       3.072  -9.692   6.223  1.00  0.00     0.008 A 
ATOM     10  C   UNL     1       1.562 -11.885   3.580  1.00  0.00     0.132 A 
ATOM     11  C   UNL     1       2.526 -12.912   3.499  1.00  0.00     0.031 A 
ENDROOT
BRANCH  11  12
ATOM     12  C   UNL     1       2.400 -13.974   2.468  1.00  0.00     0.031 A 
ATOM     13  C   UNL     1       1.742 -15.185   2.771  1.00  0.00     0.132 A 
ATOM     14  C   UNL     1       2.918 -13.760   1.180  1.00  0.00    -0.039 A 
ATOM     15  C   UNL     1       1.567 -16.180   1.763  1.00  0.00     0.039 A 
ATOM     16  C   UNL     1       2.846 -14.783   0.233  1.00  0.00     0.013 A 
ATOM     17  C   UNL     1       3.552 -12.443   0.804  1.00  0.00     0.045 C 
ATOM     18  C   UNL     1       2.253 -16.026   0.522  1.00  0.00    -0.006 A 
ATOM     19  C   UNL     1       0.752 -17.332   1.964  1.00  0.00     0.072 A 
ATOM     20  C   UNL     1       2.300 -17.108  -0.411  1.00  0.00     0.008 A 
ATOM     21  C   UNL     1       0.678 -18.317   0.965  1.00  0.00     0.169 A 
ATOM     22  C   UNL     1       1.422 -18.202  -0.215  1.00  0.00     0.162 A 
BRANCH  13  23
ATOM     23  O   UNL     1       1.301 -15.416   4.078  1.00  0.00    -0.507 OA
ATOM     24  H   UNL     1       0.816 -14.728   4.640  1.00  0.00     0.293 HD
ENDBRANCH  13  23
BRANCH  19  25
ATOM     25  C   UNL     1      -0.153 -17.469   3.133  1.00  0.00     0.264 C 
ATOM     26  O   UNL     1       0.112 -18.268   4.071  1.00  0.00    -0.298 OA
ENDBRANCH  19  25
BRANCH  20  27
ATOM     27  C   UNL     1       3.329 -17.196  -1.557  1.00  0.00     0.017 C 
ATOM     28  C   UNL     1       4.560 -18.069  -1.246  1.00  0.00     0.012 C 
ATOM     29  C   UNL     1       3.704 -15.821  -2.125  1.00  0.00     0.012 C 
ENDBRANCH  20  27
BRANCH  21  30
ATOM     30  O   UNL     1      -0.174 -19.413   1.139  1.00  0.00    -0.504 OA
ATOM     31  H   UNL     1      -1.061 -19.504   0.661  1.00  0.00     0.293 HD
ENDBRANCH  21  30
BRANCH  22  32
ATOM     32  O   UNL     1       1.235 -19.186  -1.193  1.00  0.00    -0.504 OA
ATOM     33  H   UNL     1       1.419 -20.170  -1.048  1.00  0.00     0.293 HD
ENDBRANCH  22  32
ENDBRANCH  11  12
BRANCH  10  34
ATOM     34  O   UNL     1       0.550 -11.813   2.617  1.00  0.00    -0.507 OA
ATOM     35  H   UNL     1      -0.340 -12.284   2.698  1.00  0.00     0.293 HD
ENDBRANCH  10  34
BRANCH   9  36
ATOM     36  C   UNL     1       4.450  -9.439   6.863  1.00  0.00     0.017 C 
ATOM     37  C   UNL     1       5.227  -8.368   6.089  1.00  0.00     0.012 C 
ATOM     38  C   UNL     1       5.289 -10.717   7.052  1.00  0.00     0.012 C 
ENDBRANCH   9  36
BRANCH   6  39
ATOM     39  C   UNL     1      -0.759 -10.107   4.288  1.00  0.00     0.264 C 
ATOM     40  O   UNL     1      -1.125  -9.429   3.290  1.00  0.00    -0.298 OA
ENDBRANCH   6  39
BRANCH   8  41
ATOM     41  O   UNL     1       2.171  -7.810   7.449  1.00  0.00    -0.504 OA
ATOM     42  H   UNL     1       2.865  -7.078   7.429  1.00  0.00     0.293 HD
ENDBRANCH   8  41
BRANCH   7  43
ATOM     43  O   UNL     1      -0.238  -7.977   5.917  1.00  0.00    -0.504 OA
ATOM     44  H   UNL     1      -0.120  -7.046   6.289  1.00  0.00     0.293 HD
ENDBRANCH   7  43
TORSDOF 11
ENDMDL
MODEL 9
REMARK VINA RESULT:    -5.129      2.196      9.536
REMARK INTER + INTRA:          -8.915
REMARK INTER:                  -7.649
REMARK INTRA:                  -1.266
REMARK UNBOUND:                -1.388
REMARK SMILES Cc1cc2c(C(C)C)c(O)c(O)c(C=O)c2c(O)c1-c1c(C)cc2c(C(C)C)c(O)c(O)c(C=O)c2c1O
REMARK SMILES IDX 1 1 2 2 3 3 4 4 16 5 13 6 11 7 9 8 5 9 17 10 19 11 20 12
REMARK SMILES IDX 37 13 21 14 36 15 23 16 22 17 24 18 33 19 25 20 31 21 29 22
REMARK SMILES IDX 38 23 34 25 35 26 26 27 27 28 28 29 32 30 30 32 18 34 6 36
REMARK SMILES IDX 7 37 8 38 14 39 15 40 10 41 12 43
REMARK H PARENT 38 24 32 31 30 33 18 35 10 42 12 44
REMARK Flexibility Score: inf
ROOT
ATOM      1  C   UNL     1      -0.921  -9.984   2.854  1.00  0.00     0.045 C 
ATOM      2  C   UNL     1       0.175  -9.582   3.809  1.00  0.00    -0.039 A 
ATOM      3  C   UNL     1      -0.054  -8.553   4.726  1.00  0.00     0.013 A 
ATOM      4  C   UNL     1       0.945  -8.126   5.629  1.00  0.00    -0.006 A 
ATOM      5  C   UNL     1       2.263  -8.644   5.477  1.00  0.00     0.039 A 
ATOM      6  C   UNL     1       3.329  -8.036   6.199  1.00  0.00     0.072 A 
ATOM      7  C   UNL     1       3.060  -7.029   7.141  1.00  0.00     0.169 A 
ATOM      8  C   UNL     1       1.742  -6.572   7.341  1.00  0.00     0.162 A 
ATOM      9  C   UNL     1       0.664  -7.173   6.655  1.00  0.00     0.008 A 
ATOM     10  C   UNL     1       2.460  -9.778   4.639  1.00  0.00     0.132 A 
ATOM     11  C   UNL     1       1.423 -10.228   3.793  1.00  0.00     0.031 A 
ENDROOT
BRANCH  11  12
ATOM     12  C   UNL     1       1.652 -11.374   2.877  1.00  0.00     0.031 A 
ATOM     13  C   UNL     1       1.317 -12.684   3.281  1.00  0.00     0.132 A 
ATOM     14  C   UNL     1       2.183 -11.148   1.596  1.00  0.00    -0.039 A 
ATOM     15  C   UNL     1       1.480 -13.778   2.378  1.00  0.00     0.039 A 
ATOM     16  C   UNL     1       2.447 -12.234   0.762  1.00  0.00     0.013 A 
ATOM     17  C   UNL     1       2.472  -9.749   1.109  1.00  0.00     0.045 C 
ATOM     18  C   UNL     1       2.184 -13.560   1.157  1.00  0.00    -0.006 A 
ATOM     19  C   UNL     1       0.985 -15.082   2.667  1.00  0.00     0.072 A 
ATOM     20  C   UNL     1       2.579 -14.670   0.348  1.00  0.00     0.008 A 
ATOM     21  C   UNL     1       1.241 -16.139   1.776  1.00  0.00     0.169 A 
ATOM     22  C   UNL     1       2.008 -15.937   0.623  1.00  0.00     0.162 A 
BRANCH  13  23
ATOM     23  O   UNL     1       0.864 -12.905   4.585  1.00  0.00    -0.507 OA
ATOM     24  H   UNL     1      -0.113 -12.978   4.838  1.00  0.00     0.293 HD
ENDBRANCH  13  23
BRANCH  19  25
ATOM     25  C   UNL     1       0.070 -15.350   3.805  1.00  0.00     0.264 C 
ATOM     26  O   UNL     1       0.189 -16.392   4.504  1.00  0.00    -0.298 OA
ENDBRANCH  19  25
BRANCH  20  27
ATOM     27  C   UNL     1       3.671 -14.583  -0.738  1.00  0.00     0.017 C 
ATOM     28  C   UNL     1       4.987 -13.934  -0.272  1.00  0.00     0.012 C 
ATOM     29  C   UNL     1       3.151 -13.994  -2.056  1.00  0.00     0.012 C 
ENDBRANCH  20  27
BRANCH  21  30
ATOM     30  O   UNL     1       0.698 -17.403   2.031  1.00  0.00    -0.504 OA
ATOM     31  H   UNL     1      -0.016 -17.565   2.730  1.00  0.00     0.293 HD
ENDBRANCH  21  30
BRANCH  22  32
ATOM     32  O   UNL     1       2.154 -17.020  -0.252  1.00  0.00    -0.504 OA
ATOM     33  H   UNL     1       1.497 -17.785  -0.319  1.00  0.00     0.293 HD
ENDBRANCH  22  32
ENDBRANCH  11  12
BRANCH  10  34
ATOM     34  O   UNL     1       3.666 -10.485   4.685  1.00  0.00    -0.507 OA
ATOM     35  H   UNL     1       4.061 -10.871   5.531  1.00  0.00     0.293 HD
ENDBRANCH  10  34
BRANCH   9  36
ATOM     36  C   UNL     1      -0.783  -6.799   7.027  1.00  0.00     0.017 C 
ATOM     37  C   UNL     1      -1.125  -5.383   6.550  1.00  0.00     0.012 C 
ATOM     38  C   UNL     1      -1.105  -6.981   8.522  1.00  0.00     0.012 C 
ENDBRANCH   9  36
BRANCH   6  39
ATOM     39  C   UNL     1       4.755  -8.319   5.923  1.00  0.00     0.264 C 
ATOM     40  O   UNL     1       5.547  -8.626   6.854  1.00  0.00    -0.298 OA
ENDBRANCH   6  39
BRANCH   8  41
ATOM     41  O   UNL     1       1.481  -5.490   8.188  1.00  0.00    -0.504 OA
ATOM     42  H   UNL     1       0.957  -4.667   7.929  1.00  0.00     0.293 HD
ENDBRANCH   8  41
BRANCH   7  43
ATOM     43  O   UNL     1       4.138  -6.498   7.864  1.00  0.00    -0.504 OA
ATOM     44  H   UNL     1       4.953  -7.023   8.144  1.00  0.00     0.293 HD
ENDBRANCH   7  43
TORSDOF 11
ENDMDL
