MODEL 1
REMARK VINA RESULT:    -3.162      0.000      0.000
REMARK INTER + INTRA:          -3.781
REMARK INTER:                  -4.455
REMARK INTRA:                   0.674
REMARK UNBOUND:                 0.674
REMARK SMILES CC1=CCC(=C(C)C)C(=O)CC(C)=CCC1
REMARK SMILES IDX 12 1 14 2 13 3 15 4 16 5 2 6 1 7 3 8 11 10 9 11 10 12 5 13
REMARK SMILES IDX 6 14 7 15 8 16 4 17
REMARK H PARENT
REMARK Flexibility Score: 60.00
ROOT
ATOM      1  C   UNL     1      -3.427 -11.844  -7.651  1.00  0.00    -0.070 C 
ATOM      2  C   UNL     1      -4.779 -11.814  -7.680  1.00  0.00    -0.027 C 
ATOM      3  C   UNL     1      -2.677 -11.133  -8.749  1.00  0.00     0.039 C 
ENDROOT
BRANCH   2   4
ATOM      4  C   UNL     1      -5.679 -12.341  -6.592  1.00  0.00     0.032 C 
BRANCH   4   5
ATOM      5  C   UNL     1      -5.863 -13.854  -6.756  1.00  0.00     0.034 C 
BRANCH   5   6
ATOM      6  C   UNL     1      -5.867 -14.283  -8.209  1.00  0.00    -0.077 C 
ATOM      7  C   UNL     1      -6.949 -13.754  -9.117  1.00  0.00     0.039 C 
ATOM      8  C   UNL     1      -4.991 -15.179  -8.729  1.00  0.00    -0.023 CG0
ATOM      9  G   UNL     1      -3.790 -15.802  -8.040  1.00  0.00     0.000 G0
ENDBRANCH   5   6
ENDBRANCH   4   5
ENDBRANCH   2   4
BRANCH   1  10
ATOM     10  C   UNL     1      -2.632 -12.570  -6.584  1.00  0.00     0.111 C 
BRANCH  10  11
ATOM     11  C   UNL     1      -2.295 -13.982  -6.996  1.00  0.00     0.163 C 
ATOM     12  O   UNL     1      -1.174 -14.167  -7.544  1.00  0.00    -0.294 OA
BRANCH  11  13
ATOM     13  C   UNL     1      -3.220 -15.150  -6.811  1.00  0.00    -0.002 C 
ATOM     14  C   UNL     1      -3.419 -15.691  -5.570  1.00  0.00    -0.069 C 
ATOM     15  C   UNL     1      -2.959 -14.980  -4.316  1.00  0.00     0.039 C 
ATOM     16  C   UNL     1      -4.152 -16.998  -5.373  1.00  0.00     0.039 C 
BRANCH  13  17
ATOM     17  C   UNL     1      -3.779 -15.819  -8.063  1.00  0.00     0.066 CG0
ATOM     18  G   UNL     1      -4.983 -15.153  -8.705  1.00  0.00     0.000 G0
ENDBRANCH  13  17
ENDBRANCH  11  13
ENDBRANCH  10  11
ENDBRANCH   1  10
TORSDOF 0
ENDMDL
MODEL 2
REMARK VINA RESULT:    -3.035      1.627      2.155
REMARK INTER + INTRA:          -3.603
REMARK INTER:                  -4.167
REMARK INTRA:                   0.563
REMARK UNBOUND:                 0.674
REMARK SMILES CC1=CCC(=C(C)C)C(=O)CC(C)=CCC1
REMARK SMILES IDX 12 1 14 2 13 3 15 4 16 5 2 6 1 7 3 8 11 10 9 11 10 12 5 13
REMARK SMILES IDX 6 14 7 15 8 16 4 17
REMARK H PARENT
REMARK Flexibility Score: 60.00
ROOT
ATOM      1  C   UNL     1      -2.828 -12.684  -7.704  1.00  0.00    -0.070 C 
ATOM      2  C   UNL     1      -3.237 -13.300  -8.837  1.00  0.00    -0.027 C 
ATOM      3  C   UNL     1      -3.009 -11.190  -7.604  1.00  0.00     0.039 C 
ENDROOT
BRANCH   2   4
ATOM      4  C   UNL     1      -3.267 -14.793  -9.046  1.00  0.00     0.032 C 
BRANCH   4   5
ATOM      5  C   UNL     1      -4.719 -15.278  -9.123  1.00  0.00     0.034 C 
BRANCH   5   6
ATOM      6  C   UNL     1      -5.664 -14.407  -8.322  1.00  0.00    -0.077 C 
ATOM      7  C   UNL     1      -6.423 -13.315  -9.036  1.00  0.00     0.039 C 
ATOM      8  C   UNL     1      -5.817 -14.504  -6.978  1.00  0.00    -0.023 CG0
ATOM      9  G   UNL     1      -5.215 -15.547  -6.054  1.00  0.00     0.000 G0
ENDBRANCH   5   6
ENDBRANCH   4   5
ENDBRANCH   2   4
BRANCH   1  10
ATOM     10  C   UNL     1      -2.181 -13.414  -6.544  1.00  0.00     0.111 C 
BRANCH  10  11
ATOM     11  C   UNL     1      -3.207 -13.970  -5.587  1.00  0.00     0.163 C 
ATOM     12  O   UNL     1      -3.604 -13.206  -4.665  1.00  0.00    -0.294 OA
BRANCH  11  13
ATOM     13  C   UNL     1      -3.749 -15.368  -5.662  1.00  0.00    -0.002 C 
ATOM     14  C   UNL     1      -2.913 -16.446  -5.552  1.00  0.00    -0.069 C 
ATOM     15  C   UNL     1      -1.486 -16.292  -5.072  1.00  0.00     0.039 C 
ATOM     16  C   UNL     1      -3.375 -17.853  -5.851  1.00  0.00     0.039 C 
BRANCH  13  17
ATOM     17  C   UNL     1      -5.215 -15.543  -6.044  1.00  0.00     0.066 CG0
ATOM     18  G   UNL     1      -5.799 -14.500  -6.980  1.00  0.00     0.000 G0
ENDBRANCH  13  17
ENDBRANCH  11  13
ENDBRANCH  10  11
ENDBRANCH   1  10
TORSDOF 0
ENDMDL
MODEL 3
REMARK VINA RESULT:    -2.936      1.724      3.950
REMARK INTER + INTRA:          -3.463
REMARK INTER:                  -3.963
REMARK INTRA:                   0.500
REMARK UNBOUND:                 0.674
REMARK SMILES CC1=CCC(=C(C)C)C(=O)CC(C)=CCC1
REMARK SMILES IDX 12 1 14 2 13 3 15 4 16 5 2 6 1 7 3 8 11 10 9 11 10 12 5 13
REMARK SMILES IDX 6 14 7 15 8 16 4 17
REMARK H PARENT
REMARK Flexibility Score: 60.00
ROOT
ATOM      1  C   UNL     1      -2.478 -13.352  -7.618  1.00  0.00    -0.070 C 
ATOM      2  C   UNL     1      -1.876 -13.749  -6.473  1.00  0.00    -0.027 C 
ATOM      3  C   UNL     1      -2.661 -11.873  -7.848  1.00  0.00     0.039 C 
ENDROOT
BRANCH   2   4
ATOM      4  C   UNL     1      -1.483 -15.168  -6.150  1.00  0.00     0.032 C 
BRANCH   4   5
ATOM      5  C   UNL     1      -2.345 -15.697  -4.999  1.00  0.00     0.034 C 
BRANCH   5   6
ATOM      6  C   UNL     1      -3.364 -16.719  -5.459  1.00  0.00    -0.077 C 
ATOM      7  C   UNL     1      -2.961 -18.172  -5.505  1.00  0.00     0.039 C 
ATOM      8  C   UNL     1      -4.603 -16.395  -5.904  1.00  0.00    -0.023 CG0
ATOM      9  G   UNL     1      -5.255 -15.024  -5.902  1.00  0.00     0.000 G0
ENDBRANCH   5   6
ENDBRANCH   4   5
ENDBRANCH   2   4
BRANCH   1  10
ATOM     10  C   UNL     1      -2.994 -14.317  -8.666  1.00  0.00     0.111 C 
BRANCH  10  11
ATOM     11  C   UNL     1      -4.383 -14.811  -8.343  1.00  0.00     0.163 C 
ATOM     12  O   UNL     1      -4.854 -15.721  -9.078  1.00  0.00    -0.294 OA
BRANCH  11  13
ATOM     13  C   UNL     1      -5.224 -14.266  -7.226  1.00  0.00    -0.002 C 
ATOM     14  C   UNL     1      -5.826 -13.042  -7.340  1.00  0.00    -0.069 C 
ATOM     15  C   UNL     1      -5.912 -12.327  -8.671  1.00  0.00     0.039 C 
ATOM     16  C   UNL     1      -6.483 -12.358  -6.164  1.00  0.00     0.039 C 
BRANCH  13  17
ATOM     17  C   UNL     1      -5.234 -15.029  -5.905  1.00  0.00     0.066 CG0
ATOM     18  G   UNL     1      -4.591 -16.404  -5.914  1.00  0.00     0.000 G0
ENDBRANCH  13  17
ENDBRANCH  11  13
ENDBRANCH  10  11
ENDBRANCH   1  10
TORSDOF 0
ENDMDL
MODEL 4
REMARK VINA RESULT:    -2.593      1.607      3.356
REMARK INTER + INTRA:          -2.980
REMARK INTER:                  -3.484
REMARK INTRA:                   0.504
REMARK UNBOUND:                 0.674
REMARK SMILES CC1=CCC(=C(C)C)C(=O)CC(C)=CCC1
REMARK SMILES IDX 12 1 14 2 13 3 15 4 16 5 2 6 1 7 3 8 11 10 9 11 10 12 5 13
REMARK SMILES IDX 6 14 7 15 8 16 4 17
REMARK H PARENT
REMARK Flexibility Score: 60.00
ROOT
ATOM      1  C   UNL     1      -5.874 -12.999  -6.903  1.00  0.00    -0.070 C 
ATOM      2  C   UNL     1      -5.318 -11.949  -7.550  1.00  0.00    -0.027 C 
ATOM      3  C   UNL     1      -6.358 -12.788  -5.491  1.00  0.00     0.039 C 
ENDROOT
BRANCH   2   4
ATOM      4  C   UNL     1      -4.917 -11.942  -9.003  1.00  0.00     0.032 C 
BRANCH   4   5
ATOM      5  C   UNL     1      -3.392 -11.852  -9.121  1.00  0.00     0.034 C 
BRANCH   5   6
ATOM      6  C   UNL     1      -2.712 -11.721  -7.774  1.00  0.00    -0.077 C 
ATOM      7  C   UNL     1      -2.549 -10.346  -7.177  1.00  0.00     0.039 C 
ATOM      8  C   UNL     1      -2.173 -12.768  -7.101  1.00  0.00    -0.023 CG0
ATOM      9  G   UNL     1      -2.257 -14.240  -7.463  1.00  0.00     0.000 G0
ENDBRANCH   5   6
ENDBRANCH   4   5
ENDBRANCH   2   4
BRANCH   1  10
ATOM     10  C   UNL     1      -6.015 -14.377  -7.519  1.00  0.00     0.111 C 
BRANCH  10  11
ATOM     11  C   UNL     1      -4.679 -14.955  -7.918  1.00  0.00     0.163 C 
ATOM     12  O   UNL     1      -4.589 -15.441  -9.079  1.00  0.00    -0.294 OA
BRANCH  11  13
ATOM     13  C   UNL     1      -3.484 -15.000  -7.012  1.00  0.00    -0.002 C 
ATOM     14  C   UNL     1      -3.576 -15.559  -5.766  1.00  0.00    -0.069 C 
ATOM     15  C   UNL     1      -4.770 -16.396  -5.363  1.00  0.00     0.039 C 
ATOM     16  C   UNL     1      -2.474 -15.420  -4.741  1.00  0.00     0.039 C 
BRANCH  13  17
ATOM     17  C   UNL     1      -2.231 -14.247  -7.448  1.00  0.00     0.066 CG0
ATOM     18  G   UNL     1      -2.173 -12.771  -7.096  1.00  0.00     0.000 G0
ENDBRANCH  13  17
ENDBRANCH  11  13
ENDBRANCH  10  11
ENDBRANCH   1  10
TORSDOF 0
ENDMDL
MODEL 5
REMARK VINA RESULT:    -2.547      2.067      3.739
REMARK INTER + INTRA:          -2.916
REMARK INTER:                  -3.948
REMARK INTRA:                   1.032
REMARK UNBOUND:                 0.674
REMARK SMILES CC1=CCC(=C(C)C)C(=O)CC(C)=CCC1
REMARK SMILES IDX 12 1 14 2 13 3 15 4 16 5 2 6 1 7 3 8 11 10 9 11 10 12 5 13
REMARK SMILES IDX 6 14 7 15 8 16 4 17
REMARK H PARENT
REMARK Flexibility Score: 60.00
ROOT
ATOM      1  C   UNL     1      -4.395 -16.220  -6.860  1.00  0.00    -0.070 C 
ATOM      2  C   UNL     1      -4.502 -16.288  -8.207  1.00  0.00    -0.027 C 
ATOM      3  C   UNL     1      -3.900 -17.440  -6.125  1.00  0.00     0.039 C 
ENDROOT
BRANCH   2   4
ATOM      4  C   UNL     1      -4.836 -15.125  -9.106  1.00  0.00     0.032 C 
BRANCH   4   5
ATOM      5  C   UNL     1      -3.707 -14.090  -9.059  1.00  0.00     0.034 C 
BRANCH   5   6
ATOM      6  C   UNL     1      -4.120 -12.813  -8.356  1.00  0.00    -0.077 C 
ATOM      7  C   UNL     1      -5.370 -12.106  -8.817  1.00  0.00     0.039 C 
ATOM      8  C   UNL     1      -3.387 -12.225  -7.378  1.00  0.00    -0.023 CG0
ATOM      9  G   UNL     1      -2.136 -12.767  -6.709  1.00  0.00     0.000 G0
ENDBRANCH   5   6
ENDBRANCH   4   5
ENDBRANCH   2   4
BRANCH   1  10
ATOM     10  C   UNL     1      -4.765 -14.991  -6.054  1.00  0.00     0.111 C 
BRANCH  10  11
ATOM     11  C   UNL     1      -3.578 -14.424  -5.314  1.00  0.00     0.163 C 
ATOM     12  O   UNL     1      -3.725 -14.202  -4.081  1.00  0.00    -0.294 OA
BRANCH  11  13
ATOM     13  C   UNL     1      -2.267 -14.096  -5.965  1.00  0.00    -0.002 C 
ATOM     14  C   UNL     1      -1.174 -14.897  -5.771  1.00  0.00    -0.069 C 
ATOM     15  C   UNL     1      -1.302 -16.270  -5.147  1.00  0.00     0.039 C 
ATOM     16  C   UNL     1       0.211 -14.484  -6.212  1.00  0.00     0.039 C 
BRANCH  13  17
ATOM     17  C   UNL     1      -2.146 -12.759  -6.689  1.00  0.00     0.066 CG0
ATOM     18  G   UNL     1      -3.405 -12.235  -7.355  1.00  0.00     0.000 G0
ENDBRANCH  13  17
ENDBRANCH  11  13
ENDBRANCH  10  11
ENDBRANCH   1  10
TORSDOF 0
ENDMDL
MODEL 6
REMARK VINA RESULT:    -2.049      1.891      3.999
REMARK INTER + INTRA:          -2.213
REMARK INTER:                  -3.922
REMARK INTRA:                   1.709
REMARK UNBOUND:                 0.674
REMARK SMILES CC1=CCC(=C(C)C)C(=O)CC(C)=CCC1
REMARK SMILES IDX 12 1 14 2 13 3 15 4 16 5 2 6 1 7 3 8 11 10 9 11 10 12 5 13
REMARK SMILES IDX 6 14 7 15 8 16 4 17
REMARK H PARENT
REMARK Flexibility Score: 60.00
ROOT
ATOM      1  C   UNL     1      -1.815 -15.086  -5.856  1.00  0.00    -0.070 C 
ATOM      2  C   UNL     1      -1.403 -14.752  -7.101  1.00  0.00    -0.027 C 
ATOM      3  C   UNL     1      -1.122 -16.231  -5.162  1.00  0.00     0.039 C 
ENDROOT
BRANCH   2   4
ATOM      4  C   UNL     1      -1.880 -13.551  -7.876  1.00  0.00     0.032 C 
BRANCH   4   5
ATOM      5  C   UNL     1      -2.560 -12.557  -6.928  1.00  0.00     0.034 C 
BRANCH   5   6
ATOM      6  C   UNL     1      -3.625 -11.731  -7.620  1.00  0.00    -0.077 C 
ATOM      7  C   UNL     1      -3.191 -10.634  -8.560  1.00  0.00     0.039 C 
ATOM      8  C   UNL     1      -4.953 -11.873  -7.388  1.00  0.00    -0.023 CG0
ATOM      9  G   UNL     1      -5.634 -12.932  -6.539  1.00  0.00     0.000 G0
ENDBRANCH   5   6
ENDBRANCH   4   5
ENDBRANCH   2   4
BRANCH   1  10
ATOM     10  C   UNL     1      -2.948 -14.382  -5.136  1.00  0.00     0.111 C 
BRANCH  10  11
ATOM     11  C   UNL     1      -4.297 -14.915  -5.553  1.00  0.00     0.163 C 
ATOM     12  O   UNL     1      -4.753 -15.893  -4.901  1.00  0.00    -0.294 OA
BRANCH  11  13
ATOM     13  C   UNL     1      -5.096 -14.363  -6.698  1.00  0.00    -0.002 C 
ATOM     14  C   UNL     1      -5.180 -15.046  -7.881  1.00  0.00    -0.069 C 
ATOM     15  C   UNL     1      -4.729 -16.486  -7.995  1.00  0.00     0.039 C 
ATOM     16  C   UNL     1      -5.774 -14.425  -9.124  1.00  0.00     0.039 C 
BRANCH  13  17
ATOM     17  C   UNL     1      -5.650 -12.948  -6.563  1.00  0.00     0.066 CG0
ATOM     18  G   UNL     1      -4.959 -11.872  -7.381  1.00  0.00     0.000 G0
ENDBRANCH  13  17
ENDBRANCH  11  13
ENDBRANCH  10  11
ENDBRANCH   1  10
TORSDOF 0
ENDMDL
MODEL 7
REMARK VINA RESULT:    -1.736      1.396      1.800
REMARK INTER + INTRA:          -1.772
REMARK INTER:                  -3.127
REMARK INTRA:                   1.354
REMARK UNBOUND:                 0.674
REMARK SMILES CC1=CCC(=C(C)C)C(=O)CC(C)=CCC1
REMARK SMILES IDX 12 1 14 2 13 3 15 4 16 5 2 6 1 7 3 8 11 10 9 11 10 12 5 13
REMARK SMILES IDX 6 14 7 15 8 16 4 17
REMARK H PARENT
REMARK Flexibility Score: 60.00
ROOT
ATOM      1  C   UNL     1      -2.930 -10.975  -8.286  1.00  0.00    -0.070 C 
ATOM      2  C   UNL     1      -4.020 -11.209  -9.053  1.00  0.00    -0.027 C 
ATOM      3  C   UNL     1      -1.873 -10.043  -8.821  1.00  0.00     0.039 C 
ENDROOT
BRANCH   2   4
ATOM      4  C   UNL     1      -5.233 -11.990  -8.616  1.00  0.00     0.032 C 
BRANCH   4   5
ATOM      5  C   UNL     1      -5.134 -13.432  -9.125  1.00  0.00     0.034 C 
BRANCH   5   6
ATOM      6  C   UNL     1      -5.960 -14.397  -8.299  1.00  0.00    -0.077 C 
ATOM      7  C   UNL     1      -6.960 -15.280  -9.004  1.00  0.00     0.039 C 
ATOM      8  C   UNL     1      -5.904 -14.464  -6.946  1.00  0.00    -0.023 CG0
ATOM      9  G   UNL     1      -4.949 -13.728  -6.024  1.00  0.00     0.000 G0
ENDBRANCH   5   6
ENDBRANCH   4   5
ENDBRANCH   2   4
BRANCH   1  10
ATOM     10  C   UNL     1      -2.711 -11.616  -6.930  1.00  0.00     0.111 C 
BRANCH  10  11
ATOM     11  C   UNL     1      -2.650 -13.122  -7.023  1.00  0.00     0.163 C 
ATOM     12  O   UNL     1      -1.876 -13.611  -7.890  1.00  0.00    -0.294 OA
BRANCH  11  13
ATOM     13  C   UNL     1      -3.468 -14.045  -6.168  1.00  0.00    -0.002 C 
ATOM     14  C   UNL     1      -2.932 -15.212  -5.694  1.00  0.00    -0.069 C 
ATOM     15  C   UNL     1      -1.445 -15.482  -5.762  1.00  0.00     0.039 C 
ATOM     16  C   UNL     1      -3.780 -16.273  -5.031  1.00  0.00     0.039 C 
BRANCH  13  17
ATOM     17  C   UNL     1      -4.952 -13.734  -6.001  1.00  0.00     0.066 CG0
ATOM     18  G   UNL     1      -5.905 -14.472  -6.924  1.00  0.00     0.000 G0
ENDBRANCH  13  17
ENDBRANCH  11  13
ENDBRANCH  10  11
ENDBRANCH   1  10
TORSDOF 0
ENDMDL
MODEL 8
REMARK VINA RESULT:    -1.423      1.805      3.201
REMARK INTER + INTRA:          -1.332
REMARK INTER:                  -2.721
REMARK INTRA:                   1.389
REMARK UNBOUND:                 0.674
REMARK SMILES CC1=CCC(=C(C)C)C(=O)CC(C)=CCC1
REMARK SMILES IDX 12 1 14 2 13 3 15 4 16 5 2 6 1 7 3 8 11 10 9 11 10 12 5 13
REMARK SMILES IDX 6 14 7 15 8 16 4 17
REMARK H PARENT
REMARK Flexibility Score: 60.00
ROOT
ATOM      1  C   UNL     1      -4.337 -12.725  -7.964  1.00  0.00    -0.070 C 
ATOM      2  C   UNL     1      -5.189 -13.775  -7.992  1.00  0.00    -0.027 C 
ATOM      3  C   UNL     1      -4.473 -11.671  -9.034  1.00  0.00     0.039 C 
ENDROOT
BRANCH   2   4
ATOM      4  C   UNL     1      -5.290 -14.835  -6.924  1.00  0.00     0.032 C 
BRANCH   4   5
ATOM      5  C   UNL     1      -4.419 -16.038  -7.303  1.00  0.00     0.034 C 
BRANCH   5   6
ATOM      6  C   UNL     1      -4.018 -16.865  -6.099  1.00  0.00    -0.077 C 
ATOM      7  C   UNL     1      -4.392 -18.326  -6.067  1.00  0.00     0.039 C 
ATOM      8  C   UNL     1      -3.400 -16.349  -5.007  1.00  0.00    -0.023 CG0
ATOM      9  G   UNL     1      -2.875 -14.937  -4.825  1.00  0.00     0.000 G0
ENDBRANCH   5   6
ENDBRANCH   4   5
ENDBRANCH   2   4
BRANCH   1  10
ATOM     10  C   UNL     1      -3.243 -12.565  -6.927  1.00  0.00     0.111 C 
BRANCH  10  11
ATOM     11  C   UNL     1      -2.236 -13.688  -6.993  1.00  0.00     0.163 C 
ATOM     12  O   UNL     1      -1.768 -13.970  -8.130  1.00  0.00    -0.294 OA
BRANCH  11  13
ATOM     13  C   UNL     1      -1.793 -14.484  -5.801  1.00  0.00    -0.002 C 
ATOM     14  C   UNL     1      -0.499 -14.919  -5.697  1.00  0.00    -0.069 C 
ATOM     15  C   UNL     1       0.587 -14.390  -6.606  1.00  0.00     0.039 C 
ATOM     16  C   UNL     1      -0.070 -15.910  -4.640  1.00  0.00     0.039 C 
BRANCH  13  17
ATOM     17  C   UNL     1      -2.861 -14.942  -4.813  1.00  0.00     0.066 CG0
ATOM     18  G   UNL     1      -3.391 -16.353  -4.997  1.00  0.00     0.000 G0
ENDBRANCH  13  17
ENDBRANCH  11  13
ENDBRANCH  10  11
ENDBRANCH   1  10
TORSDOF 0
ENDMDL
MODEL 9
REMARK VINA RESULT:    -1.186      1.987      3.860
REMARK INTER + INTRA:          -0.998
REMARK INTER:                  -1.882
REMARK INTRA:                   0.885
REMARK UNBOUND:                 0.674
REMARK SMILES CC1=CCC(=C(C)C)C(=O)CC(C)=CCC1
REMARK SMILES IDX 12 1 14 2 13 3 15 4 16 5 2 6 1 7 3 8 11 10 9 11 10 12 5 13
REMARK SMILES IDX 6 14 7 15 8 16 4 17
REMARK H PARENT
REMARK Flexibility Score: 60.00
ROOT
ATOM      1  C   UNL     1      -4.741 -13.020  -7.888  1.00  0.00    -0.070 C 
ATOM      2  C   UNL     1      -3.593 -12.379  -7.570  1.00  0.00    -0.027 C 
ATOM      3  C   UNL     1      -5.523 -12.527  -9.079  1.00  0.00     0.039 C 
ENDROOT
BRANCH   2   4
ATOM      4  C   UNL     1      -2.618 -12.826  -6.511  1.00  0.00     0.032 C 
BRANCH   4   5
ATOM      5  C   UNL     1      -1.648 -13.858  -7.099  1.00  0.00     0.034 C 
BRANCH   5   6
ATOM      6  C   UNL     1      -1.036 -14.749  -6.038  1.00  0.00    -0.077 C 
ATOM      7  C   UNL     1       0.463 -14.750  -5.870  1.00  0.00     0.039 C 
ATOM      8  C   UNL     1      -1.756 -15.606  -5.271  1.00  0.00    -0.023 CG0
ATOM      9  G   UNL     1      -3.267 -15.746  -5.213  1.00  0.00     0.000 G0
ENDBRANCH   5   6
ENDBRANCH   4   5
ENDBRANCH   2   4
BRANCH   1  10
ATOM     10  C   UNL     1      -5.288 -14.192  -7.098  1.00  0.00     0.111 C 
BRANCH  10  11
ATOM     11  C   UNL     1      -4.567 -15.478  -7.426  1.00  0.00     0.163 C 
ATOM     12  O   UNL     1      -4.493 -15.798  -8.644  1.00  0.00    -0.294 OA
BRANCH  11  13
ATOM     13  C   UNL     1      -3.969 -16.387  -6.393  1.00  0.00    -0.002 C 
ATOM     14  C   UNL     1      -4.184 -17.737  -6.445  1.00  0.00    -0.069 C 
ATOM     15  C   UNL     1      -4.776 -18.395  -7.672  1.00  0.00     0.039 C 
ATOM     16  C   UNL     1      -3.799 -18.655  -5.308  1.00  0.00     0.039 C 
BRANCH  13  17
ATOM     17  C   UNL     1      -3.275 -15.745  -5.196  1.00  0.00     0.066 CG0
ATOM     18  G   UNL     1      -1.766 -15.604  -5.284  1.00  0.00     0.000 G0
ENDBRANCH  13  17
ENDBRANCH  11  13
ENDBRANCH  10  11
ENDBRANCH   1  10
TORSDOF 0
ENDMDL
