MODEL 1
REMARK VINA RESULT:    -3.531      0.000      0.000
REMARK INTER + INTRA:          -5.657
REMARK INTER:                  -5.389
REMARK INTRA:                  -0.267
REMARK UNBOUND:                -0.267
REMARK SMILES CC1=CCC[C@H](C)C(=O)C[C@@H](C(C)C)C(=O)C1
REMARK SMILES IDX 8 1 9 2 6 3 7 4 5 5 4 6 3 7 2 8 1 9 10 11 11 12 15 13 16 14
REMARK SMILES IDX 17 15 12 17 13 18 14 19
REMARK H PARENT
REMARK Flexibility Score: 70.00
ROOT
ATOM      1  C   UNL     1      14.127  18.489  17.448  1.00  0.00     0.136 C 
ATOM      2  O   UNL     1      15.137  18.344  18.124  1.00  0.00    -0.299 OA
ENDROOT
BRANCH   1   3
ATOM      3  C   UNL     1      13.283  19.746  17.589  1.00  0.00     0.053 C 
ATOM      4  C   UNL     1      13.531  20.771  16.470  1.00  0.00     0.016 C 
BRANCH   3   5
ATOM      5  C   UNL     1      11.775  19.449  17.783  1.00  0.00     0.015 C 
BRANCH   5   6
ATOM      6  C   UNL     1      10.804  19.864  16.653  1.00  0.00     0.028 C 
BRANCH   6   7
ATOM      7  C   UNL     1       9.821  18.825  16.168  1.00  0.00    -0.028 C 
ATOM      8  C   UNL     1       9.960  18.033  15.081  1.00  0.00    -0.070 CG0
ATOM      9  C   UNL     1       8.966  16.909  14.914  1.00  0.00     0.039 C 
ATOM     10  G   UNL     1      11.090  18.181  14.076  1.00  0.00     0.000 G0
ENDBRANCH   6   7
ENDBRANCH   5   6
ENDBRANCH   3   5
ENDBRANCH   1   3
BRANCH   1  11
ATOM     11  C   UNL     1      13.655  17.357  16.563  1.00  0.00     0.087 C 
BRANCH  11  12
ATOM     12  C   UNL     1      13.554  17.713  15.053  1.00  0.00     0.066 C 
BRANCH  12  13
ATOM     13  C   UNL     1      12.266  17.275  14.352  1.00  0.00     0.140 C 
ATOM     14  O   UNL     1      12.185  16.109  13.993  1.00  0.00    -0.299 OA
BRANCH  13  15
ATOM     15  C   UNL     1      11.088  18.183  14.056  1.00  0.00     0.106 CG0
ATOM     16  G   UNL     1       9.994  18.025  15.098  1.00  0.00     0.000 G0
ENDBRANCH  13  15
ENDBRANCH  12  13
BRANCH  12  17
ATOM     17  C   UNL     1      14.791  17.211  14.239  1.00  0.00    -0.006 C 
ATOM     18  C   UNL     1      15.594  18.361  13.609  1.00  0.00     0.008 C 
ATOM     19  C   UNL     1      15.720  16.294  15.053  1.00  0.00     0.008 C 
ENDBRANCH  12  17
ENDBRANCH  11  12
ENDBRANCH   1  11
TORSDOF 1
ENDMDL
MODEL 2
REMARK VINA RESULT:    -3.260      2.052      4.038
REMARK INTER + INTRA:          -5.242
REMARK INTER:                  -5.122
REMARK INTRA:                  -0.120
REMARK UNBOUND:                -0.267
REMARK SMILES CC1=CCC[C@H](C)C(=O)C[C@@H](C(C)C)C(=O)C1
REMARK SMILES IDX 8 1 9 2 6 3 7 4 5 5 4 6 3 7 2 8 1 9 10 11 11 12 15 13 16 14
REMARK SMILES IDX 17 15 12 17 13 18 14 19
REMARK H PARENT
REMARK Flexibility Score: 70.00
ROOT
ATOM      1  C   UNL     1      13.691  19.345  16.148  1.00  0.00     0.136 C 
ATOM      2  O   UNL     1      13.450  20.436  16.647  1.00  0.00    -0.299 OA
ENDROOT
BRANCH   1   3
ATOM      3  C   UNL     1      14.734  18.430  16.772  1.00  0.00     0.053 C 
ATOM      4  C   UNL     1      15.233  18.925  18.140  1.00  0.00     0.016 C 
BRANCH   3   5
ATOM      5  C   UNL     1      14.295  16.945  16.815  1.00  0.00     0.015 C 
BRANCH   5   6
ATOM      6  C   UNL     1      14.937  15.970  15.801  1.00  0.00     0.028 C 
BRANCH   6   7
ATOM      7  C   UNL     1      14.078  14.837  15.291  1.00  0.00    -0.028 C 
ATOM      8  C   UNL     1      13.251  14.875  14.222  1.00  0.00    -0.070 CG0
ATOM      9  C   UNL     1      12.664  13.563  13.757  1.00  0.00     0.039 C 
ATOM     10  G   UNL     1      12.945  16.142  13.443  1.00  0.00     0.000 G0
ENDBRANCH   6   7
ENDBRANCH   5   6
ENDBRANCH   3   5
ENDBRANCH   1   3
BRANCH   1  11
ATOM     11  C   UNL     1      13.036  18.963  14.839  1.00  0.00     0.087 C 
BRANCH  11  12
ATOM     12  C   UNL     1      11.805  18.024  14.979  1.00  0.00     0.066 C 
BRANCH  12  13
ATOM     13  C   UNL     1      11.735  16.868  13.979  1.00  0.00     0.140 C 
ATOM     14  O   UNL     1      10.626  16.500  13.616  1.00  0.00    -0.299 OA
BRANCH  13  15
ATOM     15  C   UNL     1      12.935  16.134  13.416  1.00  0.00     0.106 CG0
ATOM     16  G   UNL     1      13.247  14.884  14.222  1.00  0.00     0.000 G0
ENDBRANCH  13  15
ENDBRANCH  12  13
BRANCH  12  17
ATOM     17  C   UNL     1      10.453  18.810  14.969  1.00  0.00    -0.006 C 
ATOM     18  C   UNL     1       9.818  18.917  16.365  1.00  0.00     0.008 C 
ATOM     19  C   UNL     1      10.568  20.203  14.326  1.00  0.00     0.008 C 
ENDBRANCH  12  17
ENDBRANCH  11  12
ENDBRANCH   1  11
TORSDOF 1
ENDMDL
MODEL 3
REMARK VINA RESULT:    -3.106      1.821      4.283
REMARK INTER + INTRA:          -5.007
REMARK INTER:                  -4.753
REMARK INTRA:                  -0.254
REMARK UNBOUND:                -0.267
REMARK SMILES CC1=CCC[C@H](C)C(=O)C[C@@H](C(C)C)C(=O)C1
REMARK SMILES IDX 8 1 9 2 6 3 7 4 5 5 4 6 3 7 2 8 1 9 10 11 11 12 15 13 16 14
REMARK SMILES IDX 17 15 12 17 13 18 14 19
REMARK H PARENT
REMARK Flexibility Score: 70.00
ROOT
ATOM      1  C   UNL     1      12.486  19.369  17.226  1.00  0.00     0.136 C 
ATOM      2  O   UNL     1      12.037  19.592  18.343  1.00  0.00    -0.299 OA
ENDROOT
BRANCH   1   3
ATOM      3  C   UNL     1      13.881  18.786  17.063  1.00  0.00     0.053 C 
ATOM      4  C   UNL     1      14.869  19.269  18.138  1.00  0.00     0.016 C 
BRANCH   3   5
ATOM      5  C   UNL     1      13.883  17.243  16.920  1.00  0.00     0.015 C 
BRANCH   5   6
ATOM      6  C   UNL     1      14.501  16.635  15.640  1.00  0.00     0.028 C 
BRANCH   6   7
ATOM      7  C   UNL     1      15.138  17.590  14.658  1.00  0.00    -0.028 C 
ATOM      8  C   UNL     1      14.538  18.157  13.587  1.00  0.00    -0.070 CG0
ATOM      9  C   UNL     1      15.293  19.256  12.876  1.00  0.00     0.039 C 
ATOM     10  G   UNL     1      13.140  17.793  13.117  1.00  0.00     0.000 G0
ENDBRANCH   6   7
ENDBRANCH   5   6
ENDBRANCH   3   5
ENDBRANCH   1   3
BRANCH   1  11
ATOM     11  C   UNL     1      11.696  19.793  16.008  1.00  0.00     0.087 C 
BRANCH  11  12
ATOM     12  C   UNL     1      11.408  18.651  14.993  1.00  0.00     0.066 C 
BRANCH  12  13
ATOM     13  C   UNL     1      12.106  18.777  13.637  1.00  0.00     0.140 C 
ATOM     14  O   UNL     1      11.804  19.729  12.931  1.00  0.00    -0.299 OA
BRANCH  13  15
ATOM     15  C   UNL     1      13.131  17.801  13.095  1.00  0.00     0.106 CG0
ATOM     16  G   UNL     1      14.531  18.149  13.572  1.00  0.00     0.000 G0
ENDBRANCH  13  15
ENDBRANCH  12  13
BRANCH  12  17
ATOM     17  C   UNL     1       9.877  18.420  14.776  1.00  0.00    -0.006 C 
ATOM     18  C   UNL     1       9.521  16.935  14.591  1.00  0.00     0.008 C 
ATOM     19  C   UNL     1       9.007  19.044  15.881  1.00  0.00     0.008 C 
ENDBRANCH  12  17
ENDBRANCH  11  12
ENDBRANCH   1  11
TORSDOF 1
ENDMDL
MODEL 4
REMARK VINA RESULT:    -3.079      1.518      2.058
REMARK INTER + INTRA:          -4.967
REMARK INTER:                  -4.813
REMARK INTRA:                  -0.153
REMARK UNBOUND:                -0.267
REMARK SMILES CC1=CCC[C@H](C)C(=O)C[C@@H](C(C)C)C(=O)C1
REMARK SMILES IDX 8 1 9 2 6 3 7 4 5 5 4 6 3 7 2 8 1 9 10 11 11 12 15 13 16 14
REMARK SMILES IDX 17 15 12 17 13 18 14 19
REMARK H PARENT
REMARK Flexibility Score: 70.00
ROOT
ATOM      1  C   UNL     1      13.842  18.057  17.150  1.00  0.00     0.136 C 
ATOM      2  O   UNL     1      14.589  18.577  17.968  1.00  0.00    -0.299 OA
ENDROOT
BRANCH   1   3
ATOM      3  C   UNL     1      12.522  18.719  16.786  1.00  0.00     0.053 C 
ATOM      4  C   UNL     1      11.802  19.339  17.995  1.00  0.00     0.016 C 
BRANCH   3   5
ATOM      5  C   UNL     1      12.646  19.717  15.607  1.00  0.00     0.015 C 
BRANCH   5   6
ATOM      6  C   UNL     1      12.269  19.219  14.193  1.00  0.00     0.028 C 
BRANCH   6   7
ATOM      7  C   UNL     1      11.199  18.157  14.096  1.00  0.00    -0.028 C 
ATOM      8  C   UNL     1      11.371  16.878  13.692  1.00  0.00    -0.070 CG0
ATOM      9  C   UNL     1      10.212  15.930  13.892  1.00  0.00     0.039 C 
ATOM     10  G   UNL     1      12.674  16.348  13.121  1.00  0.00     0.000 G0
ENDBRANCH   6   7
ENDBRANCH   5   6
ENDBRANCH   3   5
ENDBRANCH   1   3
BRANCH   1  11
ATOM     11  C   UNL     1      14.180  16.690  16.597  1.00  0.00     0.087 C 
BRANCH  11  12
ATOM     12  C   UNL     1      14.502  16.667  15.076  1.00  0.00     0.066 C 
BRANCH  12  13
ATOM     13  C   UNL     1      13.578  15.805  14.214  1.00  0.00     0.140 C 
ATOM     14  O   UNL     1      13.581  14.598  14.413  1.00  0.00    -0.299 OA
BRANCH  13  15
ATOM     15  C   UNL     1      12.669  16.333  13.122  1.00  0.00     0.106 CG0
ATOM     16  G   UNL     1      11.369  16.869  13.695  1.00  0.00     0.000 G0
ENDBRANCH  13  15
ENDBRANCH  12  13
BRANCH  12  17
ATOM     17  C   UNL     1      15.992  16.288  14.790  1.00  0.00    -0.006 C 
ATOM     18  C   UNL     1      16.298  16.175  13.287  1.00  0.00     0.008 C 
ATOM     19  C   UNL     1      16.999  17.231  15.470  1.00  0.00     0.008 C 
ENDBRANCH  12  17
ENDBRANCH  11  12
ENDBRANCH   1  11
TORSDOF 1
ENDMDL
MODEL 5
REMARK VINA RESULT:    -3.030      2.429      4.186
REMARK INTER + INTRA:          -4.892
REMARK INTER:                  -4.943
REMARK INTRA:                   0.051
REMARK UNBOUND:                -0.267
REMARK SMILES CC1=CCC[C@H](C)C(=O)C[C@@H](C(C)C)C(=O)C1
REMARK SMILES IDX 8 1 9 2 6 3 7 4 5 5 4 6 3 7 2 8 1 9 10 11 11 12 15 13 16 14
REMARK SMILES IDX 17 15 12 17 13 18 14 19
REMARK H PARENT
REMARK Flexibility Score: 70.00
ROOT
ATOM      1  C   UNL     1      13.319  20.044  16.876  1.00  0.00     0.136 C 
ATOM      2  O   UNL     1      12.356  19.967  17.626  1.00  0.00    -0.299 OA
ENDROOT
BRANCH   1   3
ATOM      3  C   UNL     1      14.401  18.975  16.905  1.00  0.00     0.053 C 
ATOM      4  C   UNL     1      15.082  18.839  18.277  1.00  0.00     0.016 C 
BRANCH   3   5
ATOM      5  C   UNL     1      13.921  17.608  16.355  1.00  0.00     0.015 C 
BRANCH   5   6
ATOM      6  C   UNL     1      13.325  17.569  14.929  1.00  0.00     0.028 C 
BRANCH   6   7
ATOM      7  C   UNL     1      11.834  17.776  14.795  1.00  0.00    -0.028 C 
ATOM      8  C   UNL     1      11.220  18.811  14.179  1.00  0.00    -0.070 CG0
ATOM      9  C   UNL     1       9.729  18.699  13.964  1.00  0.00     0.039 C 
ATOM     10  G   UNL     1      11.957  20.025  13.642  1.00  0.00     0.000 G0
ENDBRANCH   6   7
ENDBRANCH   5   6
ENDBRANCH   3   5
ENDBRANCH   1   3
BRANCH   1  11
ATOM     11  C   UNL     1      13.492  21.271  16.009  1.00  0.00     0.087 C 
BRANCH  11  12
ATOM     12  C   UNL     1      12.163  21.941  15.561  1.00  0.00     0.066 C 
BRANCH  12  13
ATOM     13  C   UNL     1      11.482  21.316  14.341  1.00  0.00     0.140 C 
ATOM     14  O   UNL     1      10.486  21.873  13.901  1.00  0.00    -0.299 OA
BRANCH  13  15
ATOM     15  C   UNL     1      11.941  20.050  13.646  1.00  0.00     0.106 CG0
ATOM     16  G   UNL     1      11.221  18.828  14.192  1.00  0.00     0.000 G0
ENDBRANCH  13  15
ENDBRANCH  12  13
BRANCH  12  17
ATOM     17  C   UNL     1      12.317  23.482  15.344  1.00  0.00    -0.006 C 
ATOM     18  C   UNL     1      11.705  24.307  16.488  1.00  0.00     0.008 C 
ATOM     19  C   UNL     1      13.771  23.916  15.091  1.00  0.00     0.008 C 
ENDBRANCH  12  17
ENDBRANCH  11  12
ENDBRANCH   1  11
TORSDOF 1
ENDMDL
MODEL 6
REMARK VINA RESULT:    -3.001      2.167      4.664
REMARK INTER + INTRA:          -4.848
REMARK INTER:                  -4.855
REMARK INTRA:                   0.007
REMARK UNBOUND:                -0.267
REMARK SMILES CC1=CCC[C@H](C)C(=O)C[C@@H](C(C)C)C(=O)C1
REMARK SMILES IDX 8 1 9 2 6 3 7 4 5 5 4 6 3 7 2 8 1 9 10 11 11 12 15 13 16 14
REMARK SMILES IDX 17 15 12 17 13 18 14 19
REMARK H PARENT
REMARK Flexibility Score: 70.00
ROOT
ATOM      1  C   UNL     1       8.687  18.853  15.582  1.00  0.00     0.136 C 
ATOM      2  O   UNL     1       8.400  19.945  15.110  1.00  0.00    -0.299 OA
ENDROOT
BRANCH   1   3
ATOM      3  C   UNL     1       7.663  17.729  15.594  1.00  0.00     0.053 C 
ATOM      4  C   UNL     1       6.366  18.083  14.847  1.00  0.00     0.016 C 
BRANCH   3   5
ATOM      5  C   UNL     1       8.246  16.369  15.136  1.00  0.00     0.015 C 
BRANCH   5   6
ATOM      6  C   UNL     1       8.876  16.288  13.726  1.00  0.00     0.028 C 
BRANCH   6   7
ATOM      7  C   UNL     1      10.200  15.572  13.599  1.00  0.00    -0.028 C 
ATOM      8  C   UNL     1      11.419  16.148  13.505  1.00  0.00    -0.070 CG0
ATOM      9  C   UNL     1      12.622  15.242  13.618  1.00  0.00     0.039 C 
ATOM     10  G   UNL     1      11.629  17.646  13.361  1.00  0.00     0.000 G0
ENDBRANCH   6   7
ENDBRANCH   5   6
ENDBRANCH   3   5
ENDBRANCH   1   3
BRANCH   1  11
ATOM     11  C   UNL     1      10.024  18.666  16.265  1.00  0.00     0.087 C 
BRANCH  11  12
ATOM     12  C   UNL     1      11.233  19.275  15.501  1.00  0.00     0.066 C 
BRANCH  12  13
ATOM     13  C   UNL     1      12.072  18.285  14.690  1.00  0.00     0.140 C 
ATOM     14  O   UNL     1      13.176  17.988  15.126  1.00  0.00    -0.299 OA
BRANCH  13  15
ATOM     15  C   UNL     1      11.645  17.657  13.379  1.00  0.00     0.106 CG0
ATOM     16  G   UNL     1      11.442  16.159  13.523  1.00  0.00     0.000 G0
ENDBRANCH  13  15
ENDBRANCH  12  13
BRANCH  12  17
ATOM     17  C   UNL     1      12.167  20.112  16.436  1.00  0.00    -0.006 C 
ATOM     18  C   UNL     1      12.166  21.610  16.088  1.00  0.00     0.008 C 
ATOM     19  C   UNL     1      11.865  19.910  17.931  1.00  0.00     0.008 C 
ENDBRANCH  12  17
ENDBRANCH  11  12
ENDBRANCH   1  11
TORSDOF 1
ENDMDL
MODEL 7
REMARK VINA RESULT:    -2.911      1.618      2.165
REMARK INTER + INTRA:          -4.710
REMARK INTER:                  -4.818
REMARK INTRA:                   0.108
REMARK UNBOUND:                -0.267
REMARK SMILES CC1=CCC[C@H](C)C(=O)C[C@@H](C(C)C)C(=O)C1
REMARK SMILES IDX 8 1 9 2 6 3 7 4 5 5 4 6 3 7 2 8 1 9 10 11 11 12 15 13 16 14
REMARK SMILES IDX 17 15 12 17 13 18 14 19
REMARK H PARENT
REMARK Flexibility Score: 70.00
ROOT
ATOM      1  C   UNL     1      15.108  17.808  16.550  1.00  0.00     0.136 C 
ATOM      2  O   UNL     1      16.278  17.824  16.191  1.00  0.00    -0.299 OA
ENDROOT
BRANCH   1   3
ATOM      3  C   UNL     1      14.676  18.573  17.791  1.00  0.00     0.053 C 
ATOM      4  C   UNL     1      15.858  19.033  18.660  1.00  0.00     0.016 C 
BRANCH   3   5
ATOM      5  C   UNL     1      13.695  19.732  17.481  1.00  0.00     0.015 C 
BRANCH   5   6
ATOM      6  C   UNL     1      12.180  19.424  17.503  1.00  0.00     0.028 C 
BRANCH   6   7
ATOM      7  C   UNL     1      11.329  20.065  16.432  1.00  0.00    -0.028 C 
ATOM      8  C   UNL     1      10.903  19.482  15.289  1.00  0.00    -0.070 CG0
ATOM      9  C   UNL     1       9.874  20.231  14.474  1.00  0.00     0.039 C 
ATOM     10  G   UNL     1      11.353  18.105  14.831  1.00  0.00     0.000 G0
ENDBRANCH   6   7
ENDBRANCH   5   6
ENDBRANCH   3   5
ENDBRANCH   1   3
BRANCH   1  11
ATOM     11  C   UNL     1      14.119  16.922  15.825  1.00  0.00     0.087 C 
BRANCH  11  12
ATOM     12  C   UNL     1      13.890  17.292  14.332  1.00  0.00     0.066 C 
BRANCH  12  13
ATOM     13  C   UNL     1      12.654  18.146  14.042  1.00  0.00     0.140 C 
ATOM     14  O   UNL     1      12.721  18.941  13.115  1.00  0.00    -0.299 OA
BRANCH  13  15
ATOM     15  C   UNL     1      11.359  18.093  14.827  1.00  0.00     0.106 CG0
ATOM     16  G   UNL     1      10.935  19.476  15.290  1.00  0.00     0.000 G0
ENDBRANCH  13  15
ENDBRANCH  12  13
BRANCH  12  17
ATOM     17  C   UNL     1      13.890  16.035  13.401  1.00  0.00    -0.006 C 
ATOM     18  C   UNL     1      15.289  15.418  13.236  1.00  0.00     0.008 C 
ATOM     19  C   UNL     1      12.880  14.959  13.836  1.00  0.00     0.008 C 
ENDBRANCH  12  17
ENDBRANCH  11  12
ENDBRANCH   1  11
TORSDOF 1
ENDMDL
MODEL 8
REMARK VINA RESULT:    -2.857      2.039      4.757
REMARK INTER + INTRA:          -4.628
REMARK INTER:                  -4.428
REMARK INTRA:                  -0.200
REMARK UNBOUND:                -0.267
REMARK SMILES CC1=CCC[C@H](C)C(=O)C[C@@H](C(C)C)C(=O)C1
REMARK SMILES IDX 8 1 9 2 6 3 7 4 5 5 4 6 3 7 2 8 1 9 10 11 11 12 15 13 16 14
REMARK SMILES IDX 17 15 12 17 13 18 14 19
REMARK H PARENT
REMARK Flexibility Score: 70.00
ROOT
ATOM      1  C   UNL     1      10.157  19.089  15.799  1.00  0.00     0.136 C 
ATOM      2  O   UNL     1       9.642  18.289  16.568  1.00  0.00    -0.299 OA
ENDROOT
BRANCH   1   3
ATOM      3  C   UNL     1      10.095  18.858  14.297  1.00  0.00     0.053 C 
ATOM      4  C   UNL     1       9.706  20.119  13.507  1.00  0.00     0.016 C 
BRANCH   3   5
ATOM      5  C   UNL     1      11.372  18.187  13.731  1.00  0.00     0.015 C 
BRANCH   5   6
ATOM      6  C   UNL     1      11.944  16.965  14.488  1.00  0.00     0.028 C 
BRANCH   6   7
ATOM      7  C   UNL     1      13.440  16.917  14.693  1.00  0.00    -0.028 C 
ATOM      8  C   UNL     1      14.112  17.314  15.797  1.00  0.00    -0.070 CG0
ATOM      9  C   UNL     1      15.579  16.963  15.874  1.00  0.00     0.039 C 
ATOM     10  G   UNL     1      13.455  18.023  16.969  1.00  0.00     0.000 G0
ENDBRANCH   6   7
ENDBRANCH   5   6
ENDBRANCH   3   5
ENDBRANCH   1   3
BRANCH   1  11
ATOM     11  C   UNL     1      10.963  20.242  16.355  1.00  0.00     0.087 C 
BRANCH  11  12
ATOM     12  C   UNL     1      12.446  20.281  15.888  1.00  0.00     0.066 C 
BRANCH  12  13
ATOM     13  C   UNL     1      13.441  19.530  16.775  1.00  0.00     0.140 C 
ATOM     14  O   UNL     1      14.294  20.189  17.353  1.00  0.00    -0.299 OA
BRANCH  13  15
ATOM     15  C   UNL     1      13.459  18.028  16.977  1.00  0.00     0.106 CG0
ATOM     16  G   UNL     1      14.121  17.320  15.807  1.00  0.00     0.000 G0
ENDBRANCH  13  15
ENDBRANCH  12  13
BRANCH  12  17
ATOM     17  C   UNL     1      12.955  21.740  15.647  1.00  0.00    -0.006 C 
ATOM     18  C   UNL     1      13.093  22.082  14.154  1.00  0.00     0.008 C 
ATOM     19  C   UNL     1      12.105  22.805  16.362  1.00  0.00     0.008 C 
ENDBRANCH  12  17
ENDBRANCH  11  12
ENDBRANCH   1  11
TORSDOF 1
ENDMDL
MODEL 9
REMARK VINA RESULT:    -2.800      2.254      4.445
REMARK INTER + INTRA:          -4.541
REMARK INTER:                  -4.886
REMARK INTRA:                   0.345
REMARK UNBOUND:                -0.267
REMARK SMILES CC1=CCC[C@H](C)C(=O)C[C@@H](C(C)C)C(=O)C1
REMARK SMILES IDX 8 1 9 2 6 3 7 4 5 5 4 6 3 7 2 8 1 9 10 11 11 12 15 13 16 14
REMARK SMILES IDX 17 15 12 17 13 18 14 19
REMARK H PARENT
REMARK Flexibility Score: 70.00
ROOT
ATOM      1  C   UNL     1      12.202  21.025  16.503  1.00  0.00     0.136 C 
ATOM      2  O   UNL     1      11.782  22.155  16.710  1.00  0.00    -0.299 OA
ENDROOT
BRANCH   1   3
ATOM      3  C   UNL     1      12.499  20.092  17.666  1.00  0.00     0.053 C 
ATOM      4  C   UNL     1      11.578  18.862  17.707  1.00  0.00     0.016 C 
BRANCH   3   5
ATOM      5  C   UNL     1      13.996  19.702  17.767  1.00  0.00     0.015 C 
BRANCH   5   6
ATOM      6  C   UNL     1      14.374  18.218  17.554  1.00  0.00     0.028 C 
BRANCH   6   7
ATOM      7  C   UNL     1      15.562  17.928  16.667  1.00  0.00    -0.028 C 
ATOM      8  C   UNL     1      15.521  17.516  15.379  1.00  0.00    -0.070 CG0
ATOM      9  C   UNL     1      16.825  17.508  14.616  1.00  0.00     0.039 C 
ATOM     10  G   UNL     1      14.238  17.135  14.662  1.00  0.00     0.000 G0
ENDBRANCH   6   7
ENDBRANCH   5   6
ENDBRANCH   3   5
ENDBRANCH   1   3
BRANCH   1  11
ATOM     11  C   UNL     1      12.541  20.605  15.090  1.00  0.00     0.087 C 
BRANCH  11  12
ATOM     12  C   UNL     1      12.352  19.089  14.802  1.00  0.00     0.066 C 
BRANCH  12  13
ATOM     13  C   UNL     1      13.533  18.389  14.125  1.00  0.00     0.140 C 
ATOM     14  O   UNL     1      13.935  18.853  13.067  1.00  0.00    -0.299 OA
BRANCH  13  15
ATOM     15  C   UNL     1      14.232  17.155  14.659  1.00  0.00     0.106 CG0
ATOM     16  G   UNL     1      15.520  17.516  15.378  1.00  0.00     0.000 G0
ENDBRANCH  13  15
ENDBRANCH  12  13
BRANCH  12  17
ATOM     17  C   UNL     1      11.040  18.794  14.004  1.00  0.00    -0.006 C 
ATOM     18  C   UNL     1      10.301  17.546  14.514  1.00  0.00     0.008 C 
ATOM     19  C   UNL     1      10.082  19.997  13.948  1.00  0.00     0.008 C 
ENDBRANCH  12  17
ENDBRANCH  11  12
ENDBRANCH   1  11
TORSDOF 1
ENDMDL
