MODEL 1
REMARK VINA RESULT:    -4.520      0.000      0.000
REMARK INTER + INTRA:          -6.399
REMARK INTER:                  -5.841
REMARK INTRA:                  -0.558
REMARK UNBOUND:                -0.558
REMARK SMILES CO[C@]1(CO)O[C@H](CO)[C@H](O)[C@H]1O
REMARK SMILES IDX 3 1 12 2 10 3 7 4 6 5 2 6 1 7 4 8 5 9 13 11 11 13 8 15 9 16
REMARK H PARENT 5 10 13 12 11 14 9 17
REMARK Flexibility Score: inf
ROOT
ATOM      1  C   UNL     1     232.864 240.186 240.862  1.00  0.00     0.221 C 
ATOM      2  C   UNL     1     233.068 239.824 239.379  1.00  0.00     0.207 C 
ATOM      3  C   UNL     1     234.293 238.953 239.410  1.00  0.00     0.180 C 
ATOM      4  C   UNL     1     235.059 239.512 240.609  1.00  0.00     0.179 C 
ATOM      5  O   UNL     1     234.133 240.099 241.501  1.00  0.00    -0.337 OA
ENDROOT
BRANCH   1   6
ATOM      6  O   UNL     1     232.340 241.512 240.914  1.00  0.00    -0.349 OA
ATOM      7  C   UNL     1     232.862 242.267 241.989  1.00  0.00     0.198 C 
ENDBRANCH   1   6
BRANCH   1   8
ATOM      8  C   UNL     1     231.897 239.204 241.572  1.00  0.00     0.224 C 
BRANCH   8   9
ATOM      9  O   UNL     1     230.567 239.510 241.258  1.00  0.00    -0.391 OA
ATOM     10  H   UNL     1     230.009 239.041 241.931  1.00  0.00     0.210 HD
ENDBRANCH   8   9
ENDBRANCH   1   8
BRANCH   2  11
ATOM     11  O   UNL     1     231.968 239.150 238.822  1.00  0.00    -0.385 OA
ATOM     12  H   UNL     1     231.218 239.249 239.465  1.00  0.00     0.211 HD
ENDBRANCH   2  11
BRANCH   3  13
ATOM     13  O   UNL     1     235.023 239.037 238.213  1.00  0.00    -0.387 OA
ATOM     14  H   UNL     1     234.408 238.754 237.486  1.00  0.00     0.211 HD
ENDBRANCH   3  13
BRANCH   4  15
ATOM     15  C   UNL     1     236.118 240.565 240.228  1.00  0.00     0.191 C 
BRANCH  15  16
ATOM     16  O   UNL     1     237.380 239.967 240.106  1.00  0.00    -0.394 OA
ATOM     17  H   UNL     1     237.244 239.112 239.619  1.00  0.00     0.210 HD
ENDBRANCH  15  16
ENDBRANCH   4  15
TORSDOF 7
ENDMDL
MODEL 2
REMARK VINA RESULT:    -4.359      1.367      3.011
REMARK INTER + INTRA:          -6.191
REMARK INTER:                  -5.636
REMARK INTRA:                  -0.555
REMARK UNBOUND:                -0.558
REMARK SMILES CO[C@]1(CO)O[C@H](CO)[C@H](O)[C@H]1O
REMARK SMILES IDX 3 1 12 2 10 3 7 4 6 5 2 6 1 7 4 8 5 9 13 11 11 13 8 15 9 16
REMARK H PARENT 5 10 13 12 11 14 9 17
REMARK Flexibility Score: inf
ROOT
ATOM      1  C   UNL     1     233.166 240.791 241.524  1.00  0.00     0.221 C 
ATOM      2  C   UNL     1     234.579 240.416 242.007  1.00  0.00     0.207 C 
ATOM      3  C   UNL     1     235.417 240.598 240.771  1.00  0.00     0.180 C 
ATOM      4  C   UNL     1     234.423 240.278 239.655  1.00  0.00     0.179 C 
ATOM      5  O   UNL     1     233.118 240.556 240.121  1.00  0.00    -0.337 OA
ENDROOT
BRANCH   1   6
ATOM      6  O   UNL     1     232.238 239.966 242.226  1.00  0.00    -0.349 OA
ATOM      7  C   UNL     1     231.358 239.273 241.365  1.00  0.00     0.198 C 
ENDBRANCH   1   6
BRANCH   1   8
ATOM      8  C   UNL     1     232.844 242.287 241.774  1.00  0.00     0.224 C 
BRANCH   8   9
ATOM      9  O   UNL     1     232.107 242.440 242.956  1.00  0.00    -0.391 OA
ATOM     10  H   UNL     1     231.319 242.996 242.720  1.00  0.00     0.210 HD
ENDBRANCH   8   9
ENDBRANCH   1   8
BRANCH   2  11
ATOM     11  O   UNL     1     235.032 241.227 243.062  1.00  0.00    -0.385 OA
ATOM     12  H   UNL     1     234.970 240.680 243.888  1.00  0.00     0.211 HD
ENDBRANCH   2  11
BRANCH   3  13
ATOM     13  O   UNL     1     236.532 239.744 240.766  1.00  0.00    -0.387 OA
ATOM     14  H   UNL     1     237.324 240.312 240.579  1.00  0.00     0.211 HD
ENDBRANCH   3  13
BRANCH   4  15
ATOM     15  C   UNL     1     234.480 238.814 239.180  1.00  0.00     0.191 C 
BRANCH  15  16
ATOM     16  O   UNL     1     235.513 238.642 238.248  1.00  0.00    -0.394 OA
ATOM     17  H   UNL     1     235.136 238.874 237.359  1.00  0.00     0.210 HD
ENDBRANCH  15  16
ENDBRANCH   4  15
TORSDOF 7
ENDMDL
MODEL 3
REMARK VINA RESULT:    -4.284      1.805      3.733
REMARK INTER + INTRA:          -6.095
REMARK INTER:                  -5.991
REMARK INTRA:                  -0.104
REMARK UNBOUND:                -0.558
REMARK SMILES CO[C@]1(CO)O[C@H](CO)[C@H](O)[C@H]1O
REMARK SMILES IDX 3 1 12 2 10 3 7 4 6 5 2 6 1 7 4 8 5 9 13 11 11 13 8 15 9 16
REMARK H PARENT 5 10 13 12 11 14 9 17
REMARK Flexibility Score: inf
ROOT
ATOM      1  C   UNL     1     232.974 240.882 242.712  1.00  0.00     0.221 C 
ATOM      2  C   UNL     1     234.244 240.375 242.003  1.00  0.00     0.207 C 
ATOM      3  C   UNL     1     233.883 240.481 240.546  1.00  0.00     0.180 C 
ATOM      4  C   UNL     1     232.371 240.259 240.570  1.00  0.00     0.179 C 
ATOM      5  O   UNL     1     231.877 240.657 241.834  1.00  0.00    -0.337 OA
ENDROOT
BRANCH   1   6
ATOM      6  O   UNL     1     232.835 240.147 243.925  1.00  0.00    -0.349 OA
ATOM      7  C   UNL     1     233.284 240.864 245.057  1.00  0.00     0.198 C 
ENDBRANCH   1   6
BRANCH   1   8
ATOM      8  C   UNL     1     233.046 242.401 243.015  1.00  0.00     0.224 C 
BRANCH   8   9
ATOM      9  O   UNL     1     232.246 243.120 242.117  1.00  0.00    -0.391 OA
ATOM     10  H   UNL     1     232.564 242.878 241.208  1.00  0.00     0.210 HD
ENDBRANCH   8   9
ENDBRANCH   1   8
BRANCH   2  11
ATOM     11  O   UNL     1     235.385 241.136 242.309  1.00  0.00    -0.385 OA
ATOM     12  H   UNL     1     235.247 242.032 241.904  1.00  0.00     0.211 HD
ENDBRANCH   2  11
BRANCH   3  13
ATOM     13  O   UNL     1     234.560 239.526 239.771  1.00  0.00    -0.387 OA
ATOM     14  H   UNL     1     234.074 239.466 238.907  1.00  0.00     0.211 HD
ENDBRANCH   3  13
BRANCH   4  15
ATOM     15  C   UNL     1     231.958 238.797 240.313  1.00  0.00     0.191 C 
BRANCH  15  16
ATOM     16  O   UNL     1     230.669 238.558 240.812  1.00  0.00    -0.394 OA
ATOM     17  H   UNL     1     230.227 239.443 240.894  1.00  0.00     0.210 HD
ENDBRANCH  15  16
ENDBRANCH   4  15
TORSDOF 7
ENDMDL
MODEL 4
REMARK VINA RESULT:    -4.245      1.519      4.302
REMARK INTER + INTRA:          -6.044
REMARK INTER:                  -5.631
REMARK INTRA:                  -0.413
REMARK UNBOUND:                -0.558
REMARK SMILES CO[C@]1(CO)O[C@H](CO)[C@H](O)[C@H]1O
REMARK SMILES IDX 3 1 12 2 10 3 7 4 6 5 2 6 1 7 4 8 5 9 13 11 11 13 8 15 9 16
REMARK H PARENT 5 10 13 12 11 14 9 17
REMARK Flexibility Score: inf
ROOT
ATOM      1  C   UNL     1     235.155 239.292 240.009  1.00  0.00     0.221 C 
ATOM      2  C   UNL     1     234.792 238.934 238.555  1.00  0.00     0.207 C 
ATOM      3  C   UNL     1     233.473 239.627 238.356  1.00  0.00     0.180 C 
ATOM      4  C   UNL     1     232.879 239.606 239.764  1.00  0.00     0.179 C 
ATOM      5  O   UNL     1     233.938 239.557 240.699  1.00  0.00    -0.337 OA
ENDROOT
BRANCH   1   6
ATOM      6  O   UNL     1     235.844 238.177 240.568  1.00  0.00    -0.349 OA
ATOM      7  C   UNL     1     235.433 236.943 240.015  1.00  0.00     0.198 C 
ENDBRANCH   1   6
BRANCH   1   8
ATOM      8  C   UNL     1     236.041 240.562 240.090  1.00  0.00     0.224 C 
BRANCH   8   9
ATOM      9  O   UNL     1     237.396 240.224 239.972  1.00  0.00    -0.391 OA
ATOM     10  H   UNL     1     237.536 239.973 239.021  1.00  0.00     0.210 HD
ENDBRANCH   8   9
ENDBRANCH   1   8
BRANCH   2  11
ATOM     11  O   UNL     1     235.752 239.372 237.626  1.00  0.00    -0.385 OA
ATOM     12  H   UNL     1     235.644 238.806 236.818  1.00  0.00     0.211 HD
ENDBRANCH   2  11
BRANCH   3  13
ATOM     13  O   UNL     1     232.669 238.958 237.418  1.00  0.00    -0.387 OA
ATOM     14  H   UNL     1     232.545 239.582 236.655  1.00  0.00     0.211 HD
ENDBRANCH   3  13
BRANCH   4  15
ATOM     15  C   UNL     1     231.936 238.415 240.018  1.00  0.00     0.191 C 
BRANCH  15  16
ATOM     16  O   UNL     1     230.885 238.794 240.865  1.00  0.00    -0.394 OA
ATOM     17  H   UNL     1     230.969 239.774 241.000  1.00  0.00     0.210 HD
ENDBRANCH  15  16
ENDBRANCH   4  15
TORSDOF 7
ENDMDL
MODEL 5
REMARK VINA RESULT:    -4.237      1.564      4.558
REMARK INTER + INTRA:          -6.034
REMARK INTER:                  -5.444
REMARK INTRA:                  -0.590
REMARK UNBOUND:                -0.558
REMARK SMILES CO[C@]1(CO)O[C@H](CO)[C@H](O)[C@H]1O
REMARK SMILES IDX 3 1 12 2 10 3 7 4 6 5 2 6 1 7 4 8 5 9 13 11 11 13 8 15 9 16
REMARK H PARENT 5 10 13 12 11 14 9 17
REMARK Flexibility Score: inf
ROOT
ATOM      1  C   UNL     1     235.788 239.141 239.475  1.00  0.00     0.221 C 
ATOM      2  C   UNL     1     235.105 240.390 240.063  1.00  0.00     0.207 C 
ATOM      3  C   UNL     1     234.063 239.805 240.977  1.00  0.00     0.180 C 
ATOM      4  C   UNL     1     233.725 238.486 240.282  1.00  0.00     0.179 C 
ATOM      5  O   UNL     1     234.846 238.076 239.526  1.00  0.00    -0.337 OA
ENDROOT
BRANCH   1   6
ATOM      6  O   UNL     1     236.162 239.447 238.133  1.00  0.00    -0.349 OA
ATOM      7  C   UNL     1     235.267 240.342 237.503  1.00  0.00     0.198 C 
ENDBRANCH   1   6
BRANCH   1   8
ATOM      8  C   UNL     1     237.037 238.722 240.293  1.00  0.00     0.224 C 
BRANCH   8   9
ATOM      9  O   UNL     1     238.080 239.638 240.102  1.00  0.00    -0.391 OA
ATOM     10  H   UNL     1     238.028 240.277 240.860  1.00  0.00     0.210 HD
ENDBRANCH   8   9
ENDBRANCH   1   8
BRANCH   2  11
ATOM     11  O   UNL     1     235.994 241.225 240.760  1.00  0.00    -0.385 OA
ATOM     12  H   UNL     1     235.632 241.323 241.679  1.00  0.00     0.211 HD
ENDBRANCH   2  11
BRANCH   3  13
ATOM     13  O   UNL     1     232.950 240.651 241.107  1.00  0.00    -0.387 OA
ATOM     14  H   UNL     1     232.436 240.325 241.891  1.00  0.00     0.211 HD
ENDBRANCH   3  13
BRANCH   4  15
ATOM     15  C   UNL     1     232.502 238.577 239.350  1.00  0.00     0.191 C 
BRANCH  15  16
ATOM     16  O   UNL     1     231.319 238.375 240.075  1.00  0.00    -0.394 OA
ATOM     17  H   UNL     1     231.256 239.118 240.730  1.00  0.00     0.210 HD
ENDBRANCH  15  16
ENDBRANCH   4  15
TORSDOF 7
ENDMDL
MODEL 6
REMARK VINA RESULT:    -4.208      1.749      3.642
REMARK INTER + INTRA:          -5.996
REMARK INTER:                  -5.445
REMARK INTRA:                  -0.551
REMARK UNBOUND:                -0.558
REMARK SMILES CO[C@]1(CO)O[C@H](CO)[C@H](O)[C@H]1O
REMARK SMILES IDX 3 1 12 2 10 3 7 4 6 5 2 6 1 7 4 8 5 9 13 11 11 13 8 15 9 16
REMARK H PARENT 5 10 13 12 11 14 9 17
REMARK Flexibility Score: inf
ROOT
ATOM      1  C   UNL     1     233.664 239.658 240.183  1.00  0.00     0.221 C 
ATOM      2  C   UNL     1     232.385 240.040 240.951  1.00  0.00     0.207 C 
ATOM      3  C   UNL     1     232.766 241.333 241.618  1.00  0.00     0.180 C 
ATOM      4  C   UNL     1     234.269 241.156 241.835  1.00  0.00     0.179 C 
ATOM      5  O   UNL     1     234.762 240.264 240.856  1.00  0.00    -0.337 OA
ENDROOT
BRANCH   1   6
ATOM      6  O   UNL     1     233.764 238.236 240.193  1.00  0.00    -0.349 OA
ATOM      7  C   UNL     1     235.092 237.777 240.041  1.00  0.00     0.198 C 
ENDBRANCH   1   6
BRANCH   1   8
ATOM      8  C   UNL     1     233.644 240.181 238.724  1.00  0.00     0.224 C 
BRANCH   8   9
ATOM      9  O   UNL     1     232.866 239.344 237.913  1.00  0.00    -0.391 OA
ATOM     10  H   UNL     1     232.018 239.192 238.406  1.00  0.00     0.210 HD
ENDBRANCH   8   9
ENDBRANCH   1   8
BRANCH   2  11
ATOM     11  O   UNL     1     231.269 240.201 240.112  1.00  0.00    -0.385 OA
ATOM     12  H   UNL     1     230.847 241.064 240.362  1.00  0.00     0.211 HD
ENDBRANCH   2  11
BRANCH   3  13
ATOM     13  O   UNL     1     232.063 241.526 242.820  1.00  0.00    -0.387 OA
ATOM     14  H   UNL     1     231.520 242.348 242.701  1.00  0.00     0.211 HD
ENDBRANCH   3  13
BRANCH   4  15
ATOM     15  C   UNL     1     234.631 240.614 243.230  1.00  0.00     0.191 C 
BRANCH  15  16
ATOM     16  O   UNL     1     234.449 241.607 244.204  1.00  0.00    -0.394 OA
ATOM     17  H   UNL     1     234.202 241.139 245.044  1.00  0.00     0.210 HD
ENDBRANCH  15  16
ENDBRANCH   4  15
TORSDOF 7
ENDMDL
MODEL 7
REMARK VINA RESULT:    -4.205      1.589      3.618
REMARK INTER + INTRA:          -5.992
REMARK INTER:                  -5.835
REMARK INTRA:                  -0.157
REMARK UNBOUND:                -0.558
REMARK SMILES CO[C@]1(CO)O[C@H](CO)[C@H](O)[C@H]1O
REMARK SMILES IDX 3 1 12 2 10 3 7 4 6 5 2 6 1 7 4 8 5 9 13 11 11 13 8 15 9 16
REMARK H PARENT 5 10 13 12 11 14 9 17
REMARK Flexibility Score: inf
ROOT
ATOM      1  C   UNL     1     233.315 239.917 239.946  1.00  0.00     0.221 C 
ATOM      2  C   UNL     1     234.684 240.033 240.642  1.00  0.00     0.207 C 
ATOM      3  C   UNL     1     234.313 240.227 242.087  1.00  0.00     0.180 C 
ATOM      4  C   UNL     1     232.973 240.954 241.982  1.00  0.00     0.179 C 
ATOM      5  O   UNL     1     232.367 240.609 240.753  1.00  0.00    -0.337 OA
ENDROOT
BRANCH   1   6
ATOM      6  O   UNL     1     233.437 240.510 238.655  1.00  0.00    -0.349 OA
ATOM      7  C   UNL     1     233.724 239.567 237.642  1.00  0.00     0.198 C 
ENDBRANCH   1   6
BRANCH   1   8
ATOM      8  C   UNL     1     232.852 238.444 239.814  1.00  0.00     0.224 C 
BRANCH   8   9
ATOM      9  O   UNL     1     231.478 238.336 240.062  1.00  0.00    -0.391 OA
ATOM     10  H   UNL     1     231.261 239.042 240.727  1.00  0.00     0.210 HD
ENDBRANCH   8   9
ENDBRANCH   1   8
BRANCH   2  11
ATOM     11  O   UNL     1     235.488 238.894 240.464  1.00  0.00    -0.385 OA
ATOM     12  H   UNL     1     234.944 238.114 240.749  1.00  0.00     0.211 HD
ENDBRANCH   2  11
BRANCH   3  13
ATOM     13  O   UNL     1     235.282 240.972 242.778  1.00  0.00    -0.387 OA
ATOM     14  H   UNL     1     234.830 241.358 243.573  1.00  0.00     0.211 HD
ENDBRANCH   3  13
BRANCH   4  15
ATOM     15  C   UNL     1     233.096 242.488 242.062  1.00  0.00     0.191 C 
BRANCH  15  16
ATOM     16  O   UNL     1     232.018 243.029 242.778  1.00  0.00    -0.394 OA
ATOM     17  H   UNL     1     232.162 242.791 243.731  1.00  0.00     0.210 HD
ENDBRANCH  15  16
ENDBRANCH   4  15
TORSDOF 7
ENDMDL
MODEL 8
REMARK VINA RESULT:    -4.193      8.458     10.234
REMARK INTER + INTRA:          -5.976
REMARK INTER:                  -5.497
REMARK INTRA:                  -0.479
REMARK UNBOUND:                -0.558
REMARK SMILES CO[C@]1(CO)O[C@H](CO)[C@H](O)[C@H]1O
REMARK SMILES IDX 3 1 12 2 10 3 7 4 6 5 2 6 1 7 4 8 5 9 13 11 11 13 8 15 9 16
REMARK H PARENT 5 10 13 12 11 14 9 17
REMARK Flexibility Score: inf
ROOT
ATOM      1  C   UNL     1     234.466 238.534 231.345  1.00  0.00     0.221 C 
ATOM      2  C   UNL     1     235.601 239.576 231.342  1.00  0.00     0.207 C 
ATOM      3  C   UNL     1     235.542 240.135 229.947  1.00  0.00     0.180 C 
ATOM      4  C   UNL     1     235.027 238.944 229.141  1.00  0.00     0.179 C 
ATOM      5  O   UNL     1     234.273 238.112 229.999  1.00  0.00    -0.337 OA
ENDROOT
BRANCH   1   6
ATOM      6  O   UNL     1     234.875 237.454 232.181  1.00  0.00    -0.349 OA
ATOM      7  C   UNL     1     236.260 237.187 232.095  1.00  0.00     0.198 C 
ENDBRANCH   1   6
BRANCH   1   8
ATOM      8  C   UNL     1     233.131 239.131 231.860  1.00  0.00     0.224 C 
BRANCH   8   9
ATOM      9  O   UNL     1     233.090 239.107 233.260  1.00  0.00    -0.391 OA
ATOM     10  H   UNL     1     233.881 239.622 233.568  1.00  0.00     0.210 HD
ENDBRANCH   8   9
ENDBRANCH   1   8
BRANCH   2  11
ATOM     11  O   UNL     1     235.427 240.580 232.310  1.00  0.00    -0.385 OA
ATOM     12  H   UNL     1     236.288 240.658 232.797  1.00  0.00     0.211 HD
ENDBRANCH   2  11
BRANCH   3  13
ATOM     13  O   UNL     1     236.801 240.582 229.512  1.00  0.00    -0.387 OA
ATOM     14  H   UNL     1     237.475 240.129 230.083  1.00  0.00     0.211 HD
ENDBRANCH   3  13
BRANCH   4  15
ATOM     15  C   UNL     1     236.146 238.106 228.494  1.00  0.00     0.191 C 
BRANCH  15  16
ATOM     16  O   UNL     1     235.724 236.782 228.313  1.00  0.00    -0.394 OA
ATOM     17  H   UNL     1     234.824 236.825 227.895  1.00  0.00     0.210 HD
ENDBRANCH  15  16
ENDBRANCH   4  15
TORSDOF 7
ENDMDL
MODEL 9
REMARK VINA RESULT:    -4.186      1.320      4.066
REMARK INTER + INTRA:          -5.967
REMARK INTER:                  -5.882
REMARK INTRA:                  -0.085
REMARK UNBOUND:                -0.558
REMARK SMILES CO[C@]1(CO)O[C@H](CO)[C@H](O)[C@H]1O
REMARK SMILES IDX 3 1 12 2 10 3 7 4 6 5 2 6 1 7 4 8 5 9 13 11 11 13 8 15 9 16
REMARK H PARENT 5 10 13 12 11 14 9 17
REMARK Flexibility Score: inf
ROOT
ATOM      1  C   UNL     1     234.524 239.271 239.978  1.00  0.00     0.221 C 
ATOM      2  C   UNL     1     233.263 239.519 239.128  1.00  0.00     0.207 C 
ATOM      3  C   UNL     1     232.651 240.730 239.779  1.00  0.00     0.180 C 
ATOM      4  C   UNL     1     233.085 240.569 241.236  1.00  0.00     0.179 C 
ATOM      5  O   UNL     1     234.282 239.819 241.269  1.00  0.00    -0.337 OA
ENDROOT
BRANCH   1   6
ATOM      6  O   UNL     1     234.732 237.861 240.037  1.00  0.00    -0.349 OA
ATOM      7  C   UNL     1     235.741 237.418 239.151  1.00  0.00     0.198 C 
ENDBRANCH   1   6
BRANCH   1   8
ATOM      8  C   UNL     1     235.773 239.970 239.382  1.00  0.00     0.224 C 
BRANCH   8   9
ATOM      9  O   UNL     1     236.495 240.625 240.388  1.00  0.00    -0.391 OA
ATOM     10  H   UNL     1     237.219 241.125 239.928  1.00  0.00     0.210 HD
ENDBRANCH   8   9
ENDBRANCH   1   8
BRANCH   2  11
ATOM     11  O   UNL     1     233.552 239.752 237.773  1.00  0.00    -0.385 OA
ATOM     12  H   UNL     1     233.251 240.676 237.572  1.00  0.00     0.211 HD
ENDBRANCH   2  11
BRANCH   3  13
ATOM     13  O   UNL     1     231.255 240.752 239.627  1.00  0.00    -0.387 OA
ATOM     14  H   UNL     1     230.870 240.525 240.514  1.00  0.00     0.211 HD
ENDBRANCH   3  13
BRANCH   4  15
ATOM     15  C   UNL     1     232.034 239.867 242.118  1.00  0.00     0.191 C 
BRANCH  15  16
ATOM     16  O   UNL     1     231.510 238.747 241.457  1.00  0.00    -0.394 OA
ATOM     17  H   UNL     1     230.534 238.902 241.365  1.00  0.00     0.210 HD
ENDBRANCH  15  16
ENDBRANCH   4  15
TORSDOF 7
ENDMDL
