MODEL 1
REMARK VINA RESULT:    -3.958      0.000      0.000
REMARK INTER + INTRA:          -4.953
REMARK INTER:                  -4.884
REMARK INTRA:                  -0.069
REMARK UNBOUND:                -0.069
REMARK SMILES CCCCCC(=O)[O-]
REMARK SMILES IDX 4 1 5 2 6 3 7 4 8 5 3 6 2 7 1 8
REMARK H PARENT
REMARK Flexibility Score: inf
ROOT
ATOM      1  C   UNL     1      51.770 -40.952  -2.867  1.00  0.00     0.006 C 
ENDROOT
BRANCH   1   2
ATOM      2  C   UNL     1      52.753 -41.704  -1.960  1.00  0.00     0.053 C 
BRANCH   2   3
ATOM      3  C   UNL     1      54.086 -41.025  -1.901  1.00  0.00     0.041 C 
ATOM      4  O   UNL     1      55.139 -41.705  -1.772  1.00  0.00    -0.550 OA
ATOM      5  O   UNL     1      54.166 -39.639  -1.956  1.00  0.00    -0.550 OA
ENDBRANCH   2   3
ENDBRANCH   1   2
BRANCH   1   6
ATOM      6  C   UNL     1      50.587 -41.831  -3.299  1.00  0.00     0.000 C 
BRANCH   6   7
ATOM      7  C   UNL     1      49.529 -41.003  -4.038  1.00  0.00    -0.003 C 
ATOM      8  C   UNL     1      50.149 -40.224  -5.195  1.00  0.00     0.004 C 
ENDBRANCH   6   7
ENDBRANCH   1   6
TORSDOF 4
ENDMDL
MODEL 2
REMARK VINA RESULT:    -3.881      3.012      4.494
REMARK INTER + INTRA:          -4.857
REMARK INTER:                  -4.771
REMARK INTRA:                  -0.086
REMARK UNBOUND:                -0.069
REMARK SMILES CCCCCC(=O)[O-]
REMARK SMILES IDX 4 1 5 2 6 3 7 4 8 5 3 6 2 7 1 8
REMARK H PARENT
REMARK Flexibility Score: inf
ROOT
ATOM      1  C   UNL     1      52.008 -40.872  -2.631  1.00  0.00     0.006 C 
ENDROOT
BRANCH   1   2
ATOM      2  C   UNL     1      51.007 -41.871  -3.225  1.00  0.00     0.053 C 
BRANCH   2   3
ATOM      3  C   UNL     1      49.674 -41.237  -3.478  1.00  0.00     0.041 C 
ATOM      4  O   UNL     1      49.174 -41.252  -4.634  1.00  0.00    -0.550 OA
ATOM      5  O   UNL     1      48.996 -40.601  -2.445  1.00  0.00    -0.550 OA
ENDBRANCH   2   3
ENDBRANCH   1   2
BRANCH   1   6
ATOM      6  C   UNL     1      53.144 -41.570  -1.869  1.00  0.00     0.000 C 
BRANCH   6   7
ATOM      7  C   UNL     1      54.410 -40.705  -1.858  1.00  0.00    -0.003 C 
ATOM      8  C   UNL     1      54.086 -39.250  -2.179  1.00  0.00     0.004 C 
ENDBRANCH   6   7
ENDBRANCH   1   6
TORSDOF 4
ENDMDL
MODEL 3
REMARK VINA RESULT:    -3.654      2.195      3.267
REMARK INTER + INTRA:          -4.577
REMARK INTER:                  -4.478
REMARK INTRA:                  -0.099
REMARK UNBOUND:                -0.069
REMARK SMILES CCCCCC(=O)[O-]
REMARK SMILES IDX 4 1 5 2 6 3 7 4 8 5 3 6 2 7 1 8
REMARK H PARENT
REMARK Flexibility Score: inf
ROOT
ATOM      1  C   UNL     1      48.896 -41.096  -3.297  1.00  0.00     0.006 C 
ENDROOT
BRANCH   1   2
ATOM      2  C   UNL     1      50.196 -41.909  -3.343  1.00  0.00     0.053 C 
BRANCH   2   3
ATOM      3  C   UNL     1      51.371 -41.104  -2.882  1.00  0.00     0.041 C 
ATOM      4  O   UNL     1      51.486 -39.897  -3.223  1.00  0.00    -0.550 OA
ATOM      5  O   UNL     1      52.358 -41.694  -2.101  1.00  0.00    -0.550 OA
ENDBRANCH   2   3
ENDBRANCH   1   2
BRANCH   1   6
ATOM      6  C   UNL     1      48.423 -40.675  -4.696  1.00  0.00     0.000 C 
BRANCH   6   7
ATOM      7  C   UNL     1      47.108 -39.890  -4.617  1.00  0.00    -0.003 C 
ATOM      8  C   UNL     1      46.194 -40.452  -3.533  1.00  0.00     0.004 C 
ENDBRANCH   6   7
ENDBRANCH   1   6
TORSDOF 4
ENDMDL
MODEL 4
REMARK VINA RESULT:    -3.590      2.649      3.669
REMARK INTER + INTRA:          -4.498
REMARK INTER:                  -4.372
REMARK INTRA:                  -0.127
REMARK UNBOUND:                -0.069
REMARK SMILES CCCCCC(=O)[O-]
REMARK SMILES IDX 4 1 5 2 6 3 7 4 8 5 3 6 2 7 1 8
REMARK H PARENT
REMARK Flexibility Score: inf
ROOT
ATOM      1  C   UNL     1      48.973 -41.013  -4.894  1.00  0.00     0.006 C 
ENDROOT
BRANCH   1   2
ATOM      2  C   UNL     1      49.406 -41.834  -3.673  1.00  0.00     0.053 C 
BRANCH   2   3
ATOM      3  C   UNL     1      50.824 -41.549  -3.286  1.00  0.00     0.041 C 
ATOM      4  O   UNL     1      51.620 -42.497  -3.054  1.00  0.00    -0.550 OA
ATOM      5  O   UNL     1      51.260 -40.237  -3.148  1.00  0.00    -0.550 OA
ENDBRANCH   2   3
ENDBRANCH   1   2
BRANCH   1   6
ATOM      6  C   UNL     1      47.869 -40.001  -4.554  1.00  0.00     0.000 C 
BRANCH   6   7
ATOM      7  C   UNL     1      46.836 -40.615  -3.601  1.00  0.00    -0.003 C 
ATOM      8  C   UNL     1      45.503 -39.878  -3.684  1.00  0.00     0.004 C 
ENDBRANCH   6   7
ENDBRANCH   1   6
TORSDOF 4
ENDMDL
MODEL 5
REMARK VINA RESULT:    -3.584      1.385      2.272
REMARK INTER + INTRA:          -4.491
REMARK INTER:                  -4.262
REMARK INTRA:                  -0.230
REMARK UNBOUND:                -0.069
REMARK SMILES CCCCCC(=O)[O-]
REMARK SMILES IDX 4 1 5 2 6 3 7 4 8 5 3 6 2 7 1 8
REMARK H PARENT
REMARK Flexibility Score: inf
ROOT
ATOM      1  C   UNL     1      49.665 -41.229  -3.026  1.00  0.00     0.006 C 
ENDROOT
BRANCH   1   2
ATOM      2  C   UNL     1      51.003 -41.947  -3.248  1.00  0.00     0.053 C 
BRANCH   2   3
ATOM      3  C   UNL     1      52.128 -41.259  -2.537  1.00  0.00     0.041 C 
ATOM      4  O   UNL     1      52.391 -40.053  -2.785  1.00  0.00    -0.550 OA
ATOM      5  O   UNL     1      52.906 -41.958  -1.623  1.00  0.00    -0.550 OA
ENDBRANCH   2   3
ENDBRANCH   1   2
BRANCH   1   6
ATOM      6  C   UNL     1      48.950 -40.910  -4.347  1.00  0.00     0.000 C 
BRANCH   6   7
ATOM      7  C   UNL     1      49.904 -40.237  -5.340  1.00  0.00    -0.003 C 
ATOM      8  C   UNL     1      49.998 -38.736  -5.083  1.00  0.00     0.004 C 
ENDBRANCH   6   7
ENDBRANCH   1   6
TORSDOF 4
ENDMDL
MODEL 6
REMARK VINA RESULT:    -3.508     14.357     15.184
REMARK INTER + INTRA:          -4.397
REMARK INTER:                  -4.303
REMARK INTRA:                  -0.094
REMARK UNBOUND:                -0.069
REMARK SMILES CCCCCC(=O)[O-]
REMARK SMILES IDX 4 1 5 2 6 3 7 4 8 5 3 6 2 7 1 8
REMARK H PARENT
REMARK Flexibility Score: inf
ROOT
ATOM      1  C   UNL     1      49.978 -34.577   9.868  1.00  0.00     0.006 C 
ENDROOT
BRANCH   1   2
ATOM      2  C   UNL     1      51.009 -33.686  10.573  1.00  0.00     0.053 C 
BRANCH   2   3
ATOM      3  C   UNL     1      50.767 -33.617  12.049  1.00  0.00     0.041 C 
ATOM      4  O   UNL     1      49.674 -34.015  12.532  1.00  0.00    -0.550 OA
ATOM      5  O   UNL     1      51.736 -33.084  12.890  1.00  0.00    -0.550 OA
ENDBRANCH   2   3
ENDBRANCH   1   2
BRANCH   1   6
ATOM      6  C   UNL     1      50.620 -35.487   8.810  1.00  0.00     0.000 C 
BRANCH   6   7
ATOM      7  C   UNL     1      51.430 -36.609   9.471  1.00  0.00    -0.003 C 
ATOM      8  C   UNL     1      51.374 -37.889   8.643  1.00  0.00     0.004 C 
ENDBRANCH   6   7
ENDBRANCH   1   6
TORSDOF 4
ENDMDL
MODEL 7
REMARK VINA RESULT:    -3.489     11.938     12.760
REMARK INTER + INTRA:          -4.374
REMARK INTER:                  -4.257
REMARK INTRA:                  -0.116
REMARK UNBOUND:                -0.069
REMARK SMILES CCCCCC(=O)[O-]
REMARK SMILES IDX 4 1 5 2 6 3 7 4 8 5 3 6 2 7 1 8
REMARK H PARENT
REMARK Flexibility Score: inf
ROOT
ATOM      1  C   UNL     1      50.721 -37.821   8.105  1.00  0.00     0.006 C 
ENDROOT
BRANCH   1   2
ATOM      2  C   UNL     1      51.780 -37.654   9.203  1.00  0.00     0.053 C 
BRANCH   2   3
ATOM      3  C   UNL     1      51.213 -37.002  10.427  1.00  0.00     0.041 C 
ATOM      4  O   UNL     1      51.300 -35.755  10.578  1.00  0.00    -0.550 OA
ATOM      5  O   UNL     1      50.618 -37.775  11.416  1.00  0.00    -0.550 OA
ENDBRANCH   2   3
ENDBRANCH   1   2
BRANCH   1   6
ATOM      6  C   UNL     1      50.661 -39.259   7.569  1.00  0.00     0.000 C 
BRANCH   6   7
ATOM      7  C   UNL     1      49.762 -40.135   8.450  1.00  0.00    -0.003 C 
ATOM      8  C   UNL     1      49.691 -41.563   7.916  1.00  0.00     0.004 C 
ENDBRANCH   6   7
ENDBRANCH   1   6
TORSDOF 4
ENDMDL
MODEL 8
REMARK VINA RESULT:    -3.437      4.662      6.209
REMARK INTER + INTRA:          -4.309
REMARK INTER:                  -4.139
REMARK INTRA:                  -0.170
REMARK UNBOUND:                -0.069
REMARK SMILES CCCCCC(=O)[O-]
REMARK SMILES IDX 4 1 5 2 6 3 7 4 8 5 3 6 2 7 1 8
REMARK H PARENT
REMARK Flexibility Score: inf
ROOT
ATOM      1  C   UNL     1      48.363 -39.832  -4.324  1.00  0.00     0.006 C 
ENDROOT
BRANCH   1   2
ATOM      2  C   UNL     1      46.859 -39.891  -4.625  1.00  0.00     0.053 C 
BRANCH   2   3
ATOM      3  C   UNL     1      46.059 -40.207  -3.399  1.00  0.00     0.041 C 
ATOM      4  O   UNL     1      44.800 -40.178  -3.439  1.00  0.00    -0.550 OA
ATOM      5  O   UNL     1      46.702 -40.502  -2.203  1.00  0.00    -0.550 OA
ENDBRANCH   2   3
ENDBRANCH   1   2
BRANCH   1   6
ATOM      6  C   UNL     1      49.104 -41.085  -4.810  1.00  0.00     0.000 C 
BRANCH   6   7
ATOM      7  C   UNL     1      49.660 -41.887  -3.628  1.00  0.00    -0.003 C 
ATOM      8  C   UNL     1      50.722 -41.092  -2.874  1.00  0.00     0.004 C 
ENDBRANCH   6   7
ENDBRANCH   1   6
TORSDOF 4
ENDMDL
MODEL 9
REMARK VINA RESULT:    -3.421      2.557      3.822
REMARK INTER + INTRA:          -4.290
REMARK INTER:                  -4.071
REMARK INTRA:                  -0.219
REMARK UNBOUND:                -0.069
REMARK SMILES CCCCCC(=O)[O-]
REMARK SMILES IDX 4 1 5 2 6 3 7 4 8 5 3 6 2 7 1 8
REMARK H PARENT
REMARK Flexibility Score: inf
ROOT
ATOM      1  C   UNL     1      50.265 -40.051  -5.357  1.00  0.00     0.006 C 
ENDROOT
BRANCH   1   2
ATOM      2  C   UNL     1      50.233 -38.550  -5.044  1.00  0.00     0.053 C 
BRANCH   2   3
ATOM      3  C   UNL     1      51.055 -38.216  -3.838  1.00  0.00     0.041 C 
ATOM      4  O   UNL     1      50.633 -37.382  -2.994  1.00  0.00    -0.550 OA
ATOM      5  O   UNL     1      52.303 -38.800  -3.661  1.00  0.00    -0.550 OA
ENDBRANCH   2   3
ENDBRANCH   1   2
BRANCH   1   6
ATOM      6  C   UNL     1      48.971 -40.762  -4.933  1.00  0.00     0.000 C 
BRANCH   6   7
ATOM      7  C   UNL     1      49.146 -41.459  -3.579  1.00  0.00    -0.003 C 
ATOM      8  C   UNL     1      50.588 -41.914  -3.375  1.00  0.00     0.004 C 
ENDBRANCH   6   7
ENDBRANCH   1   6
TORSDOF 4
ENDMDL
