MODEL 1
REMARK VINA RESULT:    -4.562      0.000      0.000
REMARK INTER + INTRA:          -9.212
REMARK INTER:                  -8.297
REMARK INTRA:                  -0.916
REMARK UNBOUND:                -0.916
REMARK SMILES CCCCCCCCCCCCCCCC(=O)[O-]
REMARK SMILES IDX 9 1 10 2 11 3 12 4 13 5 14 6 15 7 16 8 17 9 18 10 8 11 7 12
REMARK SMILES IDX 6 13 5 14 4 15 3 16 2 17 1 18
REMARK H PARENT
REMARK Flexibility Score: inf
ROOT
ATOM      1  C   UNL     1      -2.004   5.092   4.507  1.00  0.00     0.000 C 
ENDROOT
BRANCH   1   2
ATOM      2  C   UNL     1      -2.752   6.343   4.022  1.00  0.00     0.000 C 
BRANCH   2   3
ATOM      3  C   UNL     1      -3.973   6.678   4.895  1.00  0.00     0.000 C 
BRANCH   3   4
ATOM      4  C   UNL     1      -3.915   8.102   5.470  1.00  0.00     0.000 C 
BRANCH   4   5
ATOM      5  C   UNL     1      -4.367   8.120   6.935  1.00  0.00     0.000 C 
BRANCH   5   6
ATOM      6  C   UNL     1      -5.374   6.997   7.213  1.00  0.00     0.006 C 
BRANCH   6   7
ATOM      7  C   UNL     1      -6.094   7.222   8.546  1.00  0.00     0.053 C 
BRANCH   7   8
ATOM      8  C   UNL     1      -7.474   6.647   8.500  1.00  0.00     0.041 C 
ATOM      9  O   UNL     1      -7.694   5.576   7.875  1.00  0.00    -0.550 OA
ATOM     10  O   UNL     1      -8.528   7.321   9.102  1.00  0.00    -0.550 OA
ENDBRANCH   7   8
ENDBRANCH   6   7
ENDBRANCH   5   6
ENDBRANCH   4   5
ENDBRANCH   3   4
ENDBRANCH   2   3
ENDBRANCH   1   2
BRANCH   1  11
ATOM     11  C   UNL     1      -2.815   4.344   5.571  1.00  0.00     0.000 C 
BRANCH  11  12
ATOM     12  C   UNL     1      -2.013   3.175   6.155  1.00  0.00    -0.000 C 
BRANCH  12  13
ATOM     13  C   UNL     1      -1.999   3.230   7.691  1.00  0.00    -0.000 C 
BRANCH  13  14
ATOM     14  C   UNL     1      -0.790   2.503   8.300  1.00  0.00    -0.000 C 
BRANCH  14  15
ATOM     15  C   UNL     1      -1.160   1.683   9.548  1.00  0.00    -0.000 C 
BRANCH  15  16
ATOM     16  C   UNL     1      -0.694   0.221   9.453  1.00  0.00    -0.000 C 
BRANCH  16  17
ATOM     17  C   UNL     1      -0.132  -0.134   8.068  1.00  0.00    -0.003 C 
ATOM     18  C   UNL     1      -0.059  -1.646   7.876  1.00  0.00     0.004 C 
ENDBRANCH  16  17
ENDBRANCH  15  16
ENDBRANCH  14  15
ENDBRANCH  13  14
ENDBRANCH  12  13
ENDBRANCH  11  12
ENDBRANCH   1  11
TORSDOF 14
ENDMDL
MODEL 2
REMARK VINA RESULT:    -4.558     13.277     15.362
REMARK INTER + INTRA:          -9.204
REMARK INTER:                  -7.926
REMARK INTRA:                  -1.278
REMARK UNBOUND:                -0.916
REMARK SMILES CCCCCCCCCCCCCCCC(=O)[O-]
REMARK SMILES IDX 9 1 10 2 11 3 12 4 13 5 14 6 15 7 16 8 17 9 18 10 8 11 7 12
REMARK SMILES IDX 6 13 5 14 4 15 3 16 2 17 1 18
REMARK H PARENT
REMARK Flexibility Score: inf
ROOT
ATOM      1  C   UNL     1       9.248   5.938   0.770  1.00  0.00     0.000 C 
ENDROOT
BRANCH   1   2
ATOM      2  C   UNL     1       9.178   7.459   0.559  1.00  0.00     0.000 C 
BRANCH   2   3
ATOM      3  C   UNL     1       9.334   7.859  -0.917  1.00  0.00     0.000 C 
BRANCH   3   4
ATOM      4  C   UNL     1       8.668   9.206  -1.238  1.00  0.00     0.000 C 
BRANCH   4   5
ATOM      5  C   UNL     1       7.333   8.997  -1.963  1.00  0.00     0.000 C 
BRANCH   5   6
ATOM      6  C   UNL     1       6.255   9.941  -1.414  1.00  0.00     0.006 C 
BRANCH   6   7
ATOM      7  C   UNL     1       5.558  10.697  -2.549  1.00  0.00     0.053 C 
BRANCH   7   8
ATOM      8  C   UNL     1       4.073  10.647  -2.376  1.00  0.00     0.041 C 
ATOM      9  O   UNL     1       3.314  11.068  -3.288  1.00  0.00    -0.550 OA
ATOM     10  O   UNL     1       3.527  10.183  -1.186  1.00  0.00    -0.550 OA
ENDBRANCH   7   8
ENDBRANCH   6   7
ENDBRANCH   5   6
ENDBRANCH   4   5
ENDBRANCH   3   4
ENDBRANCH   2   3
ENDBRANCH   1   2
BRANCH   1  11
ATOM     11  C   UNL     1       9.119   5.191  -0.563  1.00  0.00     0.000 C 
BRANCH  11  12
ATOM     12  C   UNL     1       7.737   4.543  -0.700  1.00  0.00    -0.000 C 
BRANCH  12  13
ATOM     13  C   UNL     1       7.038   5.004  -1.989  1.00  0.00    -0.000 C 
BRANCH  13  14
ATOM     14  C   UNL     1       8.032   5.385  -3.099  1.00  0.00    -0.000 C 
BRANCH  14  15
ATOM     15  C   UNL     1       7.345   5.602  -4.459  1.00  0.00    -0.000 C 
BRANCH  15  16
ATOM     16  C   UNL     1       8.352   5.798  -5.603  1.00  0.00    -0.000 C 
BRANCH  16  17
ATOM     17  C   UNL     1       7.676   5.888  -6.980  1.00  0.00    -0.003 C 
ATOM     18  C   UNL     1       8.188   4.796  -7.916  1.00  0.00     0.004 C 
ENDBRANCH  16  17
ENDBRANCH  15  16
ENDBRANCH  14  15
ENDBRANCH  13  14
ENDBRANCH  12  13
ENDBRANCH  11  12
ENDBRANCH   1  11
TORSDOF 14
ENDMDL
MODEL 3
REMARK VINA RESULT:    -4.520     14.330     16.837
REMARK INTER + INTRA:          -9.135
REMARK INTER:                  -7.448
REMARK INTRA:                  -1.687
REMARK UNBOUND:                -0.916
REMARK SMILES CCCCCCCCCCCCCCCC(=O)[O-]
REMARK SMILES IDX 9 1 10 2 11 3 12 4 13 5 14 6 15 7 16 8 17 9 18 10 8 11 7 12
REMARK SMILES IDX 6 13 5 14 4 15 3 16 2 17 1 18
REMARK H PARENT
REMARK Flexibility Score: inf
ROOT
ATOM      1  C   UNL     1       8.883   5.521   0.317  1.00  0.00     0.000 C 
ENDROOT
BRANCH   1   2
ATOM      2  C   UNL     1       9.921   5.143  -0.751  1.00  0.00     0.000 C 
BRANCH   2   3
ATOM      3  C   UNL     1       9.286   4.884  -2.127  1.00  0.00     0.000 C 
BRANCH   3   4
ATOM      4  C   UNL     1       7.757   4.750  -2.056  1.00  0.00     0.000 C 
BRANCH   4   5
ATOM      5  C   UNL     1       7.110   5.160  -3.385  1.00  0.00     0.000 C 
BRANCH   5   6
ATOM      6  C   UNL     1       8.156   5.721  -4.356  1.00  0.00     0.006 C 
BRANCH   6   7
ATOM      7  C   UNL     1       7.745   5.474  -5.810  1.00  0.00     0.053 C 
BRANCH   7   8
ATOM      8  C   UNL     1       8.935   5.101  -6.635  1.00  0.00     0.041 C 
ATOM      9  O   UNL     1       9.017   3.954  -7.148  1.00  0.00    -0.550 OA
ATOM     10  O   UNL     1       9.980   6.003  -6.796  1.00  0.00    -0.550 OA
ENDBRANCH   7   8
ENDBRANCH   6   7
ENDBRANCH   5   6
ENDBRANCH   4   5
ENDBRANCH   3   4
ENDBRANCH   2   3
ENDBRANCH   1   2
BRANCH   1  11
ATOM     11  C   UNL     1       9.239   6.856   0.982  1.00  0.00     0.000 C 
BRANCH  11  12
ATOM     12  C   UNL     1       9.664   7.895  -0.062  1.00  0.00    -0.000 C 
BRANCH  12  13
ATOM     13  C   UNL     1       8.481   8.794  -0.456  1.00  0.00    -0.000 C 
BRANCH  13  14
ATOM     14  C   UNL     1       7.927   8.469  -1.852  1.00  0.00    -0.000 C 
BRANCH  14  15
ATOM     15  C   UNL     1       6.392   8.542  -1.912  1.00  0.00    -0.000 C 
BRANCH  15  16
ATOM     16  C   UNL     1       5.855   9.940  -1.567  1.00  0.00    -0.000 C 
BRANCH  16  17
ATOM     17  C   UNL     1       4.321   9.980  -1.473  1.00  0.00    -0.003 C 
ATOM     18  C   UNL     1       3.718  10.725  -2.661  1.00  0.00     0.004 C 
ENDBRANCH  16  17
ENDBRANCH  15  16
ENDBRANCH  14  15
ENDBRANCH  13  14
ENDBRANCH  12  13
ENDBRANCH  11  12
ENDBRANCH   1  11
TORSDOF 14
ENDMDL
MODEL 4
REMARK VINA RESULT:    -4.514     13.209     15.213
REMARK INTER + INTRA:          -9.124
REMARK INTER:                  -7.825
REMARK INTRA:                  -1.299
REMARK UNBOUND:                -0.916
REMARK SMILES CCCCCCCCCCCCCCCC(=O)[O-]
REMARK SMILES IDX 9 1 10 2 11 3 12 4 13 5 14 6 15 7 16 8 17 9 18 10 8 11 7 12
REMARK SMILES IDX 6 13 5 14 4 15 3 16 2 17 1 18
REMARK H PARENT
REMARK Flexibility Score: inf
ROOT
ATOM      1  C   UNL     1       7.525   4.717  -1.458  1.00  0.00     0.000 C 
ENDROOT
BRANCH   1   2
ATOM      2  C   UNL     1       8.950   4.221  -1.167  1.00  0.00     0.000 C 
BRANCH   2   3
ATOM      3  C   UNL     1       9.805   5.271  -0.439  1.00  0.00     0.000 C 
BRANCH   3   4
ATOM      4  C   UNL     1       9.018   6.027   0.643  1.00  0.00     0.000 C 
BRANCH   4   5
ATOM      5  C   UNL     1       9.680   7.373   0.962  1.00  0.00     0.000 C 
BRANCH   5   6
ATOM      6  C   UNL     1      10.033   7.473   2.452  1.00  0.00     0.006 C 
BRANCH   6   7
ATOM      7  C   UNL     1       9.202   8.559   3.141  1.00  0.00     0.053 C 
BRANCH   7   8
ATOM      8  C   UNL     1       9.174   8.338   4.620  1.00  0.00     0.041 C 
ATOM      9  O   UNL     1       9.531   7.231   5.102  1.00  0.00    -0.550 OA
ATOM     10  O   UNL     1       8.706   9.337   5.463  1.00  0.00    -0.550 OA
ENDBRANCH   7   8
ENDBRANCH   6   7
ENDBRANCH   5   6
ENDBRANCH   4   5
ENDBRANCH   3   4
ENDBRANCH   2   3
ENDBRANCH   1   2
BRANCH   1  11
ATOM     11  C   UNL     1       7.362   5.080  -2.939  1.00  0.00     0.000 C 
BRANCH  11  12
ATOM     12  C   UNL     1       7.421   6.599  -3.144  1.00  0.00    -0.000 C 
BRANCH  12  13
ATOM     13  C   UNL     1       6.739   7.337  -1.981  1.00  0.00    -0.000 C 
BRANCH  13  14
ATOM     14  C   UNL     1       7.444   8.656  -1.620  1.00  0.00    -0.000 C 
BRANCH  14  15
ATOM     15  C   UNL     1       6.723   9.887  -2.195  1.00  0.00    -0.000 C 
BRANCH  15  16
ATOM     16  C   UNL     1       5.668  10.456  -1.233  1.00  0.00    -0.000 C 
BRANCH  16  17
ATOM     17  C   UNL     1       4.239  10.025  -1.597  1.00  0.00    -0.003 C 
ATOM     18  C   UNL     1       3.661  10.912  -2.696  1.00  0.00     0.004 C 
ENDBRANCH  16  17
ENDBRANCH  15  16
ENDBRANCH  14  15
ENDBRANCH  13  14
ENDBRANCH  12  13
ENDBRANCH  11  12
ENDBRANCH   1  11
TORSDOF 14
ENDMDL
MODEL 5
REMARK VINA RESULT:    -4.479     13.204     14.645
REMARK INTER + INTRA:          -9.060
REMARK INTER:                  -7.404
REMARK INTRA:                  -1.656
REMARK UNBOUND:                -0.916
REMARK SMILES CCCCCCCCCCCCCCCC(=O)[O-]
REMARK SMILES IDX 9 1 10 2 11 3 12 4 13 5 14 6 15 7 16 8 17 9 18 10 8 11 7 12
REMARK SMILES IDX 6 13 5 14 4 15 3 16 2 17 1 18
REMARK H PARENT
REMARK Flexibility Score: inf
ROOT
ATOM      1  C   UNL     1       8.171   5.692  -4.465  1.00  0.00     0.000 C 
ENDROOT
BRANCH   1   2
ATOM      2  C   UNL     1       8.367   7.195  -4.720  1.00  0.00     0.000 C 
BRANCH   2   3
ATOM      3  C   UNL     1       8.750   7.966  -3.446  1.00  0.00     0.000 C 
BRANCH   3   4
ATOM      4  C   UNL     1       7.766   9.102  -3.125  1.00  0.00     0.000 C 
BRANCH   4   5
ATOM      5  C   UNL     1       7.072   8.862  -1.779  1.00  0.00     0.000 C 
BRANCH   5   6
ATOM      6  C   UNL     1       6.370  10.134  -1.287  1.00  0.00     0.006 C 
BRANCH   6   7
ATOM      7  C   UNL     1       5.451  10.707  -2.370  1.00  0.00     0.053 C 
BRANCH   7   8
ATOM      8  C   UNL     1       4.016  10.548  -1.977  1.00  0.00     0.041 C 
ATOM      9  O   UNL     1       3.717  10.100  -0.839  1.00  0.00    -0.550 OA
ATOM     10  O   UNL     1       3.009  10.845  -2.885  1.00  0.00    -0.550 OA
ENDBRANCH   7   8
ENDBRANCH   6   7
ENDBRANCH   5   6
ENDBRANCH   4   5
ENDBRANCH   3   4
ENDBRANCH   2   3
ENDBRANCH   1   2
BRANCH   1  11
ATOM     11  C   UNL     1       7.127   5.453  -3.368  1.00  0.00     0.000 C 
BRANCH  11  12
ATOM     12  C   UNL     1       7.725   4.656  -2.202  1.00  0.00    -0.000 C 
BRANCH  12  13
ATOM     13  C   UNL     1       7.636   5.451  -0.890  1.00  0.00    -0.000 C 
BRANCH  13  14
ATOM     14  C   UNL     1       8.926   5.369  -0.057  1.00  0.00    -0.000 C 
BRANCH  14  15
ATOM     15  C   UNL     1       9.924   6.488  -0.401  1.00  0.00    -0.000 C 
BRANCH  15  16
ATOM     16  C   UNL     1      10.148   7.459   0.769  1.00  0.00    -0.000 C 
BRANCH  16  17
ATOM     17  C   UNL     1       9.346   7.074   2.022  1.00  0.00    -0.003 C 
ATOM     18  C   UNL     1       9.081   8.293   2.900  1.00  0.00     0.004 C 
ENDBRANCH  16  17
ENDBRANCH  15  16
ENDBRANCH  14  15
ENDBRANCH  13  14
ENDBRANCH  12  13
ENDBRANCH  11  12
ENDBRANCH   1  11
TORSDOF 14
ENDMDL
MODEL 6
REMARK VINA RESULT:    -4.471     16.327     17.971
REMARK INTER + INTRA:          -9.047
REMARK INTER:                  -6.919
REMARK INTRA:                  -2.128
REMARK UNBOUND:                -0.916
REMARK SMILES CCCCCCCCCCCCCCCC(=O)[O-]
REMARK SMILES IDX 9 1 10 2 11 3 12 4 13 5 14 6 15 7 16 8 17 9 18 10 8 11 7 12
REMARK SMILES IDX 6 13 5 14 4 15 3 16 2 17 1 18
REMARK H PARENT
REMARK Flexibility Score: inf
ROOT
ATOM      1  C   UNL     1       0.312  -4.551  -6.051  1.00  0.00     0.000 C 
ENDROOT
BRANCH   1   2
ATOM      2  C   UNL     1      -1.120  -4.362  -6.575  1.00  0.00     0.000 C 
BRANCH   2   3
ATOM      3  C   UNL     1      -1.430  -5.255  -7.787  1.00  0.00     0.000 C 
BRANCH   3   4
ATOM      4  C   UNL     1      -2.765  -4.897  -8.458  1.00  0.00     0.000 C 
BRANCH   4   5
ATOM      5  C   UNL     1      -3.495  -3.799  -7.674  1.00  0.00     0.000 C 
BRANCH   5   6
ATOM      6  C   UNL     1      -5.003  -3.838  -7.949  1.00  0.00     0.006 C 
BRANCH   6   7
ATOM      7  C   UNL     1      -5.652  -5.054  -7.280  1.00  0.00     0.053 C 
BRANCH   7   8
ATOM      8  C   UNL     1      -6.207  -4.682  -5.942  1.00  0.00     0.041 C 
ATOM      9  O   UNL     1      -6.182  -3.484  -5.556  1.00  0.00    -0.550 OA
ATOM     10  O   UNL     1      -6.705  -5.666  -5.098  1.00  0.00    -0.550 OA
ENDBRANCH   7   8
ENDBRANCH   6   7
ENDBRANCH   5   6
ENDBRANCH   4   5
ENDBRANCH   3   4
ENDBRANCH   2   3
ENDBRANCH   1   2
BRANCH   1  11
ATOM     11  C   UNL     1       1.058  -5.617  -6.863  1.00  0.00     0.000 C 
BRANCH  11  12
ATOM     12  C   UNL     1       2.208  -4.996  -7.664  1.00  0.00    -0.000 C 
BRANCH  12  13
ATOM     13  C   UNL     1       2.144  -5.423  -9.139  1.00  0.00    -0.000 C 
BRANCH  13  14
ATOM     14  C   UNL     1       1.386  -4.415 -10.017  1.00  0.00    -0.000 C 
BRANCH  14  15
ATOM     15  C   UNL     1       1.325  -3.012  -9.389  1.00  0.00    -0.000 C 
BRANCH  15  16
ATOM     16  C   UNL     1      -0.043  -2.338  -9.582  1.00  0.00    -0.000 C 
BRANCH  16  17
ATOM     17  C   UNL     1      -0.416  -1.407  -8.417  1.00  0.00    -0.003 C 
ATOM     18  C   UNL     1      -1.639  -0.561  -8.760  1.00  0.00     0.004 C 
ENDBRANCH  16  17
ENDBRANCH  15  16
ENDBRANCH  14  15
ENDBRANCH  13  14
ENDBRANCH  12  13
ENDBRANCH  11  12
ENDBRANCH   1  11
TORSDOF 14
ENDMDL
MODEL 7
REMARK VINA RESULT:    -4.431     15.498     17.033
REMARK INTER + INTRA:          -8.974
REMARK INTER:                  -7.387
REMARK INTRA:                  -1.587
REMARK UNBOUND:                -0.916
REMARK SMILES CCCCCCCCCCCCCCCC(=O)[O-]
REMARK SMILES IDX 9 1 10 2 11 3 12 4 13 5 14 6 15 7 16 8 17 9 18 10 8 11 7 12
REMARK SMILES IDX 6 13 5 14 4 15 3 16 2 17 1 18
REMARK H PARENT
REMARK Flexibility Score: inf
ROOT
ATOM      1  C   UNL     1      -1.648  -3.240  -6.986  1.00  0.00     0.000 C 
ENDROOT
BRANCH   1   2
ATOM      2  C   UNL     1      -2.515  -4.180  -7.837  1.00  0.00     0.000 C 
BRANCH   2   3
ATOM      3  C   UNL     1      -3.889  -3.578  -8.172  1.00  0.00     0.000 C 
BRANCH   3   4
ATOM      4  C   UNL     1      -5.052  -4.404  -7.598  1.00  0.00     0.000 C 
BRANCH   4   5
ATOM      5  C   UNL     1      -5.189  -4.180  -6.088  1.00  0.00     0.000 C 
BRANCH   5   6
ATOM      6  C   UNL     1      -6.664  -4.082  -5.678  1.00  0.00     0.006 C 
BRANCH   6   7
ATOM      7  C   UNL     1      -7.424  -3.114  -6.590  1.00  0.00     0.053 C 
BRANCH   7   8
ATOM      8  C   UNL     1      -7.491  -1.754  -5.970  1.00  0.00     0.041 C 
ATOM      9  O   UNL     1      -8.020  -0.798  -6.595  1.00  0.00    -0.550 OA
ATOM     10  O   UNL     1      -6.923  -1.530  -4.723  1.00  0.00    -0.550 OA
ENDBRANCH   7   8
ENDBRANCH   6   7
ENDBRANCH   5   6
ENDBRANCH   4   5
ENDBRANCH   3   4
ENDBRANCH   2   3
ENDBRANCH   1   2
BRANCH   1  11
ATOM     11  C   UNL     1      -0.737  -2.381  -7.870  1.00  0.00     0.000 C 
BRANCH  11  12
ATOM     12  C   UNL     1      -0.350  -3.128  -9.152  1.00  0.00    -0.000 C 
BRANCH  12  13
ATOM     13  C   UNL     1       1.178  -3.200  -9.307  1.00  0.00    -0.000 C 
BRANCH  13  14
ATOM     14  C   UNL     1       1.659  -4.568  -9.819  1.00  0.00    -0.000 C 
BRANCH  14  15
ATOM     15  C   UNL     1       1.715  -5.629  -8.707  1.00  0.00    -0.000 C 
BRANCH  15  16
ATOM     16  C   UNL     1       2.134  -5.040  -7.350  1.00  0.00    -0.000 C 
BRANCH  16  17
ATOM     17  C   UNL     1       1.162  -5.408  -6.218  1.00  0.00    -0.003 C 
ATOM     18  C   UNL     1       0.201  -6.510  -6.655  1.00  0.00     0.004 C 
ENDBRANCH  16  17
ENDBRANCH  15  16
ENDBRANCH  14  15
ENDBRANCH  13  14
ENDBRANCH  12  13
ENDBRANCH  11  12
ENDBRANCH   1  11
TORSDOF 14
ENDMDL
MODEL 8
REMARK VINA RESULT:    -4.398     16.745     18.651
REMARK INTER + INTRA:          -8.913
REMARK INTER:                  -6.594
REMARK INTRA:                  -2.318
REMARK UNBOUND:                -0.916
REMARK SMILES CCCCCCCCCCCCCCCC(=O)[O-]
REMARK SMILES IDX 9 1 10 2 11 3 12 4 13 5 14 6 15 7 16 8 17 9 18 10 8 11 7 12
REMARK SMILES IDX 6 13 5 14 4 15 3 16 2 17 1 18
REMARK H PARENT
REMARK Flexibility Score: inf
ROOT
ATOM      1  C   UNL     1       0.171  -7.038  -6.752  1.00  0.00     0.000 C 
ENDROOT
BRANCH   1   2
ATOM      2  C   UNL     1      -0.522  -7.789  -7.899  1.00  0.00     0.000 C 
BRANCH   2   3
ATOM      3  C   UNL     1      -1.305  -6.851  -8.832  1.00  0.00     0.000 C 
BRANCH   3   4
ATOM      4  C   UNL     1      -2.724  -7.361  -9.127  1.00  0.00     0.000 C 
BRANCH   4   5
ATOM      5  C   UNL     1      -3.779  -6.404  -8.559  1.00  0.00     0.000 C 
BRANCH   5   6
ATOM      6  C   UNL     1      -3.355  -4.943  -8.752  1.00  0.00     0.006 C 
BRANCH   6   7
ATOM      7  C   UNL     1      -3.566  -4.136  -7.467  1.00  0.00     0.053 C 
BRANCH   7   8
ATOM      8  C   UNL     1      -5.024  -4.031  -7.147  1.00  0.00     0.041 C 
ATOM      9  O   UNL     1      -5.438  -4.290  -5.987  1.00  0.00    -0.550 OA
ATOM     10  O   UNL     1      -5.931  -3.699  -8.144  1.00  0.00    -0.550 OA
ENDBRANCH   7   8
ENDBRANCH   6   7
ENDBRANCH   5   6
ENDBRANCH   4   5
ENDBRANCH   3   4
ENDBRANCH   2   3
ENDBRANCH   1   2
BRANCH   1  11
ATOM     11  C   UNL     1      -0.332  -5.592  -6.658  1.00  0.00     0.000 C 
BRANCH  11  12
ATOM     12  C   UNL     1       0.828  -4.621  -6.410  1.00  0.00    -0.000 C 
BRANCH  12  13
ATOM     13  C   UNL     1       2.060  -5.012  -7.241  1.00  0.00    -0.000 C 
BRANCH  13  14
ATOM     14  C   UNL     1       1.858  -4.782  -8.748  1.00  0.00    -0.000 C 
BRANCH  14  15
ATOM     15  C   UNL     1       1.292  -3.387  -9.062  1.00  0.00    -0.000 C 
BRANCH  15  16
ATOM     16  C   UNL     1      -0.056  -3.449  -9.798  1.00  0.00    -0.000 C 
BRANCH  16  17
ATOM     17  C   UNL     1      -0.919  -2.199  -9.562  1.00  0.00    -0.003 C 
ATOM     18  C   UNL     1      -0.774  -1.694  -8.129  1.00  0.00     0.004 C 
ENDBRANCH  16  17
ENDBRANCH  15  16
ENDBRANCH  14  15
ENDBRANCH  13  14
ENDBRANCH  12  13
ENDBRANCH  11  12
ENDBRANCH   1  11
TORSDOF 14
ENDMDL
MODEL 9
REMARK VINA RESULT:    -4.297     13.872     16.440
REMARK INTER + INTRA:          -8.730
REMARK INTER:                  -6.934
REMARK INTRA:                  -1.796
REMARK UNBOUND:                -0.916
REMARK SMILES CCCCCCCCCCCCCCCC(=O)[O-]
REMARK SMILES IDX 9 1 10 2 11 3 12 4 13 5 14 6 15 7 16 8 17 9 18 10 8 11 7 12
REMARK SMILES IDX 6 13 5 14 4 15 3 16 2 17 1 18
REMARK H PARENT
REMARK Flexibility Score: inf
ROOT
ATOM      1  C   UNL     1       8.309   4.770  -2.252  1.00  0.00     0.000 C 
ENDROOT
BRANCH   1   2
ATOM      2  C   UNL     1       8.020   4.753  -0.743  1.00  0.00     0.000 C 
BRANCH   2   3
ATOM      3  C   UNL     1       8.634   5.957  -0.010  1.00  0.00     0.000 C 
BRANCH   3   4
ATOM      4  C   UNL     1       9.092   7.064  -0.972  1.00  0.00     0.000 C 
BRANCH   4   5
ATOM      5  C   UNL     1       8.290   8.352  -0.746  1.00  0.00     0.000 C 
BRANCH   5   6
ATOM      6  C   UNL     1       7.513   8.744  -2.008  1.00  0.00     0.006 C 
BRANCH   6   7
ATOM      7  C   UNL     1       6.020   8.439  -1.851  1.00  0.00     0.053 C 
BRANCH   7   8
ATOM      8  C   UNL     1       5.223   9.705  -1.869  1.00  0.00     0.041 C 
ATOM      9  O   UNL     1       5.801  10.817  -1.987  1.00  0.00    -0.550 OA
ATOM     10  O   UNL     1       3.844   9.661  -1.704  1.00  0.00    -0.550 OA
ENDBRANCH   7   8
ENDBRANCH   6   7
ENDBRANCH   5   6
ENDBRANCH   4   5
ENDBRANCH   3   4
ENDBRANCH   2   3
ENDBRANCH   1   2
BRANCH   1  11
ATOM     11  C   UNL     1       7.044   5.104  -3.051  1.00  0.00     0.000 C 
BRANCH  11  12
ATOM     12  C   UNL     1       7.391   5.521  -4.485  1.00  0.00    -0.000 C 
BRANCH  12  13
ATOM     13  C   UNL     1       8.851   5.990  -4.583  1.00  0.00    -0.000 C 
BRANCH  13  14
ATOM     14  C   UNL     1       9.519   5.582  -5.906  1.00  0.00    -0.000 C 
BRANCH  14  15
ATOM     15  C   UNL     1       8.630   4.658  -6.756  1.00  0.00    -0.000 C 
BRANCH  15  16
ATOM     16  C   UNL     1       8.394   5.206  -8.172  1.00  0.00    -0.000 C 
BRANCH  16  17
ATOM     17  C   UNL     1       9.019   6.593  -8.384  1.00  0.00    -0.003 C 
ATOM     18  C   UNL     1       7.950   7.635  -8.701  1.00  0.00     0.004 C 
ENDBRANCH  16  17
ENDBRANCH  15  16
ENDBRANCH  14  15
ENDBRANCH  13  14
ENDBRANCH  12  13
ENDBRANCH  11  12
ENDBRANCH   1  11
TORSDOF 14
ENDMDL
