MODEL 1
REMARK VINA RESULT:    -6.752      0.000      0.000
REMARK INTER + INTRA:         -10.471
REMARK INTER:                  -9.515
REMARK INTRA:                  -0.955
REMARK UNBOUND:                -0.955
REMARK SMILES C[C@@H](CO)CCC(=O)[C@H](C)[C@H]1C(=O)C[C@@H]2[C@@H]3CC=C4C[C@@H](O)CC[C@]4(C)[C@H]3CC[C@@]21C
REMARK SMILES IDX 6 1 5 2 2 3 1 4 3 5 4 6 7 8 8 9 9 10 10 11 11 12 12 13 30 14
REMARK SMILES IDX 13 15 14 16 15 17 29 18 31 19 16 20 28 21 27 22 17 23 25 24
REMARK SMILES IDX 18 25 19 26 24 27 26 28 20 29 23 30 21 31 22 32
REMARK H PARENT 4 7 22 33
REMARK Flexibility Score: inf
ROOT
ATOM      1  C   UNL     1     139.300 134.240 147.536  1.00  0.00     0.076 C 
ENDROOT
BRANCH   1   2
ATOM      2  C   UNL     1     138.165 135.132 148.061  1.00  0.00     0.013 C 
BRANCH   2   3
ATOM      3  C   UNL     1     136.956 134.317 148.578  1.00  0.00     0.012 C 
ATOM      4  C   UNL     1     136.645 133.122 147.659  1.00  0.00     0.010 C 
BRANCH   3   5
ATOM      5  C   UNL     1     137.228 133.828 150.017  1.00  0.00     0.159 C 
BRANCH   5   6
ATOM      6  O   UNL     1     137.877 134.817 150.769  1.00  0.00    -0.396 OA
ATOM      7  H   UNL     1     138.063 135.571 150.150  1.00  0.00     0.210 HD
ENDBRANCH   5   6
ENDBRANCH   3   5
ENDBRANCH   2   3
ENDBRANCH   1   2
BRANCH   1   8
ATOM      8  C   UNL     1     140.587 134.519 148.275  1.00  0.00     0.136 C 
ATOM      9  O   UNL     1     140.580 134.534 149.498  1.00  0.00    -0.299 OA
BRANCH   8  10
ATOM     10  C   UNL     1     141.886 134.753 147.526  1.00  0.00     0.064 C 
ATOM     11  C   UNL     1     143.028 134.643 148.551  1.00  0.00     0.017 C 
BRANCH  10  12
ATOM     12  C   UNL     1     141.876 136.129 146.766  1.00  0.00     0.072 C 
ATOM     13  C   UNL     1     142.588 137.188 147.554  1.00  0.00     0.137 C 
ATOM     14  C   UNL     1     142.660 136.183 145.402  1.00  0.00    -0.019 C 
ATOM     15  O   UNL     1     142.093 137.750 148.520  1.00  0.00    -0.299 OA
ATOM     16  C   UNL     1     143.901 137.587 146.993  1.00  0.00     0.080 C 
ATOM     17  C   UNL     1     144.093 136.625 145.809  1.00  0.00     0.007 C 
ATOM     18  C   UNL     1     141.996 137.279 144.510  1.00  0.00     0.008 C 
ATOM     19  C   UNL     1     142.696 134.840 144.631  1.00  0.00     0.012 C 
ATOM     20  C   UNL     1     144.966 137.169 144.634  1.00  0.00     0.001 C 
ATOM     21  C   UNL     1     142.859 137.712 143.322  1.00  0.00     0.005 C 
ATOM     22  C   UNL     1     144.245 138.237 143.774  1.00  0.00     0.003 C 
ATOM     23  C   UNL     1     146.307 137.711 145.159  1.00  0.00     0.031 C 
ATOM     24  C   UNL     1     145.144 138.732 142.568  1.00  0.00    -0.008 C 
ATOM     25  C   UNL     1     147.127 138.381 144.099  1.00  0.00    -0.027 C 
ATOM     26  C   UNL     1     146.593 138.985 143.018  1.00  0.00    -0.065 C 
ATOM     27  C   UNL     1     144.554 140.073 142.023  1.00  0.00     0.014 C 
ATOM     28  C   UNL     1     145.182 137.684 141.419  1.00  0.00     0.016 C 
ATOM     29  C   UNL     1     147.518 139.776 142.111  1.00  0.00     0.063 C 
ATOM     30  C   UNL     1     145.470 140.794 141.023  1.00  0.00     0.033 C 
ATOM     31  C   UNL     1     146.844 141.075 141.648  1.00  0.00     0.118 C 
BRANCH  31  32
ATOM     32  O   UNL     1     147.668 141.768 140.744  1.00  0.00    -0.393 OA
ATOM     33  H   UNL     1     147.358 142.713 140.715  1.00  0.00     0.210 HD
ENDBRANCH  31  32
ENDBRANCH  10  12
ENDBRANCH   8  10
ENDBRANCH   1   8
TORSDOF 8
ENDMDL
MODEL 2
REMARK VINA RESULT:    -6.478      2.110      8.917
REMARK INTER + INTRA:         -10.084
REMARK INTER:                  -8.967
REMARK INTRA:                  -1.117
REMARK UNBOUND:                -0.955
REMARK SMILES C[C@@H](CO)CCC(=O)[C@H](C)[C@H]1C(=O)C[C@@H]2[C@@H]3CC=C4C[C@@H](O)CC[C@]4(C)[C@H]3CC[C@@]21C
REMARK SMILES IDX 6 1 5 2 2 3 1 4 3 5 4 6 7 8 8 9 9 10 10 11 11 12 12 13 30 14
REMARK SMILES IDX 13 15 14 16 15 17 29 18 31 19 16 20 28 21 27 22 17 23 25 24
REMARK SMILES IDX 18 25 19 26 24 27 26 28 20 29 23 30 21 31 22 32
REMARK H PARENT 4 7 22 33
REMARK Flexibility Score: inf
ROOT
ATOM      1  C   UNL     1     146.718 139.408 144.031  1.00  0.00     0.076 C 
ENDROOT
BRANCH   1   2
ATOM      2  C   UNL     1     147.285 138.273 144.897  1.00  0.00     0.013 C 
BRANCH   2   3
ATOM      3  C   UNL     1     147.659 138.740 146.323  1.00  0.00     0.012 C 
ATOM      4  C   UNL     1     146.904 140.022 146.715  1.00  0.00     0.010 C 
BRANCH   3   5
ATOM      5  C   UNL     1     147.366 137.615 147.340  1.00  0.00     0.159 C 
BRANCH   5   6
ATOM      6  O   UNL     1     148.404 136.674 147.361  1.00  0.00    -0.396 OA
ATOM      7  H   UNL     1     148.919 136.835 148.195  1.00  0.00     0.210 HD
ENDBRANCH   5   6
ENDBRANCH   3   5
ENDBRANCH   2   3
ENDBRANCH   1   2
BRANCH   1   8
ATOM      8  C   UNL     1     145.495 138.947 143.277  1.00  0.00     0.136 C 
ATOM      9  O   UNL     1     145.107 139.597 142.316  1.00  0.00    -0.299 OA
BRANCH   8  10
ATOM     10  C   UNL     1     144.759 137.680 143.675  1.00  0.00     0.064 C 
ATOM     11  C   UNL     1     144.128 137.100 142.397  1.00  0.00     0.017 C 
BRANCH  10  12
ATOM     12  C   UNL     1     143.705 137.954 144.808  1.00  0.00     0.072 C 
ATOM     13  C   UNL     1     142.338 138.182 144.232  1.00  0.00     0.137 C 
ATOM     14  C   UNL     1     143.424 136.771 145.806  1.00  0.00    -0.019 C 
ATOM     15  O   UNL     1     142.000 139.230 143.703  1.00  0.00    -0.299 OA
ATOM     16  C   UNL     1     141.386 137.069 144.465  1.00  0.00     0.080 C 
ATOM     17  C   UNL     1     142.247 135.997 145.151  1.00  0.00     0.007 C 
ATOM     18  C   UNL     1     142.965 137.389 147.165  1.00  0.00     0.008 C 
ATOM     19  C   UNL     1     144.634 135.835 146.046  1.00  0.00     0.012 C 
ATOM     20  C   UNL     1     141.483 135.034 146.114  1.00  0.00     0.001 C 
ATOM     21  C   UNL     1     142.301 136.381 148.107  1.00  0.00     0.005 C 
ATOM     22  C   UNL     1     141.074 135.698 147.453  1.00  0.00     0.003 C 
ATOM     23  C   UNL     1     140.255 134.426 145.413  1.00  0.00     0.031 C 
ATOM     24  C   UNL     1     140.341 134.680 148.420  1.00  0.00    -0.008 C 
ATOM     25  C   UNL     1     139.398 133.608 146.331  1.00  0.00    -0.027 C 
ATOM     26  C   UNL     1     139.309 133.830 147.658  1.00  0.00    -0.065 C 
ATOM     27  C   UNL     1     139.593 135.494 149.525  1.00  0.00     0.014 C 
ATOM     28  C   UNL     1     141.351 133.708 149.093  1.00  0.00     0.016 C 
ATOM     29  C   UNL     1     138.275 133.048 148.447  1.00  0.00     0.063 C 
ATOM     30  C   UNL     1     138.635 134.648 150.377  1.00  0.00     0.033 C 
ATOM     31  C   UNL     1     137.596 133.944 149.492  1.00  0.00     0.118 C 
BRANCH  31  32
ATOM     32  O   UNL     1     136.698 133.200 150.276  1.00  0.00    -0.393 OA
ATOM     33  H   UNL     1     136.016 133.830 150.634  1.00  0.00     0.210 HD
ENDBRANCH  31  32
ENDBRANCH  10  12
ENDBRANCH   8  10
ENDBRANCH   1   8
TORSDOF 8
ENDMDL
MODEL 3
REMARK VINA RESULT:    -6.402      2.082      8.832
REMARK INTER + INTRA:          -9.978
REMARK INTER:                  -8.931
REMARK INTRA:                  -1.047
REMARK UNBOUND:                -0.955
REMARK SMILES C[C@@H](CO)CCC(=O)[C@H](C)[C@H]1C(=O)C[C@@H]2[C@@H]3CC=C4C[C@@H](O)CC[C@]4(C)[C@H]3CC[C@@]21C
REMARK SMILES IDX 6 1 5 2 2 3 1 4 3 5 4 6 7 8 8 9 9 10 10 11 11 12 12 13 30 14
REMARK SMILES IDX 13 15 14 16 15 17 29 18 31 19 16 20 28 21 27 22 17 23 25 24
REMARK SMILES IDX 18 25 19 26 24 27 26 28 20 29 23 30 21 31 22 32
REMARK H PARENT 4 7 22 33
REMARK Flexibility Score: inf
ROOT
ATOM      1  C   UNL     1     146.576 138.787 143.025  1.00  0.00     0.076 C 
ENDROOT
BRANCH   1   2
ATOM      2  C   UNL     1     146.361 139.899 144.063  1.00  0.00     0.013 C 
BRANCH   2   3
ATOM      3  C   UNL     1     146.595 139.415 145.513  1.00  0.00     0.012 C 
ATOM      4  C   UNL     1     147.111 137.966 145.549  1.00  0.00     0.010 C 
BRANCH   3   5
ATOM      5  C   UNL     1     147.591 140.355 146.227  1.00  0.00     0.159 C 
BRANCH   5   6
ATOM      6  O   UNL     1     146.953 141.092 147.234  1.00  0.00    -0.396 OA
ATOM      7  H   UNL     1     145.996 141.159 146.976  1.00  0.00     0.210 HD
ENDBRANCH   5   6
ENDBRANCH   3   5
ENDBRANCH   2   3
ENDBRANCH   1   2
BRANCH   1   8
ATOM      8  C   UNL     1     145.408 138.708 142.073  1.00  0.00     0.136 C 
ATOM      9  O   UNL     1     145.464 139.310 141.010  1.00  0.00    -0.299 OA
BRANCH   8  10
ATOM     10  C   UNL     1     144.182 137.875 142.403  1.00  0.00     0.064 C 
ATOM     11  C   UNL     1     143.128 138.169 141.321  1.00  0.00     0.017 C 
BRANCH  10  12
ATOM     12  C   UNL     1     143.663 138.161 143.858  1.00  0.00     0.072 C 
ATOM     13  C   UNL     1     142.320 138.829 143.832  1.00  0.00     0.137 C 
ATOM     14  C   UNL     1     143.362 136.903 144.755  1.00  0.00    -0.019 C 
ATOM     15  O   UNL     1     142.167 140.014 143.576  1.00  0.00    -0.299 OA
ATOM     16  C   UNL     1     141.198 137.960 144.263  1.00  0.00     0.080 C 
ATOM     17  C   UNL     1     141.865 136.592 144.477  1.00  0.00     0.007 C 
ATOM     18  C   UNL     1     143.552 137.322 146.247  1.00  0.00     0.008 C 
ATOM     19  C   UNL     1     144.247 135.670 144.446  1.00  0.00     0.012 C 
ATOM     20  C   UNL     1     141.183 135.669 145.537  1.00  0.00     0.001 C 
ATOM     21  C   UNL     1     142.941 136.336 147.246  1.00  0.00     0.005 C 
ATOM     22  C   UNL     1     141.426 136.123 146.998  1.00  0.00     0.003 C 
ATOM     23  C   UNL     1     139.676 135.538 145.253  1.00  0.00     0.031 C 
ATOM     24  C   UNL     1     140.757 135.140 148.043  1.00  0.00    -0.008 C 
ATOM     25  C   UNL     1     138.940 134.785 146.319  1.00  0.00    -0.027 C 
ATOM     26  C   UNL     1     139.336 134.744 147.608  1.00  0.00    -0.065 C 
ATOM     27  C   UNL     1     140.667 135.866 149.424  1.00  0.00     0.014 C 
ATOM     28  C   UNL     1     141.584 133.833 148.204  1.00  0.00     0.016 C 
ATOM     29  C   UNL     1     138.411 134.093 148.620  1.00  0.00     0.063 C 
ATOM     30  C   UNL     1     139.810 135.125 150.461  1.00  0.00     0.033 C 
ATOM     31  C   UNL     1     138.389 134.894 149.929  1.00  0.00     0.118 C 
BRANCH  31  32
ATOM     32  O   UNL     1     137.596 134.248 150.894  1.00  0.00    -0.393 OA
ATOM     33  H   UNL     1     137.336 133.361 150.527  1.00  0.00     0.210 HD
ENDBRANCH  31  32
ENDBRANCH  10  12
ENDBRANCH   8  10
ENDBRANCH   1   8
TORSDOF 8
ENDMDL
MODEL 4
REMARK VINA RESULT:    -6.220      1.948      9.434
REMARK INTER + INTRA:          -9.721
REMARK INTER:                  -8.778
REMARK INTRA:                  -0.943
REMARK UNBOUND:                -0.955
REMARK SMILES C[C@@H](CO)CCC(=O)[C@H](C)[C@H]1C(=O)C[C@@H]2[C@@H]3CC=C4C[C@@H](O)CC[C@]4(C)[C@H]3CC[C@@]21C
REMARK SMILES IDX 6 1 5 2 2 3 1 4 3 5 4 6 7 8 8 9 9 10 10 11 11 12 12 13 30 14
REMARK SMILES IDX 13 15 14 16 15 17 29 18 31 19 16 20 28 21 27 22 17 23 25 24
REMARK SMILES IDX 18 25 19 26 24 27 26 28 20 29 23 30 21 31 22 32
REMARK H PARENT 4 7 22 33
REMARK Flexibility Score: inf
ROOT
ATOM      1  C   UNL     1     144.541 139.075 140.095  1.00  0.00     0.076 C 
ENDROOT
BRANCH   1   2
ATOM      2  C   UNL     1     144.810 140.541 140.469  1.00  0.00     0.013 C 
BRANCH   2   3
ATOM      3  C   UNL     1     146.075 141.108 139.784  1.00  0.00     0.012 C 
ATOM      4  C   UNL     1     145.749 142.347 138.930  1.00  0.00     0.010 C 
BRANCH   3   5
ATOM      5  C   UNL     1     147.138 141.458 140.848  1.00  0.00     0.159 C 
BRANCH   5   6
ATOM      6  O   UNL     1     146.680 141.146 142.136  1.00  0.00    -0.396 OA
ATOM      7  H   UNL     1     147.180 141.729 142.766  1.00  0.00     0.210 HD
ENDBRANCH   5   6
ENDBRANCH   3   5
ENDBRANCH   2   3
ENDBRANCH   1   2
BRANCH   1   8
ATOM      8  C   UNL     1     144.915 138.154 141.230  1.00  0.00     0.136 C 
ATOM      9  O   UNL     1     146.048 138.204 141.689  1.00  0.00    -0.299 OA
BRANCH   8  10
ATOM     10  C   UNL     1     143.903 137.192 141.826  1.00  0.00     0.064 C 
ATOM     11  C   UNL     1     142.633 137.274 140.961  1.00  0.00     0.017 C 
BRANCH  10  12
ATOM     12  C   UNL     1     143.632 137.502 143.342  1.00  0.00     0.072 C 
ATOM     13  C   UNL     1     142.467 138.433 143.505  1.00  0.00     0.137 C 
ATOM     14  C   UNL     1     143.182 136.288 144.237  1.00  0.00    -0.019 C 
ATOM     15  O   UNL     1     142.538 139.636 143.301  1.00  0.00    -0.299 OA
ATOM     16  C   UNL     1     141.247 137.792 144.052  1.00  0.00     0.080 C 
ATOM     17  C   UNL     1     141.631 136.307 144.144  1.00  0.00     0.007 C 
ATOM     18  C   UNL     1     143.633 136.580 145.704  1.00  0.00     0.008 C 
ATOM     19  C   UNL     1     143.744 134.917 143.786  1.00  0.00     0.012 C 
ATOM     20  C   UNL     1     140.901 135.490 145.257  1.00  0.00     0.001 C 
ATOM     21  C   UNL     1     142.950 135.691 146.746  1.00  0.00     0.005 C 
ATOM     22  C   UNL     1     141.406 135.808 146.687  1.00  0.00     0.003 C 
ATOM     23  C   UNL     1     139.377 135.687 145.165  1.00  0.00     0.031 C 
ATOM     24  C   UNL     1     140.674 134.930 147.783  1.00  0.00    -0.008 C 
ATOM     25  C   UNL     1     138.631 135.047 146.295  1.00  0.00    -0.027 C 
ATOM     26  C   UNL     1     139.160 134.859 147.522  1.00  0.00    -0.065 C 
ATOM     27  C   UNL     1     140.905 135.587 149.183  1.00  0.00     0.014 C 
ATOM     28  C   UNL     1     141.221 133.475 147.803  1.00  0.00     0.016 C 
ATOM     29  C   UNL     1     138.246 134.360 148.627  1.00  0.00     0.063 C 
ATOM     30  C   UNL     1     140.040 134.984 150.301  1.00  0.00     0.033 C 
ATOM     31  C   UNL     1     138.549 135.080 149.948  1.00  0.00     0.118 C 
BRANCH  31  32
ATOM     32  O   UNL     1     137.759 134.561 150.989  1.00  0.00    -0.393 OA
ATOM     33  H   UNL     1     137.104 133.930 150.586  1.00  0.00     0.210 HD
ENDBRANCH  31  32
ENDBRANCH  10  12
ENDBRANCH   8  10
ENDBRANCH   1   8
TORSDOF 8
ENDMDL
MODEL 5
REMARK VINA RESULT:    -6.152      5.103      8.981
REMARK INTER + INTRA:          -9.625
REMARK INTER:                  -8.802
REMARK INTRA:                  -0.823
REMARK UNBOUND:                -0.955
REMARK SMILES C[C@@H](CO)CCC(=O)[C@H](C)[C@H]1C(=O)C[C@@H]2[C@@H]3CC=C4C[C@@H](O)CC[C@]4(C)[C@H]3CC[C@@]21C
REMARK SMILES IDX 6 1 5 2 2 3 1 4 3 5 4 6 7 8 8 9 9 10 10 11 11 12 12 13 30 14
REMARK SMILES IDX 13 15 14 16 15 17 29 18 31 19 16 20 28 21 27 22 17 23 25 24
REMARK SMILES IDX 18 25 19 26 24 27 26 28 20 29 23 30 21 31 22 32
REMARK H PARENT 4 7 22 33
REMARK Flexibility Score: inf
ROOT
ATOM      1  C   UNL     1     147.022 138.583 143.673  1.00  0.00     0.076 C 
ENDROOT
BRANCH   1   2
ATOM      2  C   UNL     1     148.213 139.251 144.377  1.00  0.00     0.013 C 
BRANCH   2   3
ATOM      3  C   UNL     1     148.082 139.233 145.917  1.00  0.00     0.012 C 
ATOM      4  C   UNL     1     147.207 140.394 146.424  1.00  0.00     0.010 C 
BRANCH   3   5
ATOM      5  C   UNL     1     147.496 137.882 146.381  1.00  0.00     0.159 C 
BRANCH   5   6
ATOM      6  O   UNL     1     148.475 137.099 147.009  1.00  0.00    -0.396 OA
ATOM      7  H   UNL     1     149.158 136.887 146.319  1.00  0.00     0.210 HD
ENDBRANCH   5   6
ENDBRANCH   3   5
ENDBRANCH   2   3
ENDBRANCH   1   2
BRANCH   1   8
ATOM      8  C   UNL     1     146.133 139.616 143.024  1.00  0.00     0.136 C 
ATOM      9  O   UNL     1     146.592 140.324 142.139  1.00  0.00    -0.299 OA
BRANCH   8  10
ATOM     10  C   UNL     1     144.680 139.770 143.434  1.00  0.00     0.064 C 
ATOM     11  C   UNL     1     144.344 138.593 144.368  1.00  0.00     0.017 C 
BRANCH  10  12
ATOM     12  C   UNL     1     143.731 139.850 142.184  1.00  0.00     0.072 C 
ATOM     13  C   UNL     1     143.054 138.535 141.933  1.00  0.00     0.137 C 
ATOM     14  C   UNL     1     142.493 140.815 142.304  1.00  0.00    -0.019 C 
ATOM     15  O   UNL     1     143.613 137.582 141.412  1.00  0.00    -0.299 OA
ATOM     16  C   UNL     1     141.607 138.522 142.261  1.00  0.00     0.080 C 
ATOM     17  C   UNL     1     141.366 139.911 142.874  1.00  0.00     0.007 C 
ATOM     18  C   UNL     1     142.118 141.293 140.865  1.00  0.00     0.008 C 
ATOM     19  C   UNL     1     142.727 142.045 143.214  1.00  0.00     0.012 C 
ATOM     20  C   UNL     1     139.922 140.481 142.700  1.00  0.00     0.001 C 
ATOM     21  C   UNL     1     140.727 141.925 140.770  1.00  0.00     0.005 C 
ATOM     22  C   UNL     1     139.617 140.959 141.258  1.00  0.00     0.003 C 
ATOM     23  C   UNL     1     138.873 139.455 143.164  1.00  0.00     0.031 C 
ATOM     24  C   UNL     1     138.162 141.571 141.132  1.00  0.00    -0.008 C 
ATOM     25  C   UNL     1     137.465 139.886 142.886  1.00  0.00    -0.027 C 
ATOM     26  C   UNL     1     137.126 140.705 141.869  1.00  0.00    -0.065 C 
ATOM     27  C   UNL     1     137.774 141.625 139.619  1.00  0.00     0.014 C 
ATOM     28  C   UNL     1     138.094 143.004 141.731  1.00  0.00     0.016 C 
ATOM     29  C   UNL     1     135.651 140.925 141.589  1.00  0.00     0.063 C 
ATOM     30  C   UNL     1     136.296 141.957 139.369  1.00  0.00     0.033 C 
ATOM     31  C   UNL     1     135.383 140.947 140.078  1.00  0.00     0.118 C 
BRANCH  31  32
ATOM     32  O   UNL     1     134.031 141.232 139.817  1.00  0.00    -0.393 OA
ATOM     33  H   UNL     1     133.949 141.449 138.850  1.00  0.00     0.210 HD
ENDBRANCH  31  32
ENDBRANCH  10  12
ENDBRANCH   8  10
ENDBRANCH   1   8
TORSDOF 8
ENDMDL
MODEL 6
REMARK VINA RESULT:    -6.150      9.955     11.802
REMARK INTER + INTRA:          -9.622
REMARK INTER:                  -8.651
REMARK INTRA:                  -0.971
REMARK UNBOUND:                -0.955
REMARK SMILES C[C@@H](CO)CCC(=O)[C@H](C)[C@H]1C(=O)C[C@@H]2[C@@H]3CC=C4C[C@@H](O)CC[C@]4(C)[C@H]3CC[C@@]21C
REMARK SMILES IDX 6 1 5 2 2 3 1 4 3 5 4 6 7 8 8 9 9 10 10 11 11 12 12 13 30 14
REMARK SMILES IDX 13 15 14 16 15 17 29 18 31 19 16 20 28 21 27 22 17 23 25 24
REMARK SMILES IDX 18 25 19 26 24 27 26 28 20 29 23 30 21 31 22 32
REMARK H PARENT 4 7 22 33
REMARK Flexibility Score: inf
ROOT
ATOM      1  C   UNL     1     131.827 139.277 135.928  1.00  0.00     0.076 C 
ENDROOT
BRANCH   1   2
ATOM      2  C   UNL     1     131.678 139.158 137.453  1.00  0.00     0.013 C 
BRANCH   2   3
ATOM      3  C   UNL     1     130.333 139.721 137.967  1.00  0.00     0.012 C 
ATOM      4  C   UNL     1     129.544 138.665 138.761  1.00  0.00     0.010 C 
BRANCH   3   5
ATOM      5  C   UNL     1     130.584 140.969 138.841  1.00  0.00     0.159 C 
BRANCH   5   6
ATOM      6  O   UNL     1     131.157 142.003 138.087  1.00  0.00    -0.396 OA
ATOM      7  H   UNL     1     131.935 141.611 137.609  1.00  0.00     0.210 HD
ENDBRANCH   5   6
ENDBRANCH   3   5
ENDBRANCH   2   3
ENDBRANCH   1   2
BRANCH   1   8
ATOM      8  C   UNL     1     133.169 139.864 135.565  1.00  0.00     0.136 C 
ATOM      9  O   UNL     1     133.714 139.510 134.529  1.00  0.00    -0.299 OA
BRANCH   8  10
ATOM     10  C   UNL     1     133.837 140.902 136.450  1.00  0.00     0.064 C 
ATOM     11  C   UNL     1     133.992 142.183 135.610  1.00  0.00     0.017 C 
BRANCH  10  12
ATOM     12  C   UNL     1     135.201 140.379 137.027  1.00  0.00     0.072 C 
ATOM     13  C   UNL     1     136.364 141.084 136.392  1.00  0.00     0.137 C 
ATOM     14  C   UNL     1     135.471 140.656 138.552  1.00  0.00    -0.019 C 
ATOM     15  O   UNL     1     136.772 140.825 135.270  1.00  0.00    -0.299 OA
ATOM     16  C   UNL     1     137.058 142.042 137.286  1.00  0.00     0.080 C 
ATOM     17  C   UNL     1     136.201 142.028 138.562  1.00  0.00     0.007 C 
ATOM     18  C   UNL     1     136.425 139.540 139.082  1.00  0.00     0.008 C 
ATOM     19  C   UNL     1     134.195 140.705 139.428  1.00  0.00     0.012 C 
ATOM     20  C   UNL     1     136.961 142.353 139.887  1.00  0.00     0.001 C 
ATOM     21  C   UNL     1     137.075 139.872 140.427  1.00  0.00     0.005 C 
ATOM     22  C   UNL     1     137.874 141.199 140.373  1.00  0.00     0.003 C 
ATOM     23  C   UNL     1     137.765 143.657 139.747  1.00  0.00     0.031 C 
ATOM     24  C   UNL     1     138.593 141.547 141.740  1.00  0.00    -0.008 C 
ATOM     25  C   UNL     1     138.632 143.945 140.934  1.00  0.00    -0.027 C 
ATOM     26  C   UNL     1     139.141 142.985 141.733  1.00  0.00    -0.065 C 
ATOM     27  C   UNL     1     139.790 140.562 141.939  1.00  0.00     0.014 C 
ATOM     28  C   UNL     1     137.618 141.419 142.944  1.00  0.00     0.016 C 
ATOM     29  C   UNL     1     140.145 143.395 142.795  1.00  0.00     0.063 C 
ATOM     30  C   UNL     1     140.727 140.949 143.094  1.00  0.00     0.033 C 
ATOM     31  C   UNL     1     141.280 142.367 142.895  1.00  0.00     0.118 C 
BRANCH  31  32
ATOM     32  O   UNL     1     142.165 142.704 143.934  1.00  0.00    -0.393 OA
ATOM     33  H   UNL     1     141.978 143.644 144.198  1.00  0.00     0.210 HD
ENDBRANCH  31  32
ENDBRANCH  10  12
ENDBRANCH   8  10
ENDBRANCH   1   8
TORSDOF 8
ENDMDL
MODEL 7
REMARK VINA RESULT:    -5.976      1.975      9.815
REMARK INTER + INTRA:          -9.377
REMARK INTER:                  -9.078
REMARK INTRA:                  -0.299
REMARK UNBOUND:                -0.955
REMARK SMILES C[C@@H](CO)CCC(=O)[C@H](C)[C@H]1C(=O)C[C@@H]2[C@@H]3CC=C4C[C@@H](O)CC[C@]4(C)[C@H]3CC[C@@]21C
REMARK SMILES IDX 6 1 5 2 2 3 1 4 3 5 4 6 7 8 8 9 9 10 10 11 11 12 12 13 30 14
REMARK SMILES IDX 13 15 14 16 15 17 29 18 31 19 16 20 28 21 27 22 17 23 25 24
REMARK SMILES IDX 18 25 19 26 24 27 26 28 20 29 23 30 21 31 22 32
REMARK H PARENT 4 7 22 33
REMARK Flexibility Score: inf
ROOT
ATOM      1  C   UNL     1     144.657 138.460 144.105  1.00  0.00     0.076 C 
ENDROOT
BRANCH   1   2
ATOM      2  C   UNL     1     145.769 138.459 143.045  1.00  0.00     0.013 C 
BRANCH   2   3
ATOM      3  C   UNL     1     147.004 139.286 143.476  1.00  0.00     0.012 C 
ATOM      4  C   UNL     1     148.005 138.433 144.275  1.00  0.00     0.010 C 
BRANCH   3   5
ATOM      5  C   UNL     1     147.691 139.891 142.233  1.00  0.00     0.159 C 
BRANCH   5   6
ATOM      6  O   UNL     1     149.049 139.542 142.190  1.00  0.00    -0.396 OA
ATOM      7  H   UNL     1     149.306 139.279 143.113  1.00  0.00     0.210 HD
ENDBRANCH   5   6
ENDBRANCH   3   5
ENDBRANCH   2   3
ENDBRANCH   1   2
BRANCH   1   8
ATOM      8  C   UNL     1     144.343 137.053 144.554  1.00  0.00     0.136 C 
ATOM      9  O   UNL     1     144.212 136.175 143.713  1.00  0.00    -0.299 OA
BRANCH   8  10
ATOM     10  C   UNL     1     144.214 136.711 146.027  1.00  0.00     0.064 C 
ATOM     11  C   UNL     1     145.632 136.735 146.625  1.00  0.00     0.017 C 
BRANCH  10  12
ATOM     12  C   UNL     1     143.483 135.336 146.240  1.00  0.00     0.072 C 
ATOM     13  C   UNL     1     143.862 134.719 147.553  1.00  0.00     0.137 C 
ATOM     14  C   UNL     1     141.915 135.388 146.367  1.00  0.00    -0.019 C 
ATOM     15  O   UNL     1     144.927 134.149 147.743  1.00  0.00    -0.299 OA
ATOM     16  C   UNL     1     142.787 134.749 148.574  1.00  0.00     0.080 C 
ATOM     17  C   UNL     1     141.667 135.549 147.892  1.00  0.00     0.007 C 
ATOM     18  C   UNL     1     141.349 134.018 145.875  1.00  0.00     0.008 C 
ATOM     19  C   UNL     1     141.247 136.538 145.575  1.00  0.00     0.012 C 
ATOM     20  C   UNL     1     140.215 135.206 148.356  1.00  0.00     0.001 C 
ATOM     21  C   UNL     1     139.894 133.771 146.283  1.00  0.00     0.005 C 
ATOM     22  C   UNL     1     139.702 133.846 147.819  1.00  0.00     0.003 C 
ATOM     23  C   UNL     1     140.109 135.257 149.890  1.00  0.00     0.031 C 
ATOM     24  C   UNL     1     138.213 133.553 148.274  1.00  0.00    -0.008 C 
ATOM     25  C   UNL     1     138.780 134.794 150.404  1.00  0.00    -0.027 C 
ATOM     26  C   UNL     1     138.004 133.900 149.758  1.00  0.00    -0.065 C 
ATOM     27  C   UNL     1     137.923 132.030 148.076  1.00  0.00     0.014 C 
ATOM     28  C   UNL     1     137.192 134.382 147.445  1.00  0.00     0.016 C 
ATOM     29  C   UNL     1     136.765 133.382 150.466  1.00  0.00     0.063 C 
ATOM     30  C   UNL     1     136.606 131.561 148.714  1.00  0.00     0.033 C 
ATOM     31  C   UNL     1     136.585 131.879 150.216  1.00  0.00     0.118 C 
BRANCH  31  32
ATOM     32  O   UNL     1     135.395 131.416 150.804  1.00  0.00    -0.393 OA
ATOM     33  H   UNL     1     135.057 132.133 151.406  1.00  0.00     0.210 HD
ENDBRANCH  31  32
ENDBRANCH  10  12
ENDBRANCH   8  10
ENDBRANCH   1   8
TORSDOF 8
ENDMDL
MODEL 8
REMARK VINA RESULT:    -5.919      9.091     12.045
REMARK INTER + INTRA:          -9.297
REMARK INTER:                  -8.630
REMARK INTRA:                  -0.667
REMARK UNBOUND:                -0.955
REMARK SMILES C[C@@H](CO)CCC(=O)[C@H](C)[C@H]1C(=O)C[C@@H]2[C@@H]3CC=C4C[C@@H](O)CC[C@]4(C)[C@H]3CC[C@@]21C
REMARK SMILES IDX 6 1 5 2 2 3 1 4 3 5 4 6 7 8 8 9 9 10 10 11 11 12 12 13 30 14
REMARK SMILES IDX 13 15 14 16 15 17 29 18 31 19 16 20 28 21 27 22 17 23 25 24
REMARK SMILES IDX 18 25 19 26 24 27 26 28 20 29 23 30 21 31 22 32
REMARK H PARENT 4 7 22 33
REMARK Flexibility Score: inf
ROOT
ATOM      1  C   UNL     1     141.411 142.054 142.297  1.00  0.00     0.076 C 
ENDROOT
BRANCH   1   2
ATOM      2  C   UNL     1     141.729 142.876 143.555  1.00  0.00     0.013 C 
BRANCH   2   3
ATOM      3  C   UNL     1     141.296 144.355 143.428  1.00  0.00     0.012 C 
ATOM      4  C   UNL     1     141.645 145.159 144.693  1.00  0.00     0.010 C 
BRANCH   3   5
ATOM      5  C   UNL     1     141.961 144.994 142.189  1.00  0.00     0.159 C 
BRANCH   5   6
ATOM      6  O   UNL     1     141.667 146.362 142.110  1.00  0.00    -0.396 OA
ATOM      7  H   UNL     1     141.817 146.740 143.017  1.00  0.00     0.210 HD
ENDBRANCH   5   6
ENDBRANCH   3   5
ENDBRANCH   2   3
ENDBRANCH   1   2
BRANCH   1   8
ATOM      8  C   UNL     1     140.161 141.232 142.495  1.00  0.00     0.136 C 
ATOM      9  O   UNL     1     140.192 140.273 143.253  1.00  0.00    -0.299 OA
BRANCH   8  10
ATOM     10  C   UNL     1     138.864 141.594 141.792  1.00  0.00     0.064 C 
ATOM     11  C   UNL     1     138.028 142.427 142.779  1.00  0.00     0.017 C 
BRANCH  10  12
ATOM     12  C   UNL     1     138.110 140.315 141.276  1.00  0.00     0.072 C 
ATOM     13  C   UNL     1     136.883 140.044 142.096  1.00  0.00     0.137 C 
ATOM     14  C   UNL     1     137.499 140.397 139.828  1.00  0.00    -0.019 C 
ATOM     15  O   UNL     1     136.919 139.539 143.208  1.00  0.00    -0.299 OA
ATOM     16  C   UNL     1     135.607 140.327 141.396  1.00  0.00     0.080 C 
ATOM     17  C   UNL     1     136.059 140.932 140.057  1.00  0.00     0.007 C 
ATOM     18  C   UNL     1     137.444 138.948 139.249  1.00  0.00     0.008 C 
ATOM     19  C   UNL     1     138.280 141.314 138.855  1.00  0.00     0.012 C 
ATOM     20  C   UNL     1     135.084 140.715 138.856  1.00  0.00     0.001 C 
ATOM     21  C   UNL     1     136.542 138.810 138.019  1.00  0.00     0.005 C 
ATOM     22  C   UNL     1     135.090 139.265 138.312  1.00  0.00     0.003 C 
ATOM     23  C   UNL     1     133.655 141.147 139.232  1.00  0.00     0.031 C 
ATOM     24  C   UNL     1     134.124 139.094 137.069  1.00  0.00    -0.008 C 
ATOM     25  C   UNL     1     132.646 140.826 138.172  1.00  0.00    -0.027 C 
ATOM     26  C   UNL     1     132.777 139.800 137.307  1.00  0.00    -0.065 C 
ATOM     27  C   UNL     1     133.852 137.570 136.854  1.00  0.00     0.014 C 
ATOM     28  C   UNL     1     134.749 139.690 135.777  1.00  0.00     0.016 C 
ATOM     29  C   UNL     1     131.606 139.474 136.398  1.00  0.00     0.063 C 
ATOM     30  C   UNL     1     132.732 137.275 135.846  1.00  0.00     0.033 C 
ATOM     31  C   UNL     1     131.424 137.955 136.270  1.00  0.00     0.118 C 
BRANCH  31  32
ATOM     32  O   UNL     1     130.391 137.654 135.366  1.00  0.00    -0.393 OA
ATOM     33  H   UNL     1     130.203 138.475 134.836  1.00  0.00     0.210 HD
ENDBRANCH  31  32
ENDBRANCH  10  12
ENDBRANCH   8  10
ENDBRANCH   1   8
TORSDOF 8
ENDMDL
MODEL 9
REMARK VINA RESULT:    -5.876      3.165      9.527
REMARK INTER + INTRA:          -9.236
REMARK INTER:                  -8.720
REMARK INTRA:                  -0.517
REMARK UNBOUND:                -0.955
REMARK SMILES C[C@@H](CO)CCC(=O)[C@H](C)[C@H]1C(=O)C[C@@H]2[C@@H]3CC=C4C[C@@H](O)CC[C@]4(C)[C@H]3CC[C@@]21C
REMARK SMILES IDX 6 1 5 2 2 3 1 4 3 5 4 6 7 8 8 9 9 10 10 11 11 12 12 13 30 14
REMARK SMILES IDX 13 15 14 16 15 17 29 18 31 19 16 20 28 21 27 22 17 23 25 24
REMARK SMILES IDX 18 25 19 26 24 27 26 28 20 29 23 30 21 31 22 32
REMARK H PARENT 4 7 22 33
REMARK Flexibility Score: inf
ROOT
ATOM      1  C   UNL     1     143.807 138.295 139.305  1.00  0.00     0.076 C 
ENDROOT
BRANCH   1   2
ATOM      2  C   UNL     1     144.313 137.549 138.061  1.00  0.00     0.013 C 
BRANCH   2   3
ATOM      3  C   UNL     1     143.491 137.877 136.793  1.00  0.00     0.012 C 
ATOM      4  C   UNL     1     144.341 137.744 135.517  1.00  0.00     0.010 C 
BRANCH   3   5
ATOM      5  C   UNL     1     142.257 136.951 136.711  1.00  0.00     0.159 C 
BRANCH   5   6
ATOM      6  O   UNL     1     142.039 136.521 135.395  1.00  0.00    -0.396 OA
ATOM      7  H   UNL     1     141.224 136.988 135.073  1.00  0.00     0.210 HD
ENDBRANCH   5   6
ENDBRANCH   3   5
ENDBRANCH   2   3
ENDBRANCH   1   2
BRANCH   1   8
ATOM      8  C   UNL     1     144.258 137.601 140.567  1.00  0.00     0.136 C 
ATOM      9  O   UNL     1     145.376 137.830 141.006  1.00  0.00    -0.299 OA
BRANCH   8  10
ATOM     10  C   UNL     1     143.338 136.648 141.310  1.00  0.00     0.064 C 
ATOM     11  C   UNL     1     141.992 136.642 140.564  1.00  0.00     0.017 C 
BRANCH  10  12
ATOM     12  C   UNL     1     143.198 137.042 142.824  1.00  0.00     0.072 C 
ATOM     13  C   UNL     1     142.072 138.011 143.029  1.00  0.00     0.137 C 
ATOM     14  C   UNL     1     142.794 135.888 143.815  1.00  0.00    -0.019 C 
ATOM     15  O   UNL     1     142.153 139.200 142.757  1.00  0.00    -0.299 OA
ATOM     16  C   UNL     1     140.885 137.433 143.705  1.00  0.00     0.080 C 
ATOM     17  C   UNL     1     141.241 135.944 143.844  1.00  0.00     0.007 C 
ATOM     18  C   UNL     1     143.367 136.241 145.223  1.00  0.00     0.008 C 
ATOM     19  C   UNL     1     143.286 134.481 143.394  1.00  0.00     0.012 C 
ATOM     20  C   UNL     1     140.584 135.205 145.053  1.00  0.00     0.001 C 
ATOM     21  C   UNL     1     142.751 135.425 146.362  1.00  0.00     0.005 C 
ATOM     22  C   UNL     1     141.210 135.581 146.419  1.00  0.00     0.003 C 
ATOM     23  C   UNL     1     139.063 135.438 145.071  1.00  0.00     0.031 C 
ATOM     24  C   UNL     1     140.549 134.780 147.615  1.00  0.00    -0.008 C 
ATOM     25  C   UNL     1     138.396 134.877 146.290  1.00  0.00    -0.027 C 
ATOM     26  C   UNL     1     139.017 134.737 147.479  1.00  0.00    -0.065 C 
ATOM     27  C   UNL     1     140.907 135.500 148.955  1.00  0.00     0.014 C 
ATOM     28  C   UNL     1     141.062 133.313 147.669  1.00  0.00     0.016 C 
ATOM     29  C   UNL     1     138.184 134.320 148.677  1.00  0.00     0.063 C 
ATOM     30  C   UNL     1     140.121 134.979 150.168  1.00  0.00     0.033 C 
ATOM     31  C   UNL     1     138.610 135.097 149.931  1.00  0.00     0.118 C 
BRANCH  31  32
ATOM     32  O   UNL     1     137.894 134.654 151.057  1.00  0.00    -0.393 OA
ATOM     33  H   UNL     1     137.081 135.221 151.141  1.00  0.00     0.210 HD
ENDBRANCH  31  32
ENDBRANCH  10  12
ENDBRANCH   8  10
ENDBRANCH   1   8
TORSDOF 8
ENDMDL
