MODEL 1
REMARK VINA RESULT:    10.076      0.000      0.000
REMARK INTER + INTRA:          25.257
REMARK INTER:                  26.568
REMARK INTRA:                  -1.312
REMARK UNBOUND:                -1.312
REMARK SMILES CCCCCCCCCCCCCCCCCCCCCCCCCCCCCC(=O)[O-]
REMARK SMILES IDX 16 1 17 2 18 3 19 4 20 5 21 6 22 7 23 8 24 9 25 10 26 11
REMARK SMILES IDX 27 12 28 13 29 14 30 15 31 16 32 17 15 18 14 19 13 20 12 21
REMARK SMILES IDX 11 22 10 23 9 24 8 25 7 26 6 27 5 28 4 29 3 30 2 31 1 32
REMARK H PARENT
REMARK Flexibility Score: inf
ROOT
ATOM      1  C   UNL     1      23.362  38.255  25.184  1.00  0.00     0.000 C 
ENDROOT
BRANCH   1   2
ATOM      2  C   UNL     1      22.401  37.911  24.038  1.00  0.00     0.000 C 
BRANCH   2   3
ATOM      3  C   UNL     1      22.270  39.043  23.001  1.00  0.00     0.000 C 
BRANCH   3   4
ATOM      4  C   UNL     1      22.112  38.580  21.540  1.00  0.00     0.000 C 
BRANCH   4   5
ATOM      5  C   UNL     1      22.506  37.116  21.261  1.00  0.00     0.000 C 
BRANCH   5   6
ATOM      6  C   UNL     1      23.800  36.956  20.434  1.00  0.00     0.000 C 
BRANCH   6   7
ATOM      7  C   UNL     1      23.723  35.805  19.413  1.00  0.00     0.000 C 
BRANCH   7   8
ATOM      8  C   UNL     1      24.628  36.025  18.187  1.00  0.00     0.000 C 
BRANCH   8   9
ATOM      9  C   UNL     1      25.607  34.878  17.877  1.00  0.00     0.000 C 
BRANCH   9  10
ATOM     10  C   UNL     1      27.082  35.289  18.007  1.00  0.00     0.000 C 
BRANCH  10  11
ATOM     11  C   UNL     1      27.256  36.774  18.373  1.00  0.00     0.000 C 
BRANCH  11  12
ATOM     12  C   UNL     1      28.489  37.056  19.258  1.00  0.00     0.000 C 
BRANCH  12  13
ATOM     13  C   UNL     1      29.434  38.092  18.623  1.00  0.00     0.006 C 
BRANCH  13  14
ATOM     14  C   UNL     1      30.895  37.619  18.618  1.00  0.00     0.053 C 
BRANCH  14  15
ATOM     15  C   UNL     1      31.187  36.708  19.771  1.00  0.00     0.041 C 
ATOM     16  O   UNL     1      31.616  37.177  20.859  1.00  0.00    -0.550 OA
ATOM     17  O   UNL     1      30.968  35.340  19.649  1.00  0.00    -0.550 OA
ENDBRANCH  14  15
ENDBRANCH  13  14
ENDBRANCH  12  13
ENDBRANCH  11  12
ENDBRANCH  10  11
ENDBRANCH   9  10
ENDBRANCH   8   9
ENDBRANCH   7   8
ENDBRANCH   6   7
ENDBRANCH   5   6
ENDBRANCH   4   5
ENDBRANCH   3   4
ENDBRANCH   2   3
ENDBRANCH   1   2
BRANCH   1  18
ATOM     18  C   UNL     1      22.642  38.191  26.540  1.00  0.00     0.000 C 
BRANCH  18  19
ATOM     19  C   UNL     1      22.624  39.558  27.259  1.00  0.00     0.000 C 
BRANCH  19  20
ATOM     20  C   UNL     1      22.683  39.445  28.793  1.00  0.00     0.000 C 
BRANCH  20  21
ATOM     21  C   UNL     1      21.925  38.218  29.330  1.00  0.00     0.000 C 
BRANCH  21  22
ATOM     22  C   UNL     1      22.041  38.069  30.859  1.00  0.00     0.000 C 
BRANCH  22  23
ATOM     23  C   UNL     1      20.697  38.116  31.609  1.00  0.00     0.000 C 
BRANCH  23  24
ATOM     24  C   UNL     1      20.751  38.997  32.870  1.00  0.00    -0.000 C 
BRANCH  24  25
ATOM     25  C   UNL     1      22.182  39.425  33.229  1.00  0.00    -0.000 C 
BRANCH  25  26
ATOM     26  C   UNL     1      22.236  40.408  34.414  1.00  0.00    -0.000 C 
BRANCH  26  27
ATOM     27  C   UNL     1      23.599  41.126  34.517  1.00  0.00    -0.000 C 
BRANCH  27  28
ATOM     28  C   UNL     1      23.492  42.657  34.663  1.00  0.00    -0.000 C 
BRANCH  28  29
ATOM     29  C   UNL     1      22.061  43.220  34.644  1.00  0.00    -0.000 C 
BRANCH  29  30
ATOM     30  C   UNL     1      22.014  44.743  34.856  1.00  0.00    -0.000 C 
BRANCH  30  31
ATOM     31  C   UNL     1      20.713  45.369  34.329  1.00  0.00    -0.003 C 
ATOM     32  C   UNL     1      20.506  45.140  32.831  1.00  0.00     0.004 C 
ENDBRANCH  30  31
ENDBRANCH  29  30
ENDBRANCH  28  29
ENDBRANCH  27  28
ENDBRANCH  26  27
ENDBRANCH  25  26
ENDBRANCH  24  25
ENDBRANCH  23  24
ENDBRANCH  22  23
ENDBRANCH  21  22
ENDBRANCH  20  21
ENDBRANCH  19  20
ENDBRANCH  18  19
ENDBRANCH   1  18
TORSDOF 28
ENDMDL
MODEL 2
REMARK VINA RESULT:    11.534      4.806     15.235
REMARK INTER + INTRA:          29.101
REMARK INTER:                  30.619
REMARK INTRA:                  -1.517
REMARK UNBOUND:                -1.312
REMARK SMILES CCCCCCCCCCCCCCCCCCCCCCCCCCCCCC(=O)[O-]
REMARK SMILES IDX 16 1 17 2 18 3 19 4 20 5 21 6 22 7 23 8 24 9 25 10 26 11
REMARK SMILES IDX 27 12 28 13 29 14 30 15 31 16 32 17 15 18 14 19 13 20 12 21
REMARK SMILES IDX 11 22 10 23 9 24 8 25 7 26 6 27 5 28 4 29 3 30 2 31 1 32
REMARK H PARENT
REMARK Flexibility Score: inf
ROOT
ATOM      1  C   UNL     1      22.096  39.032  28.242  1.00  0.00     0.000 C 
ENDROOT
BRANCH   1   2
ATOM      2  C   UNL     1      22.761  38.438  29.491  1.00  0.00     0.000 C 
BRANCH   2   3
ATOM      3  C   UNL     1      22.002  37.224  30.060  1.00  0.00     0.000 C 
BRANCH   3   4
ATOM      4  C   UNL     1      21.812  37.227  31.589  1.00  0.00     0.000 C 
BRANCH   4   5
ATOM      5  C   UNL     1      21.326  38.557  32.196  1.00  0.00     0.000 C 
BRANCH   5   6
ATOM      6  C   UNL     1      21.998  38.924  33.538  1.00  0.00     0.000 C 
BRANCH   6   7
ATOM      7  C   UNL     1      23.137  39.947  33.379  1.00  0.00     0.000 C 
BRANCH   7   8
ATOM      8  C   UNL     1      23.476  40.681  34.690  1.00  0.00     0.000 C 
BRANCH   8   9
ATOM      9  C   UNL     1      22.289  40.902  35.645  1.00  0.00     0.000 C 
BRANCH   9  10
ATOM     10  C   UNL     1      21.814  42.363  35.692  1.00  0.00     0.000 C 
BRANCH  10  11
ATOM     11  C   UNL     1      22.589  43.272  34.722  1.00  0.00     0.000 C 
BRANCH  11  12
ATOM     12  C   UNL     1      22.850  44.691  35.272  1.00  0.00     0.000 C 
BRANCH  12  13
ATOM     13  C   UNL     1      21.557  45.518  35.382  1.00  0.00     0.006 C 
BRANCH  13  14
ATOM     14  C   UNL     1      21.109  46.080  34.025  1.00  0.00     0.053 C 
BRANCH  14  15
ATOM     15  C   UNL     1      20.048  45.229  33.396  1.00  0.00     0.041 C 
ATOM     16  O   UNL     1      19.931  45.185  32.142  1.00  0.00    -0.550 OA
ATOM     17  O   UNL     1      19.200  44.471  34.195  1.00  0.00    -0.550 OA
ENDBRANCH  14  15
ENDBRANCH  13  14
ENDBRANCH  12  13
ENDBRANCH  11  12
ENDBRANCH  10  11
ENDBRANCH   9  10
ENDBRANCH   8   9
ENDBRANCH   7   8
ENDBRANCH   6   7
ENDBRANCH   5   6
ENDBRANCH   4   5
ENDBRANCH   3   4
ENDBRANCH   2   3
ENDBRANCH   1   2
BRANCH   1  18
ATOM     18  C   UNL     1      23.062  39.019  27.048  1.00  0.00     0.000 C 
BRANCH  18  19
ATOM     19  C   UNL     1      22.763  37.868  26.064  1.00  0.00     0.000 C 
BRANCH  19  20
ATOM     20  C   UNL     1      23.445  38.038  24.695  1.00  0.00     0.000 C 
BRANCH  20  21
ATOM     21  C   UNL     1      22.495  38.596  23.620  1.00  0.00     0.000 C 
BRANCH  21  22
ATOM     22  C   UNL     1      23.121  38.595  22.213  1.00  0.00     0.000 C 
BRANCH  22  23
ATOM     23  C   UNL     1      22.505  37.572  21.240  1.00  0.00     0.000 C 
BRANCH  23  24
ATOM     24  C   UNL     1      23.534  37.006  20.245  1.00  0.00    -0.000 C 
BRANCH  24  25
ATOM     25  C   UNL     1      23.247  35.546  19.866  1.00  0.00    -0.000 C 
BRANCH  25  26
ATOM     26  C   UNL     1      23.725  35.187  18.447  1.00  0.00    -0.000 C 
BRANCH  26  27
ATOM     27  C   UNL     1      24.879  36.095  17.970  1.00  0.00    -0.000 C 
BRANCH  27  28
ATOM     28  C   UNL     1      26.242  35.379  17.875  1.00  0.00    -0.000 C 
BRANCH  28  29
ATOM     29  C   UNL     1      27.473  36.289  18.013  1.00  0.00    -0.000 C 
BRANCH  29  30
ATOM     30  C   UNL     1      28.603  35.648  18.838  1.00  0.00    -0.000 C 
BRANCH  30  31
ATOM     31  C   UNL     1      29.744  36.632  19.137  1.00  0.00    -0.003 C 
ATOM     32  C   UNL     1      30.235  37.371  17.891  1.00  0.00     0.004 C 
ENDBRANCH  30  31
ENDBRANCH  29  30
ENDBRANCH  28  29
ENDBRANCH  27  28
ENDBRANCH  26  27
ENDBRANCH  25  26
ENDBRANCH  24  25
ENDBRANCH  23  24
ENDBRANCH  22  23
ENDBRANCH  21  22
ENDBRANCH  20  21
ENDBRANCH  19  20
ENDBRANCH  18  19
ENDBRANCH   1  18
TORSDOF 28
ENDMDL
MODEL 3
REMARK VINA RESULT:    12.166      5.184     15.442
REMARK INTER + INTRA:          30.769
REMARK INTER:                  32.178
REMARK INTRA:                  -1.409
REMARK UNBOUND:                -1.312
REMARK SMILES CCCCCCCCCCCCCCCCCCCCCCCCCCCCCC(=O)[O-]
REMARK SMILES IDX 16 1 17 2 18 3 19 4 20 5 21 6 22 7 23 8 24 9 25 10 26 11
REMARK SMILES IDX 27 12 28 13 29 14 30 15 31 16 32 17 15 18 14 19 13 20 12 21
REMARK SMILES IDX 11 22 10 23 9 24 8 25 7 26 6 27 5 28 4 29 3 30 2 31 1 32
REMARK H PARENT
REMARK Flexibility Score: inf
ROOT
ATOM      1  C   UNL     1      22.981  39.181  27.515  1.00  0.00     0.000 C 
ENDROOT
BRANCH   1   2
ATOM      2  C   UNL     1      21.805  39.356  28.486  1.00  0.00     0.000 C 
BRANCH   2   3
ATOM      3  C   UNL     1      22.189  39.086  29.953  1.00  0.00     0.000 C 
BRANCH   3   4
ATOM      4  C   UNL     1      21.196  38.211  30.742  1.00  0.00     0.000 C 
BRANCH   4   5
ATOM      5  C   UNL     1      21.625  37.849  32.178  1.00  0.00     0.000 C 
BRANCH   5   6
ATOM      6  C   UNL     1      22.584  38.870  32.828  1.00  0.00     0.000 C 
BRANCH   6   7
ATOM      7  C   UNL     1      22.395  38.985  34.352  1.00  0.00     0.000 C 
BRANCH   7   8
ATOM      8  C   UNL     1      21.961  40.393  34.801  1.00  0.00     0.000 C 
BRANCH   8   9
ATOM      9  C   UNL     1      22.577  41.556  34.003  1.00  0.00     0.000 C 
BRANCH   9  10
ATOM     10  C   UNL     1      22.954  42.760  34.880  1.00  0.00     0.000 C 
BRANCH  10  11
ATOM     11  C   UNL     1      21.730  43.585  35.316  1.00  0.00     0.000 C 
BRANCH  11  12
ATOM     12  C   UNL     1      21.386  44.745  34.357  1.00  0.00     0.000 C 
BRANCH  12  13
ATOM     13  C   UNL     1      21.261  46.090  35.094  1.00  0.00     0.006 C 
BRANCH  13  14
ATOM     14  C   UNL     1      21.659  45.981  36.573  1.00  0.00     0.053 C 
BRANCH  14  15
ATOM     15  C   UNL     1      23.050  46.484  36.813  1.00  0.00     0.041 C 
ATOM     16  O   UNL     1      23.237  47.576  37.412  1.00  0.00    -0.550 OA
ATOM     17  O   UNL     1      24.142  45.735  36.390  1.00  0.00    -0.550 OA
ENDBRANCH  14  15
ENDBRANCH  13  14
ENDBRANCH  12  13
ENDBRANCH  11  12
ENDBRANCH  10  11
ENDBRANCH   9  10
ENDBRANCH   8   9
ENDBRANCH   7   8
ENDBRANCH   6   7
ENDBRANCH   5   6
ENDBRANCH   4   5
ENDBRANCH   3   4
ENDBRANCH   2   3
ENDBRANCH   1   2
BRANCH   1  18
ATOM     18  C   UNL     1      22.480  39.003  26.074  1.00  0.00     0.000 C 
BRANCH  18  19
ATOM     19  C   UNL     1      23.154  37.810  25.361  1.00  0.00     0.000 C 
BRANCH  19  20
ATOM     20  C   UNL     1      23.614  38.131  23.929  1.00  0.00     0.000 C 
BRANCH  20  21
ATOM     21  C   UNL     1      22.439  38.301  22.949  1.00  0.00     0.000 C 
BRANCH  21  22
ATOM     22  C   UNL     1      22.722  37.682  21.567  1.00  0.00     0.000 C 
BRANCH  22  23
ATOM     23  C   UNL     1      22.312  36.204  21.433  1.00  0.00     0.000 C 
BRANCH  23  24
ATOM     24  C   UNL     1      22.511  35.660  20.007  1.00  0.00    -0.000 C 
BRANCH  24  25
ATOM     25  C   UNL     1      23.970  35.279  19.718  1.00  0.00    -0.000 C 
BRANCH  25  26
ATOM     26  C   UNL     1      24.461  35.774  18.345  1.00  0.00    -0.000 C 
BRANCH  26  27
ATOM     27  C   UNL     1      25.160  37.148  18.434  1.00  0.00    -0.000 C 
BRANCH  27  28
ATOM     28  C   UNL     1      26.597  37.157  17.875  1.00  0.00    -0.000 C 
BRANCH  28  29
ATOM     29  C   UNL     1      27.447  35.926  18.228  1.00  0.00    -0.000 C 
BRANCH  29  30
ATOM     30  C   UNL     1      28.787  36.292  18.889  1.00  0.00    -0.000 C 
BRANCH  30  31
ATOM     31  C   UNL     1      29.816  36.821  17.878  1.00  0.00    -0.003 C 
ATOM     32  C   UNL     1      30.984  37.551  18.544  1.00  0.00     0.004 C 
ENDBRANCH  30  31
ENDBRANCH  29  30
ENDBRANCH  28  29
ENDBRANCH  27  28
ENDBRANCH  26  27
ENDBRANCH  25  26
ENDBRANCH  24  25
ENDBRANCH  23  24
ENDBRANCH  22  23
ENDBRANCH  21  22
ENDBRANCH  20  21
ENDBRANCH  19  20
ENDBRANCH  18  19
ENDBRANCH   1  18
TORSDOF 28
ENDMDL
