MODEL 1
REMARK VINA RESULT:    -5.700      0.000      0.000
REMARK INTER + INTRA:          -6.259
REMARK INTER:                  -6.033
REMARK INTRA:                  -0.226
REMARK UNBOUND:                -0.226
REMARK SMILES C=C(C)[C@H]1CC=C(C)C(=O)C1
REMARK SMILES IDX 8 1 7 2 6 3 5 4 4 5 11 6 9 7 10 8 2 9 1 10 3 11
REMARK H PARENT
REMARK Flexibility Score: inf
ROOT
ATOM      1  C   UNL     1      -7.584  30.497  25.043  1.00  0.00     0.048 C 
ATOM      2  C   UNL     1      -8.408  31.031  23.905  1.00  0.00    -0.012 C 
ATOM      3  C   UNL     1      -8.146  30.641  22.649  1.00  0.00    -0.019 C 
ATOM      4  C   UNL     1      -8.968  31.127  21.488  1.00  0.00     0.036 C 
ATOM      5  C   UNL     1      -9.376  32.603  21.661  1.00  0.00     0.025 C 
ATOM      6  C   UNL     1     -10.101  32.800  23.014  1.00  0.00     0.089 C 
ATOM      7  C   UNL     1      -9.416  32.091  24.156  1.00  0.00     0.158 C 
ATOM      8  O   UNL     1      -9.719  32.406  25.338  1.00  0.00    -0.295 OA
ENDROOT
BRANCH   5   9
ATOM      9  C   UNL     1      -8.189  33.538  21.413  1.00  0.00    -0.077 C 
ATOM     10  C   UNL     1      -7.428  33.339  20.323  1.00  0.00     0.008 C 
ATOM     11  C   UNL     1      -7.807  34.675  22.333  1.00  0.00     0.039 C 
ENDBRANCH   5   9
TORSDOF 1
ENDMDL
MODEL 2
REMARK VINA RESULT:    -5.661      1.873      3.953
REMARK INTER + INTRA:          -6.218
REMARK INTER:                  -5.996
REMARK INTRA:                  -0.222
REMARK UNBOUND:                -0.226
REMARK SMILES C=C(C)[C@H]1CC=C(C)C(=O)C1
REMARK SMILES IDX 8 1 7 2 6 3 5 4 4 5 11 6 9 7 10 8 2 9 1 10 3 11
REMARK H PARENT
REMARK Flexibility Score: inf
ROOT
ATOM      1  C   UNL     1      -7.413  35.137  22.317  1.00  0.00     0.048 C 
ATOM      2  C   UNL     1      -8.293  33.932  22.503  1.00  0.00    -0.012 C 
ATOM      3  C   UNL     1      -8.815  33.666  23.709  1.00  0.00    -0.019 C 
ATOM      4  C   UNL     1      -9.726  32.491  23.929  1.00  0.00     0.036 C 
ATOM      5  C   UNL     1      -9.280  31.267  23.105  1.00  0.00     0.025 C 
ATOM      6  C   UNL     1      -9.164  31.645  21.610  1.00  0.00     0.089 C 
ATOM      7  C   UNL     1      -8.471  32.967  21.390  1.00  0.00     0.158 C 
ATOM      8  O   UNL     1      -8.048  33.249  20.237  1.00  0.00    -0.295 OA
ENDROOT
BRANCH   5   9
ATOM      9  C   UNL     1      -8.035  30.614  23.713  1.00  0.00    -0.077 C 
ATOM     10  C   UNL     1      -7.981  30.446  25.046  1.00  0.00     0.008 C 
ATOM     11  C   UNL     1      -6.846  30.153  22.902  1.00  0.00     0.039 C 
ENDBRANCH   5   9
TORSDOF 1
ENDMDL
MODEL 3
REMARK VINA RESULT:    -5.638      1.343      2.164
REMARK INTER + INTRA:          -6.194
REMARK INTER:                  -6.001
REMARK INTRA:                  -0.193
REMARK UNBOUND:                -0.226
REMARK SMILES C=C(C)[C@H]1CC=C(C)C(=O)C1
REMARK SMILES IDX 8 1 7 2 6 3 5 4 4 5 11 6 9 7 10 8 2 9 1 10 3 11
REMARK H PARENT
REMARK Flexibility Score: inf
ROOT
ATOM      1  C   UNL     1      -6.861  29.752  22.752  1.00  0.00     0.048 C 
ATOM      2  C   UNL     1      -7.910  30.800  22.999  1.00  0.00    -0.012 C 
ATOM      3  C   UNL     1      -8.421  31.492  21.971  1.00  0.00    -0.019 C 
ATOM      4  C   UNL     1      -9.495  32.524  22.173  1.00  0.00     0.036 C 
ATOM      5  C   UNL     1      -9.276  33.320  23.474  1.00  0.00     0.025 C 
ATOM      6  C   UNL     1      -9.160  32.354  24.677  1.00  0.00     0.089 C 
ATOM      7  C   UNL     1      -8.279  31.163  24.390  1.00  0.00     0.158 C 
ATOM      8  O   UNL     1      -7.861  30.469  25.355  1.00  0.00    -0.295 OA
ENDROOT
BRANCH   5   9
ATOM      9  C   UNL     1      -8.126  34.320  23.325  1.00  0.00    -0.077 C 
ATOM     10  C   UNL     1      -7.432  34.672  24.421  1.00  0.00     0.008 C 
ATOM     11  C   UNL     1      -7.725  34.952  22.012  1.00  0.00     0.039 C 
ENDBRANCH   5   9
TORSDOF 1
ENDMDL
MODEL 4
REMARK VINA RESULT:    -5.396      1.948      3.596
REMARK INTER + INTRA:          -5.938
REMARK INTER:                  -5.862
REMARK INTRA:                  -0.076
REMARK UNBOUND:                -0.226
REMARK SMILES C=C(C)[C@H]1CC=C(C)C(=O)C1
REMARK SMILES IDX 8 1 7 2 6 3 5 4 4 5 11 6 9 7 10 8 2 9 1 10 3 11
REMARK H PARENT
REMARK Flexibility Score: inf
ROOT
ATOM      1  C   UNL     1      -7.852  35.393  24.970  1.00  0.00     0.048 C 
ATOM      2  C   UNL     1      -8.480  34.317  24.130  1.00  0.00    -0.012 C 
ATOM      3  C   UNL     1      -9.316  33.432  24.691  1.00  0.00    -0.019 C 
ATOM      4  C   UNL     1      -9.991  32.363  23.879  1.00  0.00     0.036 C 
ATOM      5  C   UNL     1      -9.054  31.803  22.791  1.00  0.00     0.025 C 
ATOM      6  C   UNL     1      -8.514  32.954  21.909  1.00  0.00     0.089 C 
ATOM      7  C   UNL     1      -8.070  34.151  22.713  1.00  0.00     0.158 C 
ATOM      8  O   UNL     1      -7.345  35.020  22.160  1.00  0.00    -0.295 OA
ENDROOT
BRANCH   5   9
ATOM      9  C   UNL     1      -7.986  30.888  23.398  1.00  0.00    -0.077 C 
ATOM     10  C   UNL     1      -6.963  30.488  22.622  1.00  0.00     0.008 C 
ATOM     11  C   UNL     1      -8.016  30.390  24.825  1.00  0.00     0.039 C 
ENDBRANCH   5   9
TORSDOF 1
ENDMDL
MODEL 5
REMARK VINA RESULT:    -5.368      1.573      3.955
REMARK INTER + INTRA:          -5.908
REMARK INTER:                  -5.796
REMARK INTRA:                  -0.113
REMARK UNBOUND:                -0.226
REMARK SMILES C=C(C)[C@H]1CC=C(C)C(=O)C1
REMARK SMILES IDX 8 1 7 2 6 3 5 4 4 5 11 6 9 7 10 8 2 9 1 10 3 11
REMARK H PARENT
REMARK Flexibility Score: inf
ROOT
ATOM      1  C   UNL     1      -9.008  33.265  21.417  1.00  0.00     0.048 C 
ATOM      2  C   UNL     1      -8.356  32.359  22.424  1.00  0.00    -0.012 C 
ATOM      3  C   UNL     1      -7.475  31.432  22.019  1.00  0.00    -0.019 C 
ATOM      4  C   UNL     1      -6.777  30.530  22.998  1.00  0.00     0.036 C 
ATOM      5  C   UNL     1      -7.715  30.108  24.146  1.00  0.00     0.025 C 
ATOM      6  C   UNL     1      -8.316  31.359  24.830  1.00  0.00     0.089 C 
ATOM      7  C   UNL     1      -8.789  32.398  23.843  1.00  0.00     0.158 C 
ATOM      8  O   UNL     1      -9.557  33.313  24.243  1.00  0.00    -0.295 OA
ENDROOT
BRANCH   5   9
ATOM      9  C   UNL     1      -8.734  29.067  23.675  1.00  0.00    -0.077 C 
ATOM     10  C   UNL     1      -9.800  28.810  24.453  1.00  0.00     0.008 C 
ATOM     11  C   UNL     1      -8.611  28.293  22.382  1.00  0.00     0.039 C 
ENDBRANCH   5   9
TORSDOF 1
ENDMDL
MODEL 6
REMARK VINA RESULT:    -5.356      2.366      3.466
REMARK INTER + INTRA:          -5.895
REMARK INTER:                  -5.672
REMARK INTRA:                  -0.223
REMARK UNBOUND:                -0.226
REMARK SMILES C=C(C)[C@H]1CC=C(C)C(=O)C1
REMARK SMILES IDX 8 1 7 2 6 3 5 4 4 5 11 6 9 7 10 8 2 9 1 10 3 11
REMARK H PARENT
REMARK Flexibility Score: inf
ROOT
ATOM      1  C   UNL     1     -10.085  27.875  24.281  1.00  0.00     0.048 C 
ATOM      2  C   UNL     1      -9.068  28.952  24.025  1.00  0.00    -0.012 C 
ATOM      3  C   UNL     1      -8.994  30.011  24.845  1.00  0.00    -0.019 C 
ATOM      4  C   UNL     1      -7.969  31.091  24.642  1.00  0.00     0.036 C 
ATOM      5  C   UNL     1      -7.743  31.384  23.146  1.00  0.00     0.025 C 
ATOM      6  C   UNL     1      -7.374  30.081  22.398  1.00  0.00     0.089 C 
ATOM      7  C   UNL     1      -8.242  28.911  22.793  1.00  0.00     0.158 C 
ATOM      8  O   UNL     1      -8.252  27.886  22.060  1.00  0.00    -0.295 OA
ENDROOT
BRANCH   5   9
ATOM      9  C   UNL     1      -8.916  32.169  22.552  1.00  0.00    -0.077 C 
ATOM     10  C   UNL     1      -9.413  33.209  23.244  1.00  0.00     0.008 C 
ATOM     11  C   UNL     1      -9.567  31.836  21.229  1.00  0.00     0.039 C 
ENDBRANCH   5   9
TORSDOF 1
ENDMDL
MODEL 7
REMARK VINA RESULT:    -5.127      2.027      2.980
REMARK INTER + INTRA:          -5.652
REMARK INTER:                  -5.484
REMARK INTRA:                  -0.168
REMARK UNBOUND:                -0.226
REMARK SMILES C=C(C)[C@H]1CC=C(C)C(=O)C1
REMARK SMILES IDX 8 1 7 2 6 3 5 4 4 5 11 6 9 7 10 8 2 9 1 10 3 11
REMARK H PARENT
REMARK Flexibility Score: inf
ROOT
ATOM      1  C   UNL     1     -10.102  29.457  25.634  1.00  0.00     0.048 C 
ATOM      2  C   UNL     1      -9.018  29.783  24.645  1.00  0.00    -0.012 C 
ATOM      3  C   UNL     1      -8.277  30.889  24.804  1.00  0.00    -0.019 C 
ATOM      4  C   UNL     1      -7.162  31.232  23.855  1.00  0.00     0.036 C 
ATOM      5  C   UNL     1      -7.525  30.870  22.402  1.00  0.00     0.025 C 
ATOM      6  C   UNL     1      -7.933  29.381  22.310  1.00  0.00     0.089 C 
ATOM      7  C   UNL     1      -8.860  28.956  23.422  1.00  0.00     0.158 C 
ATOM      8  O   UNL     1      -9.498  27.876  23.304  1.00  0.00    -0.295 OA
ENDROOT
BRANCH   5   9
ATOM      9  C   UNL     1      -8.535  31.863  21.820  1.00  0.00    -0.077 C 
ATOM     10  C   UNL     1      -9.605  31.383  21.162  1.00  0.00     0.008 C 
ATOM     11  C   UNL     1      -8.398  33.364  21.927  1.00  0.00     0.039 C 
ENDBRANCH   5   9
TORSDOF 1
ENDMDL
MODEL 8
REMARK VINA RESULT:    -4.795      1.902      3.624
REMARK INTER + INTRA:          -5.301
REMARK INTER:                  -5.649
REMARK INTRA:                   0.348
REMARK UNBOUND:                -0.226
REMARK SMILES C=C(C)[C@H]1CC=C(C)C(=O)C1
REMARK SMILES IDX 8 1 7 2 6 3 5 4 4 5 11 6 9 7 10 8 2 9 1 10 3 11
REMARK H PARENT
REMARK Flexibility Score: inf
ROOT
ATOM      1  C   UNL     1      -7.326  32.719  20.558  1.00  0.00     0.048 C 
ATOM      2  C   UNL     1      -8.158  32.357  21.757  1.00  0.00    -0.012 C 
ATOM      3  C   UNL     1      -9.248  33.077  22.056  1.00  0.00    -0.019 C 
ATOM      4  C   UNL     1     -10.125  32.727  23.226  1.00  0.00     0.036 C 
ATOM      5  C   UNL     1      -9.294  32.236  24.428  1.00  0.00     0.025 C 
ATOM      6  C   UNL     1      -8.388  31.056  24.003  1.00  0.00     0.089 C 
ATOM      7  C   UNL     1      -7.696  31.293  22.683  1.00  0.00     0.158 C 
ATOM      8  O   UNL     1      -6.718  30.564  22.369  1.00  0.00    -0.295 OA
ENDROOT
BRANCH   5   9
ATOM      9  C   UNL     1      -8.573  33.399  25.116  1.00  0.00    -0.077 C 
ATOM     10  C   UNL     1      -8.460  33.386  26.455  1.00  0.00     0.008 C 
ATOM     11  C   UNL     1      -7.986  34.580  24.377  1.00  0.00     0.039 C 
ENDBRANCH   5   9
TORSDOF 1
ENDMDL
MODEL 9
REMARK VINA RESULT:    -4.771      1.609      2.735
REMARK INTER + INTRA:          -5.276
REMARK INTER:                  -5.049
REMARK INTRA:                  -0.226
REMARK UNBOUND:                -0.226
REMARK SMILES C=C(C)[C@H]1CC=C(C)C(=O)C1
REMARK SMILES IDX 8 1 7 2 6 3 5 4 4 5 11 6 9 7 10 8 2 9 1 10 3 11
REMARK H PARENT
REMARK Flexibility Score: inf
ROOT
ATOM      1  C   UNL     1     -10.125  31.848  26.278  1.00  0.00     0.048 C 
ATOM      2  C   UNL     1      -9.012  31.955  25.273  1.00  0.00    -0.012 C 
ATOM      3  C   UNL     1      -8.557  33.162  24.906  1.00  0.00    -0.019 C 
ATOM      4  C   UNL     1      -7.424  33.311  23.930  1.00  0.00     0.036 C 
ATOM      5  C   UNL     1      -7.497  32.252  22.812  1.00  0.00     0.025 C 
ATOM      6  C   UNL     1      -7.558  30.833  23.425  1.00  0.00     0.089 C 
ATOM      7  C   UNL     1      -8.513  30.737  24.589  1.00  0.00     0.158 C 
ATOM      8  O   UNL     1      -8.881  29.597  24.982  1.00  0.00    -0.295 OA
ENDROOT
BRANCH   5   9
ATOM      9  C   UNL     1      -8.609  32.580  21.811  1.00  0.00    -0.077 C 
ATOM     10  C   UNL     1      -8.634  33.802  21.251  1.00  0.00     0.008 C 
ATOM     11  C   UNL     1      -9.700  31.610  21.418  1.00  0.00     0.039 C 
ENDBRANCH   5   9
TORSDOF 1
ENDMDL
