MODEL 1
REMARK VINA RESULT:    -3.757      0.000      0.000
REMARK INTER + INTRA:          -4.459
REMARK INTER:                  -5.075
REMARK INTRA:                   0.616
REMARK UNBOUND:                 0.616
REMARK SMILES COc1ccc(-c2cc(=O)c3c(OC)c(OC)c(OC)c(OC)c3o2)cc1
REMARK SMILES IDX 7 1 8 2 9 3 10 4 11 5 24 6 25 7 21 8 18 9 15 10 12 11 6 12
REMARK SMILES IDX 3 13 4 14 27 15 5 16 26 17 2 18 1 19 22 20 23 21 13 22 14 23
REMARK SMILES IDX 19 24 20 25 16 26 17 27
REMARK H PARENT
REMARK Flexibility Score: inf
ROOT
ATOM      1  C   UNL     1     -39.025  12.818   1.547  1.00  0.00     0.138 A 
ATOM      2  C   UNL     1     -38.337  11.776   2.179  1.00  0.00     0.100 A 
ATOM      3  C   UNL     1     -36.947  11.822   2.253  1.00  0.00     0.197 A 
ATOM      4  O   UNL     1     -36.341  10.875   2.821  1.00  0.00    -0.289 OA
ATOM      5  C   UNL     1     -36.251  12.916   1.690  1.00  0.00     0.115 A 
ATOM      6  C   UNL     1     -37.013  13.928   1.058  1.00  0.00     0.188 A 
ATOM      7  O   UNL     1     -38.339  13.826   1.016  1.00  0.00    -0.452 OA
ATOM      8  C   UNL     1     -36.366  15.053   0.493  1.00  0.00     0.209 A 
ATOM      9  C   UNL     1     -34.967  15.151   0.532  1.00  0.00     0.211 A 
ATOM     10  C   UNL     1     -34.202  14.118   1.121  1.00  0.00     0.208 A 
ATOM     11  C   UNL     1     -34.846  13.035   1.755  1.00  0.00     0.179 A 
ENDROOT
BRANCH   1  12
ATOM     12  C   UNL     1     -40.504  12.824   1.453  1.00  0.00     0.018 A 
ATOM     13  C   UNL     1     -43.326  12.812   1.334  1.00  0.00     0.118 A 
ATOM     14  C   UNL     1     -42.665  13.289   2.471  1.00  0.00     0.047 A 
ATOM     15  C   UNL     1     -42.566  12.338   0.249  1.00  0.00     0.047 A 
ATOM     16  C   UNL     1     -41.270  13.293   2.534  1.00  0.00     0.016 A 
ATOM     17  C   UNL     1     -41.170  12.342   0.309  1.00  0.00     0.016 A 
BRANCH  13  18
ATOM     18  O   UNL     1     -44.729  12.827   1.322  1.00  0.00    -0.497 OA
ATOM     19  C   UNL     1     -45.519  14.005   1.205  1.00  0.00     0.278 C 
ENDBRANCH  13  18
ENDBRANCH   1  12
BRANCH   8  20
ATOM     20  O   UNL     1     -37.053  16.117  -0.125  1.00  0.00    -0.490 OA
ATOM     21  C   UNL     1     -37.390  17.367   0.464  1.00  0.00     0.278 C 
ENDBRANCH   8  20
BRANCH  11  22
ATOM     22  O   UNL     1     -34.100  12.076   2.455  1.00  0.00    -0.492 OA
ATOM     23  C   UNL     1     -33.500  10.949   1.822  1.00  0.00     0.278 C 
ENDBRANCH  11  22
BRANCH   9  24
ATOM     24  O   UNL     1     -34.401  16.302  -0.051  1.00  0.00    -0.490 OA
ATOM     25  C   UNL     1     -33.056  16.751   0.083  1.00  0.00     0.279 C 
ENDBRANCH   9  24
BRANCH  10  26
ATOM     26  O   UNL     1     -32.807  14.156   1.056  1.00  0.00    -0.490 OA
ATOM     27  C   UNL     1     -32.088  13.685  -0.079  1.00  0.00     0.278 C 
ENDBRANCH  10  26
TORSDOF 6
ENDMDL
MODEL 2
REMARK VINA RESULT:    -3.324      2.426      8.477
REMARK INTER + INTRA:          -3.874
REMARK INTER:                  -3.651
REMARK INTRA:                  -0.223
REMARK UNBOUND:                 0.616
REMARK SMILES COc1ccc(-c2cc(=O)c3c(OC)c(OC)c(OC)c(OC)c3o2)cc1
REMARK SMILES IDX 7 1 8 2 9 3 10 4 11 5 24 6 25 7 21 8 18 9 15 10 12 11 6 12
REMARK SMILES IDX 3 13 4 14 27 15 5 16 26 17 2 18 1 19 22 20 23 21 13 22 14 23
REMARK SMILES IDX 19 24 20 25 16 26 17 27
REMARK H PARENT
REMARK Flexibility Score: inf
ROOT
ATOM      1  C   UNL     1     -39.854  12.296   1.758  1.00  0.00     0.138 A 
ATOM      2  C   UNL     1     -40.533  11.474   0.851  1.00  0.00     0.100 A 
ATOM      3  C   UNL     1     -41.908  11.625   0.692  1.00  0.00     0.197 A 
ATOM      4  O   UNL     1     -42.507  10.875  -0.125  1.00  0.00    -0.289 OA
ATOM      5  C   UNL     1     -42.599  12.600   1.445  1.00  0.00     0.115 A 
ATOM      6  C   UNL     1     -41.847  13.389   2.350  1.00  0.00     0.188 A 
ATOM      7  O   UNL     1     -40.535  13.195   2.461  1.00  0.00    -0.452 OA
ATOM      8  C   UNL     1     -42.488  14.392   3.116  1.00  0.00     0.209 A 
ATOM      9  C   UNL     1     -43.873  14.585   3.002  1.00  0.00     0.211 A 
ATOM     10  C   UNL     1     -44.632  13.768   2.134  1.00  0.00     0.208 A 
ATOM     11  C   UNL     1     -43.987  12.822   1.310  1.00  0.00     0.179 A 
ENDROOT
BRANCH   1  12
ATOM     12  C   UNL     1     -38.389  12.185   1.957  1.00  0.00     0.018 A 
ATOM     13  C   UNL     1     -35.589  12.002   2.276  1.00  0.00     0.118 A 
ATOM     14  C   UNL     1     -36.172  13.173   1.779  1.00  0.00     0.047 A 
ATOM     15  C   UNL     1     -36.416  10.915   2.614  1.00  0.00     0.047 A 
ATOM     16  C   UNL     1     -37.556  13.265   1.617  1.00  0.00     0.016 A 
ATOM     17  C   UNL     1     -37.802  11.006   2.454  1.00  0.00     0.016 A 
BRANCH  13  18
ATOM     18  O   UNL     1     -34.194  11.960   2.417  1.00  0.00    -0.497 OA
ATOM     19  C   UNL     1     -33.389  13.073   2.787  1.00  0.00     0.278 C 
ENDBRANCH  13  18
ENDBRANCH   1  12
BRANCH   8  20
ATOM     20  O   UNL     1     -41.808  15.238   4.015  1.00  0.00    -0.490 OA
ATOM     21  C   UNL     1     -41.905  15.226   5.434  1.00  0.00     0.278 C 
ENDBRANCH   8  20
BRANCH  11  22
ATOM     22  O   UNL     1     -44.714  12.100   0.352  1.00  0.00    -0.492 OA
ATOM     23  C   UNL     1     -45.707  11.138   0.698  1.00  0.00     0.278 C 
ENDBRANCH  11  22
BRANCH   9  24
ATOM     24  O   UNL     1     -44.433  15.605   3.798  1.00  0.00    -0.490 OA
ATOM     25  C   UNL     1     -44.622  16.967   3.429  1.00  0.00     0.279 C 
ENDBRANCH   9  24
BRANCH  10  26
ATOM     26  O   UNL     1     -46.024  13.878   2.106  1.00  0.00    -0.490 OA
ATOM     27  C   UNL     1     -46.692  14.829   1.284  1.00  0.00     0.278 C 
ENDBRANCH  10  26
TORSDOF 6
ENDMDL
MODEL 3
REMARK VINA RESULT:    -2.718      1.222      3.455
REMARK INTER + INTRA:          -3.056
REMARK INTER:                  -3.778
REMARK INTRA:                   0.722
REMARK UNBOUND:                 0.616
REMARK SMILES COc1ccc(-c2cc(=O)c3c(OC)c(OC)c(OC)c(OC)c3o2)cc1
REMARK SMILES IDX 7 1 8 2 9 3 10 4 11 5 24 6 25 7 21 8 18 9 15 10 12 11 6 12
REMARK SMILES IDX 3 13 4 14 27 15 5 16 26 17 2 18 1 19 22 20 23 21 13 22 14 23
REMARK SMILES IDX 19 24 20 25 16 26 17 27
REMARK H PARENT
REMARK Flexibility Score: inf
ROOT
ATOM      1  C   UNL     1     -39.176  13.397   1.382  1.00  0.00     0.138 A 
ATOM      2  C   UNL     1     -39.037  14.627   0.730  1.00  0.00     0.100 A 
ATOM      3  C   UNL     1     -37.762  15.121   0.470  1.00  0.00     0.197 A 
ATOM      4  O   UNL     1     -37.652  16.232  -0.114  1.00  0.00    -0.289 OA
ATOM      5  C   UNL     1     -36.627  14.378   0.867  1.00  0.00     0.115 A 
ATOM      6  C   UNL     1     -36.844  13.146   1.530  1.00  0.00     0.188 A 
ATOM      7  O   UNL     1     -38.088  12.728   1.754  1.00  0.00    -0.452 OA
ATOM      8  C   UNL     1     -35.742  12.355   1.933  1.00  0.00     0.209 A 
ATOM      9  C   UNL     1     -34.434  12.804   1.703  1.00  0.00     0.211 A 
ATOM     10  C   UNL     1     -34.215  14.056   1.082  1.00  0.00     0.208 A 
ATOM     11  C   UNL     1     -35.308  14.810   0.608  1.00  0.00     0.179 A 
ENDROOT
BRANCH   1  12
ATOM     12  C   UNL     1     -40.510  12.819   1.672  1.00  0.00     0.018 A 
ATOM     13  C   UNL     1     -43.023  11.665   2.243  1.00  0.00     0.118 A 
ATOM     14  C   UNL     1     -41.963  11.540   3.147  1.00  0.00     0.047 A 
ATOM     15  C   UNL     1     -42.822  12.373   1.044  1.00  0.00     0.047 A 
ATOM     16  C   UNL     1     -40.718  12.107   2.865  1.00  0.00     0.016 A 
ATOM     17  C   UNL     1     -41.577  12.942   0.761  1.00  0.00     0.016 A 
BRANCH  13  18
ATOM     18  O   UNL     1     -44.253  11.074   2.572  1.00  0.00    -0.497 OA
ATOM     19  C   UNL     1     -45.446  11.800   2.842  1.00  0.00     0.278 C 
ENDBRANCH  13  18
ENDBRANCH   1  12
BRANCH   8  20
ATOM     20  O   UNL     1     -35.874  11.105   2.570  1.00  0.00    -0.490 OA
ATOM     21  C   UNL     1     -36.072  10.875   3.960  1.00  0.00     0.278 C 
ENDBRANCH   8  20
BRANCH  11  22
ATOM     22  O   UNL     1     -35.095  15.987  -0.125  1.00  0.00    -0.492 OA
ATOM     23  C   UNL     1     -33.859  16.696  -0.107  1.00  0.00     0.278 C 
ENDBRANCH  11  22
BRANCH   9  24
ATOM     24  O   UNL     1     -33.392  11.958   2.133  1.00  0.00    -0.490 OA
ATOM     25  C   UNL     1     -32.598  11.103   1.318  1.00  0.00     0.279 C 
ENDBRANCH   9  24
BRANCH  10  26
ATOM     26  O   UNL     1     -32.917  14.559   0.959  1.00  0.00    -0.490 OA
ATOM     27  C   UNL     1     -31.993  14.046   0.006  1.00  0.00     0.278 C 
ENDBRANCH  10  26
TORSDOF 6
ENDMDL
MODEL 4
REMARK VINA RESULT:    -1.967      2.385      8.705
REMARK INTER + INTRA:          -2.041
REMARK INTER:                  -2.276
REMARK INTRA:                   0.235
REMARK UNBOUND:                 0.616
REMARK SMILES COc1ccc(-c2cc(=O)c3c(OC)c(OC)c(OC)c(OC)c3o2)cc1
REMARK SMILES IDX 7 1 8 2 9 3 10 4 11 5 24 6 25 7 21 8 18 9 15 10 12 11 6 12
REMARK SMILES IDX 3 13 4 14 27 15 5 16 26 17 2 18 1 19 22 20 23 21 13 22 14 23
REMARK SMILES IDX 19 24 20 25 16 26 17 27
REMARK H PARENT
REMARK Flexibility Score: inf
ROOT
ATOM      1  C   UNL     1     -40.156  12.828   2.301  1.00  0.00     0.138 A 
ATOM      2  C   UNL     1     -40.235  12.113   3.501  1.00  0.00     0.100 A 
ATOM      3  C   UNL     1     -41.482  11.727   3.984  1.00  0.00     0.197 A 
ATOM      4  O   UNL     1     -41.538  11.087   5.068  1.00  0.00    -0.289 OA
ATOM      5  C   UNL     1     -42.649  12.061   3.260  1.00  0.00     0.115 A 
ATOM      6  C   UNL     1     -42.493  12.794   2.059  1.00  0.00     0.188 A 
ATOM      7  O   UNL     1     -41.274  13.139   1.651  1.00  0.00    -0.452 OA
ATOM      8  C   UNL     1     -43.628  13.140   1.288  1.00  0.00     0.209 A 
ATOM      9  C   UNL     1     -44.911  12.782   1.727  1.00  0.00     0.211 A 
ATOM     10  C   UNL     1     -45.072  12.091   2.950  1.00  0.00     0.208 A 
ATOM     11  C   UNL     1     -43.940  11.675   3.682  1.00  0.00     0.179 A 
ENDROOT
BRANCH   1  12
ATOM     12  C   UNL     1     -38.853  13.252   1.736  1.00  0.00     0.018 A 
ATOM     13  C   UNL     1     -36.341  14.046   0.717  1.00  0.00     0.118 A 
ATOM     14  C   UNL     1     -36.466  12.866   1.457  1.00  0.00     0.047 A 
ATOM     15  C   UNL     1     -37.484  14.834   0.486  1.00  0.00     0.047 A 
ATOM     16  C   UNL     1     -37.707  12.473   1.966  1.00  0.00     0.016 A 
ATOM     17  C   UNL     1     -38.726  14.442   0.993  1.00  0.00     0.016 A 
BRANCH  13  18
ATOM     18  O   UNL     1     -35.073  14.398   0.231  1.00  0.00    -0.497 OA
ATOM     19  C   UNL     1     -33.954  13.520   0.197  1.00  0.00     0.278 C 
ENDBRANCH  13  18
ENDBRANCH   1  12
BRANCH   8  20
ATOM     20  O   UNL     1     -43.555  13.840   0.067  1.00  0.00    -0.490 OA
ATOM     21  C   UNL     1     -43.738  15.238  -0.124  1.00  0.00     0.278 C 
ENDBRANCH   8  20
BRANCH  11  22
ATOM     22  O   UNL     1     -44.087  10.876   4.825  1.00  0.00    -0.492 OA
ATOM     23  C   UNL     1     -45.122  11.079   5.784  1.00  0.00     0.278 C 
ENDBRANCH  11  22
BRANCH   9  24
ATOM     24  O   UNL     1     -45.988  13.162   0.902  1.00  0.00    -0.490 OA
ATOM     25  C   UNL     1     -46.603  12.374  -0.112  1.00  0.00     0.279 C 
ENDBRANCH   9  24
BRANCH  10  26
ATOM     26  O   UNL     1     -46.353  11.839   3.449  1.00  0.00    -0.490 OA
ATOM     27  C   UNL     1     -47.236  10.909   2.832  1.00  0.00     0.278 C 
ENDBRANCH  10  26
TORSDOF 6
ENDMDL
MODEL 5
REMARK VINA RESULT:    -0.938      2.846      9.028
REMARK INTER + INTRA:          -0.652
REMARK INTER:                  -0.837
REMARK INTRA:                   0.185
REMARK UNBOUND:                 0.616
REMARK SMILES COc1ccc(-c2cc(=O)c3c(OC)c(OC)c(OC)c(OC)c3o2)cc1
REMARK SMILES IDX 7 1 8 2 9 3 10 4 11 5 24 6 25 7 21 8 18 9 15 10 12 11 6 12
REMARK SMILES IDX 3 13 4 14 27 15 5 16 26 17 2 18 1 19 22 20 23 21 13 22 14 23
REMARK SMILES IDX 19 24 20 25 16 26 17 27
REMARK H PARENT
REMARK Flexibility Score: inf
ROOT
ATOM      1  C   UNL     1     -40.702  13.254   2.524  1.00  0.00     0.138 A 
ATOM      2  C   UNL     1     -40.938  14.193   3.534  1.00  0.00     0.100 A 
ATOM      3  C   UNL     1     -42.209  14.747   3.667  1.00  0.00     0.197 A 
ATOM      4  O   UNL     1     -42.406  15.595   4.578  1.00  0.00    -0.289 OA
ATOM      5  C   UNL     1     -43.240  14.356   2.783  1.00  0.00     0.115 A 
ATOM      6  C   UNL     1     -42.925  13.407   1.780  1.00  0.00     0.188 A 
ATOM      7  O   UNL     1     -41.690  12.917   1.700  1.00  0.00    -0.452 OA
ATOM      8  C   UNL     1     -43.926  12.970   0.880  1.00  0.00     0.209 A 
ATOM      9  C   UNL     1     -45.223  13.496   0.962  1.00  0.00     0.211 A 
ATOM     10  C   UNL     1     -45.527  14.478   1.933  1.00  0.00     0.208 A 
ATOM     11  C   UNL     1     -44.556  14.859   2.882  1.00  0.00     0.179 A 
ENDROOT
BRANCH   1  12
ATOM     12  C   UNL     1     -39.371  12.625   2.347  1.00  0.00     0.018 A 
ATOM     13  C   UNL     1     -36.843  11.432   1.946  1.00  0.00     0.118 A 
ATOM     14  C   UNL     1     -37.215  12.567   1.219  1.00  0.00     0.047 A 
ATOM     15  C   UNL     1     -37.745  10.891   2.881  1.00  0.00     0.047 A 
ATOM     16  C   UNL     1     -38.467  13.157   1.413  1.00  0.00     0.016 A 
ATOM     17  C   UNL     1     -38.997  11.480   3.077  1.00  0.00     0.016 A 
BRANCH  13  18
ATOM     18  O   UNL     1     -35.577  10.875   1.712  1.00  0.00    -0.497 OA
ATOM     19  C   UNL     1     -34.350  11.581   1.856  1.00  0.00     0.278 C 
ENDBRANCH  13  18
ENDBRANCH   1  12
BRANCH   8  20
ATOM     20  O   UNL     1     -43.701  12.007  -0.125  1.00  0.00    -0.490 OA
ATOM     21  C   UNL     1     -42.839  10.879  -0.043  1.00  0.00     0.278 C 
ENDBRANCH   8  20
BRANCH  11  22
ATOM     22  O   UNL     1     -44.888  15.731   3.928  1.00  0.00    -0.492 OA
ATOM     23  C   UNL     1     -44.722  17.144   3.840  1.00  0.00     0.278 C 
ENDBRANCH  11  22
BRANCH   9  24
ATOM     24  O   UNL     1     -46.161  13.007   0.031  1.00  0.00    -0.490 OA
ATOM     25  C   UNL     1     -47.051  11.911   0.214  1.00  0.00     0.279 C 
ENDBRANCH   9  24
BRANCH  10  26
ATOM     26  O   UNL     1     -46.783  15.090   1.941  1.00  0.00    -0.490 OA
ATOM     27  C   UNL     1     -47.121  16.138   1.039  1.00  0.00     0.278 C 
ENDBRANCH  10  26
TORSDOF 6
ENDMDL
