MODEL 1
REMARK VINA RESULT:    -5.194      0.000      0.000
REMARK INTER + INTRA:         -14.429
REMARK INTER:                 -11.267
REMARK INTRA:                  -3.162
REMARK UNBOUND:                -3.162
REMARK SMILES CCCCCCCCCCCCCCCCCCCCCC(=O)[O-]
REMARK SMILES IDX 12 1 11 2 10 3 9 4 8 5 7 6 6 7 5 8 4 9 3 10 2 11 1 12 13 13
REMARK SMILES IDX 14 14 15 15 16 16 17 17 18 18 19 19 20 20 21 21 22 22 23 23
REMARK SMILES IDX 24 24
REMARK H PARENT
REMARK Flexibility Score: inf
ROOT
ATOM      1  C   UNL     1      47.434  49.741  10.467  1.00  0.00     0.000 C 
ENDROOT
BRANCH   1   2
ATOM      2  C   UNL     1      47.124  48.308  10.932  1.00  0.00     0.000 C 
BRANCH   2   3
ATOM      3  C   UNL     1      46.680  47.363   9.793  1.00  0.00     0.000 C 
BRANCH   3   4
ATOM      4  C   UNL     1      46.557  45.905  10.269  1.00  0.00    -0.000 C 
BRANCH   4   5
ATOM      5  C   UNL     1      45.155  45.313  10.040  1.00  0.00    -0.000 C 
BRANCH   5   6
ATOM      6  C   UNL     1      43.995  46.292  10.300  1.00  0.00    -0.000 C 
BRANCH   6   7
ATOM      7  C   UNL     1      43.538  46.332  11.776  1.00  0.00    -0.000 C 
BRANCH   7   8
ATOM      8  C   UNL     1      42.009  46.435  11.906  1.00  0.00    -0.000 C 
BRANCH   8   9
ATOM      9  C   UNL     1      41.294  46.589  10.550  1.00  0.00    -0.000 C 
BRANCH   9  10
ATOM     10  C   UNL     1      40.063  45.687  10.358  1.00  0.00    -0.000 C 
BRANCH  10  11
ATOM     11  C   UNL     1      39.765  45.387   8.881  1.00  0.00    -0.003 C 
ATOM     12  C   UNL     1      38.330  45.767   8.528  1.00  0.00     0.004 C 
ENDBRANCH  10  11
ENDBRANCH   9  10
ENDBRANCH   8   9
ENDBRANCH   7   8
ENDBRANCH   6   7
ENDBRANCH   5   6
ENDBRANCH   4   5
ENDBRANCH   3   4
ENDBRANCH   2   3
ENDBRANCH   1   2
BRANCH   1  13
ATOM     13  C   UNL     1      46.849  50.815  11.401  1.00  0.00     0.000 C 
BRANCH  13  14
ATOM     14  C   UNL     1      46.110  51.940  10.647  1.00  0.00     0.000 C 
BRANCH  14  15
ATOM     15  C   UNL     1      45.574  51.531   9.260  1.00  0.00     0.000 C 
BRANCH  15  16
ATOM     16  C   UNL     1      44.060  51.269   9.182  1.00  0.00     0.000 C 
BRANCH  16  17
ATOM     17  C   UNL     1      43.656  49.905   9.761  1.00  0.00     0.000 C 
BRANCH  17  18
ATOM     18  C   UNL     1      42.662  50.063  10.919  1.00  0.00     0.000 C 
BRANCH  18  19
ATOM     19  C   UNL     1      43.371  49.909  12.273  1.00  0.00     0.000 C 
BRANCH  19  20
ATOM     20  C   UNL     1      42.403  49.985  13.468  1.00  0.00     0.006 C 
BRANCH  20  21
ATOM     21  C   UNL     1      40.918  49.865  13.083  1.00  0.00     0.053 C 
BRANCH  21  22
ATOM     22  C   UNL     1      40.070  50.868  13.805  1.00  0.00     0.041 C 
ATOM     23  O   UNL     1      40.354  51.207  14.983  1.00  0.00    -0.550 OA
ATOM     24  O   UNL     1      38.948  51.404  13.187  1.00  0.00    -0.550 OA
ENDBRANCH  21  22
ENDBRANCH  20  21
ENDBRANCH  19  20
ENDBRANCH  18  19
ENDBRANCH  17  18
ENDBRANCH  16  17
ENDBRANCH  15  16
ENDBRANCH  14  15
ENDBRANCH  13  14
ENDBRANCH   1  13
TORSDOF 20
ENDMDL
MODEL 2
REMARK VINA RESULT:    -5.077      1.685      3.068
REMARK INTER + INTRA:         -14.175
REMARK INTER:                 -10.960
REMARK INTRA:                  -3.215
REMARK UNBOUND:                -3.162
REMARK SMILES CCCCCCCCCCCCCCCCCCCCCC(=O)[O-]
REMARK SMILES IDX 12 1 11 2 10 3 9 4 8 5 7 6 6 7 5 8 4 9 3 10 2 11 1 12 13 13
REMARK SMILES IDX 14 14 15 15 16 16 17 17 18 18 19 19 20 20 21 21 22 22 23 23
REMARK SMILES IDX 24 24
REMARK H PARENT
REMARK Flexibility Score: inf
ROOT
ATOM      1  C   UNL     1      46.554  48.176   9.318  1.00  0.00     0.000 C 
ENDROOT
BRANCH   1   2
ATOM      2  C   UNL     1      46.429  46.652   9.153  1.00  0.00     0.000 C 
BRANCH   2   3
ATOM      3  C   UNL     1      46.260  45.891  10.487  1.00  0.00     0.000 C 
BRANCH   3   4
ATOM      4  C   UNL     1      44.784  45.803  10.917  1.00  0.00    -0.000 C 
BRANCH   4   5
ATOM      5  C   UNL     1      43.805  45.941   9.738  1.00  0.00    -0.000 C 
BRANCH   5   6
ATOM      6  C   UNL     1      42.467  46.619  10.091  1.00  0.00    -0.000 C 
BRANCH   6   7
ATOM      7  C   UNL     1      41.908  47.509   8.959  1.00  0.00    -0.000 C 
BRANCH   7   8
ATOM      8  C   UNL     1      43.026  48.183   8.145  1.00  0.00    -0.000 C 
BRANCH   8   9
ATOM      9  C   UNL     1      42.499  48.985   6.941  1.00  0.00    -0.000 C 
BRANCH   9  10
ATOM     10  C   UNL     1      41.060  49.508   7.087  1.00  0.00    -0.000 C 
BRANCH  10  11
ATOM     11  C   UNL     1      40.974  51.041   7.057  1.00  0.00    -0.003 C 
ATOM     12  C   UNL     1      42.014  51.663   7.984  1.00  0.00     0.004 C 
ENDBRANCH  10  11
ENDBRANCH   9  10
ENDBRANCH   8   9
ENDBRANCH   7   8
ENDBRANCH   6   7
ENDBRANCH   5   6
ENDBRANCH   4   5
ENDBRANCH   3   4
ENDBRANCH   2   3
ENDBRANCH   1   2
BRANCH   1  13
ATOM     13  C   UNL     1      47.252  48.583  10.628  1.00  0.00     0.000 C 
BRANCH  13  14
ATOM     14  C   UNL     1      47.286  50.109  10.851  1.00  0.00     0.000 C 
BRANCH  14  15
ATOM     15  C   UNL     1      46.101  50.658  11.672  1.00  0.00     0.000 C 
BRANCH  15  16
ATOM     16  C   UNL     1      44.906  51.174  10.852  1.00  0.00     0.000 C 
BRANCH  16  17
ATOM     17  C   UNL     1      43.665  50.276  10.969  1.00  0.00     0.000 C 
BRANCH  17  18
ATOM     18  C   UNL     1      43.769  49.336  12.177  1.00  0.00     0.000 C 
BRANCH  18  19
ATOM     19  C   UNL     1      42.397  49.145  12.841  1.00  0.00     0.000 C 
BRANCH  19  20
ATOM     20  C   UNL     1      41.310  50.057  12.242  1.00  0.00     0.006 C 
BRANCH  20  21
ATOM     21  C   UNL     1      39.964  50.003  12.984  1.00  0.00     0.053 C 
BRANCH  21  22
ATOM     22  C   UNL     1      39.849  51.082  14.016  1.00  0.00     0.041 C 
ATOM     23  O   UNL     1      38.808  51.788  14.083  1.00  0.00    -0.550 OA
ATOM     24  O   UNL     1      40.904  51.331  14.884  1.00  0.00    -0.550 OA
ENDBRANCH  21  22
ENDBRANCH  20  21
ENDBRANCH  19  20
ENDBRANCH  18  19
ENDBRANCH  17  18
ENDBRANCH  16  17
ENDBRANCH  15  16
ENDBRANCH  14  15
ENDBRANCH  13  14
ENDBRANCH   1  13
TORSDOF 20
ENDMDL
MODEL 3
REMARK VINA RESULT:    -5.017      3.420      6.790
REMARK INTER + INTRA:         -14.044
REMARK INTER:                  -9.924
REMARK INTRA:                  -4.121
REMARK UNBOUND:                -3.162
REMARK SMILES CCCCCCCCCCCCCCCCCCCCCC(=O)[O-]
REMARK SMILES IDX 12 1 11 2 10 3 9 4 8 5 7 6 6 7 5 8 4 9 3 10 2 11 1 12 13 13
REMARK SMILES IDX 14 14 15 15 16 16 17 17 18 18 19 19 20 20 21 21 22 22 23 23
REMARK SMILES IDX 24 24
REMARK H PARENT
REMARK Flexibility Score: inf
ROOT
ATOM      1  C   UNL     1      42.926  47.321   8.550  1.00  0.00     0.000 C 
ENDROOT
BRANCH   1   2
ATOM      2  C   UNL     1      41.944  48.425   8.980  1.00  0.00     0.000 C 
BRANCH   2   3
ATOM      3  C   UNL     1      42.332  49.836   8.483  1.00  0.00     0.000 C 
BRANCH   3   4
ATOM      4  C   UNL     1      42.489  50.833   9.645  1.00  0.00    -0.000 C 
BRANCH   4   5
ATOM      5  C   UNL     1      42.193  50.207  11.019  1.00  0.00    -0.000 C 
BRANCH   5   6
ATOM      6  C   UNL     1      43.385  50.204  11.994  1.00  0.00    -0.000 C 
BRANCH   6   7
ATOM      7  C   UNL     1      44.724  50.607  11.335  1.00  0.00    -0.000 C 
BRANCH   7   8
ATOM      8  C   UNL     1      45.612  49.388  11.035  1.00  0.00    -0.000 C 
BRANCH   8   9
ATOM      9  C   UNL     1      45.941  49.231   9.539  1.00  0.00    -0.000 C 
BRANCH   9  10
ATOM     10  C   UNL     1      46.774  47.989   9.182  1.00  0.00    -0.000 C 
BRANCH  10  11
ATOM     11  C   UNL     1      46.888  46.990  10.343  1.00  0.00    -0.003 C 
ATOM     12  C   UNL     1      46.714  45.558   9.847  1.00  0.00     0.004 C 
ENDBRANCH  10  11
ENDBRANCH   9  10
ENDBRANCH   8   9
ENDBRANCH   7   8
ENDBRANCH   6   7
ENDBRANCH   5   6
ENDBRANCH   4   5
ENDBRANCH   3   4
ENDBRANCH   2   3
ENDBRANCH   1   2
BRANCH   1  13
ATOM     13  C   UNL     1      43.042  46.186   9.583  1.00  0.00     0.000 C 
BRANCH  13  14
ATOM     14  C   UNL     1      43.290  46.693  11.019  1.00  0.00     0.000 C 
BRANCH  14  15
ATOM     15  C   UNL     1      42.236  46.232  12.046  1.00  0.00     0.000 C 
BRANCH  15  16
ATOM     16  C   UNL     1      41.129  47.250  12.367  1.00  0.00     0.000 C 
BRANCH  16  17
ATOM     17  C   UNL     1      39.717  46.709  12.096  1.00  0.00     0.000 C 
BRANCH  17  18
ATOM     18  C   UNL     1      39.749  45.542  11.100  1.00  0.00     0.000 C 
BRANCH  18  19
ATOM     19  C   UNL     1      38.892  45.856   9.864  1.00  0.00     0.000 C 
BRANCH  19  20
ATOM     20  C   UNL     1      39.530  45.363   8.553  1.00  0.00     0.006 C 
BRANCH  20  21
ATOM     21  C   UNL     1      39.259  46.270   7.340  1.00  0.00     0.053 C 
BRANCH  21  22
ATOM     22  C   UNL     1      38.832  45.484   6.138  1.00  0.00     0.041 C 
ATOM     23  O   UNL     1      38.998  44.237   6.104  1.00  0.00    -0.550 OA
ATOM     24  O   UNL     1      38.280  46.135   5.042  1.00  0.00    -0.550 OA
ENDBRANCH  21  22
ENDBRANCH  20  21
ENDBRANCH  19  20
ENDBRANCH  18  19
ENDBRANCH  17  18
ENDBRANCH  16  17
ENDBRANCH  15  16
ENDBRANCH  14  15
ENDBRANCH  13  14
ENDBRANCH   1  13
TORSDOF 20
ENDMDL
MODEL 4
REMARK VINA RESULT:    -4.997      3.514      5.475
REMARK INTER + INTRA:         -14.003
REMARK INTER:                 -10.551
REMARK INTRA:                  -3.451
REMARK UNBOUND:                -3.162
REMARK SMILES CCCCCCCCCCCCCCCCCCCCCC(=O)[O-]
REMARK SMILES IDX 12 1 11 2 10 3 9 4 8 5 7 6 6 7 5 8 4 9 3 10 2 11 1 12 13 13
REMARK SMILES IDX 14 14 15 15 16 16 17 17 18 18 19 19 20 20 21 21 22 22 23 23
REMARK SMILES IDX 24 24
REMARK H PARENT
REMARK Flexibility Score: inf
ROOT
ATOM      1  C   UNL     1      43.237  48.328  11.609  1.00  0.00     0.000 C 
ENDROOT
BRANCH   1   2
ATOM      2  C   UNL     1      42.339  48.408  10.361  1.00  0.00     0.000 C 
BRANCH   2   3
ATOM      3  C   UNL     1      42.836  47.549   9.178  1.00  0.00     0.000 C 
BRANCH   3   4
ATOM      4  C   UNL     1      43.153  48.405   7.938  1.00  0.00    -0.000 C 
BRANCH   4   5
ATOM      5  C   UNL     1      42.628  47.787   6.631  1.00  0.00    -0.000 C 
BRANCH   5   6
ATOM      6  C   UNL     1      41.512  46.741   6.817  1.00  0.00    -0.000 C 
BRANCH   6   7
ATOM      7  C   UNL     1      40.117  47.360   7.057  1.00  0.00    -0.000 C 
BRANCH   7   8
ATOM      8  C   UNL     1      39.104  46.324   7.572  1.00  0.00    -0.000 C 
BRANCH   8   9
ATOM      9  C   UNL     1      39.644  45.477   8.740  1.00  0.00    -0.000 C 
BRANCH   9  10
ATOM     10  C   UNL     1      38.966  45.734  10.097  1.00  0.00    -0.000 C 
BRANCH  10  11
ATOM     11  C   UNL     1      39.951  45.699  11.275  1.00  0.00    -0.003 C 
ATOM     12  C   UNL     1      39.720  46.880  12.212  1.00  0.00     0.004 C 
ENDBRANCH  10  11
ENDBRANCH   9  10
ENDBRANCH   8   9
ENDBRANCH   7   8
ENDBRANCH   6   7
ENDBRANCH   5   6
ENDBRANCH   4   5
ENDBRANCH   3   4
ENDBRANCH   2   3
ENDBRANCH   1   2
BRANCH   1  13
ATOM     13  C   UNL     1      43.795  49.698  12.034  1.00  0.00     0.000 C 
BRANCH  13  14
ATOM     14  C   UNL     1      43.833  50.724  10.884  1.00  0.00     0.000 C 
BRANCH  14  15
ATOM     15  C   UNL     1      45.240  51.270  10.565  1.00  0.00     0.000 C 
BRANCH  15  16
ATOM     16  C   UNL     1      46.362  50.813  11.513  1.00  0.00     0.000 C 
BRANCH  16  17
ATOM     17  C   UNL     1      47.298  49.772  10.879  1.00  0.00     0.000 C 
BRANCH  17  18
ATOM     18  C   UNL     1      46.924  49.504   9.415  1.00  0.00     0.000 C 
BRANCH  18  19
ATOM     19  C   UNL     1      46.566  48.025   9.204  1.00  0.00     0.000 C 
BRANCH  19  20
ATOM     20  C   UNL     1      46.800  47.168  10.462  1.00  0.00     0.006 C 
BRANCH  20  21
ATOM     21  C   UNL     1      45.913  45.914  10.542  1.00  0.00     0.053 C 
BRANCH  21  22
ATOM     22  C   UNL     1      46.061  45.045   9.332  1.00  0.00     0.041 C 
ATOM     23  O   UNL     1      45.058  44.765   8.624  1.00  0.00    -0.550 OA
ATOM     24  O   UNL     1      47.302  44.515   9.002  1.00  0.00    -0.550 OA
ENDBRANCH  21  22
ENDBRANCH  20  21
ENDBRANCH  19  20
ENDBRANCH  18  19
ENDBRANCH  17  18
ENDBRANCH  16  17
ENDBRANCH  15  16
ENDBRANCH  14  15
ENDBRANCH  13  14
ENDBRANCH   1  13
TORSDOF 20
ENDMDL
MODEL 5
REMARK VINA RESULT:    -4.961      1.760      3.868
REMARK INTER + INTRA:         -13.923
REMARK INTER:                 -10.326
REMARK INTRA:                  -3.598
REMARK UNBOUND:                -3.162
REMARK SMILES CCCCCCCCCCCCCCCCCCCCCC(=O)[O-]
REMARK SMILES IDX 12 1 11 2 10 3 9 4 8 5 7 6 6 7 5 8 4 9 3 10 2 11 1 12 13 13
REMARK SMILES IDX 14 14 15 15 16 16 17 17 18 18 19 19 20 20 21 21 22 22 23 23
REMARK SMILES IDX 24 24
REMARK H PARENT
REMARK Flexibility Score: inf
ROOT
ATOM      1  C   UNL     1      44.592  51.281  10.176  1.00  0.00     0.000 C 
ENDROOT
BRANCH   1   2
ATOM      2  C   UNL     1      45.165  50.698  11.479  1.00  0.00     0.000 C 
BRANCH   2   3
ATOM      3  C   UNL     1      45.947  49.381  11.284  1.00  0.00     0.000 C 
BRANCH   3   4
ATOM      4  C   UNL     1      46.725  49.363   9.956  1.00  0.00    -0.000 C 
BRANCH   4   5
ATOM      5  C   UNL     1      46.561  48.045   9.181  1.00  0.00    -0.000 C 
BRANCH   5   6
ATOM      6  C   UNL     1      46.070  46.857  10.030  1.00  0.00    -0.000 C 
BRANCH   6   7
ATOM      7  C   UNL     1      47.027  45.644  10.008  1.00  0.00    -0.000 C 
BRANCH   7   8
ATOM      8  C   UNL     1      47.607  45.389   8.607  1.00  0.00    -0.000 C 
BRANCH   8   9
ATOM      9  C   UNL     1      47.005  44.150   7.918  1.00  0.00    -0.000 C 
BRANCH   9  10
ATOM     10  C   UNL     1      45.881  44.448   6.911  1.00  0.00    -0.000 C 
BRANCH  10  11
ATOM     11  C   UNL     1      44.536  44.751   7.587  1.00  0.00    -0.003 C 
ATOM     12  C   UNL     1      43.619  45.532   6.650  1.00  0.00     0.004 C 
ENDBRANCH  10  11
ENDBRANCH   9  10
ENDBRANCH   8   9
ENDBRANCH   7   8
ENDBRANCH   6   7
ENDBRANCH   5   6
ENDBRANCH   4   5
ENDBRANCH   3   4
ENDBRANCH   2   3
ENDBRANCH   1   2
BRANCH   1  13
ATOM     13  C   UNL     1      43.126  50.880   9.932  1.00  0.00     0.000 C 
BRANCH  13  14
ATOM     14  C   UNL     1      42.923  50.080   8.629  1.00  0.00     0.000 C 
BRANCH  14  15
ATOM     15  C   UNL     1      42.968  48.549   8.809  1.00  0.00     0.000 C 
BRANCH  15  16
ATOM     16  C   UNL     1      41.955  47.967   9.809  1.00  0.00     0.000 C 
BRANCH  16  17
ATOM     17  C   UNL     1      42.622  47.337  11.042  1.00  0.00     0.000 C 
BRANCH  17  18
ATOM     18  C   UNL     1      41.884  47.720  12.332  1.00  0.00     0.000 C 
BRANCH  18  19
ATOM     19  C   UNL     1      42.788  48.552  13.253  1.00  0.00     0.000 C 
BRANCH  19  20
ATOM     20  C   UNL     1      42.167  49.909  13.634  1.00  0.00     0.006 C 
BRANCH  20  21
ATOM     21  C   UNL     1      40.784  50.165  13.012  1.00  0.00     0.053 C 
BRANCH  21  22
ATOM     22  C   UNL     1      39.909  50.984  13.910  1.00  0.00     0.041 C 
ATOM     23  O   UNL     1      38.785  51.383  13.509  1.00  0.00    -0.550 OA
ATOM     24  O   UNL     1      40.349  51.334  15.181  1.00  0.00    -0.550 OA
ENDBRANCH  21  22
ENDBRANCH  20  21
ENDBRANCH  19  20
ENDBRANCH  18  19
ENDBRANCH  17  18
ENDBRANCH  16  17
ENDBRANCH  15  16
ENDBRANCH  14  15
ENDBRANCH  13  14
ENDBRANCH   1  13
TORSDOF 20
ENDMDL
MODEL 6
REMARK VINA RESULT:    -4.906      1.694      4.690
REMARK INTER + INTRA:         -13.803
REMARK INTER:                 -10.689
REMARK INTRA:                  -3.114
REMARK UNBOUND:                -3.162
REMARK SMILES CCCCCCCCCCCCCCCCCCCCCC(=O)[O-]
REMARK SMILES IDX 12 1 11 2 10 3 9 4 8 5 7 6 6 7 5 8 4 9 3 10 2 11 1 12 13 13
REMARK SMILES IDX 14 14 15 15 16 16 17 17 18 18 19 19 20 20 21 21 22 22 23 23
REMARK SMILES IDX 24 24
REMARK H PARENT
REMARK Flexibility Score: inf
ROOT
ATOM      1  C   UNL     1      43.270  46.312  11.573  1.00  0.00     0.000 C 
ENDROOT
BRANCH   1   2
ATOM      2  C   UNL     1      42.270  46.798  10.509  1.00  0.00     0.000 C 
BRANCH   2   3
ATOM      3  C   UNL     1      40.864  47.109  11.068  1.00  0.00     0.000 C 
BRANCH   3   4
ATOM      4  C   UNL     1      39.992  45.845  11.170  1.00  0.00    -0.000 C 
BRANCH   4   5
ATOM      5  C   UNL     1      39.035  45.676   9.977  1.00  0.00    -0.000 C 
BRANCH   5   6
ATOM      6  C   UNL     1      39.637  44.929   8.772  1.00  0.00    -0.000 C 
BRANCH   6   7
ATOM      7  C   UNL     1      38.988  45.309   7.422  1.00  0.00    -0.000 C 
BRANCH   7   8
ATOM      8  C   UNL     1      39.257  46.776   7.043  1.00  0.00    -0.000 C 
BRANCH   8   9
ATOM      9  C   UNL     1      40.750  47.151   7.096  1.00  0.00    -0.000 C 
BRANCH   9  10
ATOM     10  C   UNL     1      41.063  48.620   6.762  1.00  0.00    -0.000 C 
BRANCH  10  11
ATOM     11  C   UNL     1      41.542  49.422   7.981  1.00  0.00    -0.003 C 
ATOM     12  C   UNL     1      43.054  49.303   8.151  1.00  0.00     0.004 C 
ENDBRANCH  10  11
ENDBRANCH   9  10
ENDBRANCH   8   9
ENDBRANCH   7   8
ENDBRANCH   6   7
ENDBRANCH   5   6
ENDBRANCH   4   5
ENDBRANCH   3   4
ENDBRANCH   2   3
ENDBRANCH   1   2
BRANCH   1  13
ATOM     13  C   UNL     1      44.618  45.874  10.975  1.00  0.00     0.000 C 
BRANCH  13  14
ATOM     14  C   UNL     1      45.321  46.991  10.177  1.00  0.00     0.000 C 
BRANCH  14  15
ATOM     15  C   UNL     1      46.861  46.964  10.267  1.00  0.00     0.000 C 
BRANCH  15  16
ATOM     16  C   UNL     1      47.530  48.302  10.623  1.00  0.00     0.000 C 
BRANCH  16  17
ATOM     17  C   UNL     1      46.845  49.511   9.966  1.00  0.00     0.000 C 
BRANCH  17  18
ATOM     18  C   UNL     1      46.671  50.664  10.964  1.00  0.00     0.000 C 
BRANCH  18  19
ATOM     19  C   UNL     1      45.188  51.033  11.120  1.00  0.00     0.000 C 
BRANCH  19  20
ATOM     20  C   UNL     1      44.407  50.021  11.979  1.00  0.00     0.006 C 
BRANCH  20  21
ATOM     21  C   UNL     1      42.878  50.132  11.848  1.00  0.00     0.053 C 
BRANCH  21  22
ATOM     22  C   UNL     1      42.179  49.761  13.120  1.00  0.00     0.041 C 
ATOM     23  O   UNL     1      42.667  48.883  13.880  1.00  0.00    -0.550 OA
ATOM     24  O   UNL     1      40.971  50.361  13.452  1.00  0.00    -0.550 OA
ENDBRANCH  21  22
ENDBRANCH  20  21
ENDBRANCH  19  20
ENDBRANCH  18  19
ENDBRANCH  17  18
ENDBRANCH  16  17
ENDBRANCH  15  16
ENDBRANCH  14  15
ENDBRANCH  13  14
ENDBRANCH   1  13
TORSDOF 20
ENDMDL
MODEL 7
REMARK VINA RESULT:    -4.900      1.632      3.674
REMARK INTER + INTRA:         -13.791
REMARK INTER:                 -10.787
REMARK INTRA:                  -3.004
REMARK UNBOUND:                -3.162
REMARK SMILES CCCCCCCCCCCCCCCCCCCCCC(=O)[O-]
REMARK SMILES IDX 12 1 11 2 10 3 9 4 8 5 7 6 6 7 5 8 4 9 3 10 2 11 1 12 13 13
REMARK SMILES IDX 14 14 15 15 16 16 17 17 18 18 19 19 20 20 21 21 22 22 23 23
REMARK SMILES IDX 24 24
REMARK H PARENT
REMARK Flexibility Score: inf
ROOT
ATOM      1  C   UNL     1      45.480  45.283  10.074  1.00  0.00     0.000 C 
ENDROOT
BRANCH   1   2
ATOM      2  C   UNL     1      45.127  45.688   8.632  1.00  0.00     0.000 C 
BRANCH   2   3
ATOM      3  C   UNL     1      43.615  45.886   8.390  1.00  0.00     0.000 C 
BRANCH   3   4
ATOM      4  C   UNL     1      42.945  46.664   9.537  1.00  0.00    -0.000 C 
BRANCH   4   5
ATOM      5  C   UNL     1      42.300  47.982   9.074  1.00  0.00    -0.000 C 
BRANCH   5   6
ATOM      6  C   UNL     1      42.201  48.146   7.546  1.00  0.00    -0.000 C 
BRANCH   6   7
ATOM      7  C   UNL     1      40.758  48.041   7.005  1.00  0.00    -0.000 C 
BRANCH   7   8
ATOM      8  C   UNL     1      40.392  46.601   6.604  1.00  0.00    -0.000 C 
BRANCH   8   9
ATOM      9  C   UNL     1      38.882  46.312   6.696  1.00  0.00    -0.000 C 
BRANCH   9  10
ATOM     10  C   UNL     1      38.418  45.695   8.026  1.00  0.00    -0.000 C 
BRANCH  10  11
ATOM     11  C   UNL     1      39.585  45.311   8.948  1.00  0.00    -0.003 C 
ATOM     12  C   UNL     1      39.329  45.787  10.376  1.00  0.00     0.004 C 
ENDBRANCH  10  11
ENDBRANCH   9  10
ENDBRANCH   8   9
ENDBRANCH   7   8
ENDBRANCH   6   7
ENDBRANCH   5   6
ENDBRANCH   4   5
ENDBRANCH   3   4
ENDBRANCH   2   3
ENDBRANCH   1   2
BRANCH   1  13
ATOM     13  C   UNL     1      46.505  46.225  10.728  1.00  0.00     0.000 C 
BRANCH  13  14
ATOM     14  C   UNL     1      46.581  47.608  10.049  1.00  0.00     0.000 C 
BRANCH  14  15
ATOM     15  C   UNL     1      47.633  48.558  10.658  1.00  0.00     0.000 C 
BRANCH  15  16
ATOM     16  C   UNL     1      47.409  50.057  10.391  1.00  0.00     0.000 C 
BRANCH  16  17
ATOM     17  C   UNL     1      46.486  50.720  11.425  1.00  0.00     0.000 C 
BRANCH  17  18
ATOM     18  C   UNL     1      45.278  51.382  10.751  1.00  0.00     0.000 C 
BRANCH  18  19
ATOM     19  C   UNL     1      43.996  50.576  11.013  1.00  0.00     0.000 C 
BRANCH  19  20
ATOM     20  C   UNL     1      44.174  49.509  12.109  1.00  0.00     0.006 C 
BRANCH  20  21
ATOM     21  C   UNL     1      42.863  48.837  12.551  1.00  0.00     0.053 C 
BRANCH  21  22
ATOM     22  C   UNL     1      41.946  49.799  13.243  1.00  0.00     0.041 C 
ATOM     23  O   UNL     1      40.788  50.005  12.796  1.00  0.00    -0.550 OA
ATOM     24  O   UNL     1      42.383  50.492  14.365  1.00  0.00    -0.550 OA
ENDBRANCH  21  22
ENDBRANCH  20  21
ENDBRANCH  19  20
ENDBRANCH  18  19
ENDBRANCH  17  18
ENDBRANCH  16  17
ENDBRANCH  15  16
ENDBRANCH  14  15
ENDBRANCH  13  14
ENDBRANCH   1  13
TORSDOF 20
ENDMDL
MODEL 8
REMARK VINA RESULT:    -4.880      2.923      6.155
REMARK INTER + INTRA:         -13.748
REMARK INTER:                 -10.729
REMARK INTRA:                  -3.019
REMARK UNBOUND:                -3.162
REMARK SMILES CCCCCCCCCCCCCCCCCCCCCC(=O)[O-]
REMARK SMILES IDX 12 1 11 2 10 3 9 4 8 5 7 6 6 7 5 8 4 9 3 10 2 11 1 12 13 13
REMARK SMILES IDX 14 14 15 15 16 16 17 17 18 18 19 19 20 20 21 21 22 22 23 23
REMARK SMILES IDX 24 24
REMARK H PARENT
REMARK Flexibility Score: inf
ROOT
ATOM      1  C   UNL     1      44.112  47.122   9.629  1.00  0.00     0.000 C 
ENDROOT
BRANCH   1   2
ATOM      2  C   UNL     1      45.546  47.274  10.165  1.00  0.00     0.000 C 
BRANCH   2   3
ATOM      3  C   UNL     1      46.292  48.510   9.616  1.00  0.00     0.000 C 
BRANCH   3   4
ATOM      4  C   UNL     1      46.937  49.341  10.740  1.00  0.00    -0.000 C 
BRANCH   4   5
ATOM      5  C   UNL     1      45.941  50.282  11.439  1.00  0.00    -0.000 C 
BRANCH   5   6
ATOM      6  C   UNL     1      44.744  50.711  10.570  1.00  0.00    -0.000 C 
BRANCH   6   7
ATOM      7  C   UNL     1      43.372  50.428  11.223  1.00  0.00    -0.000 C 
BRANCH   7   8
ATOM      8  C   UNL     1      43.509  49.656  12.546  1.00  0.00    -0.000 C 
BRANCH   8   9
ATOM      9  C   UNL     1      42.178  49.523  13.310  1.00  0.00    -0.000 C 
BRANCH   9  10
ATOM     10  C   UNL     1      40.974  50.211  12.644  1.00  0.00    -0.000 C 
BRANCH  10  11
ATOM     11  C   UNL     1      39.947  50.737  13.658  1.00  0.00    -0.003 C 
ATOM     12  C   UNL     1      38.861  51.550  12.960  1.00  0.00     0.004 C 
ENDBRANCH  10  11
ENDBRANCH   9  10
ENDBRANCH   8   9
ENDBRANCH   7   8
ENDBRANCH   6   7
ENDBRANCH   5   6
ENDBRANCH   4   5
ENDBRANCH   3   4
ENDBRANCH   2   3
ENDBRANCH   1   2
BRANCH   1  13
ATOM     13  C   UNL     1      43.135  46.562  10.677  1.00  0.00     0.000 C 
BRANCH  13  14
ATOM     14  C   UNL     1      41.703  47.114  10.531  1.00  0.00     0.000 C 
BRANCH  14  15
ATOM     15  C   UNL     1      40.667  46.450  11.460  1.00  0.00     0.000 C 
BRANCH  15  16
ATOM     16  C   UNL     1      39.429  45.860  10.763  1.00  0.00     0.000 C 
BRANCH  16  17
ATOM     17  C   UNL     1      39.721  45.362   9.339  1.00  0.00     0.000 C 
BRANCH  17  18
ATOM     18  C   UNL     1      38.557  45.672   8.390  1.00  0.00     0.000 C 
BRANCH  18  19
ATOM     19  C   UNL     1      39.045  46.461   7.166  1.00  0.00     0.000 C 
BRANCH  19  20
ATOM     20  C   UNL     1      40.553  46.766   7.213  1.00  0.00     0.006 C 
BRANCH  20  21
ATOM     21  C   UNL     1      40.894  48.265   7.165  1.00  0.00     0.053 C 
BRANCH  21  22
ATOM     22  C   UNL     1      42.006  48.556   6.205  1.00  0.00     0.041 C 
ATOM     23  O   UNL     1      42.763  47.630   5.811  1.00  0.00    -0.550 OA
ATOM     24  O   UNL     1      42.228  49.856   5.769  1.00  0.00    -0.550 OA
ENDBRANCH  21  22
ENDBRANCH  20  21
ENDBRANCH  19  20
ENDBRANCH  18  19
ENDBRANCH  17  18
ENDBRANCH  16  17
ENDBRANCH  15  16
ENDBRANCH  14  15
ENDBRANCH  13  14
ENDBRANCH   1  13
TORSDOF 20
ENDMDL
MODEL 9
REMARK VINA RESULT:    -4.864      2.047      5.725
REMARK INTER + INTRA:         -13.712
REMARK INTER:                 -10.766
REMARK INTRA:                  -2.947
REMARK UNBOUND:                -3.162
REMARK SMILES CCCCCCCCCCCCCCCCCCCCCC(=O)[O-]
REMARK SMILES IDX 12 1 11 2 10 3 9 4 8 5 7 6 6 7 5 8 4 9 3 10 2 11 1 12 13 13
REMARK SMILES IDX 14 14 15 15 16 16 17 17 18 18 19 19 20 20 21 21 22 22 23 23
REMARK SMILES IDX 24 24
REMARK H PARENT
REMARK Flexibility Score: inf
ROOT
ATOM      1  C   UNL     1      42.299  49.762   9.839  1.00  0.00     0.000 C 
ENDROOT
BRANCH   1   2
ATOM      2  C   UNL     1      42.875  50.219  11.191  1.00  0.00     0.000 C 
BRANCH   2   3
ATOM      3  C   UNL     1      44.328  49.757  11.440  1.00  0.00     0.000 C 
BRANCH   3   4
ATOM      4  C   UNL     1      45.248  50.930  11.823  1.00  0.00    -0.000 C 
BRANCH   4   5
ATOM      5  C   UNL     1      45.961  51.556  10.611  1.00  0.00    -0.000 C 
BRANCH   5   6
ATOM      6  C   UNL     1      46.658  50.543   9.683  1.00  0.00    -0.000 C 
BRANCH   6   7
ATOM      7  C   UNL     1      47.871  49.841  10.333  1.00  0.00    -0.000 C 
BRANCH   7   8
ATOM      8  C   UNL     1      47.601  48.351  10.604  1.00  0.00    -0.000 C 
BRANCH   8   9
ATOM      9  C   UNL     1      46.766  47.676   9.499  1.00  0.00    -0.000 C 
BRANCH   9  10
ATOM     10  C   UNL     1      46.039  46.390   9.927  1.00  0.00    -0.000 C 
BRANCH  10  11
ATOM     11  C   UNL     1      46.852  45.119   9.644  1.00  0.00    -0.003 C 
ATOM     12  C   UNL     1      47.548  45.210   8.289  1.00  0.00     0.004 C 
ENDBRANCH  10  11
ENDBRANCH   9  10
ENDBRANCH   8   9
ENDBRANCH   7   8
ENDBRANCH   6   7
ENDBRANCH   5   6
ENDBRANCH   4   5
ENDBRANCH   3   4
ENDBRANCH   2   3
ENDBRANCH   1   2
BRANCH   1  13
ATOM     13  C   UNL     1      43.347  49.083   8.939  1.00  0.00     0.000 C 
BRANCH  13  14
ATOM     14  C   UNL     1      42.724  48.248   7.803  1.00  0.00     0.000 C 
BRANCH  14  15
ATOM     15  C   UNL     1      41.226  48.524   7.559  1.00  0.00     0.000 C 
BRANCH  15  16
ATOM     16  C   UNL     1      40.540  47.609   6.530  1.00  0.00     0.000 C 
BRANCH  16  17
ATOM     17  C   UNL     1      39.365  46.814   7.122  1.00  0.00     0.000 C 
BRANCH  17  18
ATOM     18  C   UNL     1      39.860  45.686   8.037  1.00  0.00     0.000 C 
BRANCH  18  19
ATOM     19  C   UNL     1      38.876  45.448   9.192  1.00  0.00     0.000 C 
BRANCH  19  20
ATOM     20  C   UNL     1      39.331  46.102  10.510  1.00  0.00     0.006 C 
BRANCH  20  21
ATOM     21  C   UNL     1      40.855  46.266  10.637  1.00  0.00     0.053 C 
BRANCH  21  22
ATOM     22  C   UNL     1      41.236  47.017  11.876  1.00  0.00     0.041 C 
ATOM     23  O   UNL     1      42.334  46.786  12.446  1.00  0.00    -0.550 OA
ATOM     24  O   UNL     1      40.363  47.952  12.419  1.00  0.00    -0.550 OA
ENDBRANCH  21  22
ENDBRANCH  20  21
ENDBRANCH  19  20
ENDBRANCH  18  19
ENDBRANCH  17  18
ENDBRANCH  16  17
ENDBRANCH  15  16
ENDBRANCH  14  15
ENDBRANCH  13  14
ENDBRANCH   1  13
TORSDOF 20
ENDMDL
