MODEL 1
REMARK VINA RESULT:    -7.092      0.000      0.000
REMARK INTER + INTRA:          -8.582
REMARK INTER:                  -8.336
REMARK INTRA:                  -0.246
REMARK UNBOUND:                -0.246
REMARK SMILES O=c1c(O)c(-c2ccc(O)c(O)c2)oc2cc(O)ccc12
REMARK SMILES IDX 5 1 3 2 2 3 1 4 21 5 15 6 14 7 16 8 17 9 19 10 20 11 6 12
REMARK SMILES IDX 7 13 8 14 9 15 13 16 11 17 10 18 12 20 4 22 18 24
REMARK H PARENT 10 19 12 21 4 23 18 25
REMARK Flexibility Score: inf
ROOT
ATOM      1  C   UNL     1       5.584  12.939  17.327  1.00  0.00     0.180 A 
ATOM      2  C   UNL     1       4.754  13.860  16.653  1.00  0.00     0.208 A 
ATOM      3  C   UNL     1       5.171  15.196  16.550  1.00  0.00     0.235 A 
ATOM      4  O   UNL     1       4.441  16.041  15.962  1.00  0.00    -0.285 OA
ATOM      5  C   UNL     1       6.405  15.579  17.099  1.00  0.00     0.069 A 
ATOM      6  C   UNL     1       7.189  14.593  17.737  1.00  0.00     0.142 A 
ATOM      7  O   UNL     1       6.753  13.341  17.821  1.00  0.00    -0.452 OA
ATOM      8  C   UNL     1       8.429  14.933  18.288  1.00  0.00     0.094 A 
ATOM      9  C   UNL     1       8.898  16.251  18.211  1.00  0.00     0.119 A 
ATOM     10  C   UNL     1       8.122  17.230  17.580  1.00  0.00     0.047 A 
ATOM     11  C   UNL     1       6.882  16.900  17.026  1.00  0.00     0.020 A 
ENDROOT
BRANCH   1  12
ATOM     12  C   UNL     1       5.208  11.517  17.494  1.00  0.00     0.025 A 
ATOM     13  C   UNL     1       5.929  10.527  16.808  1.00  0.00     0.016 A 
ATOM     14  C   UNL     1       5.605   9.177  16.968  1.00  0.00     0.051 A 
ATOM     15  C   UNL     1       4.564   8.798  17.826  1.00  0.00     0.157 A 
ATOM     16  C   UNL     1       4.178  11.130  18.371  1.00  0.00     0.062 A 
ATOM     17  C   UNL     1       3.853   9.775  18.531  1.00  0.00     0.158 A 
BRANCH  15  18
ATOM     18  O   UNL     1       4.236   7.452  17.985  1.00  0.00    -0.504 OA
ATOM     19  H   UNL     1       4.796   6.717  17.570  1.00  0.00     0.293 HD
ENDBRANCH  15  18
BRANCH  17  20
ATOM     20  O   UNL     1       2.828   9.394  19.396  1.00  0.00    -0.504 OA
ATOM     21  H   UNL     1       1.853   9.466  19.127  1.00  0.00     0.293 HD
ENDBRANCH  17  20
ENDBRANCH   1  12
BRANCH   2  22
ATOM     22  O   UNL     1       3.555  13.439  16.074  1.00  0.00    -0.502 OA
ATOM     23  H   UNL     1       3.224  12.485  16.147  1.00  0.00     0.293 HD
ENDBRANCH   2  22
BRANCH   9  24
ATOM     24  O   UNL     1      10.131  16.599  18.756  1.00  0.00    -0.508 OA
ATOM     25  H   UNL     1      10.337  17.552  19.033  1.00  0.00     0.293 HD
ENDBRANCH   9  24
TORSDOF 5
ENDMDL
MODEL 2
REMARK VINA RESULT:    -6.696      2.886      7.575
REMARK INTER + INTRA:          -8.117
REMARK INTER:                  -7.934
REMARK INTRA:                  -0.182
REMARK UNBOUND:                -0.246
REMARK SMILES O=c1c(O)c(-c2ccc(O)c(O)c2)oc2cc(O)ccc12
REMARK SMILES IDX 5 1 3 2 2 3 1 4 21 5 15 6 14 7 16 8 17 9 19 10 20 11 6 12
REMARK SMILES IDX 7 13 8 14 9 15 13 16 11 17 10 18 12 20 4 22 18 24
REMARK H PARENT 10 19 12 21 4 23 18 25
REMARK Flexibility Score: inf
ROOT
ATOM      1  C   UNL     1       6.928  16.018  18.607  1.00  0.00     0.180 A 
ATOM      2  C   UNL     1       7.707  14.851  18.755  1.00  0.00     0.208 A 
ATOM      3  C   UNL     1       7.345  13.702  18.036  1.00  0.00     0.235 A 
ATOM      4  O   UNL     1       8.020  12.642  18.160  1.00  0.00    -0.285 OA
ATOM      5  C   UNL     1       6.237  13.745  17.177  1.00  0.00     0.069 A 
ATOM      6  C   UNL     1       5.522  14.958  17.065  1.00  0.00     0.142 A 
ATOM      7  O   UNL     1       5.893  16.021  17.771  1.00  0.00    -0.452 OA
ATOM      8  C   UNL     1       4.418  15.044  16.211  1.00  0.00     0.094 A 
ATOM      9  C   UNL     1       4.014  13.929  15.466  1.00  0.00     0.119 A 
ATOM     10  C   UNL     1       4.718  12.726  15.576  1.00  0.00     0.047 A 
ATOM     11  C   UNL     1       5.825  12.630  16.425  1.00  0.00     0.020 A 
ENDROOT
BRANCH   1  12
ATOM     12  C   UNL     1       7.233  17.266  19.344  1.00  0.00     0.025 A 
ATOM     13  C   UNL     1       7.096  17.293  20.741  1.00  0.00     0.016 A 
ATOM     14  C   UNL     1       7.399  18.453  21.459  1.00  0.00     0.051 A 
ATOM     15  C   UNL     1       7.857  19.598  20.792  1.00  0.00     0.157 A 
ATOM     16  C   UNL     1       7.713  18.410  18.681  1.00  0.00     0.062 A 
ATOM     17  C   UNL     1       8.018  19.574  19.402  1.00  0.00     0.158 A 
BRANCH  15  18
ATOM     18  O   UNL     1       8.157  20.757  21.505  1.00  0.00    -0.504 OA
ATOM     19  H   UNL     1       7.597  21.596  21.414  1.00  0.00     0.293 HD
ENDBRANCH  15  18
BRANCH  17  20
ATOM     20  O   UNL     1       8.487  20.709  18.742  1.00  0.00    -0.504 OA
ATOM     21  H   UNL     1       9.387  20.718  18.276  1.00  0.00     0.293 HD
ENDBRANCH  17  20
ENDBRANCH   1  12
BRANCH   2  22
ATOM     22  O   UNL     1       8.834  14.853  19.579  1.00  0.00    -0.502 OA
ATOM     23  H   UNL     1       9.604  14.209  19.446  1.00  0.00     0.293 HD
ENDBRANCH   2  22
BRANCH   9  24
ATOM     24  O   UNL     1       2.915  14.005  14.614  1.00  0.00    -0.508 OA
ATOM     25  H   UNL     1       2.699  13.261  13.960  1.00  0.00     0.293 HD
ENDBRANCH   9  24
TORSDOF 5
ENDMDL
MODEL 3
REMARK VINA RESULT:    -6.431      2.658      7.626
REMARK INTER + INTRA:          -7.805
REMARK INTER:                  -7.572
REMARK INTRA:                  -0.233
REMARK UNBOUND:                -0.246
REMARK SMILES O=c1c(O)c(-c2ccc(O)c(O)c2)oc2cc(O)ccc12
REMARK SMILES IDX 5 1 3 2 2 3 1 4 21 5 15 6 14 7 16 8 17 9 19 10 20 11 6 12
REMARK SMILES IDX 7 13 8 14 9 15 13 16 11 17 10 18 12 20 4 22 18 24
REMARK H PARENT 10 19 12 21 4 23 18 25
REMARK Flexibility Score: inf
ROOT
ATOM      1  C   UNL     1       6.995  16.180  18.063  1.00  0.00     0.180 A 
ATOM      2  C   UNL     1       7.122  15.146  19.014  1.00  0.00     0.208 A 
ATOM      3  C   UNL     1       6.386  13.965  18.830  1.00  0.00     0.235 A 
ATOM      4  O   UNL     1       6.474  13.030  19.674  1.00  0.00    -0.285 OA
ATOM      5  C   UNL     1       5.562  13.833  17.702  1.00  0.00     0.069 A 
ATOM      6  C   UNL     1       5.508  14.904  16.784  1.00  0.00     0.142 A 
ATOM      7  O   UNL     1       6.214  16.009  16.999  1.00  0.00    -0.452 OA
ATOM      8  C   UNL     1       4.706  14.807  15.641  1.00  0.00     0.094 A 
ATOM      9  C   UNL     1       3.953  13.650  15.405  1.00  0.00     0.119 A 
ATOM     10  C   UNL     1       4.004  12.588  16.314  1.00  0.00     0.047 A 
ATOM     11  C   UNL     1       4.803  12.674  17.458  1.00  0.00     0.020 A 
ENDROOT
BRANCH   1  12
ATOM     12  C   UNL     1       7.723  17.462  18.194  1.00  0.00     0.025 A 
ATOM     13  C   UNL     1       8.727  17.785  17.267  1.00  0.00     0.016 A 
ATOM     14  C   UNL     1       9.413  18.999  17.360  1.00  0.00     0.051 A 
ATOM     15  C   UNL     1       9.094  19.914  18.372  1.00  0.00     0.157 A 
ATOM     16  C   UNL     1       7.393  18.394  19.196  1.00  0.00     0.062 A 
ATOM     17  C   UNL     1       8.080  19.613  19.288  1.00  0.00     0.158 A 
BRANCH  15  18
ATOM     18  O   UNL     1       9.777  21.125  18.468  1.00  0.00    -0.504 OA
ATOM     19  H   UNL     1      10.749  21.165  18.752  1.00  0.00     0.293 HD
ENDBRANCH  15  18
BRANCH  17  20
ATOM     20  O   UNL     1       7.755  20.532  20.285  1.00  0.00    -0.504 OA
ATOM     21  H   UNL     1       7.080  21.270  20.126  1.00  0.00     0.293 HD
ENDBRANCH  17  20
ENDBRANCH   1  12
BRANCH   2  22
ATOM     22  O   UNL     1       7.988  15.286  20.101  1.00  0.00    -0.502 OA
ATOM     23  H   UNL     1       7.652  15.399  21.049  1.00  0.00     0.293 HD
ENDBRANCH   2  22
BRANCH   9  24
ATOM     24  O   UNL     1       3.151  13.544  14.270  1.00  0.00    -0.508 OA
ATOM     25  H   UNL     1       3.454  13.905  13.373  1.00  0.00     0.293 HD
ENDBRANCH   9  24
TORSDOF 5
ENDMDL
MODEL 4
REMARK VINA RESULT:    -5.959      2.400      3.869
REMARK INTER + INTRA:          -7.251
REMARK INTER:                  -6.940
REMARK INTRA:                  -0.310
REMARK UNBOUND:                -0.246
REMARK SMILES O=c1c(O)c(-c2ccc(O)c(O)c2)oc2cc(O)ccc12
REMARK SMILES IDX 5 1 3 2 2 3 1 4 21 5 15 6 14 7 16 8 17 9 19 10 20 11 6 12
REMARK SMILES IDX 7 13 8 14 9 15 13 16 11 17 10 18 12 20 4 22 18 24
REMARK H PARENT 10 19 12 21 4 23 18 25
REMARK Flexibility Score: inf
ROOT
ATOM      1  C   UNL     1       6.952  15.559  18.493  1.00  0.00     0.180 A 
ATOM      2  C   UNL     1       6.942  16.001  19.833  1.00  0.00     0.208 A 
ATOM      3  C   UNL     1       7.517  17.244  20.139  1.00  0.00     0.235 A 
ATOM      4  O   UNL     1       7.530  17.655  21.333  1.00  0.00    -0.285 OA
ATOM      5  C   UNL     1       8.067  18.023  19.110  1.00  0.00     0.069 A 
ATOM      6  C   UNL     1       8.018  17.521  17.791  1.00  0.00     0.142 A 
ATOM      7  O   UNL     1       7.472  16.335  17.545  1.00  0.00    -0.452 OA
ATOM      8  C   UNL     1       8.546  18.273  16.736  1.00  0.00     0.094 A 
ATOM      9  C   UNL     1       9.129  19.522  16.983  1.00  0.00     0.119 A 
ATOM     10  C   UNL     1       9.181  20.021  18.289  1.00  0.00     0.047 A 
ATOM     11  C   UNL     1       8.654  19.278  19.350  1.00  0.00     0.020 A 
ENDROOT
BRANCH   1  12
ATOM     12  C   UNL     1       6.383  14.253  18.091  1.00  0.00     0.025 A 
ATOM     13  C   UNL     1       7.215  13.124  18.040  1.00  0.00     0.016 A 
ATOM     14  C   UNL     1       6.694  11.876  17.684  1.00  0.00     0.051 A 
ATOM     15  C   UNL     1       5.331  11.739  17.389  1.00  0.00     0.157 A 
ATOM     16  C   UNL     1       5.011  14.106  17.814  1.00  0.00     0.062 A 
ATOM     17  C   UNL     1       4.488  12.854  17.459  1.00  0.00     0.158 A 
BRANCH  15  18
ATOM     18  O   UNL     1       4.809  10.497  17.031  1.00  0.00    -0.504 OA
ATOM     19  H   UNL     1       5.291   9.886  16.383  1.00  0.00     0.293 HD
ENDBRANCH  15  18
BRANCH  17  20
ATOM     20  O   UNL     1       3.130  12.711  17.178  1.00  0.00    -0.504 OA
ATOM     21  H   UNL     1       2.656  11.823  17.291  1.00  0.00     0.293 HD
ENDBRANCH  17  20
ENDBRANCH   1  12
BRANCH   2  22
ATOM     22  O   UNL     1       6.343  15.226  20.829  1.00  0.00    -0.502 OA
ATOM     23  H   UNL     1       6.861  14.865  21.620  1.00  0.00     0.293 HD
ENDBRANCH   2  22
BRANCH   9  24
ATOM     24  O   UNL     1       9.659  20.277  15.939  1.00  0.00    -0.508 OA
ATOM     25  H   UNL     1       9.404  20.099  14.974  1.00  0.00     0.293 HD
ENDBRANCH   9  24
TORSDOF 5
ENDMDL
MODEL 5
REMARK VINA RESULT:    -5.940     13.284     15.766
REMARK INTER + INTRA:          -7.228
REMARK INTER:                  -6.912
REMARK INTRA:                  -0.316
REMARK UNBOUND:                -0.246
REMARK SMILES O=c1c(O)c(-c2ccc(O)c(O)c2)oc2cc(O)ccc12
REMARK SMILES IDX 5 1 3 2 2 3 1 4 21 5 15 6 14 7 16 8 17 9 19 10 20 11 6 12
REMARK SMILES IDX 7 13 8 14 9 15 13 16 11 17 10 18 12 20 4 22 18 24
REMARK H PARENT 10 19 12 21 4 23 18 25
REMARK Flexibility Score: inf
ROOT
ATOM      1  C   UNL     1       0.172  11.606   4.727  1.00  0.00     0.180 A 
ATOM      2  C   UNL     1      -0.353  11.960   5.987  1.00  0.00     0.208 A 
ATOM      3  C   UNL     1      -1.227  11.070   6.630  1.00  0.00     0.235 A 
ATOM      4  O   UNL     1      -1.718  11.370   7.754  1.00  0.00    -0.285 OA
ATOM      5  C   UNL     1      -1.540   9.847   6.018  1.00  0.00     0.069 A 
ATOM      6  C   UNL     1      -0.956   9.555   4.767  1.00  0.00     0.142 A 
ATOM      7  O   UNL     1      -0.140  10.430   4.187  1.00  0.00    -0.452 OA
ATOM      8  C   UNL     1      -1.235   8.341   4.129  1.00  0.00     0.094 A 
ATOM      9  C   UNL     1      -2.097   7.413   4.726  1.00  0.00     0.119 A 
ATOM     10  C   UNL     1      -2.679   7.700   5.966  1.00  0.00     0.047 A 
ATOM     11  C   UNL     1      -2.405   8.910   6.612  1.00  0.00     0.020 A 
ENDROOT
BRANCH   1  12
ATOM     12  C   UNL     1       1.085  12.497   3.976  1.00  0.00     0.025 A 
ATOM     13  C   UNL     1       0.549  13.490   3.142  1.00  0.00     0.016 A 
ATOM     14  C   UNL     1       1.391  14.357   2.440  1.00  0.00     0.051 A 
ATOM     15  C   UNL     1       2.782  14.252   2.575  1.00  0.00     0.157 A 
ATOM     16  C   UNL     1       2.481  12.409   4.124  1.00  0.00     0.062 A 
ATOM     17  C   UNL     1       3.327  13.279   3.422  1.00  0.00     0.158 A 
BRANCH  15  18
ATOM     18  O   UNL     1       3.625  15.112   1.875  1.00  0.00    -0.504 OA
ATOM     19  H   UNL     1       3.527  16.119   1.938  1.00  0.00     0.293 HD
ENDBRANCH  15  18
BRANCH  17  20
ATOM     20  O   UNL     1       4.711  13.186   3.565  1.00  0.00    -0.504 OA
ATOM     21  H   UNL     1       5.135  12.878   4.432  1.00  0.00     0.293 HD
ENDBRANCH  17  20
ENDBRANCH   1  12
BRANCH   2  22
ATOM     22  O   UNL     1       0.016  13.163   6.595  1.00  0.00    -0.502 OA
ATOM     23  H   UNL     1      -0.284  13.412   7.529  1.00  0.00     0.293 HD
ENDBRANCH   2  22
BRANCH   9  24
ATOM     24  O   UNL     1      -2.382   6.203   4.099  1.00  0.00    -0.508 OA
ATOM     25  H   UNL     1      -1.918   5.929   3.241  1.00  0.00     0.293 HD
ENDBRANCH   9  24
TORSDOF 5
ENDMDL
MODEL 6
REMARK VINA RESULT:    -5.890      2.703      4.384
REMARK INTER + INTRA:          -7.168
REMARK INTER:                  -6.858
REMARK INTRA:                  -0.311
REMARK UNBOUND:                -0.246
REMARK SMILES O=c1c(O)c(-c2ccc(O)c(O)c2)oc2cc(O)ccc12
REMARK SMILES IDX 5 1 3 2 2 3 1 4 21 5 15 6 14 7 16 8 17 9 19 10 20 11 6 12
REMARK SMILES IDX 7 13 8 14 9 15 13 16 11 17 10 18 12 20 4 22 18 24
REMARK H PARENT 10 19 12 21 4 23 18 25
REMARK Flexibility Score: inf
ROOT
ATOM      1  C   UNL     1       7.003  16.296  18.250  1.00  0.00     0.180 A 
ATOM      2  C   UNL     1       7.870  16.655  17.197  1.00  0.00     0.208 A 
ATOM      3  C   UNL     1       8.537  17.888  17.260  1.00  0.00     0.235 A 
ATOM      4  O   UNL     1       9.310  18.236  16.325  1.00  0.00    -0.285 OA
ATOM      5  C   UNL     1       8.344  18.721  18.373  1.00  0.00     0.069 A 
ATOM      6  C   UNL     1       7.478  18.281  19.397  1.00  0.00     0.142 A 
ATOM      7  O   UNL     1       6.858  17.110  19.294  1.00  0.00    -0.452 OA
ATOM      8  C   UNL     1       7.268  19.078  20.527  1.00  0.00     0.094 A 
ATOM      9  C   UNL     1       7.911  20.317  20.646  1.00  0.00     0.119 A 
ATOM     10  C   UNL     1       8.768  20.757  19.632  1.00  0.00     0.047 A 
ATOM     11  C   UNL     1       8.986  19.966  18.499  1.00  0.00     0.020 A 
ENDROOT
BRANCH   1  12
ATOM     12  C   UNL     1       6.249  15.022  18.249  1.00  0.00     0.025 A 
ATOM     13  C   UNL     1       6.712  13.945  19.020  1.00  0.00     0.016 A 
ATOM     14  C   UNL     1       6.005  12.740  19.051  1.00  0.00     0.051 A 
ATOM     15  C   UNL     1       4.816  12.601  18.322  1.00  0.00     0.157 A 
ATOM     16  C   UNL     1       5.044  14.885  17.536  1.00  0.00     0.062 A 
ATOM     17  C   UNL     1       4.333  13.676  17.567  1.00  0.00     0.158 A 
BRANCH  15  18
ATOM     18  O   UNL     1       4.110  11.400  18.348  1.00  0.00    -0.504 OA
ATOM     19  H   UNL     1       3.511  11.154  19.127  1.00  0.00     0.293 HD
ENDBRANCH  15  18
BRANCH  17  20
ATOM     20  O   UNL     1       3.143  13.539  16.854  1.00  0.00    -0.504 OA
ATOM     21  H   UNL     1       2.383  12.963  17.196  1.00  0.00     0.293 HD
ENDBRANCH  17  20
ENDBRANCH   1  12
BRANCH   2  22
ATOM     22  O   UNL     1       8.081  15.783  16.126  1.00  0.00    -0.502 OA
ATOM     23  H   UNL     1       8.349  14.816  16.260  1.00  0.00     0.293 HD
ENDBRANCH   2  22
BRANCH   9  24
ATOM     24  O   UNL     1       7.706  21.118  21.767  1.00  0.00    -0.508 OA
ATOM     25  H   UNL     1       7.009  20.885  22.464  1.00  0.00     0.293 HD
ENDBRANCH   9  24
TORSDOF 5
ENDMDL
MODEL 7
REMARK VINA RESULT:    -5.782     13.019     14.299
REMARK INTER + INTRA:          -7.042
REMARK INTER:                  -6.795
REMARK INTRA:                  -0.247
REMARK UNBOUND:                -0.246
REMARK SMILES O=c1c(O)c(-c2ccc(O)c(O)c2)oc2cc(O)ccc12
REMARK SMILES IDX 5 1 3 2 2 3 1 4 21 5 15 6 14 7 16 8 17 9 19 10 20 11 6 12
REMARK SMILES IDX 7 13 8 14 9 15 13 16 11 17 10 18 12 20 4 22 18 24
REMARK H PARENT 10 19 12 21 4 23 18 25
REMARK Flexibility Score: inf
ROOT
ATOM      1  C   UNL     1      -1.037  10.477   5.346  1.00  0.00     0.180 A 
ATOM      2  C   UNL     1      -1.743  10.473   4.124  1.00  0.00     0.208 A 
ATOM      3  C   UNL     1      -1.153  11.072   3.001  1.00  0.00     0.235 A 
ATOM      4  O   UNL     1      -1.769  11.091   1.900  1.00  0.00    -0.285 OA
ATOM      5  C   UNL     1       0.126  11.640   3.113  1.00  0.00     0.069 A 
ATOM      6  C   UNL     1       0.777  11.583   4.364  1.00  0.00     0.142 A 
ATOM      7  O   UNL     1       0.180  11.014   5.406  1.00  0.00    -0.452 OA
ATOM      8  C   UNL     1       2.057  12.128   4.513  1.00  0.00     0.094 A 
ATOM      9  C   UNL     1       2.696  12.736   3.425  1.00  0.00     0.119 A 
ATOM     10  C   UNL     1       2.052  12.795   2.184  1.00  0.00     0.047 A 
ATOM     11  C   UNL     1       0.774  12.252   2.024  1.00  0.00     0.020 A 
ENDROOT
BRANCH   1  12
ATOM     12  C   UNL     1      -1.598   9.881   6.580  1.00  0.00     0.025 A 
ATOM     13  C   UNL     1      -1.613   8.486   6.728  1.00  0.00     0.016 A 
ATOM     14  C   UNL     1      -2.118   7.903   7.894  1.00  0.00     0.051 A 
ATOM     15  C   UNL     1      -2.602   8.708   8.933  1.00  0.00     0.157 A 
ATOM     16  C   UNL     1      -2.065  10.686   7.635  1.00  0.00     0.062 A 
ATOM     17  C   UNL     1      -2.571  10.102   8.805  1.00  0.00     0.158 A 
BRANCH  15  18
ATOM     18  O   UNL     1      -3.109   8.130  10.095  1.00  0.00    -0.504 OA
ATOM     19  H   UNL     1      -2.527   7.572  10.708  1.00  0.00     0.293 HD
ENDBRANCH  15  18
BRANCH  17  20
ATOM     20  O   UNL     1      -3.040  10.901   9.847  1.00  0.00    -0.504 OA
ATOM     21  H   UNL     1      -2.903  10.643  10.817  1.00  0.00     0.293 HD
ENDBRANCH  17  20
ENDBRANCH   1  12
BRANCH   2  22
ATOM     22  O   UNL     1      -2.992   9.856   4.031  1.00  0.00    -0.502 OA
ATOM     23  H   UNL     1      -3.118   8.950   3.599  1.00  0.00     0.293 HD
ENDBRANCH   2  22
BRANCH   9  24
ATOM     24  O   UNL     1       3.969  13.282   3.563  1.00  0.00    -0.508 OA
ATOM     25  H   UNL     1       4.250  14.109   3.048  1.00  0.00     0.293 HD
ENDBRANCH   9  24
TORSDOF 5
ENDMDL
MODEL 8
REMARK VINA RESULT:    -5.375     12.819     15.197
REMARK INTER + INTRA:          -6.563
REMARK INTER:                  -6.282
REMARK INTRA:                  -0.281
REMARK UNBOUND:                -0.246
REMARK SMILES O=c1c(O)c(-c2ccc(O)c(O)c2)oc2cc(O)ccc12
REMARK SMILES IDX 5 1 3 2 2 3 1 4 21 5 15 6 14 7 16 8 17 9 19 10 20 11 6 12
REMARK SMILES IDX 7 13 8 14 9 15 13 16 11 17 10 18 12 20 4 22 18 24
REMARK H PARENT 10 19 12 21 4 23 18 25
REMARK Flexibility Score: inf
ROOT
ATOM      1  C   UNL     1       0.027  11.576   4.843  1.00  0.00     0.180 A 
ATOM      2  C   UNL     1      -0.249  10.310   4.286  1.00  0.00     0.208 A 
ATOM      3  C   UNL     1      -1.052   9.414   5.009  1.00  0.00     0.235 A 
ATOM      4  O   UNL     1      -1.305   8.271   4.536  1.00  0.00    -0.285 OA
ATOM      5  C   UNL     1      -1.575   9.803   6.251  1.00  0.00     0.069 A 
ATOM      6  C   UNL     1      -1.271  11.096   6.730  1.00  0.00     0.142 A 
ATOM      7  O   UNL     1      -0.499  11.911   6.019  1.00  0.00    -0.452 OA
ATOM      8  C   UNL     1      -1.781  11.525   7.961  1.00  0.00     0.094 A 
ATOM      9  C   UNL     1      -2.592  10.674   8.723  1.00  0.00     0.119 A 
ATOM     10  C   UNL     1      -2.893   9.392   8.252  1.00  0.00     0.047 A 
ATOM     11  C   UNL     1      -2.389   8.954   7.023  1.00  0.00     0.020 A 
ENDROOT
BRANCH   1  12
ATOM     12  C   UNL     1       0.880  12.570   4.153  1.00  0.00     0.025 A 
ATOM     13  C   UNL     1       0.286  13.695   3.559  1.00  0.00     0.016 A 
ATOM     14  C   UNL     1       1.074  14.657   2.920  1.00  0.00     0.051 A 
ATOM     15  C   UNL     1       2.467  14.514   2.879  1.00  0.00     0.157 A 
ATOM     16  C   UNL     1       2.281  12.442   4.126  1.00  0.00     0.062 A 
ATOM     17  C   UNL     1       3.071  13.407   3.486  1.00  0.00     0.158 A 
BRANCH  15  18
ATOM     18  O   UNL     1       3.255  15.470   2.240  1.00  0.00    -0.504 OA
ATOM     19  H   UNL     1       2.852  16.309   1.841  1.00  0.00     0.293 HD
ENDBRANCH  15  18
BRANCH  17  20
ATOM     20  O   UNL     1       4.459  13.275   3.456  1.00  0.00    -0.504 OA
ATOM     21  H   UNL     1       4.996  13.118   4.301  1.00  0.00     0.293 HD
ENDBRANCH  17  20
ENDBRANCH   1  12
BRANCH   2  22
ATOM     22  O   UNL     1       0.243   9.969   3.024  1.00  0.00    -0.502 OA
ATOM     23  H   UNL     1      -0.178   9.246   2.455  1.00  0.00     0.293 HD
ENDBRANCH   2  22
BRANCH   9  24
ATOM     24  O   UNL     1      -3.103  11.091   9.949  1.00  0.00    -0.508 OA
ATOM     25  H   UNL     1      -4.097  11.060  10.146  1.00  0.00     0.293 HD
ENDBRANCH   9  24
TORSDOF 5
ENDMDL
MODEL 9
REMARK VINA RESULT:    -5.195     12.279     14.661
REMARK INTER + INTRA:          -6.352
REMARK INTER:                  -6.037
REMARK INTRA:                  -0.315
REMARK UNBOUND:                -0.246
REMARK SMILES O=c1c(O)c(-c2ccc(O)c(O)c2)oc2cc(O)ccc12
REMARK SMILES IDX 5 1 3 2 2 3 1 4 21 5 15 6 14 7 16 8 17 9 19 10 20 11 6 12
REMARK SMILES IDX 7 13 8 14 9 15 13 16 11 17 10 18 12 20 4 22 18 24
REMARK H PARENT 10 19 12 21 4 23 18 25
REMARK Flexibility Score: inf
ROOT
ATOM      1  C   UNL     1      -0.872  10.917   5.955  1.00  0.00     0.180 A 
ATOM      2  C   UNL     1      -1.188   9.579   5.638  1.00  0.00     0.208 A 
ATOM      3  C   UNL     1      -1.831   8.789   6.604  1.00  0.00     0.235 A 
ATOM      4  O   UNL     1      -2.114   7.586   6.348  1.00  0.00    -0.285 OA
ATOM      5  C   UNL     1      -2.160   9.351   7.847  1.00  0.00     0.069 A 
ATOM      6  C   UNL     1      -1.831  10.704   8.079  1.00  0.00     0.142 A 
ATOM      7  O   UNL     1      -1.214  11.415   7.141  1.00  0.00    -0.452 OA
ATOM      8  C   UNL     1      -2.153  11.303   9.302  1.00  0.00     0.094 A 
ATOM      9  C   UNL     1      -2.798  10.564  10.301  1.00  0.00     0.119 A 
ATOM     10  C   UNL     1      -3.124   9.222  10.075  1.00  0.00     0.047 A 
ATOM     11  C   UNL     1      -2.809   8.615   8.856  1.00  0.00     0.020 A 
ENDROOT
BRANCH   1  12
ATOM     12  C   UNL     1      -0.178  11.809   4.998  1.00  0.00     0.025 A 
ATOM     13  C   UNL     1      -0.924  12.736   4.254  1.00  0.00     0.016 A 
ATOM     14  C   UNL     1      -0.287  13.602   3.360  1.00  0.00     0.051 A 
ATOM     15  C   UNL     1       1.106  13.563   3.210  1.00  0.00     0.157 A 
ATOM     16  C   UNL     1       1.222  11.787   4.859  1.00  0.00     0.062 A 
ATOM     17  C   UNL     1       1.861  12.657   3.964  1.00  0.00     0.158 A 
BRANCH  15  18
ATOM     18  O   UNL     1       1.743  14.423   2.318  1.00  0.00    -0.504 OA
ATOM     19  H   UNL     1       2.707  14.704   2.449  1.00  0.00     0.293 HD
ENDBRANCH  15  18
BRANCH  17  20
ATOM     20  O   UNL     1       3.248  12.630   3.823  1.00  0.00    -0.504 OA
ATOM     21  H   UNL     1       3.690  12.226   3.006  1.00  0.00     0.293 HD
ENDBRANCH  17  20
ENDBRANCH   1  12
BRANCH   2  22
ATOM     22  O   UNL     1      -0.892   9.062   4.375  1.00  0.00    -0.502 OA
ATOM     23  H   UNL     1      -0.169   9.455   3.785  1.00  0.00     0.293 HD
ENDBRANCH   2  22
BRANCH   9  24
ATOM     24  O   UNL     1      -3.121  11.151  11.522  1.00  0.00    -0.508 OA
ATOM     25  H   UNL     1      -3.720  10.683  12.193  1.00  0.00     0.293 HD
ENDBRANCH   9  24
TORSDOF 5
ENDMDL
