MODEL 1
REMARK VINA RESULT:    -3.392      0.000      0.000
REMARK INTER + INTRA:          -4.377
REMARK INTER:                  -4.185
REMARK INTRA:                  -0.191
REMARK UNBOUND:                -0.191
REMARK SMILES CCCCC=CC(C)=O
REMARK SMILES IDX 4 1 3 2 2 3 1 4 5 5 6 6 7 7 9 8 8 9
REMARK H PARENT
REMARK Flexibility Score: inf
ROOT
ATOM      1  C   UNL     1      23.144 -17.776   1.925  1.00  0.00     0.027 C 
ENDROOT
BRANCH   1   2
ATOM      2  C   UNL     1      22.968 -16.478   1.122  1.00  0.00     0.004 C 
BRANCH   2   3
ATOM      3  C   UNL     1      23.489 -16.601  -0.317  1.00  0.00    -0.003 C 
ATOM      4  C   UNL     1      22.542 -15.984  -1.346  1.00  0.00     0.004 C 
ENDBRANCH   2   3
ENDBRANCH   1   2
BRANCH   1   5
ATOM      5  C   UNL     1      24.154 -18.680   1.277  1.00  0.00    -0.023 C 
ATOM      6  C   UNL     1      24.680 -19.722   1.932  1.00  0.00     0.042 C 
BRANCH   6   7
ATOM      7  C   UNL     1      25.683 -20.630   1.340  1.00  0.00     0.152 C 
ATOM      8  O   UNL     1      25.345 -21.812   1.071  1.00  0.00    -0.295 OA
ATOM      9  C   UNL     1      27.089 -20.195   1.049  1.00  0.00     0.093 C 
ENDBRANCH   6   7
ENDBRANCH   1   5
TORSDOF 4
ENDMDL
MODEL 2
REMARK VINA RESULT:    -3.359     16.839     17.867
REMARK INTER + INTRA:          -4.335
REMARK INTER:                  -4.167
REMARK INTRA:                  -0.168
REMARK UNBOUND:                -0.191
REMARK SMILES CCCCC=CC(C)=O
REMARK SMILES IDX 4 1 3 2 2 3 1 4 5 5 6 6 7 7 9 8 8 9
REMARK H PARENT
REMARK Flexibility Score: inf
ROOT
ATOM      1  C   UNL     1      12.995 -16.567 -14.045  1.00  0.00     0.027 C 
ENDROOT
BRANCH   1   2
ATOM      2  C   UNL     1      12.787 -16.844 -12.548  1.00  0.00     0.004 C 
BRANCH   2   3
ATOM      3  C   UNL     1      11.378 -16.460 -12.070  1.00  0.00    -0.003 C 
ATOM      4  C   UNL     1      10.310 -17.460 -12.512  1.00  0.00     0.004 C 
ENDBRANCH   2   3
ENDBRANCH   1   2
BRANCH   1   5
ATOM      5  C   UNL     1      14.389 -16.931 -14.474  1.00  0.00    -0.023 C 
ATOM      6  C   UNL     1      15.404 -16.953 -13.602  1.00  0.00     0.042 C 
BRANCH   6   7
ATOM      7  C   UNL     1      16.791 -17.292 -13.980  1.00  0.00     0.152 C 
ATOM      8  O   UNL     1      17.737 -16.802 -13.308  1.00  0.00    -0.295 OA
ATOM      9  C   UNL     1      17.113 -18.196 -15.132  1.00  0.00     0.093 C 
ENDBRANCH   6   7
ENDBRANCH   1   5
TORSDOF 4
ENDMDL
MODEL 3
REMARK VINA RESULT:    -3.288      1.474      2.405
REMARK INTER + INTRA:          -4.249
REMARK INTER:                  -3.994
REMARK INTRA:                  -0.255
REMARK UNBOUND:                -0.191
REMARK SMILES CCCCC=CC(C)=O
REMARK SMILES IDX 4 1 3 2 2 3 1 4 5 5 6 6 7 7 9 8 8 9
REMARK H PARENT
REMARK Flexibility Score: inf
ROOT
ATOM      1  C   UNL     1      23.608 -17.184   0.072  1.00  0.00     0.027 C 
ENDROOT
BRANCH   1   2
ATOM      2  C   UNL     1      23.647 -16.211   1.261  1.00  0.00     0.004 C 
BRANCH   2   3
ATOM      3  C   UNL     1      22.430 -16.363   2.185  1.00  0.00    -0.003 C 
ATOM      4  C   UNL     1      22.793 -16.933   3.555  1.00  0.00     0.004 C 
ENDBRANCH   2   3
ENDBRANCH   1   2
BRANCH   1   5
ATOM      5  C   UNL     1      24.738 -18.171   0.142  1.00  0.00    -0.023 C 
ATOM      6  C   UNL     1      24.807 -19.085   1.116  1.00  0.00     0.042 C 
BRANCH   6   7
ATOM      7  C   UNL     1      25.905 -20.066   1.233  1.00  0.00     0.152 C 
ATOM      8  O   UNL     1      27.089 -19.643   1.302  1.00  0.00    -0.295 OA
ATOM      9  C   UNL     1      25.661 -21.546   1.274  1.00  0.00     0.093 C 
ENDBRANCH   6   7
ENDBRANCH   1   5
TORSDOF 4
ENDMDL
MODEL 4
REMARK VINA RESULT:    -3.269     16.941     18.065
REMARK INTER + INTRA:          -4.225
REMARK INTER:                  -3.998
REMARK INTRA:                  -0.227
REMARK UNBOUND:                -0.191
REMARK SMILES CCCCC=CC(C)=O
REMARK SMILES IDX 4 1 3 2 2 3 1 4 5 5 6 6 7 7 9 8 8 9
REMARK H PARENT
REMARK Flexibility Score: inf
ROOT
ATOM      1  C   UNL     1      13.531 -16.393 -11.648  1.00  0.00     0.027 C 
ENDROOT
BRANCH   1   2
ATOM      2  C   UNL     1      12.049 -15.988 -11.675  1.00  0.00     0.004 C 
BRANCH   2   3
ATOM      3  C   UNL     1      11.282 -16.640 -12.835  1.00  0.00    -0.003 C 
ATOM      4  C   UNL     1      10.176 -17.582 -12.359  1.00  0.00     0.004 C 
ENDBRANCH   2   3
ENDBRANCH   1   2
BRANCH   1   5
ATOM      5  C   UNL     1      13.969 -16.932 -12.980  1.00  0.00    -0.023 C 
ATOM      6  C   UNL     1      15.243 -16.847 -13.383  1.00  0.00     0.042 C 
BRANCH   6   7
ATOM      7  C   UNL     1      15.717 -17.350 -14.688  1.00  0.00     0.152 C 
ATOM      8  O   UNL     1      16.885 -17.815 -14.768  1.00  0.00    -0.295 OA
ATOM      9  C   UNL     1      14.860 -17.327 -15.919  1.00  0.00     0.093 C 
ENDBRANCH   6   7
ENDBRANCH   1   5
TORSDOF 4
ENDMDL
MODEL 5
REMARK VINA RESULT:    -3.227      2.763      4.997
REMARK INTER + INTRA:          -4.173
REMARK INTER:                  -3.977
REMARK INTRA:                  -0.196
REMARK UNBOUND:                -0.191
REMARK SMILES CCCCC=CC(C)=O
REMARK SMILES IDX 4 1 3 2 2 3 1 4 5 5 6 6 7 7 9 8 8 9
REMARK H PARENT
REMARK Flexibility Score: inf
ROOT
ATOM      1  C   UNL     1      25.122 -18.862   0.387  1.00  0.00     0.027 C 
ENDROOT
BRANCH   1   2
ATOM      2  C   UNL     1      26.389 -19.152   1.208  1.00  0.00     0.004 C 
BRANCH   2   3
ATOM      3  C   UNL     1      26.781 -20.636   1.180  1.00  0.00    -0.003 C 
ATOM      4  C   UNL     1      25.571 -21.570   1.207  1.00  0.00     0.004 C 
ENDBRANCH   2   3
ENDBRANCH   1   2
BRANCH   1   5
ATOM      5  C   UNL     1      24.390 -17.666   0.926  1.00  0.00    -0.023 C 
ATOM      6  C   UNL     1      23.379 -17.799   1.793  1.00  0.00     0.042 C 
BRANCH   6   7
ATOM      7  C   UNL     1      22.622 -16.655   2.339  1.00  0.00     0.152 C 
ATOM      8  O   UNL     1      22.043 -15.875   1.537  1.00  0.00    -0.295 OA
ATOM      9  C   UNL     1      22.517 -16.388   3.812  1.00  0.00     0.093 C 
ENDBRANCH   6   7
ENDBRANCH   1   5
TORSDOF 4
ENDMDL
MODEL 6
REMARK VINA RESULT:    -3.152     15.955     17.739
REMARK INTER + INTRA:          -4.081
REMARK INTER:                  -3.853
REMARK INTRA:                  -0.228
REMARK UNBOUND:                -0.191
REMARK SMILES CCCCC=CC(C)=O
REMARK SMILES IDX 4 1 3 2 2 3 1 4 5 5 6 6 7 7 9 8 8 9
REMARK H PARENT
REMARK Flexibility Score: inf
ROOT
ATOM      1  C   UNL     1      14.797 -17.133 -15.240  1.00  0.00     0.027 C 
ENDROOT
BRANCH   1   2
ATOM      2  C   UNL     1      16.163 -17.521 -14.652  1.00  0.00     0.004 C 
BRANCH   2   3
ATOM      3  C   UNL     1      17.107 -16.317 -14.515  1.00  0.00    -0.003 C 
ATOM      4  C   UNL     1      17.771 -16.238 -13.141  1.00  0.00     0.004 C 
ENDBRANCH   2   3
ENDBRANCH   1   2
BRANCH   1   5
ATOM      5  C   UNL     1      13.868 -16.638 -14.168  1.00  0.00    -0.023 C 
ATOM      6  C   UNL     1      14.004 -17.023 -12.894  1.00  0.00     0.042 C 
BRANCH   6   7
ATOM      7  C   UNL     1      13.108 -16.574 -11.809  1.00  0.00     0.152 C 
ATOM      8  O   UNL     1      13.604 -16.327 -10.678  1.00  0.00    -0.295 OA
ATOM      9  C   UNL     1      11.631 -16.401 -12.006  1.00  0.00     0.093 C 
ENDBRANCH   6   7
ENDBRANCH   1   5
TORSDOF 4
ENDMDL
MODEL 7
REMARK VINA RESULT:    -3.061     16.692     18.468
REMARK INTER + INTRA:          -3.968
REMARK INTER:                  -3.856
REMARK INTRA:                  -0.112
REMARK UNBOUND:                -0.191
REMARK SMILES CCCCC=CC(C)=O
REMARK SMILES IDX 4 1 3 2 2 3 1 4 5 5 6 6 7 7 9 8 8 9
REMARK H PARENT
REMARK Flexibility Score: inf
ROOT
ATOM      1  C   UNL     1      14.677 -17.012 -13.167  1.00  0.00     0.027 C 
ENDROOT
BRANCH   1   2
ATOM      2  C   UNL     1      15.400 -17.160 -14.514  1.00  0.00     0.004 C 
BRANCH   2   3
ATOM      3  C   UNL     1      16.888 -17.507 -14.349  1.00  0.00    -0.003 C 
ATOM      4  C   UNL     1      17.608 -16.575 -13.374  1.00  0.00     0.004 C 
ENDBRANCH   2   3
ENDBRANCH   1   2
BRANCH   1   5
ATOM      5  C   UNL     1      13.209 -16.760 -13.365  1.00  0.00    -0.023 C 
ATOM      6  C   UNL     1      12.328 -16.958 -12.377  1.00  0.00     0.042 C 
BRANCH   6   7
ATOM      7  C   UNL     1      10.876 -16.736 -12.529  1.00  0.00     0.152 C 
ATOM      8  O   UNL     1      10.314 -17.117 -13.590  1.00  0.00    -0.295 OA
ATOM      9  C   UNL     1      10.047 -16.076 -11.467  1.00  0.00     0.093 C 
ENDBRANCH   6   7
ENDBRANCH   1   5
TORSDOF 4
ENDMDL
MODEL 8
REMARK VINA RESULT:    -2.932     17.814     18.893
REMARK INTER + INTRA:          -3.809
REMARK INTER:                  -3.669
REMARK INTRA:                  -0.140
REMARK UNBOUND:                -0.191
REMARK SMILES CCCCC=CC(C)=O
REMARK SMILES IDX 4 1 3 2 2 3 1 4 5 5 6 6 7 7 9 8 8 9
REMARK H PARENT
REMARK Flexibility Score: inf
ROOT
ATOM      1  C   UNL     1      10.814 -16.616 -12.155  1.00  0.00     0.027 C 
ENDROOT
BRANCH   1   2
ATOM      2  C   UNL     1       9.679 -17.503 -12.690  1.00  0.00     0.004 C 
BRANCH   2   3
ATOM      3  C   UNL     1       8.761 -18.022 -11.573  1.00  0.00    -0.003 C 
ATOM      4  C   UNL     1       8.278 -16.912 -10.639  1.00  0.00     0.004 C 
ENDBRANCH   2   3
ENDBRANCH   1   2
BRANCH   1   5
ATOM      5  C   UNL     1      11.954 -16.549 -13.132  1.00  0.00    -0.023 C 
ATOM      6  C   UNL     1      13.175 -16.993 -12.811  1.00  0.00     0.042 C 
BRANCH   6   7
ATOM      7  C   UNL     1      14.328 -16.935 -13.732  1.00  0.00     0.152 C 
ATOM      8  O   UNL     1      15.488 -17.043 -13.256  1.00  0.00    -0.295 OA
ATOM      9  C   UNL     1      14.167 -16.754 -15.212  1.00  0.00     0.093 C 
ENDBRANCH   6   7
ENDBRANCH   1   5
TORSDOF 4
ENDMDL
MODEL 9
REMARK VINA RESULT:    -2.842     17.778     19.215
REMARK INTER + INTRA:          -3.698
REMARK INTER:                  -3.554
REMARK INTRA:                  -0.143
REMARK UNBOUND:                -0.191
REMARK SMILES CCCCC=CC(C)=O
REMARK SMILES IDX 4 1 3 2 2 3 1 4 5 5 6 6 7 7 9 8 8 9
REMARK H PARENT
REMARK Flexibility Score: inf
ROOT
ATOM      1  C   UNL     1      12.132 -16.683 -13.157  1.00  0.00     0.027 C 
ENDROOT
BRANCH   1   2
ATOM      2  C   UNL     1      13.391 -17.101 -12.381  1.00  0.00     0.004 C 
BRANCH   2   3
ATOM      3  C   UNL     1      14.685 -16.766 -13.136  1.00  0.00    -0.003 C 
ATOM      4  C   UNL     1      14.566 -16.985 -14.644  1.00  0.00     0.004 C 
ENDBRANCH   2   3
ENDBRANCH   1   2
BRANCH   1   5
ATOM      5  C   UNL     1      10.942 -16.584 -12.245  1.00  0.00    -0.023 C 
ATOM      6  C   UNL     1       9.939 -17.469 -12.308  1.00  0.00     0.042 C 
BRANCH   6   7
ATOM      7  C   UNL     1       8.745 -17.404 -11.442  1.00  0.00     0.152 C 
ATOM      8  O   UNL     1       7.821 -18.241 -11.623  1.00  0.00    -0.295 OA
ATOM      9  C   UNL     1       8.592 -16.381 -10.356  1.00  0.00     0.093 C 
ENDBRANCH   6   7
ENDBRANCH   1   5
TORSDOF 4
ENDMDL
