MODEL 1
REMARK VINA RESULT:    -5.476      0.000      0.000
REMARK INTER + INTRA:          -9.478
REMARK INTER:                  -8.037
REMARK INTRA:                  -1.442
REMARK UNBOUND:                -1.442
REMARK SMILES Cc1cc2c(C(C)C)c(O)c(O)c(C=O)c2c(O)c1-c1c(C)cc2c(C(C)C)c(O)c(O)c(C=O)c2c1O
REMARK SMILES IDX 1 1 2 2 3 3 4 4 16 5 13 6 11 7 9 8 5 9 17 10 19 11 20 12
REMARK SMILES IDX 37 13 21 14 36 15 23 16 22 17 24 18 33 19 25 20 31 21 29 22
REMARK SMILES IDX 38 23 34 25 35 26 26 27 27 28 28 29 32 30 30 32 18 34 6 36
REMARK SMILES IDX 7 37 8 38 14 39 15 40 10 41 12 43
REMARK H PARENT 38 24 32 31 30 33 18 35 10 42 12 44
REMARK Flexibility Score: inf
ROOT
ATOM      1  C   UNL     1      66.764  26.241  59.281  1.00  0.00     0.045 C 
ATOM      2  C   UNL     1      65.752  27.195  59.867  1.00  0.00    -0.039 A 
ATOM      3  C   UNL     1      64.504  26.716  60.267  1.00  0.00     0.013 A 
ATOM      4  C   UNL     1      63.522  27.567  60.818  1.00  0.00    -0.006 A 
ATOM      5  C   UNL     1      63.761  28.972  60.820  1.00  0.00     0.039 A 
ATOM      6  C   UNL     1      62.687  29.854  61.141  1.00  0.00     0.072 A 
ATOM      7  C   UNL     1      61.435  29.334  61.518  1.00  0.00     0.169 A 
ATOM      8  C   UNL     1      61.229  27.941  61.580  1.00  0.00     0.162 A 
ATOM      9  C   UNL     1      62.295  27.048  61.330  1.00  0.00     0.008 A 
ATOM     10  C   UNL     1      65.074  29.444  60.523  1.00  0.00     0.132 A 
ATOM     11  C   UNL     1      66.058  28.556  60.038  1.00  0.00     0.031 A 
ENDROOT
BRANCH  11  12
ATOM     12  C   UNL     1      67.414  29.055  59.693  1.00  0.00     0.031 A 
ATOM     13  C   UNL     1      67.674  29.484  58.384  1.00  0.00     0.132 A 
ATOM     14  C   UNL     1      68.409  29.164  60.677  1.00  0.00    -0.039 A 
ATOM     15  C   UNL     1      68.986  29.890  58.009  1.00  0.00     0.039 A 
ATOM     16  C   UNL     1      69.629  29.765  60.353  1.00  0.00     0.013 A 
ATOM     17  C   UNL     1      68.140  28.744  62.101  1.00  0.00     0.045 C 
ATOM     18  C   UNL     1      69.944  30.154  59.033  1.00  0.00    -0.006 A 
ATOM     19  C   UNL     1      69.372  30.042  56.652  1.00  0.00     0.072 A 
ATOM     20  C   UNL     1      71.176  30.807  58.704  1.00  0.00     0.008 A 
ATOM     21  C   UNL     1      70.553  30.727  56.334  1.00  0.00     0.169 A 
ATOM     22  C   UNL     1      71.409  31.178  57.357  1.00  0.00     0.162 A 
BRANCH  13  23
ATOM     23  O   UNL     1      66.587  29.573  57.507  1.00  0.00    -0.507 OA
ATOM     24  H   UNL     1      65.683  29.931  57.787  1.00  0.00     0.293 HD
ENDBRANCH  13  23
BRANCH  19  25
ATOM     25  C   UNL     1      68.669  29.351  55.542  1.00  0.00     0.264 C 
ATOM     26  O   UNL     1      67.908  29.984  54.763  1.00  0.00    -0.298 OA
ENDBRANCH  19  25
BRANCH  20  27
ATOM     27  C   UNL     1      72.246  31.185  59.748  1.00  0.00     0.017 C 
ATOM     28  C   UNL     1      71.780  32.324  60.666  1.00  0.00     0.012 C 
ATOM     29  C   UNL     1      72.818  29.977  60.522  1.00  0.00     0.012 C 
ENDBRANCH  20  27
BRANCH  21  30
ATOM     30  O   UNL     1      70.879  30.905  54.985  1.00  0.00    -0.504 OA
ATOM     31  H   UNL     1      71.527  30.322  54.475  1.00  0.00     0.293 HD
ENDBRANCH  21  30
BRANCH  22  32
ATOM     32  O   UNL     1      72.504  31.996  57.053  1.00  0.00    -0.504 OA
ATOM     33  H   UNL     1      72.428  32.938  56.699  1.00  0.00     0.293 HD
ENDBRANCH  22  32
ENDBRANCH  11  12
BRANCH  10  34
ATOM     34  O   UNL     1      65.411  30.783  60.750  1.00  0.00    -0.507 OA
ATOM     35  H   UNL     1      66.338  31.096  61.008  1.00  0.00     0.293 HD
ENDBRANCH  10  34
BRANCH   9  36
ATOM     36  C   UNL     1      62.111  25.543  61.599  1.00  0.00     0.017 C 
ATOM     37  C   UNL     1      61.208  24.901  60.541  1.00  0.00     0.012 C 
ATOM     38  C   UNL     1      61.620  25.224  63.025  1.00  0.00     0.012 C 
ENDBRANCH   9  36
BRANCH   6  39
ATOM     39  C   UNL     1      62.796  31.322  60.959  1.00  0.00     0.264 C 
ATOM     40  O   UNL     1      62.470  31.868  59.873  1.00  0.00    -0.298 OA
ENDBRANCH   6  39
BRANCH   8  41
ATOM     41  O   UNL     1      59.961  27.417  61.845  1.00  0.00    -0.504 OA
ATOM     42  H   UNL     1      59.763  26.707  62.536  1.00  0.00     0.293 HD
ENDBRANCH   8  41
BRANCH   7  43
ATOM     43  O   UNL     1      60.405  30.233  61.823  1.00  0.00    -0.504 OA
ATOM     44  H   UNL     1      60.546  31.176  62.157  1.00  0.00     0.293 HD
ENDBRANCH   7  43
TORSDOF 11
ENDMDL
MODEL 2
REMARK VINA RESULT:    -5.372      3.812     11.486
REMARK INTER + INTRA:          -9.326
REMARK INTER:                  -8.164
REMARK INTRA:                  -1.162
REMARK UNBOUND:                -1.442
REMARK SMILES Cc1cc2c(C(C)C)c(O)c(O)c(C=O)c2c(O)c1-c1c(C)cc2c(C(C)C)c(O)c(O)c(C=O)c2c1O
REMARK SMILES IDX 1 1 2 2 3 3 4 4 16 5 13 6 11 7 9 8 5 9 17 10 19 11 20 12
REMARK SMILES IDX 37 13 21 14 36 15 23 16 22 17 24 18 33 19 25 20 31 21 29 22
REMARK SMILES IDX 38 23 34 25 35 26 26 27 27 28 28 29 32 30 30 32 18 34 6 36
REMARK SMILES IDX 7 37 8 38 14 39 15 40 10 41 12 43
REMARK H PARENT 38 24 32 31 30 33 18 35 10 42 12 44
REMARK Flexibility Score: inf
ROOT
ATOM      1  C   UNL     1      61.832  24.016  60.736  1.00  0.00     0.045 C 
ATOM      2  C   UNL     1      61.961  25.516  60.834  1.00  0.00    -0.039 A 
ATOM      3  C   UNL     1      63.210  26.113  60.653  1.00  0.00     0.013 A 
ATOM      4  C   UNL     1      63.385  27.512  60.738  1.00  0.00    -0.006 A 
ATOM      5  C   UNL     1      62.288  28.311  61.169  1.00  0.00     0.039 A 
ATOM      6  C   UNL     1      62.518  29.680  61.494  1.00  0.00     0.072 A 
ATOM      7  C   UNL     1      63.796  30.242  61.321  1.00  0.00     0.169 A 
ATOM      8  C   UNL     1      64.860  29.459  60.827  1.00  0.00     0.162 A 
ATOM      9  C   UNL     1      64.641  28.120  60.437  1.00  0.00     0.008 A 
ATOM     10  C   UNL     1      60.992  27.717  61.236  1.00  0.00     0.132 A 
ATOM     11  C   UNL     1      60.838  26.323  61.081  1.00  0.00     0.031 A 
ENDROOT
BRANCH  11  12
ATOM     12  C   UNL     1      59.494  25.701  61.189  1.00  0.00     0.031 A 
ATOM     13  C   UNL     1      59.097  25.134  62.408  1.00  0.00     0.132 A 
ATOM     14  C   UNL     1      58.598  25.737  60.109  1.00  0.00    -0.039 A 
ATOM     15  C   UNL     1      57.847  24.460  62.514  1.00  0.00     0.039 A 
ATOM     16  C   UNL     1      57.293  25.267  60.285  1.00  0.00     0.013 A 
ATOM     17  C   UNL     1      58.989  26.376  58.799  1.00  0.00     0.045 C 
ATOM     18  C   UNL     1      56.881  24.637  61.480  1.00  0.00    -0.006 A 
ATOM     19  C   UNL     1      57.531  23.621  63.614  1.00  0.00     0.072 A 
ATOM     20  C   UNL     1      55.534  24.190  61.680  1.00  0.00     0.008 A 
ATOM     21  C   UNL     1      56.203  23.229  63.834  1.00  0.00     0.169 A 
ATOM     22  C   UNL     1      55.197  23.582  62.914  1.00  0.00     0.162 A 
BRANCH  13  23
ATOM     23  O   UNL     1      59.933  25.332  63.513  1.00  0.00    -0.507 OA
ATOM     24  H   UNL     1      59.627  25.800  64.356  1.00  0.00     0.293 HD
ENDBRANCH  13  23
BRANCH  19  25
ATOM     25  C   UNL     1      58.574  22.984  64.455  1.00  0.00     0.264 C 
ATOM     26  O   UNL     1      58.717  21.732  64.474  1.00  0.00    -0.298 OA
ENDBRANCH  19  25
BRANCH  20  27
ATOM     27  C   UNL     1      54.407  24.388  60.646  1.00  0.00     0.017 C 
ATOM     28  C   UNL     1      54.059  25.871  60.447  1.00  0.00     0.012 C 
ATOM     29  C   UNL     1      54.639  23.636  59.318  1.00  0.00     0.012 C 
ENDBRANCH  20  27
BRANCH  21  30
ATOM     30  O   UNL     1      55.916  22.444  64.956  1.00  0.00    -0.504 OA
ATOM     31  H   UNL     1      56.170  21.471  65.049  1.00  0.00     0.293 HD
ENDBRANCH  21  30
BRANCH  22  32
ATOM     32  O   UNL     1      53.852  23.329  63.207  1.00  0.00    -0.504 OA
ATOM     33  H   UNL     1      53.480  22.416  63.426  1.00  0.00     0.293 HD
ENDBRANCH  22  32
ENDBRANCH  11  12
BRANCH  10  34
ATOM     34  O   UNL     1      59.858  28.517  61.417  1.00  0.00    -0.507 OA
ATOM     35  H   UNL     1      58.971  28.350  60.959  1.00  0.00     0.293 HD
ENDBRANCH  10  34
BRANCH   9  36
ATOM     36  C   UNL     1      65.756  27.343  59.712  1.00  0.00     0.017 C 
ATOM     37  C   UNL     1      67.060  27.373  60.516  1.00  0.00     0.012 C 
ATOM     38  C   UNL     1      65.982  27.796  58.257  1.00  0.00     0.012 C 
ENDBRANCH   9  36
BRANCH   6  39
ATOM     39  C   UNL     1      61.482  30.516  62.149  1.00  0.00     0.264 C 
ATOM     40  O   UNL     1      60.884  31.425  61.516  1.00  0.00    -0.298 OA
ENDBRANCH   6  39
BRANCH   8  41
ATOM     41  O   UNL     1      66.156  29.978  60.757  1.00  0.00    -0.504 OA
ATOM     42  H   UNL     1      66.736  30.189  61.555  1.00  0.00     0.293 HD
ENDBRANCH   8  41
BRANCH   7  43
ATOM     43  O   UNL     1      63.982  31.590  61.656  1.00  0.00    -0.504 OA
ATOM     44  H   UNL     1      64.835  32.107  61.500  1.00  0.00     0.293 HD
ENDBRANCH   7  43
TORSDOF 11
ENDMDL
MODEL 3
REMARK VINA RESULT:    -5.173      9.292     10.855
REMARK INTER + INTRA:          -9.034
REMARK INTER:                  -7.823
REMARK INTRA:                  -1.211
REMARK UNBOUND:                -1.442
REMARK SMILES Cc1cc2c(C(C)C)c(O)c(O)c(C=O)c2c(O)c1-c1c(C)cc2c(C(C)C)c(O)c(O)c(C=O)c2c1O
REMARK SMILES IDX 1 1 2 2 3 3 4 4 16 5 13 6 11 7 9 8 5 9 17 10 19 11 20 12
REMARK SMILES IDX 37 13 21 14 36 15 23 16 22 17 24 18 33 19 25 20 31 21 29 22
REMARK SMILES IDX 38 23 34 25 35 26 26 27 27 28 28 29 32 30 30 32 18 34 6 36
REMARK SMILES IDX 7 37 8 38 14 39 15 40 10 41 12 43
REMARK H PARENT 38 24 32 31 30 33 18 35 10 42 12 44
REMARK Flexibility Score: inf
ROOT
ATOM      1  C   UNL     1      65.637  28.337  50.685  1.00  0.00     0.045 C 
ATOM      2  C   UNL     1      64.144  28.208  50.506  1.00  0.00    -0.039 A 
ATOM      3  C   UNL     1      63.542  26.954  50.620  1.00  0.00     0.013 A 
ATOM      4  C   UNL     1      62.150  26.779  50.458  1.00  0.00    -0.006 A 
ATOM      5  C   UNL     1      61.371  27.887  50.016  1.00  0.00     0.039 A 
ATOM      6  C   UNL     1      60.021  27.664  49.614  1.00  0.00     0.072 A 
ATOM      7  C   UNL     1      59.455  26.381  49.722  1.00  0.00     0.169 A 
ATOM      8  C   UNL     1      60.214  25.305  50.225  1.00  0.00     0.162 A 
ATOM      9  C   UNL     1      61.531  25.514  50.692  1.00  0.00     0.008 A 
ATOM     10  C   UNL     1      61.964  29.185  50.017  1.00  0.00     0.132 A 
ATOM     11  C   UNL     1      63.347  29.337  50.249  1.00  0.00     0.031 A 
ENDROOT
BRANCH  11  12
ATOM     12  C   UNL     1      63.971  30.684  50.211  1.00  0.00     0.031 A 
ATOM     13  C   UNL     1      64.530  31.147  49.012  1.00  0.00     0.132 A 
ATOM     14  C   UNL     1      63.943  31.519  51.339  1.00  0.00    -0.039 A 
ATOM     15  C   UNL     1      65.204  32.401  48.971  1.00  0.00     0.039 A 
ATOM     16  C   UNL     1      64.413  32.831  51.232  1.00  0.00     0.013 A 
ATOM     17  C   UNL     1      63.312  31.057  52.629  1.00  0.00     0.045 C 
ATOM     18  C   UNL     1      65.035  33.309  50.058  1.00  0.00    -0.006 A 
ATOM     19  C   UNL     1      66.037  32.777  47.884  1.00  0.00     0.072 A 
ATOM     20  C   UNL     1      65.482  34.664  49.930  1.00  0.00     0.008 A 
ATOM     21  C   UNL     1      66.429  34.114  47.735  1.00  0.00     0.169 A 
ATOM     22  C   UNL     1      66.083  35.068  48.712  1.00  0.00     0.162 A 
BRANCH  13  23
ATOM     23  O   UNL     1      64.324  30.374  47.863  1.00  0.00    -0.507 OA
ATOM     24  H   UNL     1      63.818  30.714  47.056  1.00  0.00     0.293 HD
ENDBRANCH  13  23
BRANCH  19  25
ATOM     25  C   UNL     1      66.667  31.781  46.983  1.00  0.00     0.264 C 
ATOM     26  O   UNL     1      67.920  31.666  46.919  1.00  0.00    -0.298 OA
ENDBRANCH  19  25
BRANCH  20  27
ATOM     27  C   UNL     1      65.293  35.732  51.025  1.00  0.00     0.017 C 
ATOM     28  C   UNL     1      63.810  35.968  51.353  1.00  0.00     0.012 C 
ATOM     29  C   UNL     1      66.162  35.501  52.280  1.00  0.00     0.012 C 
ENDBRANCH  20  27
BRANCH  21  30
ATOM     30  O   UNL     1      67.207  34.462  46.626  1.00  0.00    -0.504 OA
ATOM     31  H   UNL     1      68.212  34.564  46.646  1.00  0.00     0.293 HD
ENDBRANCH  21  30
BRANCH  22  32
ATOM     32  O   UNL     1      66.336  36.428  48.492  1.00  0.00    -0.504 OA
ATOM     33  H   UNL     1      65.637  37.094  48.198  1.00  0.00     0.293 HD
ENDBRANCH  22  32
ENDBRANCH  11  12
BRANCH  10  34
ATOM     34  O   UNL     1      61.171  30.322  49.826  1.00  0.00    -0.507 OA
ATOM     35  H   UNL     1      61.136  30.848  48.961  1.00  0.00     0.293 HD
ENDBRANCH  10  34
BRANCH   9  36
ATOM     36  C   UNL     1      62.272  24.381  51.424  1.00  0.00     0.017 C 
ATOM     37  C   UNL     1      62.229  23.082  50.613  1.00  0.00     0.012 C 
ATOM     38  C   UNL     1      61.790  24.158  52.870  1.00  0.00     0.012 C 
ENDBRANCH   9  36
BRANCH   6  39
ATOM     39  C   UNL     1      59.217  28.717  48.946  1.00  0.00     0.264 C 
ATOM     40  O   UNL     1      58.302  29.324  49.560  1.00  0.00    -0.298 OA
ENDBRANCH   6  39
BRANCH   8  41
ATOM     41  O   UNL     1      59.697  24.006  50.233  1.00  0.00    -0.504 OA
ATOM     42  H   UNL     1      60.167  23.196  49.856  1.00  0.00     0.293 HD
ENDBRANCH   8  41
BRANCH   7  43
ATOM     43  O   UNL     1      58.127  26.202  49.313  1.00  0.00    -0.504 OA
ATOM     44  H   UNL     1      57.438  25.665  49.818  1.00  0.00     0.293 HD
ENDBRANCH   7  43
TORSDOF 11
ENDMDL
MODEL 4
REMARK VINA RESULT:    -5.111      5.521     10.015
REMARK INTER + INTRA:          -8.943
REMARK INTER:                  -7.428
REMARK INTRA:                  -1.514
REMARK UNBOUND:                -1.442
REMARK SMILES Cc1cc2c(C(C)C)c(O)c(O)c(C=O)c2c(O)c1-c1c(C)cc2c(C(C)C)c(O)c(O)c(C=O)c2c1O
REMARK SMILES IDX 1 1 2 2 3 3 4 4 16 5 13 6 11 7 9 8 5 9 17 10 19 11 20 12
REMARK SMILES IDX 37 13 21 14 36 15 23 16 22 17 24 18 33 19 25 20 31 21 29 22
REMARK SMILES IDX 38 23 34 25 35 26 26 27 27 28 28 29 32 30 30 32 18 34 6 36
REMARK SMILES IDX 7 37 8 38 14 39 15 40 10 41 12 43
REMARK H PARENT 38 24 32 31 30 33 18 35 10 42 12 44
REMARK Flexibility Score: inf
ROOT
ATOM      1  C   UNL     1      60.391  31.483  62.500  1.00  0.00     0.045 C 
ATOM      2  C   UNL     1      60.914  31.677  61.098  1.00  0.00    -0.039 A 
ATOM      3  C   UNL     1      61.236  32.961  60.655  1.00  0.00     0.013 A 
ATOM      4  C   UNL     1      61.725  33.197  59.351  1.00  0.00    -0.006 A 
ATOM      5  C   UNL     1      61.743  32.116  58.424  1.00  0.00     0.039 A 
ATOM      6  C   UNL     1      61.998  32.392  57.048  1.00  0.00     0.072 A 
ATOM      7  C   UNL     1      62.296  33.703  56.634  1.00  0.00     0.169 A 
ATOM      8  C   UNL     1      62.344  34.755  57.572  1.00  0.00     0.162 A 
ATOM      9  C   UNL     1      62.160  34.495  58.948  1.00  0.00     0.008 A 
ATOM     10  C   UNL     1      61.529  30.792  58.910  1.00  0.00     0.132 A 
ATOM     11  C   UNL     1      61.104  30.581  60.240  1.00  0.00     0.031 A 
ENDROOT
BRANCH  11  12
ATOM     12  C   UNL     1      60.845  29.205  60.734  1.00  0.00     0.031 A 
ATOM     13  C   UNL     1      59.542  28.690  60.677  1.00  0.00     0.132 A 
ATOM     14  C   UNL     1      61.897  28.397  61.192  1.00  0.00    -0.039 A 
ATOM     15  C   UNL     1      59.253  27.405  61.219  1.00  0.00     0.039 A 
ATOM     16  C   UNL     1      61.644  27.062  61.520  1.00  0.00     0.013 A 
ATOM     17  C   UNL     1      63.313  28.916  61.227  1.00  0.00     0.045 C 
ATOM     18  C   UNL     1      60.336  26.530  61.529  1.00  0.00    -0.006 A 
ATOM     19  C   UNL     1      57.924  26.967  61.458  1.00  0.00     0.072 A 
ATOM     20  C   UNL     1      60.076  25.152  61.826  1.00  0.00     0.008 A 
ATOM     21  C   UNL     1      57.670  25.610  61.697  1.00  0.00     0.169 A 
ATOM     22  C   UNL     1      58.735  24.694  61.799  1.00  0.00     0.162 A 
BRANCH  13  23
ATOM     23  O   UNL     1      58.579  29.447  60.000  1.00  0.00    -0.507 OA
ATOM     24  H   UNL     1      57.878  29.033  59.399  1.00  0.00     0.293 HD
ENDBRANCH  13  23
BRANCH  19  25
ATOM     25  C   UNL     1      56.796  27.912  61.645  1.00  0.00     0.264 C 
ATOM     26  O   UNL     1      55.934  28.081  60.742  1.00  0.00    -0.298 OA
ENDBRANCH  19  25
BRANCH  20  27
ATOM     27  C   UNL     1      61.182  24.119  62.117  1.00  0.00     0.017 C 
ATOM     28  C   UNL     1      62.166  23.981  60.946  1.00  0.00     0.012 C 
ATOM     29  C   UNL     1      61.882  24.320  63.478  1.00  0.00     0.012 C 
ENDBRANCH  20  27
BRANCH  21  30
ATOM     30  O   UNL     1      56.344  25.201  61.878  1.00  0.00    -0.504 OA
ATOM     31  H   UNL     1      56.061  24.439  62.478  1.00  0.00     0.293 HD
ENDBRANCH  21  30
BRANCH  22  32
ATOM     32  O   UNL     1      58.481  23.320  61.880  1.00  0.00    -0.504 OA
ATOM     33  H   UNL     1      58.899  22.628  61.275  1.00  0.00     0.293 HD
ENDBRANCH  22  32
ENDBRANCH  11  12
BRANCH  10  34
ATOM     34  O   UNL     1      61.777  29.688  58.086  1.00  0.00    -0.507 OA
ATOM     35  H   UNL     1      62.698  29.302  57.922  1.00  0.00     0.293 HD
ENDBRANCH  10  34
BRANCH   9  36
ATOM     36  C   UNL     1      62.416  35.612  59.977  1.00  0.00     0.017 C 
ATOM     37  C   UNL     1      63.463  35.179  61.009  1.00  0.00     0.012 C 
ATOM     38  C   UNL     1      61.136  36.130  60.660  1.00  0.00     0.012 C 
ENDBRANCH   9  36
BRANCH   6  39
ATOM     39  C   UNL     1      61.824  31.361  55.995  1.00  0.00     0.264 C 
ATOM     40  O   UNL     1      62.817  30.836  55.428  1.00  0.00    -0.298 OA
ENDBRANCH   6  39
BRANCH   8  41
ATOM     41  O   UNL     1      62.529  36.076  57.155  1.00  0.00    -0.504 OA
ATOM     42  H   UNL     1      63.019  36.352  56.317  1.00  0.00     0.293 HD
ENDBRANCH   8  41
BRANCH   7  43
ATOM     43  O   UNL     1      62.537  33.933  55.274  1.00  0.00    -0.504 OA
ATOM     44  H   UNL     1      61.817  34.054  54.576  1.00  0.00     0.293 HD
ENDBRANCH   7  43
TORSDOF 11
ENDMDL
MODEL 5
REMARK VINA RESULT:    -5.105      9.330     10.946
REMARK INTER + INTRA:          -8.934
REMARK INTER:                  -7.727
REMARK INTRA:                  -1.207
REMARK UNBOUND:                -1.442
REMARK SMILES Cc1cc2c(C(C)C)c(O)c(O)c(C=O)c2c(O)c1-c1c(C)cc2c(C(C)C)c(O)c(O)c(C=O)c2c1O
REMARK SMILES IDX 1 1 2 2 3 3 4 4 16 5 13 6 11 7 9 8 5 9 17 10 19 11 20 12
REMARK SMILES IDX 37 13 21 14 36 15 23 16 22 17 24 18 33 19 25 20 31 21 29 22
REMARK SMILES IDX 38 23 34 25 35 26 26 27 27 28 28 29 32 30 30 32 18 34 6 36
REMARK SMILES IDX 7 37 8 38 14 39 15 40 10 41 12 43
REMARK H PARENT 38 24 32 31 30 33 18 35 10 42 12 44
REMARK Flexibility Score: inf
ROOT
ATOM      1  C   UNL     1      65.484  26.450  50.130  1.00  0.00     0.045 C 
ATOM      2  C   UNL     1      64.012  26.786  50.121  1.00  0.00    -0.039 A 
ATOM      3  C   UNL     1      63.082  25.813  50.492  1.00  0.00     0.013 A 
ATOM      4  C   UNL     1      61.694  26.075  50.496  1.00  0.00    -0.006 A 
ATOM      5  C   UNL     1      61.232  27.313  49.964  1.00  0.00     0.039 A 
ATOM      6  C   UNL     1      59.836  27.488  49.737  1.00  0.00     0.072 A 
ATOM      7  C   UNL     1      58.929  26.476  50.102  1.00  0.00     0.169 A 
ATOM      8  C   UNL     1      59.391  25.282  50.692  1.00  0.00     0.162 A 
ATOM      9  C   UNL     1      60.761  25.113  50.987  1.00  0.00     0.008 A 
ATOM     10  C   UNL     1      62.184  28.343  49.700  1.00  0.00     0.132 A 
ATOM     11  C   UNL     1      63.567  28.071  49.768  1.00  0.00     0.031 A 
ENDROOT
BRANCH  11  12
ATOM     12  C   UNL     1      64.557  29.133  49.456  1.00  0.00     0.031 A 
ATOM     13  C   UNL     1      65.127  29.184  48.176  1.00  0.00     0.132 A 
ATOM     14  C   UNL     1      64.872  30.119  50.404  1.00  0.00    -0.039 A 
ATOM     15  C   UNL     1      66.137  30.143  47.878  1.00  0.00     0.039 A 
ATOM     16  C   UNL     1      65.700  31.184  50.034  1.00  0.00     0.013 A 
ATOM     17  C   UNL     1      64.242  30.107  51.774  1.00  0.00     0.045 C 
ATOM     18  C   UNL     1      66.337  31.234  48.775  1.00  0.00    -0.006 A 
ATOM     19  C   UNL     1      66.950  30.048  46.719  1.00  0.00     0.072 A 
ATOM     20  C   UNL     1      67.154  32.342  48.378  1.00  0.00     0.008 A 
ATOM     21  C   UNL     1      67.708  31.153  46.306  1.00  0.00     0.169 A 
ATOM     22  C   UNL     1      67.744  32.322  47.090  1.00  0.00     0.162 A 
BRANCH  13  23
ATOM     23  O   UNL     1      64.606  28.324  47.204  1.00  0.00    -0.507 OA
ATOM     24  H   UNL     1      64.478  27.332  47.359  1.00  0.00     0.293 HD
ENDBRANCH  13  23
BRANCH  19  25
ATOM     25  C   UNL     1      67.179  28.765  46.009  1.00  0.00     0.264 C 
ATOM     26  O   UNL     1      68.327  28.248  45.959  1.00  0.00    -0.298 OA
ENDBRANCH  19  25
BRANCH  20  27
ATOM     27  C   UNL     1      67.382  33.591  49.252  1.00  0.00     0.017 C 
ATOM     28  C   UNL     1      66.085  34.382  49.479  1.00  0.00     0.012 C 
ATOM     29  C   UNL     1      68.155  33.306  50.558  1.00  0.00     0.012 C 
ENDBRANCH  20  27
BRANCH  21  30
ATOM     30  O   UNL     1      68.460  31.045  45.130  1.00  0.00    -0.504 OA
ATOM     31  H   UNL     1      69.113  30.299  44.939  1.00  0.00     0.293 HD
ENDBRANCH  21  30
BRANCH  22  32
ATOM     32  O   UNL     1      68.369  33.478  46.607  1.00  0.00    -0.504 OA
ATOM     33  H   UNL     1      68.086  34.418  46.843  1.00  0.00     0.293 HD
ENDBRANCH  22  32
ENDBRANCH  11  12
BRANCH  10  34
ATOM     34  O   UNL     1      61.755  29.643  49.411  1.00  0.00    -0.507 OA
ATOM     35  H   UNL     1      60.861  29.863  48.990  1.00  0.00     0.293 HD
ENDBRANCH  10  34
BRANCH   9  36
ATOM     36  C   UNL     1      61.222  23.898  51.813  1.00  0.00     0.017 C 
ATOM     37  C   UNL     1      61.971  24.341  53.074  1.00  0.00     0.012 C 
ATOM     38  C   UNL     1      62.039  22.873  51.004  1.00  0.00     0.012 C 
ENDBRANCH   9  36
BRANCH   6  39
ATOM     39  C   UNL     1      59.301  28.655  48.993  1.00  0.00     0.264 C 
ATOM     40  O   UNL     1      58.655  29.561  49.581  1.00  0.00    -0.298 OA
ENDBRANCH   6  39
BRANCH   8  41
ATOM     41  O   UNL     1      58.511  24.228  50.956  1.00  0.00    -0.504 OA
ATOM     42  H   UNL     1      57.831  23.868  50.302  1.00  0.00     0.293 HD
ENDBRANCH   8  41
BRANCH   7  43
ATOM     43  O   UNL     1      57.565  26.685  49.858  1.00  0.00    -0.504 OA
ATOM     44  H   UNL     1      57.115  27.588  49.848  1.00  0.00     0.293 HD
ENDBRANCH   7  43
TORSDOF 11
ENDMDL
MODEL 6
REMARK VINA RESULT:    -5.061      9.781     14.462
REMARK INTER + INTRA:          -8.870
REMARK INTER:                  -7.451
REMARK INTRA:                  -1.419
REMARK UNBOUND:                -1.442
REMARK SMILES Cc1cc2c(C(C)C)c(O)c(O)c(C=O)c2c(O)c1-c1c(C)cc2c(C(C)C)c(O)c(O)c(C=O)c2c1O
REMARK SMILES IDX 1 1 2 2 3 3 4 4 16 5 13 6 11 7 9 8 5 9 17 10 19 11 20 12
REMARK SMILES IDX 37 13 21 14 36 15 23 16 22 17 24 18 33 19 25 20 31 21 29 22
REMARK SMILES IDX 38 23 34 25 35 26 26 27 27 28 28 29 32 30 30 32 18 34 6 36
REMARK SMILES IDX 7 37 8 38 14 39 15 40 10 41 12 43
REMARK H PARENT 38 24 32 31 30 33 18 35 10 42 12 44
REMARK Flexibility Score: inf
ROOT
ATOM      1  C   UNL     1      63.197  22.880  51.812  1.00  0.00     0.045 C 
ATOM      2  C   UNL     1      62.336  23.970  51.224  1.00  0.00    -0.039 A 
ATOM      3  C   UNL     1      62.927  25.162  50.799  1.00  0.00     0.013 A 
ATOM      4  C   UNL     1      62.166  26.214  50.246  1.00  0.00    -0.006 A 
ATOM      5  C   UNL     1      60.745  26.111  50.265  1.00  0.00     0.039 A 
ATOM      6  C   UNL     1      59.966  27.259  49.939  1.00  0.00     0.072 A 
ATOM      7  C   UNL     1      60.598  28.451  49.537  1.00  0.00     0.169 A 
ATOM      8  C   UNL     1      62.004  28.521  49.455  1.00  0.00     0.162 A 
ATOM      9  C   UNL     1      62.793  27.378  49.709  1.00  0.00     0.008 A 
ATOM     10  C   UNL     1      60.154  24.853  50.586  1.00  0.00     0.132 A 
ATOM     11  C   UNL     1      60.950  23.795  51.075  1.00  0.00     0.031 A 
ENDROOT
BRANCH  11  12
ATOM     12  C   UNL     1      60.328  22.498  51.445  1.00  0.00     0.031 A 
ATOM     13  C   UNL     1      59.892  22.298  52.763  1.00  0.00     0.132 A 
ATOM     14  C   UNL     1      60.113  21.504  50.478  1.00  0.00    -0.039 A 
ATOM     15  C   UNL     1      59.368  21.036  53.162  1.00  0.00     0.039 A 
ATOM     16  C   UNL     1      59.402  20.351  50.826  1.00  0.00     0.013 A 
ATOM     17  C   UNL     1      60.539  21.711  49.046  1.00  0.00     0.045 C 
ATOM     18  C   UNL     1      59.001  20.094  52.155  1.00  0.00    -0.006 A 
ATOM     19  C   UNL     1      59.196  20.686  54.526  1.00  0.00     0.072 A 
ATOM     20  C   UNL     1      58.238  18.934  52.510  1.00  0.00     0.008 A 
ATOM     21  C   UNL     1      58.405  19.581  54.869  1.00  0.00     0.169 A 
ATOM     22  C   UNL     1      57.862  18.757  53.864  1.00  0.00     0.162 A 
BRANCH  13  23
ATOM     23  O   UNL     1      59.918  23.401  53.624  1.00  0.00    -0.507 OA
ATOM     24  H   UNL     1      59.092  23.753  54.090  1.00  0.00     0.293 HD
ENDBRANCH  13  23
BRANCH  19  25
ATOM     25  C   UNL     1      59.964  21.335  55.618  1.00  0.00     0.264 C 
ATOM     26  O   UNL     1      59.416  22.160  56.395  1.00  0.00    -0.298 OA
ENDBRANCH  19  25
BRANCH  20  27
ATOM     27  C   UNL     1      57.747  17.890  51.486  1.00  0.00     0.017 C 
ATOM     28  C   UNL     1      56.743  18.488  50.489  1.00  0.00     0.012 C 
ATOM     29  C   UNL     1      58.885  17.102  50.803  1.00  0.00     0.012 C 
ENDBRANCH  20  27
BRANCH  21  30
ATOM     30  O   UNL     1      58.213  19.291  56.225  1.00  0.00    -0.504 OA
ATOM     31  H   UNL     1      57.698  18.494  56.569  1.00  0.00     0.293 HD
ENDBRANCH  21  30
BRANCH  22  32
ATOM     32  O   UNL     1      56.948  17.749  54.194  1.00  0.00    -0.504 OA
ATOM     33  H   UNL     1      56.945  16.828  53.780  1.00  0.00     0.293 HD
ENDBRANCH  22  32
ENDBRANCH  11  12
BRANCH  10  34
ATOM     34  O   UNL     1      58.786  24.643  50.382  1.00  0.00    -0.507 OA
ATOM     35  H   UNL     1      58.122  25.385  50.196  1.00  0.00     0.293 HD
ENDBRANCH  10  34
BRANCH   9  36
ATOM     36  C   UNL     1      64.305  27.413  49.418  1.00  0.00     0.017 C 
ATOM     37  C   UNL     1      65.064  28.133  50.537  1.00  0.00     0.012 C 
ATOM     38  C   UNL     1      64.656  27.996  48.036  1.00  0.00     0.012 C 
ENDBRANCH   9  36
BRANCH   6  39
ATOM     39  C   UNL     1      58.497  27.295  50.142  1.00  0.00     0.264 C 
ATOM     40  O   UNL     1      57.999  27.687  51.230  1.00  0.00    -0.298 OA
ENDBRANCH   6  39
BRANCH   8  41
ATOM     41  O   UNL     1      62.643  29.730  49.165  1.00  0.00    -0.504 OA
ATOM     42  H   UNL     1      62.451  30.304  48.357  1.00  0.00     0.293 HD
ENDBRANCH   8  41
BRANCH   7  43
ATOM     43  O   UNL     1      59.797  29.558  49.230  1.00  0.00    -0.504 OA
ATOM     44  H   UNL     1      60.146  30.442  48.887  1.00  0.00     0.293 HD
ENDBRANCH   7  43
TORSDOF 11
ENDMDL
MODEL 7
REMARK VINA RESULT:    -5.032      9.232     11.110
REMARK INTER + INTRA:          -8.827
REMARK INTER:                  -7.304
REMARK INTRA:                  -1.523
REMARK UNBOUND:                -1.442
REMARK SMILES Cc1cc2c(C(C)C)c(O)c(O)c(C=O)c2c(O)c1-c1c(C)cc2c(C(C)C)c(O)c(O)c(C=O)c2c1O
REMARK SMILES IDX 1 1 2 2 3 3 4 4 16 5 13 6 11 7 9 8 5 9 17 10 19 11 20 12
REMARK SMILES IDX 37 13 21 14 36 15 23 16 22 17 24 18 33 19 25 20 31 21 29 22
REMARK SMILES IDX 38 23 34 25 35 26 26 27 27 28 28 29 32 30 30 32 18 34 6 36
REMARK SMILES IDX 7 37 8 38 14 39 15 40 10 41 12 43
REMARK H PARENT 38 24 32 31 30 33 18 35 10 42 12 44
REMARK Flexibility Score: inf
ROOT
ATOM      1  C   UNL     1      58.509  29.843  48.596  1.00  0.00     0.045 C 
ATOM      2  C   UNL     1      58.286  29.341  50.002  1.00  0.00    -0.039 A 
ATOM      3  C   UNL     1      56.986  29.100  50.450  1.00  0.00     0.013 A 
ATOM      4  C   UNL     1      56.724  28.634  51.756  1.00  0.00    -0.006 A 
ATOM      5  C   UNL     1      57.805  28.555  52.681  1.00  0.00     0.039 A 
ATOM      6  C   UNL     1      57.518  28.324  54.059  1.00  0.00     0.072 A 
ATOM      7  C   UNL     1      56.192  28.109  54.477  1.00  0.00     0.169 A 
ATOM      8  C   UNL     1      55.137  28.121  53.543  1.00  0.00     0.162 A 
ATOM      9  C   UNL     1      55.403  28.281  52.165  1.00  0.00     0.008 A 
ATOM     10  C   UNL     1      59.138  28.684  52.190  1.00  0.00     0.132 A 
ATOM     11  C   UNL     1      59.371  29.088  50.858  1.00  0.00     0.031 A 
ENDROOT
BRANCH  11  12
ATOM     12  C   UNL     1      60.759  29.260  50.359  1.00  0.00     0.031 A 
ATOM     13  C   UNL     1      61.355  30.528  50.413  1.00  0.00     0.132 A 
ATOM     14  C   UNL     1      61.498  28.158  49.900  1.00  0.00    -0.039 A 
ATOM     15  C   UNL     1      62.654  30.735  49.866  1.00  0.00     0.039 A 
ATOM     16  C   UNL     1      62.845  28.327  49.567  1.00  0.00     0.013 A 
ATOM     17  C   UNL     1      60.891  26.777  49.869  1.00  0.00     0.045 C 
ATOM     18  C   UNL     1      63.458  29.599  49.554  1.00  0.00    -0.006 A 
ATOM     19  C   UNL     1      63.173  32.033  49.624  1.00  0.00     0.072 A 
ATOM     20  C   UNL     1      64.848  29.772  49.253  1.00  0.00     0.008 A 
ATOM     21  C   UNL     1      64.543  32.202  49.380  1.00  0.00     0.169 A 
ATOM     22  C   UNL     1      65.390  31.081  49.277  1.00  0.00     0.162 A 
BRANCH  13  23
ATOM     23  O   UNL     1      60.662  31.537  51.091  1.00  0.00    -0.507 OA
ATOM     24  H   UNL     1      60.001  32.151  50.634  1.00  0.00     0.293 HD
ENDBRANCH  13  23
BRANCH  19  25
ATOM     25  C   UNL     1      62.300  33.219  49.437  1.00  0.00     0.264 C 
ATOM     26  O   UNL     1      62.189  34.090  50.340  1.00  0.00    -0.298 OA
ENDBRANCH  19  25
BRANCH  20  27
ATOM     27  C   UNL     1      65.809  28.603  48.960  1.00  0.00     0.017 C 
ATOM     28  C   UNL     1      65.958  27.661  50.165  1.00  0.00     0.012 C 
ATOM     29  C   UNL     1      65.505  27.858  47.643  1.00  0.00     0.012 C 
ENDBRANCH  20  27
BRANCH  21  30
ATOM     30  O   UNL     1      65.034  33.499  49.195  1.00  0.00    -0.504 OA
ATOM     31  H   UNL     1      65.880  33.853  49.618  1.00  0.00     0.293 HD
ENDBRANCH  21  30
BRANCH  22  32
ATOM     32  O   UNL     1      66.777  31.248  49.191  1.00  0.00    -0.504 OA
ATOM     33  H   UNL     1      67.445  30.764  49.773  1.00  0.00     0.293 HD
ENDBRANCH  22  32
ENDBRANCH  11  12
BRANCH  10  34
ATOM     34  O   UNL     1      60.227  28.374  53.013  1.00  0.00    -0.507 OA
ATOM     35  H   UNL     1      60.608  29.004  53.707  1.00  0.00     0.293 HD
ENDBRANCH  10  34
BRANCH   9  36
ATOM     36  C   UNL     1      54.270  28.089  51.140  1.00  0.00     0.017 C 
ATOM     37  C   UNL     1      54.616  26.982  50.139  1.00  0.00     0.012 C 
ATOM     38  C   UNL     1      53.858  29.387  50.421  1.00  0.00     0.012 C 
ENDBRANCH   9  36
BRANCH   6  39
ATOM     39  C   UNL     1      58.560  28.440  55.108  1.00  0.00     0.264 C 
ATOM     40  O   UNL     1      59.026  27.419  55.678  1.00  0.00    -0.298 OA
ENDBRANCH   6  39
BRANCH   8  41
ATOM     41  O   UNL     1      53.807  28.019  53.964  1.00  0.00    -0.504 OA
ATOM     42  H   UNL     1      53.062  27.607  53.422  1.00  0.00     0.293 HD
ENDBRANCH   8  41
BRANCH   7  43
ATOM     43  O   UNL     1      55.951  27.890  55.840  1.00  0.00    -0.504 OA
ATOM     44  H   UNL     1      55.988  26.988  56.292  1.00  0.00     0.293 HD
ENDBRANCH   7  43
TORSDOF 11
ENDMDL
MODEL 8
REMARK VINA RESULT:    -4.994      9.812     12.550
REMARK INTER + INTRA:          -8.772
REMARK INTER:                  -7.408
REMARK INTRA:                  -1.364
REMARK UNBOUND:                -1.442
REMARK SMILES Cc1cc2c(C(C)C)c(O)c(O)c(C=O)c2c(O)c1-c1c(C)cc2c(C(C)C)c(O)c(O)c(C=O)c2c1O
REMARK SMILES IDX 1 1 2 2 3 3 4 4 16 5 13 6 11 7 9 8 5 9 17 10 19 11 20 12
REMARK SMILES IDX 37 13 21 14 36 15 23 16 22 17 24 18 33 19 25 20 31 21 29 22
REMARK SMILES IDX 38 23 34 25 35 26 26 27 27 28 28 29 32 30 30 32 18 34 6 36
REMARK SMILES IDX 7 37 8 38 14 39 15 40 10 41 12 43
REMARK H PARENT 38 24 32 31 30 33 18 35 10 42 12 44
REMARK Flexibility Score: inf
ROOT
ATOM      1  C   UNL     1      60.901  23.824  54.510  1.00  0.00     0.045 C 
ATOM      2  C   UNL     1      60.328  22.675  53.717  1.00  0.00    -0.039 A 
ATOM      3  C   UNL     1      59.677  21.635  54.384  1.00  0.00     0.013 A 
ATOM      4  C   UNL     1      59.128  20.536  53.689  1.00  0.00    -0.006 A 
ATOM      5  C   UNL     1      59.381  20.416  52.292  1.00  0.00     0.039 A 
ATOM      6  C   UNL     1      59.046  19.198  51.632  1.00  0.00     0.072 A 
ATOM      7  C   UNL     1      58.412  18.162  52.342  1.00  0.00     0.169 A 
ATOM      8  C   UNL     1      58.104  18.316  53.709  1.00  0.00     0.162 A 
ATOM      9  C   UNL     1      58.365  19.538  54.367  1.00  0.00     0.008 A 
ATOM     10  C   UNL     1      59.938  21.533  51.599  1.00  0.00     0.132 A 
ATOM     11  C   UNL     1      60.419  22.649  52.316  1.00  0.00     0.031 A 
ENDROOT
BRANCH  11  12
ATOM     12  C   UNL     1      61.034  23.794  51.596  1.00  0.00     0.031 A 
ATOM     13  C   UNL     1      60.234  24.888  51.238  1.00  0.00     0.132 A 
ATOM     14  C   UNL     1      62.413  23.819  51.335  1.00  0.00    -0.039 A 
ATOM     15  C   UNL     1      60.782  25.960  50.477  1.00  0.00     0.039 A 
ATOM     16  C   UNL     1      62.984  24.969  50.781  1.00  0.00     0.013 A 
ATOM     17  C   UNL     1      63.300  22.670  51.746  1.00  0.00     0.045 C 
ATOM     18  C   UNL     1      62.200  26.062  50.356  1.00  0.00    -0.006 A 
ATOM     19  C   UNL     1      59.965  26.928  49.838  1.00  0.00     0.072 A 
ATOM     20  C   UNL     1      62.784  27.258  49.825  1.00  0.00     0.008 A 
ATOM     21  C   UNL     1      60.534  28.120  49.367  1.00  0.00     0.169 A 
ATOM     22  C   UNL     1      61.927  28.317  49.435  1.00  0.00     0.162 A 
BRANCH  13  23
ATOM     23  O   UNL     1      58.923  24.915  51.726  1.00  0.00    -0.507 OA
ATOM     24  H   UNL     1      58.392  24.076  51.921  1.00  0.00     0.293 HD
ENDBRANCH  13  23
BRANCH  19  25
ATOM     25  C   UNL     1      58.549  26.665  49.481  1.00  0.00     0.264 C 
ATOM     26  O   UNL     1      57.607  27.181  50.139  1.00  0.00    -0.298 OA
ENDBRANCH  19  25
BRANCH  20  27
ATOM     27  C   UNL     1      64.304  27.486  49.708  1.00  0.00     0.017 C 
ATOM     28  C   UNL     1      64.725  27.849  48.276  1.00  0.00     0.012 C 
ATOM     29  C   UNL     1      64.876  28.448  50.771  1.00  0.00     0.012 C 
ENDBRANCH  20  27
BRANCH  21  30
ATOM     30  O   UNL     1      59.694  29.077  48.787  1.00  0.00    -0.504 OA
ATOM     31  H   UNL     1      59.995  29.997  48.498  1.00  0.00     0.293 HD
ENDBRANCH  21  30
BRANCH  22  32
ATOM     32  O   UNL     1      62.481  29.561  49.112  1.00  0.00    -0.504 OA
ATOM     33  H   UNL     1      63.277  29.967  49.581  1.00  0.00     0.293 HD
ENDBRANCH  22  32
ENDBRANCH  11  12
BRANCH  10  34
ATOM     34  O   UNL     1      59.976  21.547  50.200  1.00  0.00    -0.507 OA
ATOM     35  H   UNL     1      59.182  21.329  49.611  1.00  0.00     0.293 HD
ENDBRANCH  10  34
BRANCH   9  36
ATOM     36  C   UNL     1      57.840  19.763  55.797  1.00  0.00     0.017 C 
ATOM     37  C   UNL     1      58.603  18.900  56.806  1.00  0.00     0.012 C 
ATOM     38  C   UNL     1      56.317  19.575  55.934  1.00  0.00     0.012 C 
ENDBRANCH   9  36
BRANCH   6  39
ATOM     39  C   UNL     1      59.470  18.918  50.238  1.00  0.00     0.264 C 
ATOM     40  O   UNL     1      58.625  18.814  49.310  1.00  0.00    -0.298 OA
ENDBRANCH   6  39
BRANCH   8  41
ATOM     41  O   UNL     1      57.576  17.253  54.447  1.00  0.00    -0.504 OA
ATOM     42  H   UNL     1      57.353  16.344  54.070  1.00  0.00     0.293 HD
ENDBRANCH   8  41
BRANCH   7  43
ATOM     43  O   UNL     1      58.103  16.978  51.658  1.00  0.00    -0.504 OA
ATOM     44  H   UNL     1      57.521  16.239  52.024  1.00  0.00     0.293 HD
ENDBRANCH   7  43
TORSDOF 11
ENDMDL
