MODEL 1
REMARK VINA RESULT:    -4.811      0.000      0.000
REMARK INTER + INTRA:         -17.620
REMARK INTER:                 -12.687
REMARK INTRA:                  -4.933
REMARK UNBOUND:                -4.933
REMARK SMILES CCCCCCCCCCCCCCCCCCCCCCCCCCCCCC(=O)[O-]
REMARK SMILES IDX 16 1 17 2 18 3 19 4 20 5 21 6 22 7 23 8 24 9 25 10 26 11
REMARK SMILES IDX 27 12 28 13 29 14 30 15 31 16 32 17 15 18 14 19 13 20 12 21
REMARK SMILES IDX 11 22 10 23 9 24 8 25 7 26 6 27 5 28 4 29 3 30 2 31 1 32
REMARK H PARENT
REMARK Flexibility Score: inf
ROOT
ATOM      1  C   UNL     1     -21.376  19.752 -25.358  1.00  0.00     0.000 C 
ENDROOT
BRANCH   1   2
ATOM      2  C   UNL     1     -20.489  18.492 -25.318  1.00  0.00     0.000 C 
BRANCH   2   3
ATOM      3  C   UNL     1     -21.252  17.159 -25.454  1.00  0.00     0.000 C 
BRANCH   3   4
ATOM      4  C   UNL     1     -20.992  16.143 -24.324  1.00  0.00     0.000 C 
BRANCH   4   5
ATOM      5  C   UNL     1     -20.484  16.755 -23.003  1.00  0.00     0.000 C 
BRANCH   5   6
ATOM      6  C   UNL     1     -21.578  17.041 -21.954  1.00  0.00     0.000 C 
BRANCH   6   7
ATOM      7  C   UNL     1     -22.992  16.576 -22.349  1.00  0.00     0.000 C 
BRANCH   7   8
ATOM      8  C   UNL     1     -24.013  16.547 -21.194  1.00  0.00     0.000 C 
BRANCH   8   9
ATOM      9  C   UNL     1     -24.608  15.148 -20.925  1.00  0.00     0.000 C 
BRANCH   9  10
ATOM     10  C   UNL     1     -23.849  14.385 -19.826  1.00  0.00     0.000 C 
BRANCH  10  11
ATOM     11  C   UNL     1     -22.766  13.451 -20.410  1.00  0.00     0.000 C 
BRANCH  11  12
ATOM     12  C   UNL     1     -21.330  13.893 -20.081  1.00  0.00     0.000 C 
BRANCH  12  13
ATOM     13  C   UNL     1     -20.277  13.200 -20.963  1.00  0.00     0.006 C 
BRANCH  13  14
ATOM     14  C   UNL     1     -20.730  13.090 -22.425  1.00  0.00     0.053 C 
BRANCH  14  15
ATOM     15  C   UNL     1     -19.645  12.539 -23.300  1.00  0.00     0.041 C 
ATOM     16  O   UNL     1     -19.553  12.902 -24.502  1.00  0.00    -0.550 OA
ATOM     17  O   UNL     1     -18.758  11.597 -22.796  1.00  0.00    -0.550 OA
ENDBRANCH  14  15
ENDBRANCH  13  14
ENDBRANCH  12  13
ENDBRANCH  11  12
ENDBRANCH  10  11
ENDBRANCH   9  10
ENDBRANCH   8   9
ENDBRANCH   7   8
ENDBRANCH   6   7
ENDBRANCH   5   6
ENDBRANCH   4   5
ENDBRANCH   3   4
ENDBRANCH   2   3
ENDBRANCH   1   2
BRANCH   1  18
ATOM     18  C   UNL     1     -22.676  19.658 -24.536  1.00  0.00     0.000 C 
BRANCH  18  19
ATOM     19  C   UNL     1     -22.886  20.800 -23.524  1.00  0.00     0.000 C 
BRANCH  19  20
ATOM     20  C   UNL     1     -23.124  20.292 -22.095  1.00  0.00     0.000 C 
BRANCH  20  21
ATOM     21  C   UNL     1     -24.555  20.604 -21.629  1.00  0.00     0.000 C 
BRANCH  21  22
ATOM     22  C   UNL     1     -24.592  21.611 -20.467  1.00  0.00     0.000 C 
BRANCH  22  23
ATOM     23  C   UNL     1     -23.217  22.227 -20.173  1.00  0.00     0.000 C 
BRANCH  23  24
ATOM     24  C   UNL     1     -23.361  23.566 -19.433  1.00  0.00    -0.000 C 
BRANCH  24  25
ATOM     25  C   UNL     1     -22.681  24.731 -20.173  1.00  0.00    -0.000 C 
BRANCH  25  26
ATOM     26  C   UNL     1     -22.426  24.419 -21.658  1.00  0.00    -0.000 C 
BRANCH  26  27
ATOM     27  C   UNL     1     -23.405  25.150 -22.589  1.00  0.00    -0.000 C 
BRANCH  27  28
ATOM     28  C   UNL     1     -24.382  24.193 -23.293  1.00  0.00    -0.000 C 
BRANCH  28  29
ATOM     29  C   UNL     1     -24.088  24.042 -24.797  1.00  0.00    -0.000 C 
BRANCH  29  30
ATOM     30  C   UNL     1     -22.985  24.973 -25.341  1.00  0.00    -0.000 C 
BRANCH  30  31
ATOM     31  C   UNL     1     -21.767  24.254 -25.948  1.00  0.00    -0.003 C 
ATOM     32  C   UNL     1     -20.868  23.613 -24.892  1.00  0.00     0.004 C 
ENDBRANCH  30  31
ENDBRANCH  29  30
ENDBRANCH  28  29
ENDBRANCH  27  28
ENDBRANCH  26  27
ENDBRANCH  25  26
ENDBRANCH  24  25
ENDBRANCH  23  24
ENDBRANCH  22  23
ENDBRANCH  21  22
ENDBRANCH  20  21
ENDBRANCH  19  20
ENDBRANCH  18  19
ENDBRANCH   1  18
TORSDOF 28
ENDMDL
MODEL 2
REMARK VINA RESULT:    -4.752      1.649      3.525
REMARK INTER + INTRA:         -17.464
REMARK INTER:                 -12.662
REMARK INTRA:                  -4.802
REMARK UNBOUND:                -4.933
REMARK SMILES CCCCCCCCCCCCCCCCCCCCCCCCCCCCCC(=O)[O-]
REMARK SMILES IDX 16 1 17 2 18 3 19 4 20 5 21 6 22 7 23 8 24 9 25 10 26 11
REMARK SMILES IDX 27 12 28 13 29 14 30 15 31 16 32 17 15 18 14 19 13 20 12 21
REMARK SMILES IDX 11 22 10 23 9 24 8 25 7 26 6 27 5 28 4 29 3 30 2 31 1 32
REMARK H PARENT
REMARK Flexibility Score: inf
ROOT
ATOM      1  C   UNL     1     -19.793  17.707 -24.381  1.00  0.00     0.000 C 
ENDROOT
BRANCH   1   2
ATOM      2  C   UNL     1     -20.397  16.397 -23.840  1.00  0.00     0.000 C 
BRANCH   2   3
ATOM      3  C   UNL     1     -20.302  16.225 -22.310  1.00  0.00     0.000 C 
BRANCH   3   4
ATOM      4  C   UNL     1     -21.561  16.655 -21.530  1.00  0.00     0.000 C 
BRANCH   4   5
ATOM      5  C   UNL     1     -22.886  16.070 -22.057  1.00  0.00     0.000 C 
BRANCH   5   6
ATOM      6  C   UNL     1     -24.117  16.340 -21.168  1.00  0.00     0.000 C 
BRANCH   6   7
ATOM      7  C   UNL     1     -24.980  15.102 -20.860  1.00  0.00     0.000 C 
BRANCH   7   8
ATOM      8  C   UNL     1     -24.580  14.332 -19.586  1.00  0.00     0.000 C 
BRANCH   8   9
ATOM      9  C   UNL     1     -23.623  13.149 -19.849  1.00  0.00     0.000 C 
BRANCH   9  10
ATOM     10  C   UNL     1     -22.257  13.331 -19.164  1.00  0.00     0.000 C 
BRANCH  10  11
ATOM     11  C   UNL     1     -21.084  13.192 -20.159  1.00  0.00     0.000 C 
BRANCH  11  12
ATOM     12  C   UNL     1     -21.515  12.707 -21.553  1.00  0.00     0.000 C 
BRANCH  12  13
ATOM     13  C   UNL     1     -20.350  12.114 -22.364  1.00  0.00     0.006 C 
BRANCH  13  14
ATOM     14  C   UNL     1     -20.197  12.790 -23.734  1.00  0.00     0.053 C 
BRANCH  14  15
ATOM     15  C   UNL     1     -20.269  11.796 -24.852  1.00  0.00     0.041 C 
ATOM     16  O   UNL     1     -21.280  11.055 -24.978  1.00  0.00    -0.550 OA
ATOM     17  O   UNL     1     -19.205  11.664 -25.735  1.00  0.00    -0.550 OA
ENDBRANCH  14  15
ENDBRANCH  13  14
ENDBRANCH  12  13
ENDBRANCH  11  12
ENDBRANCH  10  11
ENDBRANCH   9  10
ENDBRANCH   8   9
ENDBRANCH   7   8
ENDBRANCH   6   7
ENDBRANCH   5   6
ENDBRANCH   4   5
ENDBRANCH   3   4
ENDBRANCH   2   3
ENDBRANCH   1   2
BRANCH   1  18
ATOM     18  C   UNL     1     -20.723  18.521 -25.302  1.00  0.00     0.000 C 
BRANCH  18  19
ATOM     19  C   UNL     1     -22.049  17.825 -25.661  1.00  0.00     0.000 C 
BRANCH  19  20
ATOM     20  C   UNL     1     -23.248  18.393 -24.889  1.00  0.00     0.000 C 
BRANCH  20  21
ATOM     21  C   UNL     1     -22.808  19.515 -23.935  1.00  0.00     0.000 C 
BRANCH  21  22
ATOM     22  C   UNL     1     -23.691  19.605 -22.680  1.00  0.00     0.000 C 
BRANCH  22  23
ATOM     23  C   UNL     1     -22.892  19.965 -21.418  1.00  0.00     0.000 C 
BRANCH  23  24
ATOM     24  C   UNL     1     -23.319  21.336 -20.870  1.00  0.00    -0.000 C 
BRANCH  24  25
ATOM     25  C   UNL     1     -24.584  21.881 -21.554  1.00  0.00    -0.000 C 
BRANCH  25  26
ATOM     26  C   UNL     1     -24.381  23.292 -22.134  1.00  0.00    -0.000 C 
BRANCH  26  27
ATOM     27  C   UNL     1     -22.911  23.736 -22.103  1.00  0.00    -0.000 C 
BRANCH  27  28
ATOM     28  C   UNL     1     -22.688  24.994 -21.246  1.00  0.00    -0.000 C 
BRANCH  28  29
ATOM     29  C   UNL     1     -23.755  25.162 -20.148  1.00  0.00    -0.000 C 
BRANCH  29  30
ATOM     30  C   UNL     1     -23.204  25.219 -18.709  1.00  0.00    -0.000 C 
BRANCH  30  31
ATOM     31  C   UNL     1     -23.612  24.038 -17.810  1.00  0.00    -0.003 C 
ATOM     32  C   UNL     1     -24.957  23.428 -18.203  1.00  0.00     0.004 C 
ENDBRANCH  30  31
ENDBRANCH  29  30
ENDBRANCH  28  29
ENDBRANCH  27  28
ENDBRANCH  26  27
ENDBRANCH  25  26
ENDBRANCH  24  25
ENDBRANCH  23  24
ENDBRANCH  22  23
ENDBRANCH  21  22
ENDBRANCH  20  21
ENDBRANCH  19  20
ENDBRANCH  18  19
ENDBRANCH   1  18
TORSDOF 28
ENDMDL
MODEL 3
REMARK VINA RESULT:    -4.747      3.678      9.138
REMARK INTER + INTRA:         -17.450
REMARK INTER:                 -13.017
REMARK INTRA:                  -4.433
REMARK UNBOUND:                -4.933
REMARK SMILES CCCCCCCCCCCCCCCCCCCCCCCCCCCCCC(=O)[O-]
REMARK SMILES IDX 16 1 17 2 18 3 19 4 20 5 21 6 22 7 23 8 24 9 25 10 26 11
REMARK SMILES IDX 27 12 28 13 29 14 30 15 31 16 32 17 15 18 14 19 13 20 12 21
REMARK SMILES IDX 11 22 10 23 9 24 8 25 7 26 6 27 5 28 4 29 3 30 2 31 1 32
REMARK H PARENT
REMARK Flexibility Score: inf
ROOT
ATOM      1  C   UNL     1     -23.052  19.013 -21.626  1.00  0.00     0.000 C 
ENDROOT
BRANCH   1   2
ATOM      2  C   UNL     1     -23.006  20.506 -21.247  1.00  0.00     0.000 C 
BRANCH   2   3
ATOM      3  C   UNL     1     -24.229  21.327 -21.704  1.00  0.00     0.000 C 
BRANCH   3   4
ATOM      4  C   UNL     1     -25.111  21.869 -20.561  1.00  0.00     0.000 C 
BRANCH   4   5
ATOM      5  C   UNL     1     -24.338  22.388 -19.332  1.00  0.00     0.000 C 
BRANCH   5   6
ATOM      6  C   UNL     1     -23.950  23.879 -19.388  1.00  0.00     0.000 C 
BRANCH   6   7
ATOM      7  C   UNL     1     -22.495  24.156 -19.813  1.00  0.00     0.000 C 
BRANCH   7   8
ATOM      8  C   UNL     1     -22.336  24.795 -21.207  1.00  0.00     0.000 C 
BRANCH   8   9
ATOM      9  C   UNL     1     -23.667  25.271 -21.829  1.00  0.00     0.000 C 
BRANCH   9  10
ATOM     10  C   UNL     1     -23.917  24.667 -23.222  1.00  0.00     0.000 C 
BRANCH  10  11
ATOM     11  C   UNL     1     -24.215  25.752 -24.281  1.00  0.00     0.000 C 
BRANCH  11  12
ATOM     12  C   UNL     1     -23.748  25.375 -25.696  1.00  0.00     0.000 C 
BRANCH  12  13
ATOM     13  C   UNL     1     -22.281  25.754 -25.960  1.00  0.00     0.006 C 
BRANCH  13  14
ATOM     14  C   UNL     1     -21.733  25.093 -27.232  1.00  0.00     0.053 C 
BRANCH  14  15
ATOM     15  C   UNL     1     -20.639  25.908 -27.852  1.00  0.00     0.041 C 
ATOM     16  O   UNL     1     -20.920  26.880 -28.602  1.00  0.00    -0.550 OA
ATOM     17  O   UNL     1     -19.310  25.572 -27.629  1.00  0.00    -0.550 OA
ENDBRANCH  14  15
ENDBRANCH  13  14
ENDBRANCH  12  13
ENDBRANCH  11  12
ENDBRANCH  10  11
ENDBRANCH   9  10
ENDBRANCH   8   9
ENDBRANCH   7   8
ENDBRANCH   6   7
ENDBRANCH   5   6
ENDBRANCH   4   5
ENDBRANCH   3   4
ENDBRANCH   2   3
ENDBRANCH   1   2
BRANCH   1  18
ATOM     18  C   UNL     1     -24.407  18.520 -22.171  1.00  0.00     0.000 C 
BRANCH  18  19
ATOM     19  C   UNL     1     -24.592  16.992 -22.160  1.00  0.00     0.000 C 
BRANCH  19  20
ATOM     20  C   UNL     1     -24.002  16.329 -20.907  1.00  0.00     0.000 C 
BRANCH  20  21
ATOM     21  C   UNL     1     -24.634  14.951 -20.662  1.00  0.00     0.000 C 
BRANCH  21  22
ATOM     22  C   UNL     1     -23.650  13.795 -20.909  1.00  0.00     0.000 C 
BRANCH  22  23
ATOM     23  C   UNL     1     -22.204  14.159 -20.539  1.00  0.00     0.000 C 
BRANCH  23  24
ATOM     24  C   UNL     1     -21.300  14.152 -21.782  1.00  0.00    -0.000 C 
BRANCH  24  25
ATOM     25  C   UNL     1     -20.255  15.280 -21.763  1.00  0.00    -0.000 C 
BRANCH  25  26
ATOM     26  C   UNL     1     -20.655  16.471 -22.652  1.00  0.00    -0.000 C 
BRANCH  26  27
ATOM     27  C   UNL     1     -21.558  16.054 -23.823  1.00  0.00    -0.000 C 
BRANCH  27  28
ATOM     28  C   UNL     1     -21.673  17.145 -24.901  1.00  0.00    -0.000 C 
BRANCH  28  29
ATOM     29  C   UNL     1     -20.598  18.239 -24.759  1.00  0.00    -0.000 C 
BRANCH  29  30
ATOM     30  C   UNL     1     -20.985  19.611 -25.347  1.00  0.00    -0.000 C 
BRANCH  30  31
ATOM     31  C   UNL     1     -22.381  20.121 -24.944  1.00  0.00    -0.003 C 
ATOM     32  C   UNL     1     -22.445  21.643 -24.819  1.00  0.00     0.004 C 
ENDBRANCH  30  31
ENDBRANCH  29  30
ENDBRANCH  28  29
ENDBRANCH  27  28
ENDBRANCH  26  27
ENDBRANCH  25  26
ENDBRANCH  24  25
ENDBRANCH  23  24
ENDBRANCH  22  23
ENDBRANCH  21  22
ENDBRANCH  20  21
ENDBRANCH  19  20
ENDBRANCH  18  19
ENDBRANCH   1  18
TORSDOF 28
ENDMDL
MODEL 4
REMARK VINA RESULT:    -4.738      3.810      9.585
REMARK INTER + INTRA:         -17.426
REMARK INTER:                 -13.245
REMARK INTRA:                  -4.182
REMARK UNBOUND:                -4.933
REMARK SMILES CCCCCCCCCCCCCCCCCCCCCCCCCCCCCC(=O)[O-]
REMARK SMILES IDX 16 1 17 2 18 3 19 4 20 5 21 6 22 7 23 8 24 9 25 10 26 11
REMARK SMILES IDX 27 12 28 13 29 14 30 15 31 16 32 17 15 18 14 19 13 20 12 21
REMARK SMILES IDX 11 22 10 23 9 24 8 25 7 26 6 27 5 28 4 29 3 30 2 31 1 32
REMARK H PARENT
REMARK Flexibility Score: inf
ROOT
ATOM      1  C   UNL     1     -20.630  18.638 -25.073  1.00  0.00     0.000 C 
ENDROOT
BRANCH   1   2
ATOM      2  C   UNL     1     -21.529  19.821 -25.482  1.00  0.00     0.000 C 
BRANCH   2   3
ATOM      3  C   UNL     1     -22.213  20.550 -24.308  1.00  0.00     0.000 C 
BRANCH   3   4
ATOM      4  C   UNL     1     -23.046  19.644 -23.379  1.00  0.00     0.000 C 
BRANCH   4   5
ATOM      5  C   UNL     1     -22.945  19.981 -21.878  1.00  0.00     0.000 C 
BRANCH   5   6
ATOM      6  C   UNL     1     -23.952  21.036 -21.378  1.00  0.00     0.000 C 
BRANCH   6   7
ATOM      7  C   UNL     1     -23.346  22.146 -20.498  1.00  0.00     0.000 C 
BRANCH   7   8
ATOM      8  C   UNL     1     -23.076  23.477 -21.226  1.00  0.00     0.000 C 
BRANCH   8   9
ATOM      9  C   UNL     1     -23.668  23.538 -22.651  1.00  0.00     0.000 C 
BRANCH   9  10
ATOM     10  C   UNL     1     -23.072  24.682 -23.490  1.00  0.00     0.000 C 
BRANCH  10  11
ATOM     11  C   UNL     1     -22.714  24.227 -24.922  1.00  0.00     0.000 C 
BRANCH  11  12
ATOM     12  C   UNL     1     -21.203  24.047 -25.151  1.00  0.00     0.000 C 
BRANCH  12  13
ATOM     13  C   UNL     1     -20.853  23.764 -26.621  1.00  0.00     0.006 C 
BRANCH  13  14
ATOM     14  C   UNL     1     -19.846  24.778 -27.181  1.00  0.00     0.053 C 
BRANCH  14  15
ATOM     15  C   UNL     1     -20.483  26.113 -27.425  1.00  0.00     0.041 C 
ATOM     16  O   UNL     1     -19.873  27.172 -27.122  1.00  0.00    -0.550 OA
ATOM     17  O   UNL     1     -21.765  26.184 -27.954  1.00  0.00    -0.550 OA
ENDBRANCH  14  15
ENDBRANCH  13  14
ENDBRANCH  12  13
ENDBRANCH  11  12
ENDBRANCH  10  11
ENDBRANCH   9  10
ENDBRANCH   8   9
ENDBRANCH   7   8
ENDBRANCH   6   7
ENDBRANCH   5   6
ENDBRANCH   4   5
ENDBRANCH   3   4
ENDBRANCH   2   3
ENDBRANCH   1   2
BRANCH   1  18
ATOM     18  C   UNL     1     -21.177  17.246 -25.445  1.00  0.00     0.000 C 
BRANCH  18  19
ATOM     19  C   UNL     1     -21.116  16.203 -24.313  1.00  0.00     0.000 C 
BRANCH  19  20
ATOM     20  C   UNL     1     -20.506  16.763 -23.020  1.00  0.00     0.000 C 
BRANCH  20  21
ATOM     21  C   UNL     1     -21.485  16.625 -21.844  1.00  0.00     0.000 C 
BRANCH  21  22
ATOM     22  C   UNL     1     -22.915  16.292 -22.300  1.00  0.00     0.000 C 
BRANCH  22  23
ATOM     23  C   UNL     1     -23.908  16.218 -21.131  1.00  0.00     0.000 C 
BRANCH  23  24
ATOM     24  C   UNL     1     -24.389  14.776 -20.909  1.00  0.00    -0.000 C 
BRANCH  24  25
ATOM     25  C   UNL     1     -24.498  14.409 -19.419  1.00  0.00    -0.000 C 
BRANCH  25  26
ATOM     26  C   UNL     1     -23.337  13.519 -18.942  1.00  0.00    -0.000 C 
BRANCH  26  27
ATOM     27  C   UNL     1     -22.445  13.045 -20.100  1.00  0.00    -0.000 C 
BRANCH  27  28
ATOM     28  C   UNL     1     -21.046  13.685 -20.072  1.00  0.00    -0.000 C 
BRANCH  28  29
ATOM     29  C   UNL     1     -20.153  13.217 -21.236  1.00  0.00    -0.000 C 
BRANCH  29  30
ATOM     30  C   UNL     1     -20.681  11.990 -22.007  1.00  0.00    -0.000 C 
BRANCH  30  31
ATOM     31  C   UNL     1     -20.733  12.156 -23.536  1.00  0.00    -0.003 C 
ATOM     32  C   UNL     1     -19.495  12.851 -24.102  1.00  0.00     0.004 C 
ENDBRANCH  30  31
ENDBRANCH  29  30
ENDBRANCH  28  29
ENDBRANCH  27  28
ENDBRANCH  26  27
ENDBRANCH  25  26
ENDBRANCH  24  25
ENDBRANCH  23  24
ENDBRANCH  22  23
ENDBRANCH  21  22
ENDBRANCH  20  21
ENDBRANCH  19  20
ENDBRANCH  18  19
ENDBRANCH   1  18
TORSDOF 28
ENDMDL
MODEL 5
REMARK VINA RESULT:    -4.728      3.551      9.717
REMARK INTER + INTRA:         -17.401
REMARK INTER:                 -13.140
REMARK INTRA:                  -4.261
REMARK UNBOUND:                -4.933
REMARK SMILES CCCCCCCCCCCCCCCCCCCCCCCCCCCCCC(=O)[O-]
REMARK SMILES IDX 16 1 17 2 18 3 19 4 20 5 21 6 22 7 23 8 24 9 25 10 26 11
REMARK SMILES IDX 27 12 28 13 29 14 30 15 31 16 32 17 15 18 14 19 13 20 12 21
REMARK SMILES IDX 11 22 10 23 9 24 8 25 7 26 6 27 5 28 4 29 3 30 2 31 1 32
REMARK H PARENT
REMARK Flexibility Score: inf
ROOT
ATOM      1  C   UNL     1     -21.612  20.302 -25.789  1.00  0.00     0.000 C 
ENDROOT
BRANCH   1   2
ATOM      2  C   UNL     1     -21.736  21.685 -25.121  1.00  0.00     0.000 C 
BRANCH   2   3
ATOM      3  C   UNL     1     -23.126  21.996 -24.530  1.00  0.00     0.000 C 
BRANCH   3   4
ATOM      4  C   UNL     1     -23.137  22.292 -23.017  1.00  0.00     0.000 C 
BRANCH   4   5
ATOM      5  C   UNL     1     -24.533  22.295 -22.363  1.00  0.00     0.000 C 
BRANCH   5   6
ATOM      6  C   UNL     1     -24.534  22.161 -20.827  1.00  0.00     0.000 C 
BRANCH   6   7
ATOM      7  C   UNL     1     -23.177  22.433 -20.151  1.00  0.00     0.000 C 
BRANCH   7   8
ATOM      8  C   UNL     1     -23.003  23.859 -19.592  1.00  0.00     0.000 C 
BRANCH   8   9
ATOM      9  C   UNL     1     -22.466  24.871 -20.628  1.00  0.00     0.000 C 
BRANCH   9  10
ATOM     10  C   UNL     1     -23.591  25.668 -21.313  1.00  0.00     0.000 C 
BRANCH  10  11
ATOM     11  C   UNL     1     -23.218  26.077 -22.755  1.00  0.00     0.000 C 
BRANCH  11  12
ATOM     12  C   UNL     1     -24.412  26.071 -23.725  1.00  0.00     0.000 C 
BRANCH  12  13
ATOM     13  C   UNL     1     -24.044  25.536 -25.118  1.00  0.00     0.006 C 
BRANCH  13  14
ATOM     14  C   UNL     1     -22.530  25.571 -25.370  1.00  0.00     0.053 C 
BRANCH  14  15
ATOM     15  C   UNL     1     -22.200  25.256 -26.798  1.00  0.00     0.041 C 
ATOM     16  O   UNL     1     -21.147  24.625 -27.081  1.00  0.00    -0.550 OA
ATOM     17  O   UNL     1     -23.037  25.692 -27.816  1.00  0.00    -0.550 OA
ENDBRANCH  14  15
ENDBRANCH  13  14
ENDBRANCH  12  13
ENDBRANCH  11  12
ENDBRANCH  10  11
ENDBRANCH   9  10
ENDBRANCH   8   9
ENDBRANCH   7   8
ENDBRANCH   6   7
ENDBRANCH   5   6
ENDBRANCH   4   5
ENDBRANCH   3   4
ENDBRANCH   2   3
ENDBRANCH   1   2
BRANCH   1  18
ATOM     18  C   UNL     1     -20.766  19.276 -25.010  1.00  0.00     0.000 C 
BRANCH  18  19
ATOM     19  C   UNL     1     -21.413  17.888 -24.855  1.00  0.00     0.000 C 
BRANCH  19  20
ATOM     20  C   UNL     1     -22.875  17.857 -25.321  1.00  0.00     0.000 C 
BRANCH  20  21
ATOM     21  C   UNL     1     -23.827  17.620 -24.138  1.00  0.00     0.000 C 
BRANCH  21  22
ATOM     22  C   UNL     1     -23.613  18.628 -22.996  1.00  0.00     0.000 C 
BRANCH  22  23
ATOM     23  C   UNL     1     -23.582  17.959 -21.614  1.00  0.00     0.000 C 
BRANCH  23  24
ATOM     24  C   UNL     1     -23.211  16.472 -21.730  1.00  0.00    -0.000 C 
BRANCH  24  25
ATOM     25  C   UNL     1     -21.714  16.214 -21.490  1.00  0.00    -0.000 C 
BRANCH  25  26
ATOM     26  C   UNL     1     -21.315  14.753 -21.762  1.00  0.00    -0.000 C 
BRANCH  26  27
ATOM     27  C   UNL     1     -21.669  13.819 -20.595  1.00  0.00    -0.000 C 
BRANCH  27  28
ATOM     28  C   UNL     1     -22.708  12.753 -20.983  1.00  0.00    -0.000 C 
BRANCH  28  29
ATOM     29  C   UNL     1     -23.870  12.660 -19.976  1.00  0.00    -0.000 C 
BRANCH  29  30
ATOM     30  C   UNL     1     -24.220  13.982 -19.263  1.00  0.00    -0.000 C 
BRANCH  30  31
ATOM     31  C   UNL     1     -24.434  13.864 -17.743  1.00  0.00    -0.003 C 
ATOM     32  C   UNL     1     -23.949  12.530 -17.176  1.00  0.00     0.004 C 
ENDBRANCH  30  31
ENDBRANCH  29  30
ENDBRANCH  28  29
ENDBRANCH  27  28
ENDBRANCH  26  27
ENDBRANCH  25  26
ENDBRANCH  24  25
ENDBRANCH  23  24
ENDBRANCH  22  23
ENDBRANCH  21  22
ENDBRANCH  20  21
ENDBRANCH  19  20
ENDBRANCH  18  19
ENDBRANCH   1  18
TORSDOF 28
ENDMDL
MODEL 6
REMARK VINA RESULT:    -4.713      3.498      9.517
REMARK INTER + INTRA:         -17.359
REMARK INTER:                 -13.104
REMARK INTRA:                  -4.255
REMARK UNBOUND:                -4.933
REMARK SMILES CCCCCCCCCCCCCCCCCCCCCCCCCCCCCC(=O)[O-]
REMARK SMILES IDX 16 1 17 2 18 3 19 4 20 5 21 6 22 7 23 8 24 9 25 10 26 11
REMARK SMILES IDX 27 12 28 13 29 14 30 15 31 16 32 17 15 18 14 19 13 20 12 21
REMARK SMILES IDX 11 22 10 23 9 24 8 25 7 26 6 27 5 28 4 29 3 30 2 31 1 32
REMARK H PARENT
REMARK Flexibility Score: inf
ROOT
ATOM      1  C   UNL     1     -21.409  19.938 -25.450  1.00  0.00     0.000 C 
ENDROOT
BRANCH   1   2
ATOM      2  C   UNL     1     -22.731  19.905 -24.659  1.00  0.00     0.000 C 
BRANCH   2   3
ATOM      3  C   UNL     1     -22.830  20.940 -23.521  1.00  0.00     0.000 C 
BRANCH   3   4
ATOM      4  C   UNL     1     -23.729  20.522 -22.340  1.00  0.00     0.000 C 
BRANCH   4   5
ATOM      5  C   UNL     1     -23.172  20.867 -20.944  1.00  0.00     0.000 C 
BRANCH   5   6
ATOM      6  C   UNL     1     -23.965  21.942 -20.173  1.00  0.00     0.000 C 
BRANCH   6   7
ATOM      7  C   UNL     1     -23.170  23.218 -19.836  1.00  0.00     0.000 C 
BRANCH   7   8
ATOM      8  C   UNL     1     -23.625  24.484 -20.588  1.00  0.00     0.000 C 
BRANCH   8   9
ATOM      9  C   UNL     1     -23.485  24.382 -22.122  1.00  0.00     0.000 C 
BRANCH   9  10
ATOM     10  C   UNL     1     -22.019  24.429 -22.586  1.00  0.00     0.000 C 
BRANCH  10  11
ATOM     11  C   UNL     1     -21.511  25.877 -22.763  1.00  0.00     0.000 C 
BRANCH  11  12
ATOM     12  C   UNL     1     -21.609  26.391 -24.209  1.00  0.00     0.000 C 
BRANCH  12  13
ATOM     13  C   UNL     1     -21.202  25.332 -25.247  1.00  0.00     0.006 C 
BRANCH  13  14
ATOM     14  C   UNL     1     -21.929  25.523 -26.585  1.00  0.00     0.053 C 
BRANCH  14  15
ATOM     15  C   UNL     1     -20.966  25.618 -27.729  1.00  0.00     0.041 C 
ATOM     16  O   UNL     1     -19.902  24.944 -27.721  1.00  0.00    -0.550 OA
ATOM     17  O   UNL     1     -21.229  26.477 -28.788  1.00  0.00    -0.550 OA
ENDBRANCH  14  15
ENDBRANCH  13  14
ENDBRANCH  12  13
ENDBRANCH  11  12
ENDBRANCH  10  11
ENDBRANCH   9  10
ENDBRANCH   8   9
ENDBRANCH   7   8
ENDBRANCH   6   7
ENDBRANCH   5   6
ENDBRANCH   4   5
ENDBRANCH   3   4
ENDBRANCH   2   3
ENDBRANCH   1   2
BRANCH   1  18
ATOM     18  C   UNL     1     -20.598  18.628 -25.418  1.00  0.00     0.000 C 
BRANCH  18  19
ATOM     19  C   UNL     1     -21.428  17.348 -25.632  1.00  0.00     0.000 C 
BRANCH  19  20
ATOM     20  C   UNL     1     -21.355  16.386 -24.437  1.00  0.00     0.000 C 
BRANCH  20  21
ATOM     21  C   UNL     1     -20.733  17.074 -23.212  1.00  0.00     0.000 C 
BRANCH  21  22
ATOM     22  C   UNL     1     -21.762  17.352 -22.104  1.00  0.00     0.000 C 
BRANCH  22  23
ATOM     23  C   UNL     1     -23.167  16.842 -22.457  1.00  0.00     0.000 C 
BRANCH  23  24
ATOM     24  C   UNL     1     -24.122  16.987 -21.262  1.00  0.00    -0.000 C 
BRANCH  24  25
ATOM     25  C   UNL     1     -25.035  15.763 -21.080  1.00  0.00    -0.000 C 
BRANCH  25  26
ATOM     26  C   UNL     1     -24.434  14.713 -20.128  1.00  0.00    -0.000 C 
BRANCH  26  27
ATOM     27  C   UNL     1     -23.839  13.511 -20.877  1.00  0.00    -0.000 C 
BRANCH  27  28
ATOM     28  C   UNL     1     -22.498  13.047 -20.283  1.00  0.00    -0.000 C 
BRANCH  28  29
ATOM     29  C   UNL     1     -21.412  14.136 -20.343  1.00  0.00    -0.000 C 
BRANCH  29  30
ATOM     30  C   UNL     1     -20.367  13.951 -21.463  1.00  0.00    -0.000 C 
BRANCH  30  31
ATOM     31  C   UNL     1     -20.673  12.817 -22.457  1.00  0.00    -0.003 C 
ATOM     32  C   UNL     1     -19.958  12.990 -23.796  1.00  0.00     0.004 C 
ENDBRANCH  30  31
ENDBRANCH  29  30
ENDBRANCH  28  29
ENDBRANCH  27  28
ENDBRANCH  26  27
ENDBRANCH  25  26
ENDBRANCH  24  25
ENDBRANCH  23  24
ENDBRANCH  22  23
ENDBRANCH  21  22
ENDBRANCH  20  21
ENDBRANCH  19  20
ENDBRANCH  18  19
ENDBRANCH   1  18
TORSDOF 28
ENDMDL
MODEL 7
REMARK VINA RESULT:    -4.709      1.844      3.651
REMARK INTER + INTRA:         -17.351
REMARK INTER:                 -12.901
REMARK INTRA:                  -4.450
REMARK UNBOUND:                -4.933
REMARK SMILES CCCCCCCCCCCCCCCCCCCCCCCCCCCCCC(=O)[O-]
REMARK SMILES IDX 16 1 17 2 18 3 19 4 20 5 21 6 22 7 23 8 24 9 25 10 26 11
REMARK SMILES IDX 27 12 28 13 29 14 30 15 31 16 32 17 15 18 14 19 13 20 12 21
REMARK SMILES IDX 11 22 10 23 9 24 8 25 7 26 6 27 5 28 4 29 3 30 2 31 1 32
REMARK H PARENT
REMARK Flexibility Score: inf
ROOT
ATOM      1  C   UNL     1     -20.698  18.054 -24.914  1.00  0.00     0.000 C 
ENDROOT
BRANCH   1   2
ATOM      2  C   UNL     1     -19.955  17.238 -23.838  1.00  0.00     0.000 C 
BRANCH   2   3
ATOM      3  C   UNL     1     -20.631  15.905 -23.456  1.00  0.00     0.000 C 
BRANCH   3   4
ATOM      4  C   UNL     1     -20.723  15.634 -21.941  1.00  0.00     0.000 C 
BRANCH   4   5
ATOM      5  C   UNL     1     -22.144  15.347 -21.415  1.00  0.00     0.000 C 
BRANCH   5   6
ATOM      6  C   UNL     1     -22.343  13.942 -20.812  1.00  0.00     0.000 C 
BRANCH   6   7
ATOM      7  C   UNL     1     -21.303  13.538 -19.750  1.00  0.00     0.000 C 
BRANCH   7   8
ATOM      8  C   UNL     1     -20.270  12.494 -20.216  1.00  0.00     0.000 C 
BRANCH   8   9
ATOM      9  C   UNL     1     -20.564  11.909 -21.614  1.00  0.00     0.000 C 
BRANCH   9  10
ATOM     10  C   UNL     1     -19.491  12.285 -22.650  1.00  0.00     0.000 C 
BRANCH  10  11
ATOM     11  C   UNL     1     -18.913  11.044 -23.366  1.00  0.00     0.000 C 
BRANCH  11  12
ATOM     12  C   UNL     1     -18.984  11.130 -24.900  1.00  0.00     0.000 C 
BRANCH  12  13
ATOM     13  C   UNL     1     -19.715  12.389 -25.393  1.00  0.00     0.006 C 
BRANCH  13  14
ATOM     14  C   UNL     1     -20.676  12.083 -26.550  1.00  0.00     0.053 C 
BRANCH  14  15
ATOM     15  C   UNL     1     -21.013  13.317 -27.331  1.00  0.00     0.041 C 
ATOM     16  O   UNL     1     -21.199  13.251 -28.575  1.00  0.00    -0.550 OA
ATOM     17  O   UNL     1     -21.087  14.546 -26.688  1.00  0.00    -0.550 OA
ENDBRANCH  14  15
ENDBRANCH  13  14
ENDBRANCH  12  13
ENDBRANCH  11  12
ENDBRANCH  10  11
ENDBRANCH   9  10
ENDBRANCH   8   9
ENDBRANCH   7   8
ENDBRANCH   6   7
ENDBRANCH   5   6
ENDBRANCH   4   5
ENDBRANCH   3   4
ENDBRANCH   2   3
ENDBRANCH   1   2
BRANCH   1  18
ATOM     18  C   UNL     1     -22.102  17.532 -25.273  1.00  0.00     0.000 C 
BRANCH  18  19
ATOM     19  C   UNL     1     -23.267  18.327 -24.652  1.00  0.00     0.000 C 
BRANCH  19  20
ATOM     20  C   UNL     1     -24.038  17.524 -23.595  1.00  0.00     0.000 C 
BRANCH  20  21
ATOM     21  C   UNL     1     -24.085  18.279 -22.257  1.00  0.00     0.000 C 
BRANCH  21  22
ATOM     22  C   UNL     1     -22.752  18.964 -21.915  1.00  0.00     0.000 C 
BRANCH  22  23
ATOM     23  C   UNL     1     -22.943  20.315 -21.211  1.00  0.00     0.000 C 
BRANCH  23  24
ATOM     24  C   UNL     1     -24.396  20.800 -21.336  1.00  0.00    -0.000 C 
BRANCH  24  25
ATOM     25  C   UNL     1     -24.594  22.227 -20.800  1.00  0.00    -0.000 C 
BRANCH  25  26
ATOM     26  C   UNL     1     -23.394  22.720 -19.972  1.00  0.00    -0.000 C 
BRANCH  26  27
ATOM     27  C   UNL     1     -22.843  24.063 -20.476  1.00  0.00    -0.000 C 
BRANCH  27  28
ATOM     28  C   UNL     1     -23.365  24.431 -21.875  1.00  0.00    -0.000 C 
BRANCH  28  29
ATOM     29  C   UNL     1     -22.262  24.403 -22.949  1.00  0.00    -0.000 C 
BRANCH  29  30
ATOM     30  C   UNL     1     -22.677  23.767 -24.291  1.00  0.00    -0.000 C 
BRANCH  30  31
ATOM     31  C   UNL     1     -22.750  22.230 -24.287  1.00  0.00    -0.003 C 
ATOM     32  C   UNL     1     -21.683  21.581 -25.168  1.00  0.00     0.004 C 
ENDBRANCH  30  31
ENDBRANCH  29  30
ENDBRANCH  28  29
ENDBRANCH  27  28
ENDBRANCH  26  27
ENDBRANCH  25  26
ENDBRANCH  24  25
ENDBRANCH  23  24
ENDBRANCH  22  23
ENDBRANCH  21  22
ENDBRANCH  20  21
ENDBRANCH  19  20
ENDBRANCH  18  19
ENDBRANCH   1  18
TORSDOF 28
ENDMDL
MODEL 8
REMARK VINA RESULT:    -4.699      3.552      9.196
REMARK INTER + INTRA:         -17.323
REMARK INTER:                 -13.001
REMARK INTRA:                  -4.322
REMARK UNBOUND:                -4.933
REMARK SMILES CCCCCCCCCCCCCCCCCCCCCCCCCCCCCC(=O)[O-]
REMARK SMILES IDX 16 1 17 2 18 3 19 4 20 5 21 6 22 7 23 8 24 9 25 10 26 11
REMARK SMILES IDX 27 12 28 13 29 14 30 15 31 16 32 17 15 18 14 19 13 20 12 21
REMARK SMILES IDX 11 22 10 23 9 24 8 25 7 26 6 27 5 28 4 29 3 30 2 31 1 32
REMARK H PARENT
REMARK Flexibility Score: inf
ROOT
ATOM      1  C   UNL     1     -21.374  17.344 -26.337  1.00  0.00     0.000 C 
ENDROOT
BRANCH   1   2
ATOM      2  C   UNL     1     -21.117  18.863 -26.365  1.00  0.00     0.000 C 
BRANCH   2   3
ATOM      3  C   UNL     1     -21.382  19.589 -25.030  1.00  0.00     0.000 C 
BRANCH   3   4
ATOM      4  C   UNL     1     -22.133  20.929 -25.158  1.00  0.00     0.000 C 
BRANCH   4   5
ATOM      5  C   UNL     1     -22.888  21.377 -23.890  1.00  0.00     0.000 C 
BRANCH   5   6
ATOM      6  C   UNL     1     -23.271  20.238 -22.924  1.00  0.00     0.000 C 
BRANCH   6   7
ATOM      7  C   UNL     1     -22.923  20.496 -21.446  1.00  0.00     0.000 C 
BRANCH   7   8
ATOM      8  C   UNL     1     -23.952  21.347 -20.675  1.00  0.00     0.000 C 
BRANCH   8   9
ATOM      9  C   UNL     1     -23.561  22.837 -20.555  1.00  0.00     0.000 C 
BRANCH   9  10
ATOM     10  C   UNL     1     -24.451  23.752 -21.414  1.00  0.00     0.000 C 
BRANCH  10  11
ATOM     11  C   UNL     1     -23.619  24.709 -22.296  1.00  0.00     0.000 C 
BRANCH  11  12
ATOM     12  C   UNL     1     -22.102  24.583 -22.080  1.00  0.00     0.000 C 
BRANCH  12  13
ATOM     13  C   UNL     1     -21.284  25.340 -23.140  1.00  0.00     0.006 C 
BRANCH  13  14
ATOM     14  C   UNL     1     -21.131  24.533 -24.437  1.00  0.00     0.053 C 
BRANCH  14  15
ATOM     15  C   UNL     1     -21.688  25.272 -25.616  1.00  0.00     0.041 C 
ATOM     16  O   UNL     1     -21.001  26.155 -26.193  1.00  0.00    -0.550 OA
ATOM     17  O   UNL     1     -22.978  25.007 -26.055  1.00  0.00    -0.550 OA
ENDBRANCH  14  15
ENDBRANCH  13  14
ENDBRANCH  12  13
ENDBRANCH  11  12
ENDBRANCH  10  11
ENDBRANCH   9  10
ENDBRANCH   8   9
ENDBRANCH   7   8
ENDBRANCH   6   7
ENDBRANCH   5   6
ENDBRANCH   4   5
ENDBRANCH   3   4
ENDBRANCH   2   3
ENDBRANCH   1   2
BRANCH   1  18
ATOM     18  C   UNL     1     -21.885  16.795 -24.991  1.00  0.00     0.000 C 
BRANCH  18  19
ATOM     19  C   UNL     1     -20.934  15.805 -24.292  1.00  0.00     0.000 C 
BRANCH  19  20
ATOM     20  C   UNL     1     -20.361  16.357 -22.979  1.00  0.00     0.000 C 
BRANCH  20  21
ATOM     21  C   UNL     1     -21.412  17.185 -22.223  1.00  0.00     0.000 C 
BRANCH  21  22
ATOM     22  C   UNL     1     -22.421  16.309 -21.463  1.00  0.00     0.000 C 
BRANCH  22  23
ATOM     23  C   UNL     1     -23.845  16.883 -21.494  1.00  0.00     0.000 C 
BRANCH  23  24
ATOM     24  C   UNL     1     -24.890  15.774 -21.294  1.00  0.00    -0.000 C 
BRANCH  24  25
ATOM     25  C   UNL     1     -24.628  14.931 -20.035  1.00  0.00    -0.000 C 
BRANCH  25  26
ATOM     26  C   UNL     1     -24.856  13.427 -20.271  1.00  0.00    -0.000 C 
BRANCH  26  27
ATOM     27  C   UNL     1     -23.541  12.641 -20.372  1.00  0.00    -0.000 C 
BRANCH  27  28
ATOM     28  C   UNL     1     -22.392  13.303 -19.593  1.00  0.00    -0.000 C 
BRANCH  28  29
ATOM     29  C   UNL     1     -21.008  12.990 -20.191  1.00  0.00    -0.000 C 
BRANCH  29  30
ATOM     30  C   UNL     1     -20.962  12.939 -21.732  1.00  0.00    -0.000 C 
BRANCH  30  31
ATOM     31  C   UNL     1     -19.570  12.670 -22.332  1.00  0.00    -0.003 C 
ATOM     32  C   UNL     1     -19.605  12.461 -23.845  1.00  0.00     0.004 C 
ENDBRANCH  30  31
ENDBRANCH  29  30
ENDBRANCH  28  29
ENDBRANCH  27  28
ENDBRANCH  26  27
ENDBRANCH  25  26
ENDBRANCH  24  25
ENDBRANCH  23  24
ENDBRANCH  22  23
ENDBRANCH  21  22
ENDBRANCH  20  21
ENDBRANCH  19  20
ENDBRANCH  18  19
ENDBRANCH   1  18
TORSDOF 28
ENDMDL
MODEL 9
REMARK VINA RESULT:    -4.681      1.343      2.315
REMARK INTER + INTRA:         -17.277
REMARK INTER:                 -12.752
REMARK INTRA:                  -4.526
REMARK UNBOUND:                -4.933
REMARK SMILES CCCCCCCCCCCCCCCCCCCCCCCCCCCCCC(=O)[O-]
REMARK SMILES IDX 16 1 17 2 18 3 19 4 20 5 21 6 22 7 23 8 24 9 25 10 26 11
REMARK SMILES IDX 27 12 28 13 29 14 30 15 31 16 32 17 15 18 14 19 13 20 12 21
REMARK SMILES IDX 11 22 10 23 9 24 8 25 7 26 6 27 5 28 4 29 3 30 2 31 1 32
REMARK H PARENT
REMARK Flexibility Score: inf
ROOT
ATOM      1  C   UNL     1     -22.644  20.915 -25.010  1.00  0.00     0.000 C 
ENDROOT
BRANCH   1   2
ATOM      2  C   UNL     1     -21.322  20.178 -25.301  1.00  0.00     0.000 C 
BRANCH   2   3
ATOM      3  C   UNL     1     -21.471  18.892 -26.139  1.00  0.00     0.000 C 
BRANCH   3   4
ATOM      4  C   UNL     1     -22.357  17.801 -25.504  1.00  0.00     0.000 C 
BRANCH   4   5
ATOM      5  C   UNL     1     -21.630  16.484 -25.170  1.00  0.00     0.000 C 
BRANCH   5   6
ATOM      6  C   UNL     1     -20.789  16.513 -23.877  1.00  0.00     0.000 C 
BRANCH   6   7
ATOM      7  C   UNL     1     -21.333  17.436 -22.770  1.00  0.00     0.000 C 
BRANCH   7   8
ATOM      8  C   UNL     1     -22.154  16.725 -21.676  1.00  0.00     0.000 C 
BRANCH   8   9
ATOM      9  C   UNL     1     -23.626  16.473 -22.068  1.00  0.00     0.000 C 
BRANCH   9  10
ATOM     10  C   UNL     1     -24.572  16.488 -20.855  1.00  0.00     0.000 C 
BRANCH  10  11
ATOM     11  C   UNL     1     -24.450  15.202 -20.007  1.00  0.00     0.000 C 
BRANCH  11  12
ATOM     12  C   UNL     1     -24.651  13.910 -20.816  1.00  0.00     0.000 C 
BRANCH  12  13
ATOM     13  C   UNL     1     -23.548  12.870 -20.561  1.00  0.00     0.006 C 
BRANCH  13  14
ATOM     14  C   UNL     1     -22.322  13.484 -19.871  1.00  0.00     0.053 C 
BRANCH  14  15
ATOM     15  C   UNL     1     -21.056  13.165 -20.606  1.00  0.00     0.041 C 
ATOM     16  O   UNL     1     -20.884  13.578 -21.783  1.00  0.00    -0.550 OA
ATOM     17  O   UNL     1     -20.081  12.382 -20.002  1.00  0.00    -0.550 OA
ENDBRANCH  14  15
ENDBRANCH  13  14
ENDBRANCH  12  13
ENDBRANCH  11  12
ENDBRANCH  10  11
ENDBRANCH   9  10
ENDBRANCH   8   9
ENDBRANCH   7   8
ENDBRANCH   6   7
ENDBRANCH   5   6
ENDBRANCH   4   5
ENDBRANCH   3   4
ENDBRANCH   2   3
ENDBRANCH   1   2
BRANCH   1  18
ATOM     18  C   UNL     1     -22.844  21.337 -23.541  1.00  0.00     0.000 C 
BRANCH  18  19
ATOM     19  C   UNL     1     -23.494  20.267 -22.643  1.00  0.00     0.000 C 
BRANCH  19  20
ATOM     20  C   UNL     1     -23.277  20.533 -21.147  1.00  0.00     0.000 C 
BRANCH  20  21
ATOM     21  C   UNL     1     -24.021  21.801 -20.699  1.00  0.00     0.000 C 
BRANCH  21  22
ATOM     22  C   UNL     1     -23.152  22.719 -19.823  1.00  0.00     0.000 C 
BRANCH  22  23
ATOM     23  C   UNL     1     -23.332  24.206 -20.162  1.00  0.00     0.000 C 
BRANCH  23  24
ATOM     24  C   UNL     1     -24.607  24.430 -20.990  1.00  0.00    -0.000 C 
BRANCH  24  25
ATOM     25  C   UNL     1     -24.612  25.786 -21.717  1.00  0.00    -0.000 C 
BRANCH  25  26
ATOM     26  C   UNL     1     -25.124  25.679 -23.164  1.00  0.00    -0.000 C 
BRANCH  26  27
ATOM     27  C   UNL     1     -24.942  24.271 -23.751  1.00  0.00    -0.000 C 
BRANCH  27  28
ATOM     28  C   UNL     1     -24.565  24.294 -25.242  1.00  0.00    -0.000 C 
BRANCH  28  29
ATOM     29  C   UNL     1     -23.592  25.434 -25.593  1.00  0.00    -0.000 C 
BRANCH  29  30
ATOM     30  C   UNL     1     -22.116  25.010 -25.738  1.00  0.00    -0.000 C 
BRANCH  30  31
ATOM     31  C   UNL     1     -21.478  24.434 -24.461  1.00  0.00    -0.003 C 
ATOM     32  C   UNL     1     -21.278  25.484 -23.370  1.00  0.00     0.004 C 
ENDBRANCH  30  31
ENDBRANCH  29  30
ENDBRANCH  28  29
ENDBRANCH  27  28
ENDBRANCH  26  27
ENDBRANCH  25  26
ENDBRANCH  24  25
ENDBRANCH  23  24
ENDBRANCH  22  23
ENDBRANCH  21  22
ENDBRANCH  20  21
ENDBRANCH  19  20
ENDBRANCH  18  19
ENDBRANCH   1  18
TORSDOF 28
ENDMDL
