MODEL 1
REMARK VINA RESULT:    -5.495      0.000      0.000
REMARK INTER + INTRA:          -7.585
REMARK INTER:                  -6.941
REMARK INTRA:                  -0.643
REMARK UNBOUND:                -0.643
REMARK SMILES O=C(C=Cc1ccc(O)cc1)c1ccc(O)cc1O
REMARK SMILES IDX 4 1 3 2 5 3 6 4 7 5 8 6 11 7 10 8 9 9 2 11 1 12 12 13 18 14
REMARK SMILES IDX 13 15 17 16 14 17 15 18 19 19 16 21
REMARK H PARENT 9 10 19 20 16 22
REMARK Flexibility Score: inf
ROOT
ATOM      1  C   UNL     1      73.135  38.031  19.756  1.00  0.00     0.012 C 
ATOM      2  C   UNL     1      72.074  37.743  18.988  1.00  0.00     0.053 C 
ENDROOT
BRANCH   1   3
ATOM      3  C   UNL     1      74.191  39.002  19.377  1.00  0.00    -0.025 A 
ATOM      4  C   UNL     1      74.943  38.885  18.190  1.00  0.00     0.012 A 
ATOM      5  C   UNL     1      75.921  39.834  17.875  1.00  0.00     0.047 A 
ATOM      6  C   UNL     1      76.157  40.913  18.731  1.00  0.00     0.115 A 
ATOM      7  C   UNL     1      74.427  40.100  20.222  1.00  0.00     0.012 A 
ATOM      8  C   UNL     1      75.405  41.045  19.904  1.00  0.00     0.047 A 
BRANCH   6   9
ATOM      9  O   UNL     1      77.135  41.850  18.404  1.00  0.00    -0.508 OA
ATOM     10  H   UNL     1      78.114  41.688  18.611  1.00  0.00     0.293 HD
ENDBRANCH   6   9
ENDBRANCH   1   3
BRANCH   2  11
ATOM     11  C   UNL     1      71.033  36.772  19.391  1.00  0.00     0.189 C 
ATOM     12  O   UNL     1      71.390  35.591  19.644  1.00  0.00    -0.289 OA
BRANCH  11  13
ATOM     13  C   UNL     1      69.603  37.137  19.534  1.00  0.00     0.064 A 
ATOM     14  C   UNL     1      68.610  36.467  18.790  1.00  0.00     0.130 A 
ATOM     15  C   UNL     1      69.217  38.130  20.453  1.00  0.00     0.020 A 
ATOM     16  C   UNL     1      67.259  36.807  18.961  1.00  0.00     0.093 A 
ATOM     17  C   UNL     1      67.870  38.464  20.613  1.00  0.00     0.047 A 
ATOM     18  C   UNL     1      66.889  37.803  19.867  1.00  0.00     0.119 A 
BRANCH  14  19
ATOM     19  O   UNL     1      68.966  35.475  17.875  1.00  0.00    -0.507 OA
ATOM     20  H   UNL     1      68.376  35.246  17.084  1.00  0.00     0.293 HD
ENDBRANCH  14  19
BRANCH  18  21
ATOM     21  O   UNL     1      65.542  38.128  20.020  1.00  0.00    -0.508 OA
ATOM     22  H   UNL     1      65.146  38.960  19.599  1.00  0.00     0.293 HD
ENDBRANCH  18  21
ENDBRANCH  11  13
ENDBRANCH   2  11
TORSDOF 6
ENDMDL
MODEL 2
REMARK VINA RESULT:    -5.212      1.785      7.488
REMARK INTER + INTRA:          -7.227
REMARK INTER:                  -6.649
REMARK INTRA:                  -0.578
REMARK UNBOUND:                -0.643
REMARK SMILES O=C(C=Cc1ccc(O)cc1)c1ccc(O)cc1O
REMARK SMILES IDX 4 1 3 2 5 3 6 4 7 5 8 6 11 7 10 8 9 9 2 11 1 12 12 13 18 14
REMARK SMILES IDX 13 15 17 16 14 17 15 18 19 19 16 21
REMARK H PARENT 9 10 19 20 16 22
REMARK Flexibility Score: inf
ROOT
ATOM      1  C   UNL     1      71.213  38.063  20.152  1.00  0.00     0.012 C 
ATOM      2  C   UNL     1      71.992  38.531  19.166  1.00  0.00     0.053 C 
ENDROOT
BRANCH   1   3
ATOM      3  C   UNL     1      69.731  38.025  20.088  1.00  0.00    -0.025 A 
ATOM      4  C   UNL     1      69.016  36.883  19.673  1.00  0.00     0.012 A 
ATOM      5  C   UNL     1      67.617  36.897  19.641  1.00  0.00     0.047 A 
ATOM      6  C   UNL     1      66.914  38.041  20.028  1.00  0.00     0.115 A 
ATOM      7  C   UNL     1      69.013  39.164  20.490  1.00  0.00     0.012 A 
ATOM      8  C   UNL     1      67.617  39.175  20.456  1.00  0.00     0.047 A 
BRANCH   6   9
ATOM      9  O   UNL     1      65.522  38.040  19.990  1.00  0.00    -0.508 OA
ATOM     10  H   UNL     1      65.013  38.482  19.233  1.00  0.00     0.293 HD
ENDBRANCH   6   9
ENDBRANCH   1   3
BRANCH   2  11
ATOM     11  C   UNL     1      73.469  38.555  19.254  1.00  0.00     0.189 C 
ATOM     12  O   UNL     1      74.120  37.772  18.511  1.00  0.00    -0.289 OA
BRANCH  11  13
ATOM     13  C   UNL     1      74.208  39.474  20.152  1.00  0.00     0.064 A 
ATOM     14  C   UNL     1      74.987  40.525  19.625  1.00  0.00     0.130 A 
ATOM     15  C   UNL     1      74.103  39.333  21.547  1.00  0.00     0.020 A 
ATOM     16  C   UNL     1      75.657  41.402  20.492  1.00  0.00     0.093 A 
ATOM     17  C   UNL     1      74.776  40.209  22.402  1.00  0.00     0.047 A 
ATOM     18  C   UNL     1      75.555  41.245  21.876  1.00  0.00     0.119 A 
BRANCH  14  19
ATOM     19  O   UNL     1      75.105  40.689  18.244  1.00  0.00    -0.507 OA
ATOM     20  H   UNL     1      75.189  39.895  17.620  1.00  0.00     0.293 HD
ENDBRANCH  14  19
BRANCH  18  21
ATOM     21  O   UNL     1      76.230  42.125  22.720  1.00  0.00    -0.508 OA
ATOM     22  H   UNL     1      76.701  42.947  22.361  1.00  0.00     0.293 HD
ENDBRANCH  18  21
ENDBRANCH  11  13
ENDBRANCH   2  11
TORSDOF 6
ENDMDL
MODEL 3
REMARK VINA RESULT:    -5.204      1.242      1.566
REMARK INTER + INTRA:          -7.216
REMARK INTER:                  -6.596
REMARK INTRA:                  -0.620
REMARK UNBOUND:                -0.643
REMARK SMILES O=C(C=Cc1ccc(O)cc1)c1ccc(O)cc1O
REMARK SMILES IDX 4 1 3 2 5 3 6 4 7 5 8 6 11 7 10 8 9 9 2 11 1 12 12 13 18 14
REMARK SMILES IDX 13 15 17 16 14 17 15 18 19 19 16 21
REMARK H PARENT 9 10 19 20 16 22
REMARK Flexibility Score: inf
ROOT
ATOM      1  C   UNL     1      72.786  38.115  20.809  1.00  0.00     0.012 C 
ATOM      2  C   UNL     1      71.982  38.055  19.738  1.00  0.00     0.053 C 
ENDROOT
BRANCH   1   3
ATOM      3  C   UNL     1      73.826  39.156  21.005  1.00  0.00    -0.025 A 
ATOM      4  C   UNL     1      74.504  39.767  19.930  1.00  0.00     0.012 A 
ATOM      5  C   UNL     1      75.469  40.750  20.170  1.00  0.00     0.047 A 
ATOM      6  C   UNL     1      75.764  41.145  21.477  1.00  0.00     0.115 A 
ATOM      7  C   UNL     1      74.120  39.572  22.314  1.00  0.00     0.012 A 
ATOM      8  C   UNL     1      75.085  40.554  22.550  1.00  0.00     0.047 A 
BRANCH   6   9
ATOM      9  O   UNL     1      76.729  42.125  21.700  1.00  0.00    -0.508 OA
ATOM     10  H   UNL     1      76.473  43.067  21.974  1.00  0.00     0.293 HD
ENDBRANCH   6   9
ENDBRANCH   1   3
BRANCH   2  11
ATOM     11  C   UNL     1      70.950  37.008  19.568  1.00  0.00     0.189 C 
ATOM     12  O   UNL     1      71.334  35.831  19.330  1.00  0.00    -0.289 OA
BRANCH  11  13
ATOM     13  C   UNL     1      69.498  37.278  19.693  1.00  0.00     0.064 A 
ATOM     14  C   UNL     1      68.564  36.574  18.906  1.00  0.00     0.130 A 
ATOM     15  C   UNL     1      69.033  38.213  20.635  1.00  0.00     0.020 A 
ATOM     16  C   UNL     1      67.191  36.823  19.059  1.00  0.00     0.093 A 
ATOM     17  C   UNL     1      67.666  38.458  20.778  1.00  0.00     0.047 A 
ATOM     18  C   UNL     1      66.742  37.763  19.989  1.00  0.00     0.119 A 
BRANCH  14  19
ATOM     19  O   UNL     1      68.999  35.638  17.967  1.00  0.00    -0.507 OA
ATOM     20  H   UNL     1      69.899  35.723  17.511  1.00  0.00     0.293 HD
ENDBRANCH  14  19
BRANCH  18  21
ATOM     21  O   UNL     1      65.375  37.999  20.124  1.00  0.00    -0.508 OA
ATOM     22  H   UNL     1      64.874  38.599  19.480  1.00  0.00     0.293 HD
ENDBRANCH  18  21
ENDBRANCH  11  13
ENDBRANCH   2  11
TORSDOF 6
ENDMDL
MODEL 4
REMARK VINA RESULT:    -5.029      1.466      7.643
REMARK INTER + INTRA:          -6.996
REMARK INTER:                  -6.515
REMARK INTRA:                  -0.481
REMARK UNBOUND:                -0.643
REMARK SMILES O=C(C=Cc1ccc(O)cc1)c1ccc(O)cc1O
REMARK SMILES IDX 4 1 3 2 5 3 6 4 7 5 8 6 11 7 10 8 9 9 2 11 1 12 12 13 18 14
REMARK SMILES IDX 13 15 17 16 14 17 15 18 19 19 16 21
REMARK H PARENT 9 10 19 20 16 22
REMARK Flexibility Score: inf
ROOT
ATOM      1  C   UNL     1      71.333  37.528  19.859  1.00  0.00     0.012 C 
ATOM      2  C   UNL     1      72.070  38.332  20.638  1.00  0.00     0.053 C 
ENDROOT
BRANCH   1   3
ATOM      3  C   UNL     1      69.851  37.564  19.801  1.00  0.00    -0.025 A 
ATOM      4  C   UNL     1      69.091  36.589  19.124  1.00  0.00     0.012 A 
ATOM      5  C   UNL     1      67.694  36.665  19.109  1.00  0.00     0.047 A 
ATOM      6  C   UNL     1      67.037  37.704  19.773  1.00  0.00     0.115 A 
ATOM      7  C   UNL     1      69.178  38.596  20.479  1.00  0.00     0.012 A 
ATOM      8  C   UNL     1      67.783  38.669  20.461  1.00  0.00     0.047 A 
BRANCH   6   9
ATOM      9  O   UNL     1      65.646  37.766  19.748  1.00  0.00    -0.508 OA
ATOM     10  H   UNL     1      65.142  38.532  20.182  1.00  0.00     0.293 HD
ENDBRANCH   6   9
ENDBRANCH   1   3
BRANCH   2  11
ATOM     11  C   UNL     1      73.548  38.278  20.675  1.00  0.00     0.189 C 
ATOM     12  O   UNL     1      74.091  37.358  21.344  1.00  0.00    -0.289 OA
BRANCH  11  13
ATOM     13  C   UNL     1      74.409  39.235  19.940  1.00  0.00     0.064 A 
ATOM     14  C   UNL     1      74.778  40.466  20.522  1.00  0.00     0.130 A 
ATOM     15  C   UNL     1      74.907  38.904  18.667  1.00  0.00     0.020 A 
ATOM     16  C   UNL     1      75.617  41.348  19.823  1.00  0.00     0.093 A 
ATOM     17  C   UNL     1      75.739  39.789  17.978  1.00  0.00     0.047 A 
ATOM     18  C   UNL     1      76.095  41.013  18.554  1.00  0.00     0.119 A 
BRANCH  14  19
ATOM     19  O   UNL     1      74.301  40.817  21.786  1.00  0.00    -0.507 OA
ATOM     20  H   UNL     1      73.389  41.242  21.910  1.00  0.00     0.293 HD
ENDBRANCH  14  19
BRANCH  18  21
ATOM     21  O   UNL     1      76.925  41.902  17.875  1.00  0.00    -0.508 OA
ATOM     22  H   UNL     1      77.928  41.766  17.835  1.00  0.00     0.293 HD
ENDBRANCH  18  21
ENDBRANCH  11  13
ENDBRANCH   2  11
TORSDOF 6
ENDMDL
MODEL 5
REMARK VINA RESULT:    -5.015      1.876      2.630
REMARK INTER + INTRA:          -6.978
REMARK INTER:                  -6.324
REMARK INTRA:                  -0.654
REMARK UNBOUND:                -0.643
REMARK SMILES O=C(C=Cc1ccc(O)cc1)c1ccc(O)cc1O
REMARK SMILES IDX 4 1 3 2 5 3 6 4 7 5 8 6 11 7 10 8 9 9 2 11 1 12 12 13 18 14
REMARK SMILES IDX 13 15 17 16 14 17 15 18 19 19 16 21
REMARK H PARENT 9 10 19 20 16 22
REMARK Flexibility Score: inf
ROOT
ATOM      1  C   UNL     1      73.245  39.750  20.695  1.00  0.00     0.012 C 
ATOM      2  C   UNL     1      71.985  40.171  20.519  1.00  0.00     0.053 C 
ENDROOT
BRANCH   1   3
ATOM      3  C   UNL     1      74.407  40.278  19.937  1.00  0.00    -0.025 A 
ATOM      4  C   UNL     1      74.784  39.777  18.674  1.00  0.00     0.012 A 
ATOM      5  C   UNL     1      75.882  40.317  17.998  1.00  0.00     0.047 A 
ATOM      6  C   UNL     1      76.612  41.366  18.563  1.00  0.00     0.115 A 
ATOM      7  C   UNL     1      75.139  41.343  20.488  1.00  0.00     0.012 A 
ATOM      8  C   UNL     1      76.236  41.880  19.810  1.00  0.00     0.047 A 
BRANCH   6   9
ATOM      9  O   UNL     1      77.705  41.893  17.877  1.00  0.00    -0.508 OA
ATOM     10  H   UNL     1      78.440  42.396  18.359  1.00  0.00     0.293 HD
ENDBRANCH   6   9
ENDBRANCH   1   3
BRANCH   2  11
ATOM     11  C   UNL     1      70.844  39.630  21.290  1.00  0.00     0.189 C 
ATOM     12  O   UNL     1      70.684  40.033  22.473  1.00  0.00    -0.289 OA
BRANCH  11  13
ATOM     13  C   UNL     1      69.873  38.664  20.723  1.00  0.00     0.064 A 
ATOM     14  C   UNL     1      68.485  38.868  20.866  1.00  0.00     0.130 A 
ATOM     15  C   UNL     1      70.330  37.551  19.993  1.00  0.00     0.020 A 
ATOM     16  C   UNL     1      67.581  37.957  20.297  1.00  0.00     0.093 A 
ATOM     17  C   UNL     1      69.423  36.648  19.434  1.00  0.00     0.047 A 
ATOM     18  C   UNL     1      68.047  36.849  19.586  1.00  0.00     0.119 A 
BRANCH  14  19
ATOM     19  O   UNL     1      68.006  39.967  21.582  1.00  0.00    -0.507 OA
ATOM     20  H   UNL     1      67.143  40.431  21.326  1.00  0.00     0.293 HD
ENDBRANCH  14  19
BRANCH  18  21
ATOM     21  O   UNL     1      67.133  35.955  19.031  1.00  0.00    -0.508 OA
ATOM     22  H   UNL     1      67.285  34.954  19.064  1.00  0.00     0.293 HD
ENDBRANCH  18  21
ENDBRANCH  11  13
ENDBRANCH   2  11
TORSDOF 6
ENDMDL
MODEL 6
REMARK VINA RESULT:    -4.962      2.539      7.432
REMARK INTER + INTRA:          -6.911
REMARK INTER:                  -6.231
REMARK INTRA:                  -0.680
REMARK UNBOUND:                -0.643
REMARK SMILES O=C(C=Cc1ccc(O)cc1)c1ccc(O)cc1O
REMARK SMILES IDX 4 1 3 2 5 3 6 4 7 5 8 6 11 7 10 8 9 9 2 11 1 12 12 13 18 14
REMARK SMILES IDX 13 15 17 16 14 17 15 18 19 19 16 21
REMARK H PARENT 9 10 19 20 16 22
REMARK Flexibility Score: inf
ROOT
ATOM      1  C   UNL     1      70.445  38.725  20.309  1.00  0.00     0.012 C 
ATOM      2  C   UNL     1      70.058  39.523  21.314  1.00  0.00     0.053 C 
ENDROOT
BRANCH   1   3
ATOM      3  C   UNL     1      69.554  37.742  19.643  1.00  0.00    -0.025 A 
ATOM      4  C   UNL     1      69.934  37.032  18.486  1.00  0.00     0.012 A 
ATOM      5  C   UNL     1      69.059  36.109  17.903  1.00  0.00     0.047 A 
ATOM      6  C   UNL     1      67.803  35.874  18.468  1.00  0.00     0.115 A 
ATOM      7  C   UNL     1      68.295  37.486  20.211  1.00  0.00     0.012 A 
ATOM      8  C   UNL     1      67.424  36.564  19.626  1.00  0.00     0.047 A 
BRANCH   6   9
ATOM      9  O   UNL     1      66.943  34.952  17.876  1.00  0.00    -0.508 OA
ATOM     10  H   UNL     1      66.967  34.769  16.879  1.00  0.00     0.293 HD
ENDBRANCH   6   9
ENDBRANCH   1   3
BRANCH   2  11
ATOM     11  C   UNL     1      70.966  40.497  21.959  1.00  0.00     0.189 C 
ATOM     12  O   UNL     1      70.572  41.066  23.013  1.00  0.00    -0.289 OA
BRANCH  11  13
ATOM     13  C   UNL     1      72.318  40.807  21.437  1.00  0.00     0.064 A 
ATOM     14  C   UNL     1      73.456  40.153  21.952  1.00  0.00     0.130 A 
ATOM     15  C   UNL     1      72.474  41.728  20.386  1.00  0.00     0.020 A 
ATOM     16  C   UNL     1      74.726  40.439  21.425  1.00  0.00     0.093 A 
ATOM     17  C   UNL     1      73.742  42.009  19.871  1.00  0.00     0.047 A 
ATOM     18  C   UNL     1      74.870  41.365  20.390  1.00  0.00     0.119 A 
BRANCH  14  19
ATOM     19  O   UNL     1      73.328  39.231  22.992  1.00  0.00    -0.507 OA
ATOM     20  H   UNL     1      72.593  38.534  22.996  1.00  0.00     0.293 HD
ENDBRANCH  14  19
BRANCH  18  21
ATOM     21  O   UNL     1      76.139  41.637  19.882  1.00  0.00    -0.508 OA
ATOM     22  H   UNL     1      76.293  42.380  19.211  1.00  0.00     0.293 HD
ENDBRANCH  18  21
ENDBRANCH  11  13
ENDBRANCH   2  11
TORSDOF 6
ENDMDL
MODEL 7
REMARK VINA RESULT:    -4.830      2.772      3.796
REMARK INTER + INTRA:          -6.744
REMARK INTER:                  -6.449
REMARK INTRA:                  -0.295
REMARK UNBOUND:                -0.643
REMARK SMILES O=C(C=Cc1ccc(O)cc1)c1ccc(O)cc1O
REMARK SMILES IDX 4 1 3 2 5 3 6 4 7 5 8 6 11 7 10 8 9 9 2 11 1 12 12 13 18 14
REMARK SMILES IDX 13 15 17 16 14 17 15 18 19 19 16 21
REMARK H PARENT 9 10 19 20 16 22
REMARK Flexibility Score: inf
ROOT
ATOM      1  C   UNL     1      70.860  40.403  20.466  1.00  0.00     0.012 C 
ATOM      2  C   UNL     1      69.696  40.270  21.119  1.00  0.00     0.053 C 
ENDROOT
BRANCH   1   3
ATOM      3  C   UNL     1      72.160  40.651  21.136  1.00  0.00    -0.025 A 
ATOM      4  C   UNL     1      72.617  41.946  21.455  1.00  0.00     0.012 A 
ATOM      5  C   UNL     1      73.847  42.125  22.096  1.00  0.00     0.047 A 
ATOM      6  C   UNL     1      74.633  41.020  22.436  1.00  0.00     0.115 A 
ATOM      7  C   UNL     1      72.951  39.547  21.496  1.00  0.00     0.012 A 
ATOM      8  C   UNL     1      74.180  39.729  22.136  1.00  0.00     0.047 A 
BRANCH   6   9
ATOM      9  O   UNL     1      75.856  41.214  23.073  1.00  0.00    -0.508 OA
ATOM     10  H   UNL     1      76.007  40.921  24.032  1.00  0.00     0.293 HD
ENDBRANCH   6   9
ENDBRANCH   1   3
BRANCH   2  11
ATOM     11  C   UNL     1      68.413  40.019  20.427  1.00  0.00     0.189 C 
ATOM     12  O   UNL     1      67.623  40.989  20.272  1.00  0.00    -0.289 OA
BRANCH  11  13
ATOM     13  C   UNL     1      68.034  38.691  19.887  1.00  0.00     0.064 A 
ATOM     14  C   UNL     1      66.739  38.464  19.376  1.00  0.00     0.130 A 
ATOM     15  C   UNL     1      68.981  37.653  19.839  1.00  0.00     0.020 A 
ATOM     16  C   UNL     1      66.407  37.209  18.844  1.00  0.00     0.093 A 
ATOM     17  C   UNL     1      68.641  36.406  19.310  1.00  0.00     0.047 A 
ATOM     18  C   UNL     1      67.353  36.181  18.812  1.00  0.00     0.119 A 
BRANCH  14  19
ATOM     19  O   UNL     1      65.782  39.479  19.409  1.00  0.00    -0.507 OA
ATOM     20  H   UNL     1      65.136  39.574  20.184  1.00  0.00     0.293 HD
ENDBRANCH  14  19
BRANCH  18  21
ATOM     21  O   UNL     1      67.004  34.941  18.281  1.00  0.00    -0.508 OA
ATOM     22  H   UNL     1      67.144  34.725  17.301  1.00  0.00     0.293 HD
ENDBRANCH  18  21
ENDBRANCH  11  13
ENDBRANCH   2  11
TORSDOF 6
ENDMDL
MODEL 8
REMARK VINA RESULT:    -4.407      1.666      2.096
REMARK INTER + INTRA:          -6.210
REMARK INTER:                  -5.785
REMARK INTRA:                  -0.425
REMARK UNBOUND:                -0.643
REMARK SMILES O=C(C=Cc1ccc(O)cc1)c1ccc(O)cc1O
REMARK SMILES IDX 4 1 3 2 5 3 6 4 7 5 8 6 11 7 10 8 9 9 2 11 1 12 12 13 18 14
REMARK SMILES IDX 13 15 17 16 14 17 15 18 19 19 16 21
REMARK H PARENT 9 10 19 20 16 22
REMARK Flexibility Score: inf
ROOT
ATOM      1  C   UNL     1      72.974  39.509  20.494  1.00  0.00     0.012 C 
ATOM      2  C   UNL     1      71.742  40.005  20.312  1.00  0.00     0.053 C 
ENDROOT
BRANCH   1   3
ATOM      3  C   UNL     1      74.181  40.013  19.793  1.00  0.00    -0.025 A 
ATOM      4  C   UNL     1      74.735  39.367  18.670  1.00  0.00     0.012 A 
ATOM      5  C   UNL     1      75.869  39.890  18.040  1.00  0.00     0.047 A 
ATOM      6  C   UNL     1      76.459  41.065  18.512  1.00  0.00     0.115 A 
ATOM      7  C   UNL     1      74.774  41.202  20.250  1.00  0.00     0.012 A 
ATOM      8  C   UNL     1      75.907  41.722  19.619  1.00  0.00     0.047 A 
BRANCH   6   9
ATOM      9  O   UNL     1      77.588  41.573  17.875  1.00  0.00    -0.508 OA
ATOM     10  H   UNL     1      77.970  42.481  18.116  1.00  0.00     0.293 HD
ENDBRANCH   6   9
ENDBRANCH   1   3
BRANCH   2  11
ATOM     11  C   UNL     1      70.555  39.486  21.027  1.00  0.00     0.189 C 
ATOM     12  O   UNL     1      70.411  39.794  22.240  1.00  0.00    -0.289 OA
BRANCH  11  13
ATOM     13  C   UNL     1      69.522  38.647  20.371  1.00  0.00     0.064 A 
ATOM     14  C   UNL     1      69.757  37.279  20.122  1.00  0.00     0.130 A 
ATOM     15  C   UNL     1      68.275  39.202  20.032  1.00  0.00     0.020 A 
ATOM     16  C   UNL     1      68.757  36.495  19.527  1.00  0.00     0.093 A 
ATOM     17  C   UNL     1      67.287  38.414  19.436  1.00  0.00     0.047 A 
ATOM     18  C   UNL     1      67.526  37.059  19.182  1.00  0.00     0.119 A 
BRANCH  14  19
ATOM     19  O   UNL     1      70.985  36.704  20.453  1.00  0.00    -0.507 OA
ATOM     20  H   UNL     1      71.073  36.045  21.218  1.00  0.00     0.293 HD
ENDBRANCH  14  19
BRANCH  18  21
ATOM     21  O   UNL     1      66.547  36.265  18.590  1.00  0.00    -0.508 OA
ATOM     22  H   UNL     1      66.303  36.366  17.611  1.00  0.00     0.293 HD
ENDBRANCH  18  21
ENDBRANCH  11  13
ENDBRANCH   2  11
TORSDOF 6
ENDMDL
MODEL 9
REMARK VINA RESULT:    -2.620      1.961      8.188
REMARK INTER + INTRA:          -3.952
REMARK INTER:                  -3.555
REMARK INTRA:                  -0.397
REMARK UNBOUND:                -0.643
REMARK SMILES O=C(C=Cc1ccc(O)cc1)c1ccc(O)cc1O
REMARK SMILES IDX 4 1 3 2 5 3 6 4 7 5 8 6 11 7 10 8 9 9 2 11 1 12 12 13 18 14
REMARK SMILES IDX 13 15 17 16 14 17 15 18 19 19 16 21
REMARK H PARENT 9 10 19 20 16 22
REMARK Flexibility Score: inf
ROOT
ATOM      1  C   UNL     1      71.739  39.476  20.906  1.00  0.00     0.012 C 
ATOM      2  C   UNL     1      72.719  40.031  20.179  1.00  0.00     0.053 C 
ENDROOT
BRANCH   1   3
ATOM      3  C   UNL     1      70.744  38.520  20.360  1.00  0.00    -0.025 A 
ATOM      4  C   UNL     1      71.113  37.352  19.663  1.00  0.00     0.012 A 
ATOM      5  C   UNL     1      70.135  36.478  19.177  1.00  0.00     0.047 A 
ATOM      6  C   UNL     1      68.780  36.750  19.387  1.00  0.00     0.115 A 
ATOM      7  C   UNL     1      69.379  38.775  20.578  1.00  0.00     0.012 A 
ATOM      8  C   UNL     1      68.405  37.900  20.091  1.00  0.00     0.047 A 
BRANCH   6   9
ATOM      9  O   UNL     1      67.817  35.871  18.896  1.00  0.00    -0.508 OA
ATOM     10  H   UNL     1      67.033  35.573  19.465  1.00  0.00     0.293 HD
ENDBRANCH   6   9
ENDBRANCH   1   3
BRANCH   2  11
ATOM     11  C   UNL     1      73.700  40.980  20.749  1.00  0.00     0.189 C 
ATOM     12  O   UNL     1      73.430  41.519  21.856  1.00  0.00    -0.289 OA
BRANCH  11  13
ATOM     13  C   UNL     1      74.990  41.299  20.091  1.00  0.00     0.064 A 
ATOM     14  C   UNL     1      76.061  41.842  20.830  1.00  0.00     0.130 A 
ATOM     15  C   UNL     1      75.172  41.019  18.725  1.00  0.00     0.020 A 
ATOM     16  C   UNL     1      77.284  42.110  20.195  1.00  0.00     0.093 A 
ATOM     17  C   UNL     1      76.392  41.293  18.101  1.00  0.00     0.047 A 
ATOM     18  C   UNL     1      77.450  41.840  18.835  1.00  0.00     0.119 A 
BRANCH  14  19
ATOM     19  O   UNL     1      75.907  42.125  22.188  1.00  0.00    -0.507 OA
ATOM     20  H   UNL     1      75.503  41.452  22.828  1.00  0.00     0.293 HD
ENDBRANCH  14  19
BRANCH  18  21
ATOM     21  O   UNL     1      78.670  42.116  18.222  1.00  0.00    -0.508 OA
ATOM     22  H   UNL     1      79.079  43.042  18.248  1.00  0.00     0.293 HD
ENDBRANCH  18  21
ENDBRANCH  11  13
ENDBRANCH   2  11
TORSDOF 6
ENDMDL
