MODEL 1
REMARK VINA RESULT:    -3.390      0.000      0.000
REMARK INTER + INTRA:         -14.392
REMARK INTER:                  -8.940
REMARK INTRA:                  -5.452
REMARK UNBOUND:                -5.452
REMARK SMILES CCCCCCCCCCCCCCCCCCCCCCCCCCCCCC(=O)[O-]
REMARK SMILES IDX 16 1 17 2 18 3 19 4 20 5 21 6 22 7 23 8 24 9 25 10 26 11
REMARK SMILES IDX 27 12 28 13 29 14 30 15 31 16 32 17 15 18 14 19 13 20 12 21
REMARK SMILES IDX 11 22 10 23 9 24 8 25 7 26 6 27 5 28 4 29 3 30 2 31 1 32
REMARK H PARENT
REMARK Flexibility Score: inf
ROOT
ATOM      1  C   UNL     1     -94.896 147.399 239.065  1.00  0.00     0.000 C 
ENDROOT
BRANCH   1   2
ATOM      2  C   UNL     1     -93.747 146.617 238.408  1.00  0.00     0.000 C 
BRANCH   2   3
ATOM      3  C   UNL     1     -93.385 145.331 239.181  1.00  0.00     0.000 C 
BRANCH   3   4
ATOM      4  C   UNL     1     -92.350 145.539 240.304  1.00  0.00     0.000 C 
BRANCH   4   5
ATOM      5  C   UNL     1     -92.797 145.095 241.711  1.00  0.00     0.000 C 
BRANCH   5   6
ATOM      6  C   UNL     1     -93.688 146.102 242.464  1.00  0.00     0.000 C 
BRANCH   6   7
ATOM      7  C   UNL     1     -95.103 145.564 242.727  1.00  0.00     0.000 C 
BRANCH   7   8
ATOM      8  C   UNL     1     -96.120 146.711 242.818  1.00  0.00     0.000 C 
BRANCH   8   9
ATOM      9  C   UNL     1     -95.509 148.075 242.462  1.00  0.00     0.000 C 
BRANCH   9  10
ATOM     10  C   UNL     1     -96.188 149.238 243.205  1.00  0.00     0.000 C 
BRANCH  10  11
ATOM     11  C   UNL     1     -97.713 149.278 242.989  1.00  0.00     0.000 C 
BRANCH  11  12
ATOM     12  C   UNL     1     -98.555 149.022 244.252  1.00  0.00     0.000 C 
BRANCH  12  13
ATOM     13  C   UNL     1     -97.718 149.047 245.545  1.00  0.00     0.006 C 
BRANCH  13  14
ATOM     14  C   UNL     1     -98.585 148.875 246.799  1.00  0.00     0.053 C 
BRANCH  14  15
ATOM     15  C   UNL     1     -98.182 149.825 247.886  1.00  0.00     0.041 C 
ATOM     16  O   UNL     1     -97.801 150.993 247.605  1.00  0.00    -0.550 OA
ATOM     17  O   UNL     1     -98.260 149.430 249.215  1.00  0.00    -0.550 OA
ENDBRANCH  14  15
ENDBRANCH  13  14
ENDBRANCH  12  13
ENDBRANCH  11  12
ENDBRANCH  10  11
ENDBRANCH   9  10
ENDBRANCH   8   9
ENDBRANCH   7   8
ENDBRANCH   6   7
ENDBRANCH   5   6
ENDBRANCH   4   5
ENDBRANCH   3   4
ENDBRANCH   2   3
ENDBRANCH   1   2
BRANCH   1  18
ATOM     18  C   UNL     1     -96.175 146.551 239.123  1.00  0.00     0.000 C 
BRANCH  18  19
ATOM     19  C   UNL     1     -97.454 147.395 238.994  1.00  0.00     0.000 C 
BRANCH  19  20
ATOM     20  C   UNL     1     -97.293 148.881 239.379  1.00  0.00     0.000 C 
BRANCH  20  21
ATOM     21  C   UNL     1     -98.506 149.780 239.059  1.00  0.00     0.000 C 
BRANCH  21  22
ATOM     22  C   UNL     1     -99.007 149.696 237.605  1.00  0.00     0.000 C 
BRANCH  22  23
ATOM     23  C   UNL     1     -99.681 150.997 237.135  1.00  0.00     0.000 C 
BRANCH  23  24
ATOM     24  C   UNL     1     -98.713 151.925 236.374  1.00  0.00    -0.000 C 
BRANCH  24  25
ATOM     25  C   UNL     1     -98.136 153.062 237.234  1.00  0.00    -0.000 C 
BRANCH  25  26
ATOM     26  C   UNL     1     -96.640 152.881 237.542  1.00  0.00    -0.000 C 
BRANCH  26  27
ATOM     27  C   UNL     1     -95.932 151.975 236.513  1.00  0.00    -0.000 C 
BRANCH  27  28
ATOM     28  C   UNL     1     -95.173 150.798 237.151  1.00  0.00    -0.000 C 
BRANCH  28  29
ATOM     29  C   UNL     1     -94.847 149.679 236.146  1.00  0.00    -0.000 C 
BRANCH  29  30
ATOM     30  C   UNL     1     -96.100 148.984 235.601  1.00  0.00    -0.000 C 
BRANCH  30  31
ATOM     31  C   UNL     1     -95.907 147.471 235.430  1.00  0.00    -0.003 C 
ATOM     32  C   UNL     1     -97.247 146.751 235.334  1.00  0.00     0.004 C 
ENDBRANCH  30  31
ENDBRANCH  29  30
ENDBRANCH  28  29
ENDBRANCH  27  28
ENDBRANCH  26  27
ENDBRANCH  25  26
ENDBRANCH  24  25
ENDBRANCH  23  24
ENDBRANCH  22  23
ENDBRANCH  21  22
ENDBRANCH  20  21
ENDBRANCH  19  20
ENDBRANCH  18  19
ENDBRANCH   1  18
TORSDOF 28
ENDMDL
MODEL 2
REMARK VINA RESULT:    -3.266      3.332      6.837
REMARK INTER + INTRA:         -14.063
REMARK INTER:                  -8.249
REMARK INTRA:                  -5.814
REMARK UNBOUND:                -5.452
REMARK SMILES CCCCCCCCCCCCCCCCCCCCCCCCCCCCCC(=O)[O-]
REMARK SMILES IDX 16 1 17 2 18 3 19 4 20 5 21 6 22 7 23 8 24 9 25 10 26 11
REMARK SMILES IDX 27 12 28 13 29 14 30 15 31 16 32 17 15 18 14 19 13 20 12 21
REMARK SMILES IDX 11 22 10 23 9 24 8 25 7 26 6 27 5 28 4 29 3 30 2 31 1 32
REMARK H PARENT
REMARK Flexibility Score: inf
ROOT
ATOM      1  C   UNL     1     -95.133 147.767 242.333  1.00  0.00     0.000 C 
ENDROOT
BRANCH   1   2
ATOM      2  C   UNL     1     -93.694 147.405 241.935  1.00  0.00     0.000 C 
BRANCH   2   3
ATOM      3  C   UNL     1     -93.460 145.881 241.862  1.00  0.00     0.000 C 
BRANCH   3   4
ATOM      4  C   UNL     1     -93.323 145.330 240.430  1.00  0.00     0.000 C 
BRANCH   4   5
ATOM      5  C   UNL     1     -93.249 146.391 239.314  1.00  0.00     0.000 C 
BRANCH   5   6
ATOM      6  C   UNL     1     -94.263 146.210 238.167  1.00  0.00     0.000 C 
BRANCH   6   7
ATOM      7  C   UNL     1     -94.640 147.537 237.492  1.00  0.00     0.000 C 
BRANCH   7   8
ATOM      8  C   UNL     1     -94.791 148.659 238.529  1.00  0.00     0.000 C 
BRANCH   8   9
ATOM      9  C   UNL     1     -94.720 150.059 237.901  1.00  0.00     0.000 C 
BRANCH   9  10
ATOM     10  C   UNL     1     -95.092 150.055 236.407  1.00  0.00     0.000 C 
BRANCH  10  11
ATOM     11  C   UNL     1     -95.891 151.302 235.985  1.00  0.00     0.000 C 
BRANCH  11  12
ATOM     12  C   UNL     1     -96.251 152.263 237.133  1.00  0.00     0.000 C 
BRANCH  12  13
ATOM     13  C   UNL     1     -96.994 153.522 236.649  1.00  0.00     0.006 C 
BRANCH  13  14
ATOM     14  C   UNL     1     -98.032 154.009 237.669  1.00  0.00     0.053 C 
BRANCH  14  15
ATOM     15  C   UNL     1     -99.271 154.521 236.998  1.00  0.00     0.041 C 
ATOM     16  O   UNL     1     -99.290 155.671 236.484  1.00  0.00    -0.550 OA
ATOM     17  O   UNL     1    -100.396 153.712 236.911  1.00  0.00    -0.550 OA
ENDBRANCH  14  15
ENDBRANCH  13  14
ENDBRANCH  12  13
ENDBRANCH  11  12
ENDBRANCH  10  11
ENDBRANCH   9  10
ENDBRANCH   8   9
ENDBRANCH   7   8
ENDBRANCH   6   7
ENDBRANCH   5   6
ENDBRANCH   4   5
ENDBRANCH   3   4
ENDBRANCH   2   3
ENDBRANCH   1   2
BRANCH   1  18
ATOM     18  C   UNL     1     -95.885 146.532 242.853  1.00  0.00     0.000 C 
BRANCH  18  19
ATOM     19  C   UNL     1     -97.123 146.190 242.006  1.00  0.00     0.000 C 
BRANCH  19  20
ATOM     20  C   UNL     1     -96.939 146.371 240.485  1.00  0.00     0.000 C 
BRANCH  20  21
ATOM     21  C   UNL     1     -98.017 147.227 239.788  1.00  0.00     0.000 C 
BRANCH  21  22
ATOM     22  C   UNL     1     -98.290 146.854 238.319  1.00  0.00     0.000 C 
BRANCH  22  23
ATOM     23  C   UNL     1     -98.860 148.029 237.506  1.00  0.00     0.000 C 
BRANCH  23  24
ATOM     24  C   UNL     1     -98.404 149.399 238.045  1.00  0.00    -0.000 C 
BRANCH  24  25
ATOM     25  C   UNL     1     -99.495 150.483 237.994  1.00  0.00    -0.000 C 
BRANCH  25  26
ATOM     26  C   UNL     1     -99.819 151.074 239.376  1.00  0.00    -0.000 C 
BRANCH  26  27
ATOM     27  C   UNL     1     -98.719 150.776 240.416  1.00  0.00    -0.000 C 
BRANCH  27  28
ATOM     28  C   UNL     1     -99.255 150.140 241.712  1.00  0.00    -0.000 C 
BRANCH  28  29
ATOM     29  C   UNL     1     -98.139 149.768 242.703  1.00  0.00    -0.000 C 
BRANCH  29  30
ATOM     30  C   UNL     1     -98.658 149.001 243.926  1.00  0.00    -0.000 C 
BRANCH  30  31
ATOM     31  C   UNL     1     -97.602 148.870 245.032  1.00  0.00    -0.003 C 
ATOM     32  C   UNL     1     -98.110 149.443 246.349  1.00  0.00     0.004 C 
ENDBRANCH  30  31
ENDBRANCH  29  30
ENDBRANCH  28  29
ENDBRANCH  27  28
ENDBRANCH  26  27
ENDBRANCH  25  26
ENDBRANCH  24  25
ENDBRANCH  23  24
ENDBRANCH  22  23
ENDBRANCH  21  22
ENDBRANCH  20  21
ENDBRANCH  19  20
ENDBRANCH  18  19
ENDBRANCH   1  18
TORSDOF 28
ENDMDL
MODEL 3
REMARK VINA RESULT:    -3.248      3.923      7.757
REMARK INTER + INTRA:         -14.017
REMARK INTER:                  -8.848
REMARK INTRA:                  -5.169
REMARK UNBOUND:                -5.452
REMARK SMILES CCCCCCCCCCCCCCCCCCCCCCCCCCCCCC(=O)[O-]
REMARK SMILES IDX 16 1 17 2 18 3 19 4 20 5 21 6 22 7 23 8 24 9 25 10 26 11
REMARK SMILES IDX 27 12 28 13 29 14 30 15 31 16 32 17 15 18 14 19 13 20 12 21
REMARK SMILES IDX 11 22 10 23 9 24 8 25 7 26 6 27 5 28 4 29 3 30 2 31 1 32
REMARK H PARENT
REMARK Flexibility Score: inf
ROOT
ATOM      1  C   UNL     1     -93.821 146.172 242.223  1.00  0.00     0.000 C 
ENDROOT
BRANCH   1   2
ATOM      2  C   UNL     1     -93.113 147.012 241.149  1.00  0.00     0.000 C 
BRANCH   2   3
ATOM      3  C   UNL     1     -93.284 146.431 239.729  1.00  0.00     0.000 C 
BRANCH   3   4
ATOM      4  C   UNL     1     -94.461 147.032 238.937  1.00  0.00     0.000 C 
BRANCH   4   5
ATOM      5  C   UNL     1     -94.607 148.564 239.023  1.00  0.00     0.000 C 
BRANCH   5   6
ATOM      6  C   UNL     1     -94.844 149.278 237.677  1.00  0.00     0.000 C 
BRANCH   6   7
ATOM      7  C   UNL     1     -95.624 148.414 236.675  1.00  0.00     0.000 C 
BRANCH   7   8
ATOM      8  C   UNL     1     -96.158 149.265 235.513  1.00  0.00     0.000 C 
BRANCH   8   9
ATOM      9  C   UNL     1     -95.511 150.657 235.453  1.00  0.00     0.000 C 
BRANCH   9  10
ATOM     10  C   UNL     1     -96.544 151.778 235.240  1.00  0.00     0.000 C 
BRANCH  10  11
ATOM     11  C   UNL     1     -97.305 152.145 236.529  1.00  0.00     0.000 C 
BRANCH  11  12
ATOM     12  C   UNL     1     -96.573 153.129 237.458  1.00  0.00     0.000 C 
BRANCH  12  13
ATOM     13  C   UNL     1     -97.294 154.485 237.581  1.00  0.00     0.006 C 
BRANCH  13  14
ATOM     14  C   UNL     1     -96.501 155.623 236.924  1.00  0.00     0.053 C 
BRANCH  14  15
ATOM     15  C   UNL     1     -97.201 156.157 235.710  1.00  0.00     0.041 C 
ATOM     16  O   UNL     1     -97.670 157.326 235.706  1.00  0.00    -0.550 OA
ATOM     17  O   UNL     1     -97.305 155.372 234.570  1.00  0.00    -0.550 OA
ENDBRANCH  14  15
ENDBRANCH  13  14
ENDBRANCH  12  13
ENDBRANCH  11  12
ENDBRANCH  10  11
ENDBRANCH   9  10
ENDBRANCH   8   9
ENDBRANCH   7   8
ENDBRANCH   6   7
ENDBRANCH   5   6
ENDBRANCH   4   5
ENDBRANCH   3   4
ENDBRANCH   2   3
ENDBRANCH   1   2
BRANCH   1  18
ATOM     18  C   UNL     1     -95.134 146.836 242.663  1.00  0.00     0.000 C 
BRANCH  18  19
ATOM     19  C   UNL     1     -95.164 148.346 242.369  1.00  0.00     0.000 C 
BRANCH  19  20
ATOM     20  C   UNL     1     -96.333 149.111 243.023  1.00  0.00     0.000 C 
BRANCH  20  21
ATOM     21  C   UNL     1     -97.081 148.345 244.134  1.00  0.00     0.000 C 
BRANCH  21  22
ATOM     22  C   UNL     1     -98.228 149.127 244.800  1.00  0.00     0.000 C 
BRANCH  22  23
ATOM     23  C   UNL     1     -99.616 148.658 244.330  1.00  0.00     0.000 C 
BRANCH  23  24
ATOM     24  C   UNL     1     -99.579 147.263 243.675  1.00  0.00    -0.000 C 
BRANCH  24  25
ATOM     25  C   UNL     1    -100.689 147.034 242.636  1.00  0.00    -0.000 C 
BRANCH  25  26
ATOM     26  C   UNL     1    -100.143 146.679 241.242  1.00  0.00    -0.000 C 
BRANCH  26  27
ATOM     27  C   UNL     1     -98.606 146.544 241.230  1.00  0.00    -0.000 C 
BRANCH  27  28
ATOM     28  C   UNL     1     -97.925 147.360 240.116  1.00  0.00    -0.000 C 
BRANCH  28  29
ATOM     29  C   UNL     1     -98.846 148.436 239.514  1.00  0.00    -0.000 C 
BRANCH  29  30
ATOM     30  C   UNL     1     -98.137 149.781 239.311  1.00  0.00    -0.000 C 
BRANCH  30  31
ATOM     31  C   UNL     1     -98.855 150.938 240.018  1.00  0.00    -0.003 C 
ATOM     32  C   UNL     1     -99.656 150.440 241.216  1.00  0.00     0.004 C 
ENDBRANCH  30  31
ENDBRANCH  29  30
ENDBRANCH  28  29
ENDBRANCH  27  28
ENDBRANCH  26  27
ENDBRANCH  25  26
ENDBRANCH  24  25
ENDBRANCH  23  24
ENDBRANCH  22  23
ENDBRANCH  21  22
ENDBRANCH  20  21
ENDBRANCH  19  20
ENDBRANCH  18  19
ENDBRANCH   1  18
TORSDOF 28
ENDMDL
MODEL 4
REMARK VINA RESULT:    -3.242      3.308      7.486
REMARK INTER + INTRA:         -14.001
REMARK INTER:                  -8.674
REMARK INTRA:                  -5.328
REMARK UNBOUND:                -5.452
REMARK SMILES CCCCCCCCCCCCCCCCCCCCCCCCCCCCCC(=O)[O-]
REMARK SMILES IDX 16 1 17 2 18 3 19 4 20 5 21 6 22 7 23 8 24 9 25 10 26 11
REMARK SMILES IDX 27 12 28 13 29 14 30 15 31 16 32 17 15 18 14 19 13 20 12 21
REMARK SMILES IDX 11 22 10 23 9 24 8 25 7 26 6 27 5 28 4 29 3 30 2 31 1 32
REMARK H PARENT
REMARK Flexibility Score: inf
ROOT
ATOM      1  C   UNL     1     -94.780 148.135 241.814  1.00  0.00     0.000 C 
ENDROOT
BRANCH   1   2
ATOM      2  C   UNL     1     -93.749 147.033 242.101  1.00  0.00     0.000 C 
BRANCH   2   3
ATOM      3  C   UNL     1     -92.626 146.978 241.043  1.00  0.00     0.000 C 
BRANCH   3   4
ATOM      4  C   UNL     1     -92.400 145.582 240.432  1.00  0.00     0.000 C 
BRANCH   4   5
ATOM      5  C   UNL     1     -93.202 145.280 239.150  1.00  0.00     0.000 C 
BRANCH   5   6
ATOM      6  C   UNL     1     -92.354 145.058 237.882  1.00  0.00     0.000 C 
BRANCH   6   7
ATOM      7  C   UNL     1     -92.760 145.983 236.726  1.00  0.00     0.000 C 
BRANCH   7   8
ATOM      8  C   UNL     1     -94.056 146.738 237.054  1.00  0.00     0.000 C 
BRANCH   8   9
ATOM      9  C   UNL     1     -94.919 147.002 235.810  1.00  0.00     0.000 C 
BRANCH   9  10
ATOM     10  C   UNL     1     -95.354 148.474 235.695  1.00  0.00     0.000 C 
BRANCH  10  11
ATOM     11  C   UNL     1     -94.454 149.430 236.500  1.00  0.00     0.000 C 
BRANCH  11  12
ATOM     12  C   UNL     1     -95.205 150.484 237.331  1.00  0.00     0.000 C 
BRANCH  12  13
ATOM     13  C   UNL     1     -96.735 150.388 237.179  1.00  0.00     0.006 C 
BRANCH  13  14
ATOM     14  C   UNL     1     -97.437 151.701 237.549  1.00  0.00     0.053 C 
BRANCH  14  15
ATOM     15  C   UNL     1     -96.908 152.855 236.754  1.00  0.00     0.041 C 
ATOM     16  O   UNL     1     -96.323 153.813 237.329  1.00  0.00    -0.550 OA
ATOM     17  O   UNL     1     -97.030 152.858 235.372  1.00  0.00    -0.550 OA
ENDBRANCH  14  15
ENDBRANCH  13  14
ENDBRANCH  12  13
ENDBRANCH  11  12
ENDBRANCH  10  11
ENDBRANCH   9  10
ENDBRANCH   8   9
ENDBRANCH   7   8
ENDBRANCH   6   7
ENDBRANCH   5   6
ENDBRANCH   4   5
ENDBRANCH   3   4
ENDBRANCH   2   3
ENDBRANCH   1   2
BRANCH   1  18
ATOM     18  C   UNL     1     -95.098 148.213 240.314  1.00  0.00     0.000 C 
BRANCH  18  19
ATOM     19  C   UNL     1     -96.532 147.764 239.986  1.00  0.00     0.000 C 
BRANCH  19  20
ATOM     20  C   UNL     1     -96.655 146.323 239.450  1.00  0.00     0.000 C 
BRANCH  20  21
ATOM     21  C   UNL     1     -97.561 145.387 240.279  1.00  0.00     0.000 C 
BRANCH  21  22
ATOM     22  C   UNL     1     -97.701 145.770 241.763  1.00  0.00     0.000 C 
BRANCH  22  23
ATOM     23  C   UNL     1     -96.662 145.071 242.656  1.00  0.00     0.000 C 
BRANCH  23  24
ATOM     24  C   UNL     1     -96.716 145.556 244.119  1.00  0.00    -0.000 C 
BRANCH  24  25
ATOM     25  C   UNL     1     -98.076 146.145 244.530  1.00  0.00    -0.000 C 
BRANCH  25  26
ATOM     26  C   UNL     1     -97.963 147.187 245.656  1.00  0.00    -0.000 C 
BRANCH  26  27
ATOM     27  C   UNL     1     -97.387 148.529 245.159  1.00  0.00    -0.000 C 
BRANCH  27  28
ATOM     28  C   UNL     1     -98.354 149.317 244.257  1.00  0.00    -0.000 C 
BRANCH  28  29
ATOM     29  C   UNL     1     -97.736 149.694 242.900  1.00  0.00    -0.000 C 
BRANCH  29  30
ATOM     30  C   UNL     1     -98.781 149.818 241.783  1.00  0.00    -0.000 C 
BRANCH  30  31
ATOM     31  C   UNL     1    -100.119 149.164 242.153  1.00  0.00    -0.003 C 
ATOM     32  C   UNL     1    -100.482 148.057 241.171  1.00  0.00     0.004 C 
ENDBRANCH  30  31
ENDBRANCH  29  30
ENDBRANCH  28  29
ENDBRANCH  27  28
ENDBRANCH  26  27
ENDBRANCH  25  26
ENDBRANCH  24  25
ENDBRANCH  23  24
ENDBRANCH  22  23
ENDBRANCH  21  22
ENDBRANCH  20  21
ENDBRANCH  19  20
ENDBRANCH  18  19
ENDBRANCH   1  18
TORSDOF 28
ENDMDL
MODEL 5
REMARK VINA RESULT:    -3.220      1.758      4.412
REMARK INTER + INTRA:         -13.944
REMARK INTER:                  -8.822
REMARK INTRA:                  -5.122
REMARK UNBOUND:                -5.452
REMARK SMILES CCCCCCCCCCCCCCCCCCCCCCCCCCCCCC(=O)[O-]
REMARK SMILES IDX 16 1 17 2 18 3 19 4 20 5 21 6 22 7 23 8 24 9 25 10 26 11
REMARK SMILES IDX 27 12 28 13 29 14 30 15 31 16 32 17 15 18 14 19 13 20 12 21
REMARK SMILES IDX 11 22 10 23 9 24 8 25 7 26 6 27 5 28 4 29 3 30 2 31 1 32
REMARK H PARENT
REMARK Flexibility Score: inf
ROOT
ATOM      1  C   UNL     1     -98.089 148.787 237.198  1.00  0.00     0.000 C 
ENDROOT
BRANCH   1   2
ATOM      2  C   UNL     1     -98.025 147.331 237.684  1.00  0.00     0.000 C 
BRANCH   2   3
ATOM      3  C   UNL     1     -96.991 147.124 238.811  1.00  0.00     0.000 C 
BRANCH   3   4
ATOM      4  C   UNL     1     -96.205 148.394 239.189  1.00  0.00     0.000 C 
BRANCH   4   5
ATOM      5  C   UNL     1     -94.671 148.282 239.086  1.00  0.00     0.000 C 
BRANCH   5   6
ATOM      6  C   UNL     1     -94.134 146.870 238.777  1.00  0.00     0.000 C 
BRANCH   6   7
ATOM      7  C   UNL     1     -93.552 146.172 240.015  1.00  0.00     0.000 C 
BRANCH   7   8
ATOM      8  C   UNL     1     -92.951 147.193 240.992  1.00  0.00     0.000 C 
BRANCH   8   9
ATOM      9  C   UNL     1     -93.606 147.139 242.381  1.00  0.00     0.000 C 
BRANCH   9  10
ATOM     10  C   UNL     1     -94.876 146.271 242.401  1.00  0.00     0.000 C 
BRANCH  10  11
ATOM     11  C   UNL     1     -96.166 147.099 242.556  1.00  0.00     0.000 C 
BRANCH  11  12
ATOM     12  C   UNL     1     -95.947 148.602 242.803  1.00  0.00     0.000 C 
BRANCH  12  13
ATOM     13  C   UNL     1     -97.096 149.253 243.597  1.00  0.00     0.006 C 
BRANCH  13  14
ATOM     14  C   UNL     1     -98.055 148.210 244.185  1.00  0.00     0.053 C 
BRANCH  14  15
ATOM     15  C   UNL     1     -97.950 148.140 245.678  1.00  0.00     0.041 C 
ATOM     16  O   UNL     1     -98.184 147.061 246.286  1.00  0.00    -0.550 OA
ATOM     17  O   UNL     1     -97.558 149.260 246.398  1.00  0.00    -0.550 OA
ENDBRANCH  14  15
ENDBRANCH  13  14
ENDBRANCH  12  13
ENDBRANCH  11  12
ENDBRANCH  10  11
ENDBRANCH   9  10
ENDBRANCH   8   9
ENDBRANCH   7   8
ENDBRANCH   6   7
ENDBRANCH   5   6
ENDBRANCH   4   5
ENDBRANCH   3   4
ENDBRANCH   2   3
ENDBRANCH   1   2
BRANCH   1  18
ATOM     18  C   UNL     1     -97.941 148.863 235.671  1.00  0.00     0.000 C 
BRANCH  18  19
ATOM     19  C   UNL     1     -96.644 148.205 235.167  1.00  0.00     0.000 C 
BRANCH  19  20
ATOM     20  C   UNL     1     -95.349 148.961 235.530  1.00  0.00     0.000 C 
BRANCH  20  21
ATOM     21  C   UNL     1     -95.466 150.500 235.543  1.00  0.00     0.000 C 
BRANCH  21  22
ATOM     22  C   UNL     1     -95.193 151.159 236.907  1.00  0.00     0.000 C 
BRANCH  22  23
ATOM     23  C   UNL     1     -96.021 152.436 237.125  1.00  0.00     0.000 C 
BRANCH  23  24
ATOM     24  C   UNL     1     -97.245 152.515 236.191  1.00  0.00    -0.000 C 
BRANCH  24  25
ATOM     25  C   UNL     1     -98.170 153.711 236.476  1.00  0.00    -0.000 C 
BRANCH  25  26
ATOM     26  C   UNL     1     -98.817 153.649 237.870  1.00  0.00    -0.000 C 
BRANCH  26  27
ATOM     27  C   UNL     1     -99.149 152.205 238.302  1.00  0.00    -0.000 C 
BRANCH  27  28
ATOM     28  C   UNL     1     -99.347 152.048 239.820  1.00  0.00    -0.000 C 
BRANCH  28  29
ATOM     29  C   UNL     1     -98.923 150.664 240.340  1.00  0.00    -0.000 C 
BRANCH  29  30
ATOM     30  C   UNL     1     -99.808 150.160 241.487  1.00  0.00    -0.000 C 
BRANCH  30  31
ATOM     31  C   UNL     1    -101.265 150.627 241.356  1.00  0.00    -0.003 C 
ATOM     32  C   UNL     1    -101.683 151.472 242.553  1.00  0.00     0.004 C 
ENDBRANCH  30  31
ENDBRANCH  29  30
ENDBRANCH  28  29
ENDBRANCH  27  28
ENDBRANCH  26  27
ENDBRANCH  25  26
ENDBRANCH  24  25
ENDBRANCH  23  24
ENDBRANCH  22  23
ENDBRANCH  21  22
ENDBRANCH  20  21
ENDBRANCH  19  20
ENDBRANCH  18  19
ENDBRANCH   1  18
TORSDOF 28
ENDMDL
MODEL 6
REMARK VINA RESULT:    -3.207      2.937      5.840
REMARK INTER + INTRA:         -13.909
REMARK INTER:                  -8.540
REMARK INTRA:                  -5.370
REMARK UNBOUND:                -5.452
REMARK SMILES CCCCCCCCCCCCCCCCCCCCCCCCCCCCCC(=O)[O-]
REMARK SMILES IDX 16 1 17 2 18 3 19 4 20 5 21 6 22 7 23 8 24 9 25 10 26 11
REMARK SMILES IDX 27 12 28 13 29 14 30 15 31 16 32 17 15 18 14 19 13 20 12 21
REMARK SMILES IDX 11 22 10 23 9 24 8 25 7 26 6 27 5 28 4 29 3 30 2 31 1 32
REMARK H PARENT
REMARK Flexibility Score: inf
ROOT
ATOM      1  C   UNL     1     -94.421 147.678 241.971  1.00  0.00     0.000 C 
ENDROOT
BRANCH   1   2
ATOM      2  C   UNL     1     -94.738 146.323 242.626  1.00  0.00     0.000 C 
BRANCH   2   3
ATOM      3  C   UNL     1     -96.234 145.955 242.540  1.00  0.00     0.000 C 
BRANCH   3   4
ATOM      4  C   UNL     1     -96.870 145.576 243.891  1.00  0.00     0.000 C 
BRANCH   4   5
ATOM      5  C   UNL     1     -97.916 146.571 244.436  1.00  0.00     0.000 C 
BRANCH   5   6
ATOM      6  C   UNL     1     -97.346 147.908 244.948  1.00  0.00     0.000 C 
BRANCH   6   7
ATOM      7  C   UNL     1     -98.075 149.127 244.365  1.00  0.00     0.000 C 
BRANCH   7   8
ATOM      8  C   UNL     1     -97.409 149.597 243.064  1.00  0.00     0.000 C 
BRANCH   8   9
ATOM      9  C   UNL     1     -98.415 149.785 241.918  1.00  0.00     0.000 C 
BRANCH   9  10
ATOM     10  C   UNL     1     -99.001 148.451 241.422  1.00  0.00     0.000 C 
BRANCH  10  11
ATOM     11  C   UNL     1     -98.287 147.913 240.167  1.00  0.00     0.000 C 
BRANCH  11  12
ATOM     12  C   UNL     1     -97.573 148.979 239.318  1.00  0.00     0.000 C 
BRANCH  12  13
ATOM     13  C   UNL     1     -98.383 149.397 238.076  1.00  0.00     0.006 C 
BRANCH  13  14
ATOM     14  C   UNL     1     -99.231 150.650 238.333  1.00  0.00     0.053 C 
BRANCH  14  15
ATOM     15  C   UNL     1    -100.675 150.308 238.540  1.00  0.00     0.041 C 
ATOM     16  O   UNL     1    -101.081 149.125 238.387  1.00  0.00    -0.550 OA
ATOM     17  O   UNL     1    -101.570 151.293 238.937  1.00  0.00    -0.550 OA
ENDBRANCH  14  15
ENDBRANCH  13  14
ENDBRANCH  12  13
ENDBRANCH  11  12
ENDBRANCH  10  11
ENDBRANCH   9  10
ENDBRANCH   8   9
ENDBRANCH   7   8
ENDBRANCH   6   7
ENDBRANCH   5   6
ENDBRANCH   4   5
ENDBRANCH   3   4
ENDBRANCH   2   3
ENDBRANCH   1   2
BRANCH   1  18
ATOM     18  C   UNL     1     -93.285 147.540 240.948  1.00  0.00     0.000 C 
BRANCH  18  19
ATOM     19  C   UNL     1     -92.889 146.075 240.692  1.00  0.00     0.000 C 
BRANCH  19  20
ATOM     20  C   UNL     1     -93.208 145.556 239.274  1.00  0.00     0.000 C 
BRANCH  20  21
ATOM     21  C   UNL     1     -94.691 145.214 239.017  1.00  0.00     0.000 C 
BRANCH  21  22
ATOM     22  C   UNL     1     -95.445 146.225 238.134  1.00  0.00     0.000 C 
BRANCH  22  23
ATOM     23  C   UNL     1     -94.723 146.505 236.805  1.00  0.00     0.000 C 
BRANCH  23  24
ATOM     24  C   UNL     1     -94.567 148.012 236.521  1.00  0.00    -0.000 C 
BRANCH  24  25
ATOM     25  C   UNL     1     -94.603 148.890 237.784  1.00  0.00    -0.000 C 
BRANCH  25  26
ATOM     26  C   UNL     1     -94.686 150.393 237.467  1.00  0.00    -0.000 C 
BRANCH  26  27
ATOM     27  C   UNL     1     -95.239 150.667 236.053  1.00  0.00    -0.000 C 
BRANCH  27  28
ATOM     28  C   UNL     1     -96.239 151.836 236.000  1.00  0.00    -0.000 C 
BRANCH  28  29
ATOM     29  C   UNL     1     -96.099 152.800 237.190  1.00  0.00    -0.000 C 
BRANCH  29  30
ATOM     30  C   UNL     1     -97.351 153.656 237.416  1.00  0.00    -0.000 C 
BRANCH  30  31
ATOM     31  C   UNL     1     -97.380 154.905 236.525  1.00  0.00    -0.003 C 
ATOM     32  C   UNL     1     -98.502 154.823 235.496  1.00  0.00     0.004 C 
ENDBRANCH  30  31
ENDBRANCH  29  30
ENDBRANCH  28  29
ENDBRANCH  27  28
ENDBRANCH  26  27
ENDBRANCH  25  26
ENDBRANCH  24  25
ENDBRANCH  23  24
ENDBRANCH  22  23
ENDBRANCH  21  22
ENDBRANCH  20  21
ENDBRANCH  19  20
ENDBRANCH  18  19
ENDBRANCH   1  18
TORSDOF 28
ENDMDL
MODEL 7
REMARK VINA RESULT:    -3.194      3.722      6.993
REMARK INTER + INTRA:         -13.873
REMARK INTER:                  -8.585
REMARK INTRA:                  -5.288
REMARK UNBOUND:                -5.452
REMARK SMILES CCCCCCCCCCCCCCCCCCCCCCCCCCCCCC(=O)[O-]
REMARK SMILES IDX 16 1 17 2 18 3 19 4 20 5 21 6 22 7 23 8 24 9 25 10 26 11
REMARK SMILES IDX 27 12 28 13 29 14 30 15 31 16 32 17 15 18 14 19 13 20 12 21
REMARK SMILES IDX 11 22 10 23 9 24 8 25 7 26 6 27 5 28 4 29 3 30 2 31 1 32
REMARK H PARENT
REMARK Flexibility Score: inf
ROOT
ATOM      1  C   UNL     1     -93.868 147.484 240.650  1.00  0.00     0.000 C 
ENDROOT
BRANCH   1   2
ATOM      2  C   UNL     1     -92.823 146.358 240.581  1.00  0.00     0.000 C 
BRANCH   2   3
ATOM      3  C   UNL     1     -92.840 145.611 239.230  1.00  0.00     0.000 C 
BRANCH   3   4
ATOM      4  C   UNL     1     -94.244 145.181 238.764  1.00  0.00     0.000 C 
BRANCH   4   5
ATOM      5  C   UNL     1     -94.665 145.687 237.369  1.00  0.00     0.000 C 
BRANCH   5   6
ATOM      6  C   UNL     1     -93.647 146.608 236.669  1.00  0.00     0.000 C 
BRANCH   6   7
ATOM      7  C   UNL     1     -94.246 147.965 236.273  1.00  0.00     0.000 C 
BRANCH   7   8
ATOM      8  C   UNL     1     -94.865 148.670 237.489  1.00  0.00     0.000 C 
BRANCH   8   9
ATOM      9  C   UNL     1     -94.852 150.200 237.356  1.00  0.00     0.000 C 
BRANCH   9  10
ATOM     10  C   UNL     1     -95.237 150.674 235.943  1.00  0.00     0.000 C 
BRANCH  10  11
ATOM     11  C   UNL     1     -96.261 151.824 235.955  1.00  0.00     0.000 C 
BRANCH  11  12
ATOM     12  C   UNL     1     -96.821 152.181 237.343  1.00  0.00     0.000 C 
BRANCH  12  13
ATOM     13  C   UNL     1     -97.438 153.592 237.396  1.00  0.00     0.006 C 
BRANCH  13  14
ATOM     14  C   UNL     1     -97.291 154.338 236.064  1.00  0.00     0.053 C 
BRANCH  14  15
ATOM     15  C   UNL     1     -97.512 155.811 236.226  1.00  0.00     0.041 C 
ATOM     16  O   UNL     1     -98.661 156.260 236.486  1.00  0.00    -0.550 OA
ATOM     17  O   UNL     1     -96.440 156.688 236.124  1.00  0.00    -0.550 OA
ENDBRANCH  14  15
ENDBRANCH  13  14
ENDBRANCH  12  13
ENDBRANCH  11  12
ENDBRANCH  10  11
ENDBRANCH   9  10
ENDBRANCH   8   9
ENDBRANCH   7   8
ENDBRANCH   6   7
ENDBRANCH   5   6
ENDBRANCH   4   5
ENDBRANCH   3   4
ENDBRANCH   2   3
ENDBRANCH   1   2
BRANCH   1  18
ATOM     18  C   UNL     1     -94.613 147.458 241.992  1.00  0.00     0.000 C 
BRANCH  18  19
ATOM     19  C   UNL     1     -95.392 146.150 242.215  1.00  0.00     0.000 C 
BRANCH  19  20
ATOM     20  C   UNL     1     -96.216 146.100 243.519  1.00  0.00     0.000 C 
BRANCH  20  21
ATOM     21  C   UNL     1     -97.739 146.277 243.342  1.00  0.00     0.000 C 
BRANCH  21  22
ATOM     22  C   UNL     1     -98.346 147.464 244.112  1.00  0.00     0.000 C 
BRANCH  22  23
ATOM     23  C   UNL     1     -97.340 148.607 244.328  1.00  0.00     0.000 C 
BRANCH  23  24
ATOM     24  C   UNL     1     -97.340 149.624 243.170  1.00  0.00    -0.000 C 
BRANCH  24  25
ATOM     25  C   UNL     1     -98.702 149.771 242.471  1.00  0.00    -0.000 C 
BRANCH  25  26
ATOM     26  C   UNL     1     -98.592 149.773 240.936  1.00  0.00    -0.000 C 
BRANCH  26  27
ATOM     27  C   UNL     1     -97.667 148.655 240.411  1.00  0.00    -0.000 C 
BRANCH  27  28
ATOM     28  C   UNL     1     -98.428 147.432 239.869  1.00  0.00    -0.000 C 
BRANCH  28  29
ATOM     29  C   UNL     1     -97.691 146.731 238.715  1.00  0.00    -0.000 C 
BRANCH  29  30
ATOM     30  C   UNL     1     -98.429 146.851 237.375  1.00  0.00    -0.000 C 
BRANCH  30  31
ATOM     31  C   UNL     1     -98.429 148.286 236.830  1.00  0.00    -0.003 C 
ATOM     32  C   UNL     1     -97.999 148.320 235.368  1.00  0.00     0.004 C 
ENDBRANCH  30  31
ENDBRANCH  29  30
ENDBRANCH  28  29
ENDBRANCH  27  28
ENDBRANCH  26  27
ENDBRANCH  25  26
ENDBRANCH  24  25
ENDBRANCH  23  24
ENDBRANCH  22  23
ENDBRANCH  21  22
ENDBRANCH  20  21
ENDBRANCH  19  20
ENDBRANCH  18  19
ENDBRANCH   1  18
TORSDOF 28
ENDMDL
MODEL 8
REMARK VINA RESULT:    -3.182      1.620      2.983
REMARK INTER + INTRA:         -13.843
REMARK INTER:                  -8.228
REMARK INTRA:                  -5.615
REMARK UNBOUND:                -5.452
REMARK SMILES CCCCCCCCCCCCCCCCCCCCCCCCCCCCCC(=O)[O-]
REMARK SMILES IDX 16 1 17 2 18 3 19 4 20 5 21 6 22 7 23 8 24 9 25 10 26 11
REMARK SMILES IDX 27 12 28 13 29 14 30 15 31 16 32 17 15 18 14 19 13 20 12 21
REMARK SMILES IDX 11 22 10 23 9 24 8 25 7 26 6 27 5 28 4 29 3 30 2 31 1 32
REMARK H PARENT
REMARK Flexibility Score: inf
ROOT
ATOM      1  C   UNL     1     -97.850 147.760 239.196  1.00  0.00     0.000 C 
ENDROOT
BRANCH   1   2
ATOM      2  C   UNL     1     -96.626 147.053 238.592  1.00  0.00     0.000 C 
BRANCH   2   3
ATOM      3  C   UNL     1     -95.493 148.034 238.223  1.00  0.00     0.000 C 
BRANCH   3   4
ATOM      4  C   UNL     1     -94.369 147.410 237.374  1.00  0.00     0.000 C 
BRANCH   4   5
ATOM      5  C   UNL     1     -94.076 145.922 237.649  1.00  0.00     0.000 C 
BRANCH   5   6
ATOM      6  C   UNL     1     -92.903 145.650 238.612  1.00  0.00     0.000 C 
BRANCH   6   7
ATOM      7  C   UNL     1     -93.350 145.541 240.077  1.00  0.00     0.000 C 
BRANCH   7   8
ATOM      8  C   UNL     1     -93.096 146.854 240.830  1.00  0.00     0.000 C 
BRANCH   8   9
ATOM      9  C   UNL     1     -94.045 147.046 242.023  1.00  0.00     0.000 C 
BRANCH   9  10
ATOM     10  C   UNL     1     -95.002 148.236 241.831  1.00  0.00     0.000 C 
BRANCH  10  11
ATOM     11  C   UNL     1     -96.214 148.190 242.779  1.00  0.00     0.000 C 
BRANCH  11  12
ATOM     12  C   UNL     1     -96.956 149.527 242.952  1.00  0.00     0.000 C 
BRANCH  12  13
ATOM     13  C   UNL     1     -98.488 149.373 242.900  1.00  0.00     0.006 C 
BRANCH  13  14
ATOM     14  C   UNL     1     -99.002 148.353 243.925  1.00  0.00     0.053 C 
BRANCH  14  15
ATOM     15  C   UNL     1     -98.779 148.820 245.331  1.00  0.00     0.041 C 
ATOM     16  O   UNL     1     -99.546 149.675 245.850  1.00  0.00    -0.550 OA
ATOM     17  O   UNL     1     -97.741 148.285 246.082  1.00  0.00    -0.550 OA
ENDBRANCH  14  15
ENDBRANCH  13  14
ENDBRANCH  12  13
ENDBRANCH  11  12
ENDBRANCH  10  11
ENDBRANCH   9  10
ENDBRANCH   8   9
ENDBRANCH   7   8
ENDBRANCH   6   7
ENDBRANCH   5   6
ENDBRANCH   4   5
ENDBRANCH   3   4
ENDBRANCH   2   3
ENDBRANCH   1   2
BRANCH   1  18
ATOM     18  C   UNL     1     -97.621 149.276 239.280  1.00  0.00     0.000 C 
BRANCH  18  19
ATOM     19  C   UNL     1     -98.928 150.082 239.175  1.00  0.00     0.000 C 
BRANCH  19  20
ATOM     20  C   UNL     1     -98.877 151.487 239.810  1.00  0.00     0.000 C 
BRANCH  20  21
ATOM     21  C   UNL     1    -100.115 152.371 239.552  1.00  0.00     0.000 C 
BRANCH  21  22
ATOM     22  C   UNL     1    -100.153 153.043 238.167  1.00  0.00     0.000 C 
BRANCH  22  23
ATOM     23  C   UNL     1     -98.970 153.999 237.940  1.00  0.00     0.000 C 
BRANCH  23  24
ATOM     24  C   UNL     1     -98.555 154.088 236.458  1.00  0.00    -0.000 C 
BRANCH  24  25
ATOM     25  C   UNL     1     -97.140 153.556 236.174  1.00  0.00    -0.000 C 
BRANCH  25  26
ATOM     26  C   UNL     1     -96.492 152.891 237.400  1.00  0.00    -0.000 C 
BRANCH  26  27
ATOM     27  C   UNL     1     -95.723 151.604 237.034  1.00  0.00    -0.000 C 
BRANCH  27  28
ATOM     28  C   UNL     1     -96.013 151.099 235.609  1.00  0.00    -0.000 C 
BRANCH  28  29
ATOM     29  C   UNL     1     -97.071 149.983 235.572  1.00  0.00    -0.000 C 
BRANCH  29  30
ATOM     30  C   UNL     1     -98.295 150.349 234.723  1.00  0.00    -0.000 C 
BRANCH  30  31
ATOM     31  C   UNL     1     -99.571 150.498 235.563  1.00  0.00    -0.003 C 
ATOM     32  C   UNL     1    -100.117 149.139 235.982  1.00  0.00     0.004 C 
ENDBRANCH  30  31
ENDBRANCH  29  30
ENDBRANCH  28  29
ENDBRANCH  27  28
ENDBRANCH  26  27
ENDBRANCH  25  26
ENDBRANCH  24  25
ENDBRANCH  23  24
ENDBRANCH  22  23
ENDBRANCH  21  22
ENDBRANCH  20  21
ENDBRANCH  19  20
ENDBRANCH  18  19
ENDBRANCH   1  18
TORSDOF 28
ENDMDL
MODEL 9
REMARK VINA RESULT:    -3.174      3.199      6.258
REMARK INTER + INTRA:         -13.823
REMARK INTER:                  -7.446
REMARK INTRA:                  -6.377
REMARK UNBOUND:                -5.452
REMARK SMILES CCCCCCCCCCCCCCCCCCCCCCCCCCCCCC(=O)[O-]
REMARK SMILES IDX 16 1 17 2 18 3 19 4 20 5 21 6 22 7 23 8 24 9 25 10 26 11
REMARK SMILES IDX 27 12 28 13 29 14 30 15 31 16 32 17 15 18 14 19 13 20 12 21
REMARK SMILES IDX 11 22 10 23 9 24 8 25 7 26 6 27 5 28 4 29 3 30 2 31 1 32
REMARK H PARENT
REMARK Flexibility Score: inf
ROOT
ATOM      1  C   UNL     1     -95.825 147.261 242.549  1.00  0.00     0.000 C 
ENDROOT
BRANCH   1   2
ATOM      2  C   UNL     1     -96.300 148.716 242.690  1.00  0.00     0.000 C 
BRANCH   2   3
ATOM      3  C   UNL     1     -97.147 148.947 243.959  1.00  0.00     0.000 C 
BRANCH   3   4
ATOM      4  C   UNL     1     -97.381 147.678 244.802  1.00  0.00     0.000 C 
BRANCH   4   5
ATOM      5  C   UNL     1     -98.833 147.159 244.832  1.00  0.00     0.000 C 
BRANCH   5   6
ATOM      6  C   UNL     1     -99.095 145.891 243.996  1.00  0.00     0.000 C 
BRANCH   6   7
ATOM      7  C   UNL     1    -100.025 146.148 242.801  1.00  0.00     0.000 C 
BRANCH   7   8
ATOM      8  C   UNL     1     -99.220 146.496 241.541  1.00  0.00     0.000 C 
BRANCH   8   9
ATOM      9  C   UNL     1     -99.712 147.783 240.862  1.00  0.00     0.000 C 
BRANCH   9  10
ATOM     10  C   UNL     1    -100.560 148.660 241.800  1.00  0.00     0.000 C 
BRANCH  10  11
ATOM     11  C   UNL     1    -100.017 150.095 241.934  1.00  0.00     0.000 C 
BRANCH  11  12
ATOM     12  C   UNL     1     -98.880 150.452 240.961  1.00  0.00     0.000 C 
BRANCH  12  13
ATOM     13  C   UNL     1     -99.244 151.610 240.013  1.00  0.00     0.006 C 
BRANCH  13  14
ATOM     14  C   UNL     1     -99.341 151.152 238.551  1.00  0.00     0.053 C 
BRANCH  14  15
ATOM     15  C   UNL     1     -98.501 152.002 237.648  1.00  0.00     0.041 C 
ATOM     16  O   UNL     1     -98.983 153.035 237.109  1.00  0.00    -0.550 OA
ATOM     17  O   UNL     1     -97.171 151.672 237.426  1.00  0.00    -0.550 OA
ENDBRANCH  14  15
ENDBRANCH  13  14
ENDBRANCH  12  13
ENDBRANCH  11  12
ENDBRANCH  10  11
ENDBRANCH   9  10
ENDBRANCH   8   9
ENDBRANCH   7   8
ENDBRANCH   6   7
ENDBRANCH   5   6
ENDBRANCH   4   5
ENDBRANCH   3   4
ENDBRANCH   2   3
ENDBRANCH   1   2
BRANCH   1  18
ATOM     18  C   UNL     1     -94.332 147.203 242.195  1.00  0.00     0.000 C 
BRANCH  18  19
ATOM     19  C   UNL     1     -93.720 145.811 242.428  1.00  0.00     0.000 C 
BRANCH  19  20
ATOM     20  C   UNL     1     -92.760 145.330 241.320  1.00  0.00     0.000 C 
BRANCH  20  21
ATOM     21  C   UNL     1     -92.884 146.073 239.973  1.00  0.00     0.000 C 
BRANCH  21  22
ATOM     22  C   UNL     1     -93.517 145.250 238.836  1.00  0.00     0.000 C 
BRANCH  22  23
ATOM     23  C   UNL     1     -93.149 145.786 237.442  1.00  0.00     0.000 C 
BRANCH  23  24
ATOM     24  C   UNL     1     -94.281 145.587 236.414  1.00  0.00    -0.000 C 
BRANCH  24  25
ATOM     25  C   UNL     1     -94.738 146.888 235.732  1.00  0.00    -0.000 C 
BRANCH  25  26
ATOM     26  C   UNL     1     -93.945 148.121 236.197  1.00  0.00    -0.000 C 
BRANCH  26  27
ATOM     27  C   UNL     1     -94.827 149.141 236.947  1.00  0.00    -0.000 C 
BRANCH  27  28
ATOM     28  C   UNL     1     -94.914 148.881 238.462  1.00  0.00    -0.000 C 
BRANCH  28  29
ATOM     29  C   UNL     1     -96.334 148.516 238.927  1.00  0.00    -0.000 C 
BRANCH  29  30
ATOM     30  C   UNL     1     -96.593 147.004 238.922  1.00  0.00    -0.000 C 
BRANCH  30  31
ATOM     31  C   UNL     1     -97.765 146.610 238.013  1.00  0.00    -0.003 C 
ATOM     32  C   UNL     1     -98.272 147.806 237.217  1.00  0.00     0.004 C 
ENDBRANCH  30  31
ENDBRANCH  29  30
ENDBRANCH  28  29
ENDBRANCH  27  28
ENDBRANCH  26  27
ENDBRANCH  25  26
ENDBRANCH  24  25
ENDBRANCH  23  24
ENDBRANCH  22  23
ENDBRANCH  21  22
ENDBRANCH  20  21
ENDBRANCH  19  20
ENDBRANCH  18  19
ENDBRANCH   1  18
TORSDOF 28
ENDMDL
