MODEL 1
REMARK VINA RESULT:    -4.893      0.000      0.000
REMARK INTER + INTRA:          -8.789
REMARK INTER:                  -7.468
REMARK INTRA:                  -1.321
REMARK UNBOUND:                -1.321
REMARK SMILES OC[C@@H]1O[C@@H](O[C@]2(CO)O[C@H](CO)[C@H](O)[C@H]2O)[C@H](O)[C@H](O)[C@H]1O
REMARK SMILES IDX 6 1 5 2 3 3 22 4 4 5 20 6 18 7 2 8 1 9 23 11 21 13 19 15
REMARK SMILES IDX 7 17 16 18 10 19 14 20 11 21 8 22 9 23 17 25 15 27 12 29
REMARK SMILES IDX 13 30
REMARK H PARENT 1 10 23 12 21 14 19 16 9 24 17 26 15 28 13 31
REMARK Flexibility Score: inf
ROOT
ATOM      1  O   UNL     1      -2.873   3.754  19.282  1.00  0.00    -0.313 OA
ENDROOT
BRANCH   1   2
ATOM      2  C   UNL     1      -2.502   4.565  20.393  1.00  0.00     0.285 C 
ATOM      3  C   UNL     1      -4.594   4.071  21.340  1.00  0.00     0.178 C 
ATOM      4  C   UNL     1      -5.256   5.310  20.606  1.00  0.00     0.177 C 
ATOM      5  O   UNL     1      -3.194   4.198  21.561  1.00  0.00    -0.341 OA
ATOM      6  C   UNL     1      -4.305   6.116  19.663  1.00  0.00     0.179 C 
ATOM      7  C   UNL     1      -2.835   6.024  20.095  1.00  0.00     0.202 C 
BRANCH   3   8
ATOM      8  C   UNL     1      -5.244   3.878  22.718  1.00  0.00     0.191 C 
BRANCH   8   9
ATOM      9  O   UNL     1      -4.252   3.865  23.709  1.00  0.00    -0.394 OA
ATOM     10  H   UNL     1      -4.662   4.286  24.512  1.00  0.00     0.210 HD
ENDBRANCH   8   9
ENDBRANCH   3   8
BRANCH   4  11
ATOM     11  O   UNL     1      -6.380   4.898  19.849  1.00  0.00    -0.387 OA
ATOM     12  H   UNL     1      -6.521   5.587  19.142  1.00  0.00     0.211 HD
ENDBRANCH   4  11
BRANCH   6  13
ATOM     13  O   UNL     1      -4.713   7.464  19.634  1.00  0.00    -0.387 OA
ATOM     14  H   UNL     1      -5.509   7.515  19.043  1.00  0.00     0.211 HD
ENDBRANCH   6  13
BRANCH   7  15
ATOM     15  O   UNL     1      -2.634   6.816  21.236  1.00  0.00    -0.385 OA
ATOM     16  H   UNL     1      -3.147   7.661  21.104  1.00  0.00     0.211 HD
ENDBRANCH   7  15
ENDBRANCH   1   2
BRANCH   1  17
ATOM     17  C   UNL     1      -1.908   2.804  18.841  1.00  0.00     0.224 C 
ATOM     18  C   UNL     1      -0.462   3.300  19.076  1.00  0.00     0.208 C 
ATOM     19  O   UNL     1      -2.093   1.682  19.676  1.00  0.00    -0.337 OA
ATOM     20  C   UNL     1       0.264   2.049  19.478  1.00  0.00     0.180 C 
ATOM     21  C   UNL     1      -0.842   1.218  20.136  1.00  0.00     0.179 C 
BRANCH  17  22
ATOM     22  C   UNL     1      -2.213   2.266  17.409  1.00  0.00     0.225 C 
BRANCH  22  23
ATOM     23  O   UNL     1      -2.258   3.261  16.411  1.00  0.00    -0.391 OA
ATOM     24  H   UNL     1      -1.842   4.087  16.779  1.00  0.00     0.210 HD
ENDBRANCH  22  23
ENDBRANCH  17  22
BRANCH  18  25
ATOM     25  O   UNL     1       0.117   3.872  17.935  1.00  0.00    -0.385 OA
ATOM     26  H   UNL     1       1.048   4.113  18.184  1.00  0.00     0.211 HD
ENDBRANCH  18  25
BRANCH  20  27
ATOM     27  O   UNL     1       1.337   2.335  20.341  1.00  0.00    -0.387 OA
ATOM     28  H   UNL     1       1.018   3.065  20.934  1.00  0.00     0.211 HD
ENDBRANCH  20  27
BRANCH  21  29
ATOM     29  C   UNL     1      -0.844   1.245  21.675  1.00  0.00     0.191 C 
BRANCH  29  30
ATOM     30  O   UNL     1       0.157   0.413  22.202  1.00  0.00    -0.394 OA
ATOM     31  H   UNL     1       0.982   0.965  22.283  1.00  0.00     0.210 HD
ENDBRANCH  29  30
ENDBRANCH  21  29
ENDBRANCH   1  17
TORSDOF 13
ENDMDL
MODEL 2
REMARK VINA RESULT:    -4.764      2.159      3.726
REMARK INTER + INTRA:          -8.592
REMARK INTER:                  -7.229
REMARK INTRA:                  -1.363
REMARK UNBOUND:                -1.321
REMARK SMILES OC[C@@H]1O[C@@H](O[C@]2(CO)O[C@H](CO)[C@H](O)[C@H]2O)[C@H](O)[C@H](O)[C@H]1O
REMARK SMILES IDX 6 1 5 2 3 3 22 4 4 5 20 6 18 7 2 8 1 9 23 11 21 13 19 15
REMARK SMILES IDX 7 17 16 18 10 19 14 20 11 21 8 22 9 23 17 25 15 27 12 29
REMARK SMILES IDX 13 30
REMARK H PARENT 1 10 23 12 21 14 19 16 9 24 17 26 15 28 13 31
REMARK Flexibility Score: inf
ROOT
ATOM      1  O   UNL     1      -1.185   4.379  18.860  1.00  0.00    -0.313 OA
ENDROOT
BRANCH   1   2
ATOM      2  C   UNL     1      -0.698   4.699  20.160  1.00  0.00     0.285 C 
ATOM      3  C   UNL     1      -1.077   2.459  20.758  1.00  0.00     0.178 C 
ATOM      4  C   UNL     1      -2.565   2.793  21.191  1.00  0.00     0.177 C 
ATOM      5  O   UNL     1      -0.185   3.567  20.819  1.00  0.00    -0.341 OA
ATOM      6  C   UNL     1      -3.013   4.272  20.963  1.00  0.00     0.179 C 
ATOM      7  C   UNL     1      -1.836   5.256  21.012  1.00  0.00     0.202 C 
BRANCH   3   8
ATOM      8  C   UNL     1      -0.500   1.375  21.680  1.00  0.00     0.191 C 
BRANCH   8   9
ATOM      9  O   UNL     1       0.901   1.399  21.617  1.00  0.00    -0.394 OA
ATOM     10  H   UNL     1       1.204   0.499  21.913  1.00  0.00     0.210 HD
ENDBRANCH   8   9
ENDBRANCH   3   8
BRANCH   4  11
ATOM     11  O   UNL     1      -3.480   1.947  20.518  1.00  0.00    -0.387 OA
ATOM     12  H   UNL     1      -3.026   1.630  19.688  1.00  0.00     0.211 HD
ENDBRANCH   4  11
BRANCH   6  13
ATOM     13  O   UNL     1      -3.970   4.623  21.937  1.00  0.00    -0.387 OA
ATOM     14  H   UNL     1      -3.690   4.193  22.788  1.00  0.00     0.211 HD
ENDBRANCH   6  13
BRANCH   7  15
ATOM     15  O   UNL     1      -1.419   5.420  22.341  1.00  0.00    -0.385 OA
ATOM     16  H   UNL     1      -2.231   5.354  22.915  1.00  0.00     0.211 HD
ENDBRANCH   7  15
ENDBRANCH   1   2
BRANCH   1  17
ATOM     17  C   UNL     1      -0.307   4.644  17.772  1.00  0.00     0.224 C 
ATOM     18  C   UNL     1       0.430   5.994  17.940  1.00  0.00     0.208 C 
ATOM     19  O   UNL     1       0.676   3.633  17.842  1.00  0.00    -0.337 OA
ATOM     20  C   UNL     1       1.801   5.700  17.404  1.00  0.00     0.180 C 
ATOM     21  C   UNL     1       1.958   4.204  17.688  1.00  0.00     0.179 C 
BRANCH  17  22
ATOM     22  C   UNL     1      -0.987   4.415  16.387  1.00  0.00     0.225 C 
BRANCH  22  23
ATOM     23  O   UNL     1      -2.120   3.575  16.428  1.00  0.00    -0.391 OA
ATOM     24  H   UNL     1      -2.875   4.053  15.987  1.00  0.00     0.210 HD
ENDBRANCH  22  23
ENDBRANCH  17  22
BRANCH  18  25
ATOM     25  O   UNL     1      -0.174   7.042  17.233  1.00  0.00    -0.385 OA
ATOM     26  H   UNL     1      -1.152   6.956  17.385  1.00  0.00     0.211 HD
ENDBRANCH  18  25
BRANCH  20  27
ATOM     27  O   UNL     1       2.777   6.494  18.032  1.00  0.00    -0.387 OA
ATOM     28  H   UNL     1       3.284   5.878  18.624  1.00  0.00     0.211 HD
ENDBRANCH  20  27
BRANCH  21  29
ATOM     29  C   UNL     1       2.799   3.865  18.933  1.00  0.00     0.191 C 
BRANCH  29  30
ATOM     30  O   UNL     1       2.332   2.702  19.564  1.00  0.00    -0.394 OA
ATOM     31  H   UNL     1       1.550   2.379  19.040  1.00  0.00     0.210 HD
ENDBRANCH  29  30
ENDBRANCH  21  29
ENDBRANCH   1  17
TORSDOF 13
ENDMDL
MODEL 3
REMARK VINA RESULT:    -4.585      2.187      3.391
REMARK INTER + INTRA:          -8.318
REMARK INTER:                  -7.302
REMARK INTRA:                  -1.016
REMARK UNBOUND:                -1.321
REMARK SMILES OC[C@@H]1O[C@@H](O[C@]2(CO)O[C@H](CO)[C@H](O)[C@H]2O)[C@H](O)[C@H](O)[C@H]1O
REMARK SMILES IDX 6 1 5 2 3 3 22 4 4 5 20 6 18 7 2 8 1 9 23 11 21 13 19 15
REMARK SMILES IDX 7 17 16 18 10 19 14 20 11 21 8 22 9 23 17 25 15 27 12 29
REMARK SMILES IDX 13 30
REMARK H PARENT 1 10 23 12 21 14 19 16 9 24 17 26 15 28 13 31
REMARK Flexibility Score: inf
ROOT
ATOM      1  O   UNL     1      -4.193   4.729  18.611  1.00  0.00    -0.313 OA
ENDROOT
BRANCH   1   2
ATOM      2  C   UNL     1      -3.901   6.111  18.795  1.00  0.00     0.285 C 
ATOM      3  C   UNL     1      -5.999   6.329  19.828  1.00  0.00     0.178 C 
ATOM      4  C   UNL     1      -6.692   6.621  18.432  1.00  0.00     0.177 C 
ATOM      5  O   UNL     1      -4.615   6.658  19.876  1.00  0.00    -0.341 OA
ATOM      6  C   UNL     1      -5.747   6.556  17.188  1.00  0.00     0.179 C 
ATOM      7  C   UNL     1      -4.291   6.889  17.541  1.00  0.00     0.202 C 
BRANCH   3   8
ATOM      8  C   UNL     1      -6.687   7.148  20.928  1.00  0.00     0.191 C 
BRANCH   8   9
ATOM      9  O   UNL     1      -5.781   7.394  21.970  1.00  0.00    -0.394 OA
ATOM     10  H   UNL     1      -5.082   7.991  21.590  1.00  0.00     0.210 HD
ENDBRANCH   8   9
ENDBRANCH   3   8
BRANCH   4  11
ATOM     11  O   UNL     1      -7.768   5.726  18.214  1.00  0.00    -0.387 OA
ATOM     12  H   UNL     1      -7.410   4.968  17.673  1.00  0.00     0.211 HD
ENDBRANCH   4  11
BRANCH   6  13
ATOM     13  O   UNL     1      -6.216   7.446  16.202  1.00  0.00    -0.387 OA
ATOM     14  H   UNL     1      -6.465   6.898  15.410  1.00  0.00     0.211 HD
ENDBRANCH   6  13
BRANCH   7  15
ATOM     15  O   UNL     1      -4.168   8.269  17.761  1.00  0.00    -0.385 OA
ATOM     16  H   UNL     1      -4.973   8.560  18.271  1.00  0.00     0.211 HD
ENDBRANCH   7  15
ENDBRANCH   1   2
BRANCH   1  17
ATOM     17  C   UNL     1      -3.439   3.813  19.397  1.00  0.00     0.224 C 
ATOM     18  C   UNL     1      -2.412   4.535  20.300  1.00  0.00     0.208 C 
ATOM     19  O   UNL     1      -4.381   3.209  20.257  1.00  0.00    -0.337 OA
ATOM     20  C   UNL     1      -2.444   3.727  21.564  1.00  0.00     0.180 C 
ATOM     21  C   UNL     1      -3.874   3.179  21.574  1.00  0.00     0.179 C 
BRANCH  17  22
ATOM     22  C   UNL     1      -2.880   2.625  18.555  1.00  0.00     0.225 C 
BRANCH  22  23
ATOM     23  O   UNL     1      -2.388   2.994  17.285  1.00  0.00    -0.391 OA
ATOM     24  H   UNL     1      -3.148   3.354  16.752  1.00  0.00     0.210 HD
ENDBRANCH  22  23
ENDBRANCH  17  22
BRANCH  18  25
ATOM     25  O   UNL     1      -1.121   4.563  19.753  1.00  0.00    -0.385 OA
ATOM     26  H   UNL     1      -0.908   5.520  19.587  1.00  0.00     0.211 HD
ENDBRANCH  18  25
BRANCH  20  27
ATOM     27  O   UNL     1      -2.141   4.519  22.686  1.00  0.00    -0.387 OA
ATOM     28  H   UNL     1      -2.271   3.929  23.474  1.00  0.00     0.211 HD
ENDBRANCH  20  27
BRANCH  21  29
ATOM     29  C   UNL     1      -4.851   3.934  22.494  1.00  0.00     0.191 C 
BRANCH  29  30
ATOM     30  O   UNL     1      -4.495   3.791  23.844  1.00  0.00    -0.394 OA
ATOM     31  H   UNL     1      -5.278   3.392  24.312  1.00  0.00     0.210 HD
ENDBRANCH  29  30
ENDBRANCH  21  29
ENDBRANCH   1  17
TORSDOF 13
ENDMDL
MODEL 4
REMARK VINA RESULT:    -4.553      8.909     11.378
REMARK INTER + INTRA:          -8.269
REMARK INTER:                  -7.201
REMARK INTRA:                  -1.068
REMARK UNBOUND:                -1.321
REMARK SMILES OC[C@@H]1O[C@@H](O[C@]2(CO)O[C@H](CO)[C@H](O)[C@H]2O)[C@H](O)[C@H](O)[C@H]1O
REMARK SMILES IDX 6 1 5 2 3 3 22 4 4 5 20 6 18 7 2 8 1 9 23 11 21 13 19 15
REMARK SMILES IDX 7 17 16 18 10 19 14 20 11 21 8 22 9 23 17 25 15 27 12 29
REMARK SMILES IDX 13 30
REMARK H PARENT 1 10 23 12 21 14 19 16 9 24 17 26 15 28 13 31
REMARK Flexibility Score: inf
ROOT
ATOM      1  O   UNL     1       2.853  -6.079  21.558  1.00  0.00    -0.313 OA
ENDROOT
BRANCH   1   2
ATOM      2  C   UNL     1       1.945  -6.803  22.382  1.00  0.00     0.285 C 
ATOM      3  C   UNL     1       0.935  -4.752  22.921  1.00  0.00     0.178 C 
ATOM      4  C   UNL     1       1.932  -4.544  24.136  1.00  0.00     0.177 C 
ATOM      5  O   UNL     1       0.732  -6.112  22.555  1.00  0.00    -0.341 OA
ATOM      6  C   UNL     1       3.019  -5.653  24.309  1.00  0.00     0.179 C 
ATOM      7  C   UNL     1       2.560  -7.013  23.763  1.00  0.00     0.202 C 
BRANCH   3   8
ATOM      8  C   UNL     1      -0.444  -4.179  23.278  1.00  0.00     0.191 C 
BRANCH   8   9
ATOM      9  O   UNL     1      -0.287  -2.957  23.949  1.00  0.00    -0.394 OA
ATOM     10  H   UNL     1       0.270  -2.388  23.354  1.00  0.00     0.210 HD
ENDBRANCH   8   9
ENDBRANCH   3   8
BRANCH   4  11
ATOM     11  O   UNL     1       2.591  -3.294  24.030  1.00  0.00    -0.387 OA
ATOM     12  H   UNL     1       3.405  -3.443  23.472  1.00  0.00     0.211 HD
ENDBRANCH   4  11
BRANCH   6  13
ATOM     13  O   UNL     1       3.348  -5.772  25.674  1.00  0.00    -0.387 OA
ATOM     14  H   UNL     1       3.811  -6.644  25.787  1.00  0.00     0.211 HD
ENDBRANCH   6  13
BRANCH   7  15
ATOM     15  O   UNL     1       1.620  -7.574  24.640  1.00  0.00    -0.385 OA
ATOM     16  H   UNL     1       0.715  -7.355  24.282  1.00  0.00     0.211 HD
ENDBRANCH   7  15
ENDBRANCH   1   2
BRANCH   1  17
ATOM     17  C   UNL     1       2.824  -6.379  20.167  1.00  0.00     0.224 C 
ATOM     18  C   UNL     1       2.467  -5.137  19.317  1.00  0.00     0.208 C 
ATOM     19  O   UNL     1       4.152  -6.727  19.841  1.00  0.00    -0.337 OA
ATOM     20  C   UNL     1       3.336  -5.296  18.104  1.00  0.00     0.180 C 
ATOM     21  C   UNL     1       4.539  -6.070  18.653  1.00  0.00     0.179 C 
BRANCH  17  22
ATOM     22  C   UNL     1       2.006  -7.669  19.852  1.00  0.00     0.225 C 
BRANCH  22  23
ATOM     23  O   UNL     1       2.792  -8.828  19.679  1.00  0.00    -0.391 OA
ATOM     24  H   UNL     1       3.677  -8.549  19.316  1.00  0.00     0.210 HD
ENDBRANCH  22  23
ENDBRANCH  17  22
BRANCH  18  25
ATOM     25  O   UNL     1       1.112  -5.083  18.962  1.00  0.00    -0.385 OA
ATOM     26  H   UNL     1       0.667  -5.830  19.443  1.00  0.00     0.211 HD
ENDBRANCH  18  25
BRANCH  20  27
ATOM     27  O   UNL     1       3.679  -4.048  17.552  1.00  0.00    -0.387 OA
ATOM     28  H   UNL     1       3.064  -3.916  16.784  1.00  0.00     0.211 HD
ENDBRANCH  20  27
BRANCH  21  29
ATOM     29  C   UNL     1       5.782  -5.211  18.949  1.00  0.00     0.191 C 
BRANCH  29  30
ATOM     30  O   UNL     1       5.620  -4.467  20.129  1.00  0.00    -0.394 OA
ATOM     31  H   UNL     1       5.770  -5.092  20.890  1.00  0.00     0.210 HD
ENDBRANCH  29  30
ENDBRANCH  21  29
ENDBRANCH   1  17
TORSDOF 13
ENDMDL
MODEL 5
REMARK VINA RESULT:    -4.544      2.077      5.670
REMARK INTER + INTRA:          -8.256
REMARK INTER:                  -6.841
REMARK INTRA:                  -1.415
REMARK UNBOUND:                -1.321
REMARK SMILES OC[C@@H]1O[C@@H](O[C@]2(CO)O[C@H](CO)[C@H](O)[C@H]2O)[C@H](O)[C@H](O)[C@H]1O
REMARK SMILES IDX 6 1 5 2 3 3 22 4 4 5 20 6 18 7 2 8 1 9 23 11 21 13 19 15
REMARK SMILES IDX 7 17 16 18 10 19 14 20 11 21 8 22 9 23 17 25 15 27 12 29
REMARK SMILES IDX 13 30
REMARK H PARENT 1 10 23 12 21 14 19 16 9 24 17 26 15 28 13 31
REMARK Flexibility Score: inf
ROOT
ATOM      1  O   UNL     1      -2.182   4.635  19.989  1.00  0.00    -0.313 OA
ENDROOT
BRANCH   1   2
ATOM      2  C   UNL     1      -1.647   4.383  18.693  1.00  0.00     0.285 C 
ATOM      3  C   UNL     1       0.482   4.302  19.683  1.00  0.00     0.178 C 
ATOM      4  C   UNL     1       0.663   5.866  19.497  1.00  0.00     0.177 C 
ATOM      5  O   UNL     1      -0.418   3.701  18.759  1.00  0.00    -0.341 OA
ATOM      6  C   UNL     1      -0.561   6.614  18.877  1.00  0.00     0.179 C 
ATOM      7  C   UNL     1      -1.405   5.706  17.971  1.00  0.00     0.202 C 
BRANCH   3   8
ATOM      8  C   UNL     1       1.835   3.599  19.505  1.00  0.00     0.191 C 
BRANCH   8   9
ATOM      9  O   UNL     1       2.872   4.535  19.630  1.00  0.00    -0.394 OA
ATOM     10  H   UNL     1       2.854   5.077  18.795  1.00  0.00     0.210 HD
ENDBRANCH   8   9
ENDBRANCH   3   8
BRANCH   4  11
ATOM     11  O   UNL     1       0.975   6.482  20.733  1.00  0.00    -0.387 OA
ATOM     12  H   UNL     1       0.895   5.778  21.436  1.00  0.00     0.211 HD
ENDBRANCH   4  11
BRANCH   6  13
ATOM     13  O   UNL     1      -0.104   7.728  18.145  1.00  0.00    -0.387 OA
ATOM     14  H   UNL     1      -0.465   8.538  18.594  1.00  0.00     0.211 HD
ENDBRANCH   6  13
BRANCH   7  15
ATOM     15  O   UNL     1      -0.725   5.489  16.764  1.00  0.00    -0.385 OA
ATOM     16  H   UNL     1      -1.352   5.011  16.153  1.00  0.00     0.211 HD
ENDBRANCH   7  15
ENDBRANCH   1   2
BRANCH   1  17
ATOM     17  C   UNL     1      -3.319   3.866  20.365  1.00  0.00     0.224 C 
ATOM     18  C   UNL     1      -4.118   4.538  21.507  1.00  0.00     0.208 C 
ATOM     19  O   UNL     1      -4.154   3.869  19.228  1.00  0.00    -0.337 OA
ATOM     20  C   UNL     1      -5.543   4.244  21.141  1.00  0.00     0.180 C 
ATOM     21  C   UNL     1      -5.484   4.146  19.614  1.00  0.00     0.179 C 
BRANCH  17  22
ATOM     22  C   UNL     1      -2.976   2.359  20.579  1.00  0.00     0.225 C 
BRANCH  22  23
ATOM     23  O   UNL     1      -1.781   2.131  21.292  1.00  0.00    -0.391 OA
ATOM     24  H   UNL     1      -1.982   2.202  22.264  1.00  0.00     0.210 HD
ENDBRANCH  22  23
ENDBRANCH  17  22
BRANCH  18  25
ATOM     25  O   UNL     1      -3.806   4.025  22.773  1.00  0.00    -0.385 OA
ATOM     26  H   UNL     1      -2.905   3.613  22.695  1.00  0.00     0.211 HD
ENDBRANCH  18  25
BRANCH  20  27
ATOM     27  O   UNL     1      -6.409   5.251  21.604  1.00  0.00    -0.387 OA
ATOM     28  H   UNL     1      -7.216   5.197  21.027  1.00  0.00     0.211 HD
ENDBRANCH  20  27
BRANCH  21  29
ATOM     29  C   UNL     1      -5.962   5.403  18.865  1.00  0.00     0.191 C 
BRANCH  29  30
ATOM     30  O   UNL     1      -7.348   5.371  18.645  1.00  0.00    -0.394 OA
ATOM     31  H   UNL     1      -7.505   5.719  17.725  1.00  0.00     0.210 HD
ENDBRANCH  29  30
ENDBRANCH  21  29
ENDBRANCH   1  17
TORSDOF 13
ENDMDL
MODEL 6
REMARK VINA RESULT:    -4.535      2.489      4.875
REMARK INTER + INTRA:          -8.243
REMARK INTER:                  -6.763
REMARK INTRA:                  -1.480
REMARK UNBOUND:                -1.321
REMARK SMILES OC[C@@H]1O[C@@H](O[C@]2(CO)O[C@H](CO)[C@H](O)[C@H]2O)[C@H](O)[C@H](O)[C@H]1O
REMARK SMILES IDX 6 1 5 2 3 3 22 4 4 5 20 6 18 7 2 8 1 9 23 11 21 13 19 15
REMARK SMILES IDX 7 17 16 18 10 19 14 20 11 21 8 22 9 23 17 25 15 27 12 29
REMARK SMILES IDX 13 30
REMARK H PARENT 1 10 23 12 21 14 19 16 9 24 17 26 15 28 13 31
REMARK Flexibility Score: inf
ROOT
ATOM      1  O   UNL     1       0.092   3.447  18.241  1.00  0.00    -0.313 OA
ENDROOT
BRANCH   1   2
ATOM      2  C   UNL     1       1.057   3.597  19.278  1.00  0.00     0.285 C 
ATOM      3  C   UNL     1       0.489   5.875  19.359  1.00  0.00     0.178 C 
ATOM      4  C   UNL     1       1.569   6.216  18.250  1.00  0.00     0.177 C 
ATOM      5  O   UNL     1       0.767   4.696  20.106  1.00  0.00    -0.341 OA
ATOM      6  C   UNL     1       2.343   4.990  17.668  1.00  0.00     0.179 C 
ATOM      7  C   UNL     1       2.436   3.828  18.666  1.00  0.00     0.202 C 
BRANCH   3   8
ATOM      8  C   UNL     1       0.399   7.028  20.368  1.00  0.00     0.191 C 
BRANCH   8   9
ATOM      9  O   UNL     1      -0.047   6.539  21.605  1.00  0.00    -0.394 OA
ATOM     10  H   UNL     1       0.731   6.069  22.009  1.00  0.00     0.210 HD
ENDBRANCH   8   9
ENDBRANCH   3   8
BRANCH   4  11
ATOM     11  O   UNL     1       0.972   6.913  17.171  1.00  0.00    -0.387 OA
ATOM     12  H   UNL     1       0.016   7.062  17.417  1.00  0.00     0.211 HD
ENDBRANCH   4  11
BRANCH   6  13
ATOM     13  O   UNL     1       3.636   5.396  17.284  1.00  0.00    -0.387 OA
ATOM     14  H   UNL     1       4.156   5.541  18.119  1.00  0.00     0.211 HD
ENDBRANCH   6  13
BRANCH   7  15
ATOM     15  O   UNL     1       3.369   4.143  19.664  1.00  0.00    -0.385 OA
ATOM     16  H   UNL     1       3.341   5.132  19.793  1.00  0.00     0.211 HD
ENDBRANCH   7  15
ENDBRANCH   1   2
BRANCH   1  17
ATOM     17  C   UNL     1      -0.941   2.494  18.469  1.00  0.00     0.224 C 
ATOM     18  C   UNL     1      -0.549   1.469  19.559  1.00  0.00     0.208 C 
ATOM     19  O   UNL     1      -2.020   3.243  18.986  1.00  0.00    -0.337 OA
ATOM     20  C   UNL     1      -1.838   1.247  20.295  1.00  0.00     0.180 C 
ATOM     21  C   UNL     1      -2.562   2.584  20.110  1.00  0.00     0.179 C 
BRANCH  17  22
ATOM     22  C   UNL     1      -1.499   1.891  17.144  1.00  0.00     0.225 C 
BRANCH  22  23
ATOM     23  O   UNL     1      -2.361   2.750  16.432  1.00  0.00    -0.391 OA
ATOM     24  H   UNL     1      -1.839   3.551  16.154  1.00  0.00     0.210 HD
ENDBRANCH  22  23
ENDBRANCH  17  22
BRANCH  18  25
ATOM     25  O   UNL     1      -0.057   0.266  19.032  1.00  0.00    -0.385 OA
ATOM     26  H   UNL     1       0.876   0.449  18.742  1.00  0.00     0.211 HD
ENDBRANCH  18  25
BRANCH  20  27
ATOM     27  O   UNL     1      -1.608   0.918  21.643  1.00  0.00    -0.387 OA
ATOM     28  H   UNL     1      -0.635   0.730  21.711  1.00  0.00     0.211 HD
ENDBRANCH  20  27
BRANCH  21  29
ATOM     29  C   UNL     1      -2.488   3.534  21.320  1.00  0.00     0.191 C 
BRANCH  29  30
ATOM     30  O   UNL     1      -1.167   3.689  21.768  1.00  0.00    -0.394 OA
ATOM     31  H   UNL     1      -1.183   4.372  22.492  1.00  0.00     0.210 HD
ENDBRANCH  29  30
ENDBRANCH  21  29
ENDBRANCH   1  17
TORSDOF 13
ENDMDL
MODEL 7
REMARK VINA RESULT:    -4.485      2.338      5.426
REMARK INTER + INTRA:          -8.166
REMARK INTER:                  -6.670
REMARK INTRA:                  -1.496
REMARK UNBOUND:                -1.321
REMARK SMILES OC[C@@H]1O[C@@H](O[C@]2(CO)O[C@H](CO)[C@H](O)[C@H]2O)[C@H](O)[C@H](O)[C@H]1O
REMARK SMILES IDX 6 1 5 2 3 3 22 4 4 5 20 6 18 7 2 8 1 9 23 11 21 13 19 15
REMARK SMILES IDX 7 17 16 18 10 19 14 20 11 21 8 22 9 23 17 25 15 27 12 29
REMARK SMILES IDX 13 30
REMARK H PARENT 1 10 23 12 21 14 19 16 9 24 17 26 15 28 13 31
REMARK Flexibility Score: inf
ROOT
ATOM      1  O   UNL     1      -0.811   4.665  19.311  1.00  0.00    -0.313 OA
ENDROOT
BRANCH   1   2
ATOM      2  C   UNL     1      -0.446   3.831  18.216  1.00  0.00     0.285 C 
ATOM      3  C   UNL     1       1.731   4.694  18.399  1.00  0.00     0.178 C 
ATOM      4  C   UNL     1       1.374   5.890  17.421  1.00  0.00     0.177 C 
ATOM      5  O   UNL     1       0.929   3.532  18.223  1.00  0.00    -0.341 OA
ATOM      6  C   UNL     1      -0.108   5.934  16.930  1.00  0.00     0.179 C 
ATOM      7  C   UNL     1      -0.758   4.544  16.902  1.00  0.00     0.202 C 
BRANCH   3   8
ATOM      8  C   UNL     1       3.188   4.263  18.180  1.00  0.00     0.191 C 
BRANCH   8   9
ATOM      9  O   UNL     1       3.815   5.152  17.294  1.00  0.00    -0.394 OA
ATOM     10  H   UNL     1       3.956   5.994  17.806  1.00  0.00     0.210 HD
ENDBRANCH   8   9
ENDBRANCH   3   8
BRANCH   4  11
ATOM     11  O   UNL     1       1.675   7.134  18.027  1.00  0.00    -0.387 OA
ATOM     12  H   UNL     1       1.778   7.798  17.289  1.00  0.00     0.211 HD
ENDBRANCH   4  11
BRANCH   6  13
ATOM     13  O   UNL     1      -0.155   6.509  15.645  1.00  0.00    -0.387 OA
ATOM     14  H   UNL     1      -0.039   7.490  15.760  1.00  0.00     0.211 HD
ENDBRANCH   6  13
BRANCH   7  15
ATOM     15  O   UNL     1      -0.254   3.814  15.816  1.00  0.00    -0.385 OA
ATOM     16  H   UNL     1       0.739   3.900  15.838  1.00  0.00     0.211 HD
ENDBRANCH   7  15
ENDBRANCH   1   2
BRANCH   1  17
ATOM     17  C   UNL     1      -1.569   4.051  20.348  1.00  0.00     0.224 C 
ATOM     18  C   UNL     1      -2.415   2.867  19.822  1.00  0.00     0.208 C 
ATOM     19  O   UNL     1      -0.610   3.506  21.227  1.00  0.00    -0.337 OA
ATOM     20  C   UNL     1      -2.333   1.870  20.940  1.00  0.00     0.180 C 
ATOM     21  C   UNL     1      -0.975   2.187  21.573  1.00  0.00     0.179 C 
BRANCH  17  22
ATOM     22  C   UNL     1      -2.335   5.091  21.222  1.00  0.00     0.225 C 
BRANCH  22  23
ATOM     23  O   UNL     1      -1.578   5.628  22.284  1.00  0.00    -0.391 OA
ATOM     24  H   UNL     1      -0.818   5.011  22.465  1.00  0.00     0.210 HD
ENDBRANCH  22  23
ENDBRANCH  17  22
BRANCH  18  25
ATOM     25  O   UNL     1      -3.746   3.217  19.555  1.00  0.00    -0.385 OA
ATOM     26  H   UNL     1      -4.295   2.419  19.780  1.00  0.00     0.211 HD
ENDBRANCH  18  25
BRANCH  20  27
ATOM     27  O   UNL     1      -2.432   0.552  20.459  1.00  0.00    -0.387 OA
ATOM     28  H   UNL     1      -3.356   0.257  20.671  1.00  0.00     0.211 HD
ENDBRANCH  20  27
BRANCH  21  29
ATOM     29  C   UNL     1       0.167   1.237  21.165  1.00  0.00     0.191 C 
BRANCH  29  30
ATOM     30  O   UNL     1       1.273   1.949  20.674  1.00  0.00    -0.394 OA
ATOM     31  H   UNL     1       1.056   2.918  20.757  1.00  0.00     0.210 HD
ENDBRANCH  29  30
ENDBRANCH  21  29
ENDBRANCH   1  17
TORSDOF 13
ENDMDL
MODEL 8
REMARK VINA RESULT:    -4.449      2.697      5.361
REMARK INTER + INTRA:          -8.110
REMARK INTER:                  -6.791
REMARK INTRA:                  -1.319
REMARK UNBOUND:                -1.321
REMARK SMILES OC[C@@H]1O[C@@H](O[C@]2(CO)O[C@H](CO)[C@H](O)[C@H]2O)[C@H](O)[C@H](O)[C@H]1O
REMARK SMILES IDX 6 1 5 2 3 3 22 4 4 5 20 6 18 7 2 8 1 9 23 11 21 13 19 15
REMARK SMILES IDX 7 17 16 18 10 19 14 20 11 21 8 22 9 23 17 25 15 27 12 29
REMARK SMILES IDX 13 30
REMARK H PARENT 1 10 23 12 21 14 19 16 9 24 17 26 15 28 13 31
REMARK Flexibility Score: inf
ROOT
ATOM      1  O   UNL     1      -0.323   4.463  19.304  1.00  0.00    -0.313 OA
ENDROOT
BRANCH   1   2
ATOM      2  C   UNL     1       0.949   4.865  19.802  1.00  0.00     0.285 C 
ATOM      3  C   UNL     1       0.546   6.984  18.873  1.00  0.00     0.178 C 
ATOM      4  C   UNL     1       1.185   6.536  17.493  1.00  0.00     0.177 C 
ATOM      5  O   UNL     1       1.016   6.256  20.001  1.00  0.00    -0.341 OA
ATOM      6  C   UNL     1       1.652   5.046  17.422  1.00  0.00     0.179 C 
ATOM      7  C   UNL     1       2.036   4.487  18.799  1.00  0.00     0.202 C 
BRANCH   3   8
ATOM      8  C   UNL     1       0.866   8.463  19.135  1.00  0.00     0.191 C 
BRANCH   8   9
ATOM      9  O   UNL     1       1.507   9.013  18.015  1.00  0.00    -0.394 OA
ATOM     10  H   UNL     1       1.500   9.998  18.152  1.00  0.00     0.210 HD
ENDBRANCH   8   9
ENDBRANCH   3   8
BRANCH   4  11
ATOM     11  O   UNL     1       0.280   6.765  16.428  1.00  0.00    -0.387 OA
ATOM     12  H   UNL     1      -0.065   7.695  16.535  1.00  0.00     0.211 HD
ENDBRANCH   4  11
BRANCH   6  13
ATOM     13  O   UNL     1       2.746   4.943  16.541  1.00  0.00    -0.387 OA
ATOM     14  H   UNL     1       2.713   4.034  16.142  1.00  0.00     0.211 HD
ENDBRANCH   6  13
BRANCH   7  15
ATOM     15  O   UNL     1       3.272   5.021  19.191  1.00  0.00    -0.385 OA
ATOM     16  H   UNL     1       3.439   5.826  18.626  1.00  0.00     0.211 HD
ENDBRANCH   7  15
ENDBRANCH   1   2
BRANCH   1  17
ATOM     17  C   UNL     1      -1.248   3.957  20.260  1.00  0.00     0.224 C 
ATOM     18  C   UNL     1      -2.070   2.774  19.699  1.00  0.00     0.208 C 
ATOM     19  O   UNL     1      -0.448   3.439  21.301  1.00  0.00    -0.337 OA
ATOM     20  C   UNL     1      -2.194   1.857  20.880  1.00  0.00     0.180 C 
ATOM     21  C   UNL     1      -0.923   2.164  21.677  1.00  0.00     0.179 C 
BRANCH  17  22
ATOM     22  C   UNL     1      -2.075   5.088  20.946  1.00  0.00     0.225 C 
BRANCH  22  23
ATOM     23  O   UNL     1      -1.428   5.699  22.041  1.00  0.00    -0.391 OA
ATOM     24  H   UNL     1      -2.106   5.852  22.754  1.00  0.00     0.210 HD
ENDBRANCH  22  23
ENDBRANCH  17  22
BRANCH  18  25
ATOM     25  O   UNL     1      -3.332   3.156  19.223  1.00  0.00    -0.385 OA
ATOM     26  H   UNL     1      -3.825   2.315  19.029  1.00  0.00     0.211 HD
ENDBRANCH  18  25
BRANCH  20  27
ATOM     27  O   UNL     1      -2.291   0.513  20.478  1.00  0.00    -0.387 OA
ATOM     28  H   UNL     1      -1.397   0.115  20.652  1.00  0.00     0.211 HD
ENDBRANCH  20  27
BRANCH  21  29
ATOM     29  C   UNL     1       0.215   1.142  21.500  1.00  0.00     0.191 C 
BRANCH  29  30
ATOM     30  O   UNL     1       0.068   0.056  22.376  1.00  0.00    -0.394 OA
ATOM     31  H   UNL     1       0.755   0.162  23.090  1.00  0.00     0.210 HD
ENDBRANCH  29  30
ENDBRANCH  21  29
ENDBRANCH   1  17
TORSDOF 13
ENDMDL
MODEL 9
REMARK VINA RESULT:    -4.426      2.605      5.941
REMARK INTER + INTRA:          -8.076
REMARK INTER:                  -6.451
REMARK INTRA:                  -1.625
REMARK UNBOUND:                -1.321
REMARK SMILES OC[C@@H]1O[C@@H](O[C@]2(CO)O[C@H](CO)[C@H](O)[C@H]2O)[C@H](O)[C@H](O)[C@H]1O
REMARK SMILES IDX 6 1 5 2 3 3 22 4 4 5 20 6 18 7 2 8 1 9 23 11 21 13 19 15
REMARK SMILES IDX 7 17 16 18 10 19 14 20 11 21 8 22 9 23 17 25 15 27 12 29
REMARK SMILES IDX 13 30
REMARK H PARENT 1 10 23 12 21 14 19 16 9 24 17 26 15 28 13 31
REMARK Flexibility Score: inf
ROOT
ATOM      1  O   UNL     1      -0.008   3.845  18.732  1.00  0.00    -0.313 OA
ENDROOT
BRANCH   1   2
ATOM      2  C   UNL     1       0.112   5.264  18.687  1.00  0.00     0.285 C 
ATOM      3  C   UNL     1      -0.193   5.129  16.362  1.00  0.00     0.178 C 
ATOM      4  C   UNL     1       1.366   4.951  16.135  1.00  0.00     0.177 C 
ATOM      5  O   UNL     1      -0.538   5.808  17.565  1.00  0.00    -0.341 OA
ATOM      6  C   UNL     1       2.230   4.890  17.436  1.00  0.00     0.179 C 
ATOM      7  C   UNL     1       1.586   5.651  18.603  1.00  0.00     0.202 C 
BRANCH   3   8
ATOM      8  C   UNL     1      -0.795   5.942  15.207  1.00  0.00     0.191 C 
BRANCH   8   9
ATOM      9  O   UNL     1       0.118   5.997  14.144  1.00  0.00    -0.394 OA
ATOM     10  H   UNL     1       0.628   5.143  14.176  1.00  0.00     0.210 HD
ENDBRANCH   8   9
ENDBRANCH   3   8
BRANCH   4  11
ATOM     11  O   UNL     1       1.628   3.783  15.377  1.00  0.00    -0.387 OA
ATOM     12  H   UNL     1       0.760   3.302  15.278  1.00  0.00     0.211 HD
ENDBRANCH   4  11
BRANCH   6  13
ATOM     13  O   UNL     1       3.509   5.415  17.169  1.00  0.00    -0.387 OA
ATOM     14  H   UNL     1       3.795   5.053  16.289  1.00  0.00     0.211 HD
ENDBRANCH   6  13
BRANCH   7  15
ATOM     15  O   UNL     1       1.719   7.031  18.390  1.00  0.00    -0.385 OA
ATOM     16  H   UNL     1       1.580   7.195  17.416  1.00  0.00     0.211 HD
ENDBRANCH   7  15
ENDBRANCH   1   2
BRANCH   1  17
ATOM     17  C   UNL     1      -0.825   3.311  19.768  1.00  0.00     0.224 C 
ATOM     18  C   UNL     1      -1.182   4.378  20.830  1.00  0.00     0.208 C 
ATOM     19  O   UNL     1      -2.032   2.951  19.132  1.00  0.00    -0.337 OA
ATOM     20  C   UNL     1      -2.599   4.039  21.187  1.00  0.00     0.180 C 
ATOM     21  C   UNL     1      -3.128   3.406  19.896  1.00  0.00     0.179 C 
BRANCH  17  22
ATOM     22  C   UNL     1      -0.275   1.962  20.326  1.00  0.00     0.225 C 
BRANCH  22  23
ATOM     23  O   UNL     1       1.089   1.994  20.685  1.00  0.00    -0.391 OA
ATOM     24  H   UNL     1       1.597   1.455  20.019  1.00  0.00     0.210 HD
ENDBRANCH  22  23
ENDBRANCH  17  22
BRANCH  18  25
ATOM     25  O   UNL     1      -0.353   4.331  21.959  1.00  0.00    -0.385 OA
ATOM     26  H   UNL     1      -0.782   3.698  22.595  1.00  0.00     0.211 HD
ENDBRANCH  18  25
BRANCH  20  27
ATOM     27  O   UNL     1      -3.315   5.183  21.583  1.00  0.00    -0.387 OA
ATOM     28  H   UNL     1      -2.845   5.952  21.166  1.00  0.00     0.211 HD
ENDBRANCH  20  27
BRANCH  21  29
ATOM     29  C   UNL     1      -3.984   4.340  19.021  1.00  0.00     0.191 C 
BRANCH  29  30
ATOM     30  O   UNL     1      -3.340   4.639  17.811  1.00  0.00    -0.394 OA
ATOM     31  H   UNL     1      -2.634   3.950  17.678  1.00  0.00     0.210 HD
ENDBRANCH  29  30
ENDBRANCH  21  29
ENDBRANCH   1  17
TORSDOF 13
ENDMDL
