MODEL 1
REMARK VINA RESULT:    -2.384      0.000      0.000
REMARK INTER + INTRA:          -3.058
REMARK INTER:                  -3.012
REMARK INTRA:                  -0.046
REMARK UNBOUND:                -0.046
REMARK SMILES CCCCCCO
REMARK SMILES IDX 4 1 3 2 2 3 1 4 5 5 6 6 7 7
REMARK H PARENT 7 8
REMARK Flexibility Score: inf
ROOT
ATOM      1  C   UNL     1     140.079 146.287 140.221  1.00  0.00     0.002 C 
ENDROOT
BRANCH   1   2
ATOM      2  C   UNL     1     140.010 147.712 139.648  1.00  0.00    -0.000 C 
BRANCH   2   3
ATOM      3  C   UNL     1     141.285 148.107 138.890  1.00  0.00    -0.003 C 
ATOM      4  C   UNL     1     141.675 149.552 139.184  1.00  0.00     0.004 C 
ENDBRANCH   2   3
ENDBRANCH   1   2
BRANCH   1   5
ATOM      5  C   UNL     1     139.644 146.221 141.694  1.00  0.00     0.028 C 
BRANCH   5   6
ATOM      6  C   UNL     1     138.957 144.890 142.022  1.00  0.00     0.156 C 
BRANCH   6   7
ATOM      7  O   UNL     1     138.520 144.867 143.355  1.00  0.00    -0.396 OA
ATOM      8  H   UNL     1     139.315 145.054 143.918  1.00  0.00     0.210 HD
ENDBRANCH   6   7
ENDBRANCH   5   6
ENDBRANCH   1   5
TORSDOF 5
ENDMDL
MODEL 2
REMARK VINA RESULT:    -2.350      4.210      6.975
REMARK INTER + INTRA:          -3.014
REMARK INTER:                  -2.922
REMARK INTRA:                  -0.092
REMARK UNBOUND:                -0.046
REMARK SMILES CCCCCCO
REMARK SMILES IDX 4 1 3 2 2 3 1 4 5 5 6 6 7 7
REMARK H PARENT 7 8
REMARK Flexibility Score: inf
ROOT
ATOM      1  C   UNL     1     137.266 143.030 144.062  1.00  0.00     0.002 C 
ENDROOT
BRANCH   1   2
ATOM      2  C   UNL     1     136.908 141.536 144.119  1.00  0.00    -0.000 C 
BRANCH   2   3
ATOM      3  C   UNL     1     137.166 140.815 142.788  1.00  0.00    -0.003 C 
ATOM      4  C   UNL     1     136.187 139.662 142.589  1.00  0.00     0.004 C 
ENDBRANCH   2   3
ENDBRANCH   1   2
BRANCH   1   5
ATOM      5  C   UNL     1     138.025 143.407 142.780  1.00  0.00     0.028 C 
BRANCH   5   6
ATOM      6  C   UNL     1     139.020 144.547 143.026  1.00  0.00     0.156 C 
BRANCH   6   7
ATOM      7  O   UNL     1     138.638 145.704 142.330  1.00  0.00    -0.396 OA
ATOM      8  H   UNL     1     139.002 146.475 142.840  1.00  0.00     0.210 HD
ENDBRANCH   6   7
ENDBRANCH   5   6
ENDBRANCH   1   5
TORSDOF 5
ENDMDL
MODEL 3
REMARK VINA RESULT:    -2.348      9.273      9.677
REMARK INTER + INTRA:          -3.011
REMARK INTER:                  -2.912
REMARK INTRA:                  -0.099
REMARK UNBOUND:                -0.046
REMARK SMILES CCCCCCO
REMARK SMILES IDX 4 1 3 2 2 3 1 4 5 5 6 6 7 7
REMARK H PARENT 7 8
REMARK Flexibility Score: inf
ROOT
ATOM      1  C   UNL     1     146.378 140.681 139.241  1.00  0.00     0.002 C 
ENDROOT
BRANCH   1   2
ATOM      2  C   UNL     1     147.589 140.065 138.523  1.00  0.00    -0.000 C 
BRANCH   2   3
ATOM      3  C   UNL     1     148.912 140.747 138.900  1.00  0.00    -0.003 C 
ATOM      4  C   UNL     1     150.013 139.719 139.136  1.00  0.00     0.004 C 
ENDBRANCH   2   3
ENDBRANCH   1   2
BRANCH   1   5
ATOM      5  C   UNL     1     146.786 141.644 140.368  1.00  0.00     0.028 C 
BRANCH   5   6
ATOM      6  C   UNL     1     145.678 141.790 141.417  1.00  0.00     0.156 C 
BRANCH   6   7
ATOM      7  O   UNL     1     145.850 142.961 142.169  1.00  0.00    -0.396 OA
ATOM      8  H   UNL     1     145.304 142.854 142.991  1.00  0.00     0.210 HD
ENDBRANCH   6   7
ENDBRANCH   5   6
ENDBRANCH   1   5
TORSDOF 5
ENDMDL
MODEL 4
REMARK VINA RESULT:    -2.329     10.855     12.749
REMARK INTER + INTRA:          -2.988
REMARK INTER:                  -2.934
REMARK INTRA:                  -0.054
REMARK UNBOUND:                -0.046
REMARK SMILES CCCCCCO
REMARK SMILES IDX 4 1 3 2 2 3 1 4 5 5 6 6 7 7
REMARK H PARENT 7 8
REMARK Flexibility Score: inf
ROOT
ATOM      1  C   UNL     1     141.387 135.285 140.011  1.00  0.00     0.002 C 
ENDROOT
BRANCH   1   2
ATOM      2  C   UNL     1     141.544 133.868 139.439  1.00  0.00    -0.000 C 
BRANCH   2   3
ATOM      3  C   UNL     1     140.276 133.373 138.727  1.00  0.00    -0.003 C 
ATOM      4  C   UNL     1     139.874 131.987 139.221  1.00  0.00     0.004 C 
ENDBRANCH   2   3
ENDBRANCH   1   2
BRANCH   1   5
ATOM      5  C   UNL     1     141.764 135.367 141.499  1.00  0.00     0.028 C 
BRANCH   5   6
ATOM      6  C   UNL     1     142.459 136.692 141.835  1.00  0.00     0.156 C 
BRANCH   6   7
ATOM      7  O   UNL     1     143.099 136.621 143.081  1.00  0.00    -0.396 OA
ATOM      8  H   UNL     1     143.952 137.121 142.991  1.00  0.00     0.210 HD
ENDBRANCH   6   7
ENDBRANCH   5   6
ENDBRANCH   1   5
TORSDOF 5
ENDMDL
MODEL 5
REMARK VINA RESULT:    -2.308      8.685      9.318
REMARK INTER + INTRA:          -2.961
REMARK INTER:                  -2.863
REMARK INTRA:                  -0.098
REMARK UNBOUND:                -0.046
REMARK SMILES CCCCCCO
REMARK SMILES IDX 4 1 3 2 2 3 1 4 5 5 6 6 7 7
REMARK H PARENT 7 8
REMARK Flexibility Score: inf
ROOT
ATOM      1  C   UNL     1     135.275 139.703 141.562  1.00  0.00     0.002 C 
ENDROOT
BRANCH   1   2
ATOM      2  C   UNL     1     136.512 138.993 142.135  1.00  0.00    -0.000 C 
BRANCH   2   3
ATOM      3  C   UNL     1     136.783 139.366 143.599  1.00  0.00    -0.003 C 
ATOM      4  C   UNL     1     135.981 140.598 144.010  1.00  0.00     0.004 C 
ENDBRANCH   2   3
ENDBRANCH   1   2
BRANCH   1   5
ATOM      5  C   UNL     1     135.442 140.079 140.081  1.00  0.00     0.028 C 
BRANCH   5   6
ATOM      6  C   UNL     1     134.115 139.987 139.320  1.00  0.00     0.156 C 
BRANCH   6   7
ATOM      7  O   UNL     1     133.524 138.727 139.493  1.00  0.00    -0.396 OA
ATOM      8  H   UNL     1     133.854 138.375 140.361  1.00  0.00     0.210 HD
ENDBRANCH   6   7
ENDBRANCH   5   6
ENDBRANCH   1   5
TORSDOF 5
ENDMDL
MODEL 6
REMARK VINA RESULT:    -2.304      8.399      8.836
REMARK INTER + INTRA:          -2.957
REMARK INTER:                  -2.914
REMARK INTRA:                  -0.043
REMARK UNBOUND:                -0.046
REMARK SMILES CCCCCCO
REMARK SMILES IDX 4 1 3 2 2 3 1 4 5 5 6 6 7 7
REMARK H PARENT 7 8
REMARK Flexibility Score: inf
ROOT
ATOM      1  C   UNL     1     135.673 140.121 140.419  1.00  0.00     0.002 C 
ENDROOT
BRANCH   1   2
ATOM      2  C   UNL     1     134.285 140.016 139.767  1.00  0.00    -0.000 C 
BRANCH   2   3
ATOM      3  C   UNL     1     133.896 141.286 138.997  1.00  0.00    -0.003 C 
ATOM      4  C   UNL     1     132.401 141.566 139.118  1.00  0.00     0.004 C 
ENDBRANCH   2   3
ENDBRANCH   1   2
BRANCH   1   5
ATOM      5  C   UNL     1     135.697 139.565 141.851  1.00  0.00     0.028 C 
BRANCH   5   6
ATOM      6  C   UNL     1     136.969 138.753 142.122  1.00  0.00     0.156 C 
BRANCH   6   7
ATOM      7  O   UNL     1     137.037 138.360 143.467  1.00  0.00    -0.396 OA
ATOM      8  H   UNL     1     137.877 138.742 143.833  1.00  0.00     0.210 HD
ENDBRANCH   6   7
ENDBRANCH   5   6
ENDBRANCH   1   5
TORSDOF 5
ENDMDL
MODEL 7
REMARK VINA RESULT:    -2.303      8.469      9.510
REMARK INTER + INTRA:          -2.955
REMARK INTER:                  -2.923
REMARK INTRA:                  -0.032
REMARK UNBOUND:                -0.046
REMARK SMILES CCCCCCO
REMARK SMILES IDX 4 1 3 2 2 3 1 4 5 5 6 6 7 7
REMARK H PARENT 7 8
REMARK Flexibility Score: inf
ROOT
ATOM      1  C   UNL     1     144.213 138.480 144.023  1.00  0.00     0.002 C 
ENDROOT
BRANCH   1   2
ATOM      2  C   UNL     1     144.053 139.917 143.499  1.00  0.00    -0.000 C 
BRANCH   2   3
ATOM      3  C   UNL     1     145.255 140.808 143.843  1.00  0.00    -0.003 C 
ATOM      4  C   UNL     1     145.529 141.814 142.729  1.00  0.00     0.004 C 
ENDBRANCH   2   3
ENDBRANCH   1   2
BRANCH   1   5
ATOM      5  C   UNL     1     142.970 137.615 143.762  1.00  0.00     0.028 C 
BRANCH   5   6
ATOM      6  C   UNL     1     142.874 137.190 142.292  1.00  0.00     0.156 C 
BRANCH   6   7
ATOM      7  O   UNL     1     142.991 135.798 142.163  1.00  0.00    -0.396 OA
ATOM      8  H   UNL     1     142.482 135.545 141.349  1.00  0.00     0.210 HD
ENDBRANCH   6   7
ENDBRANCH   5   6
ENDBRANCH   1   5
TORSDOF 5
ENDMDL
MODEL 8
REMARK VINA RESULT:    -2.286      9.454     10.432
REMARK INTER + INTRA:          -2.933
REMARK INTER:                  -2.890
REMARK INTRA:                  -0.044
REMARK UNBOUND:                -0.046
REMARK SMILES CCCCCCO
REMARK SMILES IDX 4 1 3 2 2 3 1 4 5 5 6 6 7 7
REMARK H PARENT 7 8
REMARK Flexibility Score: inf
ROOT
ATOM      1  C   UNL     1     139.891 137.693 144.123  1.00  0.00     0.002 C 
ENDROOT
BRANCH   1   2
ATOM      2  C   UNL     1     140.613 136.342 144.004  1.00  0.00    -0.000 C 
BRANCH   2   3
ATOM      3  C   UNL     1     142.085 136.492 143.595  1.00  0.00    -0.003 C 
ATOM      4  C   UNL     1     142.312 136.000 142.169  1.00  0.00     0.004 C 
ENDBRANCH   2   3
ENDBRANCH   1   2
BRANCH   1   5
ATOM      5  C   UNL     1     138.361 137.549 144.106  1.00  0.00     0.028 C 
BRANCH   5   6
ATOM      6  C   UNL     1     137.742 138.232 142.881  1.00  0.00     0.156 C 
BRANCH   6   7
ATOM      7  O   UNL     1     136.402 138.573 143.119  1.00  0.00    -0.396 OA
ATOM      8  H   UNL     1     135.947 137.743 143.417  1.00  0.00     0.210 HD
ENDBRANCH   6   7
ENDBRANCH   5   6
ENDBRANCH   1   5
TORSDOF 5
ENDMDL
MODEL 9
REMARK VINA RESULT:    -2.273      8.090      9.344
REMARK INTER + INTRA:          -2.918
REMARK INTER:                  -2.791
REMARK INTRA:                  -0.127
REMARK UNBOUND:                -0.046
REMARK SMILES CCCCCCO
REMARK SMILES IDX 4 1 3 2 2 3 1 4 5 5 6 6 7 7
REMARK H PARENT 7 8
REMARK Flexibility Score: inf
ROOT
ATOM      1  C   UNL     1     143.937 139.946 144.017  1.00  0.00     0.002 C 
ENDROOT
BRANCH   1   2
ATOM      2  C   UNL     1     144.156 138.439 143.812  1.00  0.00    -0.000 C 
BRANCH   2   3
ATOM      3  C   UNL     1     143.319 137.870 142.657  1.00  0.00    -0.003 C 
ATOM      4  C   UNL     1     143.645 138.575 141.344  1.00  0.00     0.004 C 
ENDBRANCH   2   3
ENDBRANCH   1   2
BRANCH   1   5
ATOM      5  C   UNL     1     145.257 140.728 144.114  1.00  0.00     0.028 C 
BRANCH   5   6
ATOM      6  C   UNL     1     145.463 141.644 142.902  1.00  0.00     0.156 C 
BRANCH   6   7
ATOM      7  O   UNL     1     145.165 142.976 143.223  1.00  0.00    -0.396 OA
ATOM      8  H   UNL     1     144.217 142.992 143.518  1.00  0.00     0.210 HD
ENDBRANCH   6   7
ENDBRANCH   5   6
ENDBRANCH   1   5
TORSDOF 5
ENDMDL
