MODEL 1
REMARK VINA RESULT:    -5.121      0.000      0.000
REMARK INTER + INTRA:          -7.018
REMARK INTER:                  -6.617
REMARK INTRA:                  -0.400
REMARK UNBOUND:                -0.400
REMARK SMILES CCO[C@H]1O[C@H](CO)[C@H](O)[C@H](O)[C@@H]1O
REMARK SMILES IDX 4 1 13 2 11 3 9 4 6 5 5 6 3 7 2 8 1 9 14 10 12 12 7 14 8 15
REMARK SMILES IDX 10 17
REMARK H PARENT 14 11 12 13 8 16 10 18
REMARK Flexibility Score: inf
ROOT
ATOM      1  C   UNL     1     -24.468   5.089 -40.124  1.00  0.00     0.281 C 
ATOM      2  C   UNL     1     -23.493   4.351 -41.068  1.00  0.00     0.202 C 
ATOM      3  C   UNL     1     -22.038   4.564 -40.609  1.00  0.00     0.179 C 
ATOM      4  C   UNL     1     -21.751   6.058 -40.378  1.00  0.00     0.177 C 
ATOM      5  C   UNL     1     -22.836   6.641 -39.449  1.00  0.00     0.178 C 
ATOM      6  O   UNL     1     -24.128   6.467 -40.012  1.00  0.00    -0.341 OA
ENDROOT
BRANCH   1   7
ATOM      7  O   UNL     1     -24.484   4.451 -38.856  1.00  0.00    -0.350 OA
BRANCH   7   8
ATOM      8  C   UNL     1     -25.810   4.128 -38.488  1.00  0.00     0.160 C 
ATOM      9  C   UNL     1     -26.324   5.175 -37.514  1.00  0.00     0.035 C 
ENDBRANCH   7   8
ENDBRANCH   1   7
BRANCH   2  10
ATOM     10  O   UNL     1     -23.651   4.821 -42.383  1.00  0.00    -0.385 OA
ATOM     11  H   UNL     1     -24.516   5.308 -42.414  1.00  0.00     0.211 HD
ENDBRANCH   2  10
BRANCH   3  12
ATOM     12  O   UNL     1     -21.140   4.045 -41.556  1.00  0.00    -0.387 OA
ATOM     13  H   UNL     1     -21.478   3.146 -41.809  1.00  0.00     0.211 HD
ENDBRANCH   3  12
BRANCH   5  14
ATOM     14  C   UNL     1     -22.602   8.134 -39.196  1.00  0.00     0.191 C 
BRANCH  14  15
ATOM     15  O   UNL     1     -23.302   8.887 -40.148  1.00  0.00    -0.394 OA
ATOM     16  H   UNL     1     -24.266   8.746 -39.957  1.00  0.00     0.210 HD
ENDBRANCH  14  15
ENDBRANCH   5  14
BRANCH   4  17
ATOM     17  O   UNL     1     -21.745   6.753 -41.601  1.00  0.00    -0.387 OA
ATOM     18  H   UNL     1     -21.387   6.130 -42.287  1.00  0.00     0.211 HD
ENDBRANCH   4  17
TORSDOF 7
ENDMDL
MODEL 2
REMARK VINA RESULT:    -5.073      2.189      3.173
REMARK INTER + INTRA:          -6.956
REMARK INTER:                  -6.570
REMARK INTRA:                  -0.386
REMARK UNBOUND:                -0.400
REMARK SMILES CCO[C@H]1O[C@H](CO)[C@H](O)[C@H](O)[C@@H]1O
REMARK SMILES IDX 4 1 13 2 11 3 9 4 6 5 5 6 3 7 2 8 1 9 14 10 12 12 7 14 8 15
REMARK SMILES IDX 10 17
REMARK H PARENT 14 11 12 13 8 16 10 18
REMARK Flexibility Score: inf
ROOT
ATOM      1  C   UNL     1     -23.053   6.792 -38.639  1.00  0.00     0.281 C 
ATOM      2  C   UNL     1     -21.901   5.881 -39.121  1.00  0.00     0.202 C 
ATOM      3  C   UNL     1     -21.345   6.386 -40.466  1.00  0.00     0.179 C 
ATOM      4  C   UNL     1     -22.485   6.622 -41.473  1.00  0.00     0.177 C 
ATOM      5  C   UNL     1     -23.559   7.515 -40.818  1.00  0.00     0.178 C 
ATOM      6  O   UNL     1     -24.063   6.911 -39.635  1.00  0.00    -0.341 OA
ENDROOT
BRANCH   1   7
ATOM      7  O   UNL     1     -22.537   8.060 -38.264  1.00  0.00    -0.350 OA
BRANCH   7   8
ATOM      8  C   UNL     1     -21.673   7.928 -37.154  1.00  0.00     0.160 C 
ATOM      9  C   UNL     1     -22.503   7.856 -35.883  1.00  0.00     0.035 C 
ENDBRANCH   7   8
ENDBRANCH   1   7
BRANCH   2  10
ATOM     10  O   UNL     1     -22.361   4.561 -39.261  1.00  0.00    -0.385 OA
ATOM     11  H   UNL     1     -22.276   4.326 -40.222  1.00  0.00     0.211 HD
ENDBRANCH   2  10
BRANCH   3  12
ATOM     12  O   UNL     1     -20.422   5.469 -40.995  1.00  0.00    -0.387 OA
ATOM     13  H   UNL     1     -20.130   4.891 -40.241  1.00  0.00     0.211 HD
ENDBRANCH   3  12
BRANCH   5  14
ATOM     14  C   UNL     1     -24.725   7.770 -41.779  1.00  0.00     0.191 C 
BRANCH  14  15
ATOM     15  O   UNL     1     -24.309   7.534 -43.096  1.00  0.00    -0.394 OA
ATOM     16  H   UNL     1     -25.049   7.040 -43.535  1.00  0.00     0.210 HD
ENDBRANCH  14  15
ENDBRANCH   5  14
BRANCH   4  17
ATOM     17  O   UNL     1     -23.055   5.397 -41.867  1.00  0.00    -0.387 OA
ATOM     18  H   UNL     1     -23.881   5.276 -41.329  1.00  0.00     0.211 HD
ENDBRANCH   4  17
TORSDOF 7
ENDMDL
MODEL 3
REMARK VINA RESULT:    -5.032     14.328     15.799
REMARK INTER + INTRA:          -6.903
REMARK INTER:                  -6.513
REMARK INTRA:                  -0.390
REMARK UNBOUND:                -0.400
REMARK SMILES CCO[C@H]1O[C@H](CO)[C@H](O)[C@H](O)[C@@H]1O
REMARK SMILES IDX 4 1 13 2 11 3 9 4 6 5 5 6 3 7 2 8 1 9 14 10 12 12 7 14 8 15
REMARK SMILES IDX 10 17
REMARK H PARENT 14 11 12 13 8 16 10 18
REMARK Flexibility Score: inf
ROOT
ATOM      1  C   UNL     1     -36.250   5.461 -46.400  1.00  0.00     0.281 C 
ATOM      2  C   UNL     1     -36.593   6.518 -45.327  1.00  0.00     0.202 C 
ATOM      3  C   UNL     1     -38.082   6.425 -44.940  1.00  0.00     0.179 C 
ATOM      4  C   UNL     1     -38.973   6.424 -46.194  1.00  0.00     0.177 C 
ATOM      5  C   UNL     1     -38.468   5.341 -47.171  1.00  0.00     0.178 C 
ATOM      6  O   UNL     1     -37.113   5.576 -47.527  1.00  0.00    -0.341 OA
ENDROOT
BRANCH   1   7
ATOM      7  O   UNL     1     -36.304   4.162 -45.831  1.00  0.00    -0.350 OA
BRANCH   7   8
ATOM      8  C   UNL     1     -35.254   3.992 -44.901  1.00  0.00     0.160 C 
ATOM      9  C   UNL     1     -34.838   2.530 -44.882  1.00  0.00     0.035 C 
ENDBRANCH   7   8
ENDBRANCH   1   7
BRANCH   2  10
ATOM     10  O   UNL     1     -36.307   7.806 -45.811  1.00  0.00    -0.385 OA
ATOM     11  H   UNL     1     -36.863   7.938 -46.623  1.00  0.00     0.211 HD
ENDBRANCH   2  10
BRANCH   3  12
ATOM     12  O   UNL     1     -38.442   7.490 -44.098  1.00  0.00    -0.387 OA
ATOM     13  H   UNL     1     -38.404   7.144 -43.167  1.00  0.00     0.211 HD
ENDBRANCH   3  12
BRANCH   5  14
ATOM     14  C   UNL     1     -39.317   5.308 -48.445  1.00  0.00     0.191 C 
BRANCH  14  15
ATOM     15  O   UNL     1     -38.760   6.165 -49.404  1.00  0.00    -0.394 OA
ATOM     16  H   UNL     1     -39.501   6.742 -49.722  1.00  0.00     0.210 HD
ENDBRANCH  14  15
ENDBRANCH   5  14
BRANCH   4  17
ATOM     17  O   UNL     1     -38.943   7.684 -46.820  1.00  0.00    -0.387 OA
ATOM     18  H   UNL     1     -39.243   8.350 -46.147  1.00  0.00     0.211 HD
ENDBRANCH   4  17
TORSDOF 7
ENDMDL
MODEL 4
REMARK VINA RESULT:    -5.004      1.791      3.837
REMARK INTER + INTRA:          -6.867
REMARK INTER:                  -6.453
REMARK INTRA:                  -0.414
REMARK UNBOUND:                -0.400
REMARK SMILES CCO[C@H]1O[C@H](CO)[C@H](O)[C@H](O)[C@@H]1O
REMARK SMILES IDX 4 1 13 2 11 3 9 4 6 5 5 6 3 7 2 8 1 9 14 10 12 12 7 14 8 15
REMARK SMILES IDX 10 17
REMARK H PARENT 14 11 12 13 8 16 10 18
REMARK Flexibility Score: inf
ROOT
ATOM      1  C   UNL     1     -22.640   6.864 -39.600  1.00  0.00     0.281 C 
ATOM      2  C   UNL     1     -22.816   7.472 -41.010  1.00  0.00     0.202 C 
ATOM      3  C   UNL     1     -24.209   7.130 -41.571  1.00  0.00     0.179 C 
ATOM      4  C   UNL     1     -24.493   5.623 -41.446  1.00  0.00     0.177 C 
ATOM      5  C   UNL     1     -24.232   5.179 -39.991  1.00  0.00     0.178 C 
ATOM      6  O   UNL     1     -22.893   5.463 -39.611  1.00  0.00    -0.341 OA
ENDROOT
BRANCH   1   7
ATOM      7  O   UNL     1     -23.480   7.540 -38.677  1.00  0.00    -0.350 OA
BRANCH   7   8
ATOM      8  C   UNL     1     -22.930   7.476 -37.378  1.00  0.00     0.160 C 
ATOM      9  C   UNL     1     -21.456   7.842 -37.443  1.00  0.00     0.035 C 
ENDBRANCH   7   8
ENDBRANCH   1   7
BRANCH   2  10
ATOM     10  O   UNL     1     -21.821   6.980 -41.872  1.00  0.00    -0.385 OA
ATOM     11  H   UNL     1     -22.163   7.089 -42.798  1.00  0.00     0.211 HD
ENDBRANCH   2  10
BRANCH   3  12
ATOM     12  O   UNL     1     -24.313   7.527 -42.914  1.00  0.00    -0.387 OA
ATOM     13  H   UNL     1     -25.233   7.296 -43.210  1.00  0.00     0.211 HD
ENDBRANCH   3  12
BRANCH   5  14
ATOM     14  C   UNL     1     -24.489   3.679 -39.817  1.00  0.00     0.191 C 
BRANCH  14  15
ATOM     15  O   UNL     1     -23.328   2.963 -40.135  1.00  0.00    -0.394 OA
ATOM     16  H   UNL     1     -23.530   2.465 -40.969  1.00  0.00     0.210 HD
ENDBRANCH  14  15
ENDBRANCH   5  14
BRANCH   4  17
ATOM     17  O   UNL     1     -23.670   4.892 -42.324  1.00  0.00    -0.387 OA
ATOM     18  H   UNL     1     -23.178   5.554 -42.877  1.00  0.00     0.211 HD
ENDBRANCH   4  17
TORSDOF 7
ENDMDL
MODEL 5
REMARK VINA RESULT:    -4.956      1.838      2.498
REMARK INTER + INTRA:          -6.804
REMARK INTER:                  -6.399
REMARK INTRA:                  -0.406
REMARK UNBOUND:                -0.400
REMARK SMILES CCO[C@H]1O[C@H](CO)[C@H](O)[C@H](O)[C@@H]1O
REMARK SMILES IDX 4 1 13 2 11 3 9 4 6 5 5 6 3 7 2 8 1 9 14 10 12 12 7 14 8 15
REMARK SMILES IDX 10 17
REMARK H PARENT 14 11 12 13 8 16 10 18
REMARK Flexibility Score: inf
ROOT
ATOM      1  C   UNL     1     -24.099   6.681 -38.963  1.00  0.00     0.281 C 
ATOM      2  C   UNL     1     -23.646   6.936 -40.418  1.00  0.00     0.202 C 
ATOM      3  C   UNL     1     -22.127   6.711 -40.553  1.00  0.00     0.179 C 
ATOM      4  C   UNL     1     -21.362   7.483 -39.464  1.00  0.00     0.177 C 
ATOM      5  C   UNL     1     -21.967   7.142 -38.086  1.00  0.00     0.178 C 
ATOM      6  O   UNL     1     -23.348   7.471 -38.047  1.00  0.00    -0.341 OA
ENDROOT
BRANCH   1   7
ATOM      7  O   UNL     1     -23.999   5.297 -38.663  1.00  0.00    -0.350 OA
BRANCH   7   8
ATOM      8  C   UNL     1     -25.251   4.667 -38.841  1.00  0.00     0.160 C 
ATOM      9  C   UNL     1     -26.216   5.171 -37.781  1.00  0.00     0.035 C 
ENDBRANCH   7   8
ENDBRANCH   1   7
BRANCH   2  10
ATOM     10  O   UNL     1     -23.968   8.249 -40.798  1.00  0.00    -0.385 OA
ATOM     11  H   UNL     1     -24.263   8.723 -39.977  1.00  0.00     0.211 HD
ENDBRANCH   2  10
BRANCH   3  12
ATOM     12  O   UNL     1     -21.680   7.107 -41.824  1.00  0.00    -0.387 OA
ATOM     13  H   UNL     1     -20.920   6.512 -42.059  1.00  0.00     0.211 HD
ENDBRANCH   3  12
BRANCH   5  14
ATOM     14  C   UNL     1     -21.245   7.897 -36.965  1.00  0.00     0.191 C 
BRANCH  14  15
ATOM     15  O   UNL     1     -19.952   8.239 -37.385  1.00  0.00    -0.394 OA
ATOM     16  H   UNL     1     -19.350   8.021 -36.627  1.00  0.00     0.210 HD
ENDBRANCH  14  15
ENDBRANCH   5  14
BRANCH   4  17
ATOM     17  O   UNL     1     -21.444   8.869 -39.693  1.00  0.00    -0.387 OA
ATOM     18  H   UNL     1     -21.703   9.290 -38.832  1.00  0.00     0.211 HD
ENDBRANCH   4  17
TORSDOF 7
ENDMDL
MODEL 6
REMARK VINA RESULT:    -4.939     14.725     16.016
REMARK INTER + INTRA:          -6.783
REMARK INTER:                  -6.433
REMARK INTRA:                  -0.350
REMARK UNBOUND:                -0.400
REMARK SMILES CCO[C@H]1O[C@H](CO)[C@H](O)[C@H](O)[C@@H]1O
REMARK SMILES IDX 4 1 13 2 11 3 9 4 6 5 5 6 3 7 2 8 1 9 14 10 12 12 7 14 8 15
REMARK SMILES IDX 10 17
REMARK H PARENT 14 11 12 13 8 16 10 18
REMARK Flexibility Score: inf
ROOT
ATOM      1  C   UNL     1     -37.993   5.562 -45.217  1.00  0.00     0.281 C 
ATOM      2  C   UNL     1     -36.537   5.788 -45.683  1.00  0.00     0.202 C 
ATOM      3  C   UNL     1     -36.499   6.778 -46.863  1.00  0.00     0.179 C 
ATOM      4  C   UNL     1     -37.499   6.362 -47.956  1.00  0.00     0.177 C 
ATOM      5  C   UNL     1     -38.885   6.143 -47.313  1.00  0.00     0.178 C 
ATOM      6  O   UNL     1     -38.819   5.149 -46.300  1.00  0.00    -0.341 OA
ENDROOT
BRANCH   1   7
ATOM      7  O   UNL     1     -38.489   6.742 -44.602  1.00  0.00    -0.350 OA
BRANCH   7   8
ATOM      8  C   UNL     1     -38.128   6.770 -43.237  1.00  0.00     0.160 C 
ATOM      9  C   UNL     1     -39.380   6.956 -42.395  1.00  0.00     0.035 C 
ENDBRANCH   7   8
ENDBRANCH   1   7
BRANCH   2  10
ATOM     10  O   UNL     1     -35.961   4.566 -46.067  1.00  0.00    -0.385 OA
ATOM     11  H   UNL     1     -36.709   3.939 -46.250  1.00  0.00     0.211 HD
ENDBRANCH   2  10
BRANCH   3  12
ATOM     12  O   UNL     1     -35.205   6.854 -47.403  1.00  0.00    -0.387 OA
ATOM     13  H   UNL     1     -35.206   6.300 -48.228  1.00  0.00     0.211 HD
ENDBRANCH   3  12
BRANCH   5  14
ATOM     14  C   UNL     1     -39.917   5.714 -48.361  1.00  0.00     0.191 C 
BRANCH  14  15
ATOM     15  O   UNL     1     -39.457   6.053 -49.641  1.00  0.00    -0.394 OA
ATOM     16  H   UNL     1     -39.253   7.024 -49.613  1.00  0.00     0.210 HD
ENDBRANCH  14  15
ENDBRANCH   5  14
BRANCH   4  17
ATOM     17  O   UNL     1     -37.073   5.180 -48.590  1.00  0.00    -0.387 OA
ATOM     18  H   UNL     1     -37.865   4.584 -48.655  1.00  0.00     0.211 HD
ENDBRANCH   4  17
TORSDOF 7
ENDMDL
MODEL 7
REMARK VINA RESULT:    -4.922      2.248      3.793
REMARK INTER + INTRA:          -6.761
REMARK INTER:                  -6.370
REMARK INTRA:                  -0.391
REMARK UNBOUND:                -0.400
REMARK SMILES CCO[C@H]1O[C@H](CO)[C@H](O)[C@H](O)[C@@H]1O
REMARK SMILES IDX 4 1 13 2 11 3 9 4 6 5 5 6 3 7 2 8 1 9 14 10 12 12 7 14 8 15
REMARK SMILES IDX 10 17
REMARK H PARENT 14 11 12 13 8 16 10 18
REMARK Flexibility Score: inf
ROOT
ATOM      1  C   UNL     1     -22.369   7.325 -38.369  1.00  0.00     0.281 C 
ATOM      2  C   UNL     1     -23.112   8.241 -39.368  1.00  0.00     0.202 C 
ATOM      3  C   UNL     1     -23.837   7.396 -40.434  1.00  0.00     0.179 C 
ATOM      4  C   UNL     1     -22.881   6.360 -41.051  1.00  0.00     0.177 C 
ATOM      5  C   UNL     1     -22.200   5.564 -39.917  1.00  0.00     0.178 C 
ATOM      6  O   UNL     1     -21.491   6.434 -39.047  1.00  0.00    -0.341 OA
ENDROOT
BRANCH   1   7
ATOM      7  O   UNL     1     -23.310   6.624 -37.570  1.00  0.00    -0.350 OA
BRANCH   7   8
ATOM      8  C   UNL     1     -22.781   6.397 -36.280  1.00  0.00     0.160 C 
ATOM      9  C   UNL     1     -22.413   7.731 -35.651  1.00  0.00     0.035 C 
ENDBRANCH   7   8
ENDBRANCH   1   7
BRANCH   2  10
ATOM     10  O   UNL     1     -22.201   9.112 -39.990  1.00  0.00    -0.385 OA
ATOM     11  H   UNL     1     -22.399  10.025 -39.654  1.00  0.00     0.211 HD
ENDBRANCH   2  10
BRANCH   3  12
ATOM     12  O   UNL     1     -24.366   8.218 -41.441  1.00  0.00    -0.387 OA
ATOM     13  H   UNL     1     -24.766   9.006 -40.986  1.00  0.00     0.211 HD
ENDBRANCH   3  12
BRANCH   5  14
ATOM     14  C   UNL     1     -21.226   4.524 -40.481  1.00  0.00     0.191 C 
BRANCH  14  15
ATOM     15  O   UNL     1     -20.072   5.166 -40.950  1.00  0.00    -0.394 OA
ATOM     16  H   UNL     1     -20.336   6.103 -41.142  1.00  0.00     0.210 HD
ENDBRANCH  14  15
ENDBRANCH   5  14
BRANCH   4  17
ATOM     17  O   UNL     1     -21.906   6.998 -41.840  1.00  0.00    -0.387 OA
ATOM     18  H   UNL     1     -22.188   7.944 -41.941  1.00  0.00     0.211 HD
ENDBRANCH   4  17
TORSDOF 7
ENDMDL
MODEL 8
REMARK VINA RESULT:    -4.899      1.345      2.758
REMARK INTER + INTRA:          -6.731
REMARK INTER:                  -6.356
REMARK INTRA:                  -0.375
REMARK UNBOUND:                -0.400
REMARK SMILES CCO[C@H]1O[C@H](CO)[C@H](O)[C@H](O)[C@@H]1O
REMARK SMILES IDX 4 1 13 2 11 3 9 4 6 5 5 6 3 7 2 8 1 9 14 10 12 12 7 14 8 15
REMARK SMILES IDX 10 17
REMARK H PARENT 14 11 12 13 8 16 10 18
REMARK Flexibility Score: inf
ROOT
ATOM      1  C   UNL     1     -23.955   6.171 -38.902  1.00  0.00     0.281 C 
ATOM      2  C   UNL     1     -24.480   6.755 -40.233  1.00  0.00     0.202 C 
ATOM      3  C   UNL     1     -24.073   5.850 -41.412  1.00  0.00     0.179 C 
ATOM      4  C   UNL     1     -22.568   5.532 -41.363  1.00  0.00     0.177 C 
ATOM      5  C   UNL     1     -22.213   4.999 -39.959  1.00  0.00     0.178 C 
ATOM      6  O   UNL     1     -22.550   5.949 -38.958  1.00  0.00    -0.341 OA
ENDROOT
BRANCH   1   7
ATOM      7  O   UNL     1     -24.660   4.979 -38.589  1.00  0.00    -0.350 OA
BRANCH   7   8
ATOM      8  C   UNL     1     -25.979   5.283 -38.183  1.00  0.00     0.160 C 
ATOM      9  C   UNL     1     -26.165   4.854 -36.737  1.00  0.00     0.035 C 
ENDBRANCH   7   8
ENDBRANCH   1   7
BRANCH   2  10
ATOM     10  O   UNL     1     -23.965   8.048 -40.425  1.00  0.00    -0.385 OA
ATOM     11  H   UNL     1     -23.131   8.109 -39.890  1.00  0.00     0.211 HD
ENDBRANCH   2  10
BRANCH   3  12
ATOM     12  O   UNL     1     -24.393   6.460 -42.636  1.00  0.00    -0.387 OA
ATOM     13  H   UNL     1     -25.175   7.049 -42.466  1.00  0.00     0.211 HD
ENDBRANCH   3  12
BRANCH   5  14
ATOM     14  C   UNL     1     -20.718   4.677 -39.853  1.00  0.00     0.191 C 
BRANCH  14  15
ATOM     15  O   UNL     1     -20.190   4.474 -41.135  1.00  0.00    -0.394 OA
ATOM     16  H   UNL     1     -20.237   3.497 -41.302  1.00  0.00     0.210 HD
ENDBRANCH  14  15
ENDBRANCH   5  14
BRANCH   4  17
ATOM     17  O   UNL     1     -21.811   6.685 -41.642  1.00  0.00    -0.387 OA
ATOM     18  H   UNL     1     -22.370   7.467 -41.390  1.00  0.00     0.211 HD
ENDBRANCH   4  17
TORSDOF 7
ENDMDL
MODEL 9
REMARK VINA RESULT:    -4.840     15.614     16.799
REMARK INTER + INTRA:          -6.655
REMARK INTER:                  -6.234
REMARK INTRA:                  -0.421
REMARK UNBOUND:                -0.400
REMARK SMILES CCO[C@H]1O[C@H](CO)[C@H](O)[C@H](O)[C@@H]1O
REMARK SMILES IDX 4 1 13 2 11 3 9 4 6 5 5 6 3 7 2 8 1 9 14 10 12 12 7 14 8 15
REMARK SMILES IDX 10 17
REMARK H PARENT 14 11 12 13 8 16 10 18
REMARK Flexibility Score: inf
ROOT
ATOM      1  C   UNL     1     -40.010   4.448 -46.758  1.00  0.00     0.281 C 
ATOM      2  C   UNL     1     -38.996   4.783 -47.874  1.00  0.00     0.202 C 
ATOM      3  C   UNL     1     -37.638   5.182 -47.264  1.00  0.00     0.179 C 
ATOM      4  C   UNL     1     -37.823   6.255 -46.177  1.00  0.00     0.177 C 
ATOM      5  C   UNL     1     -38.892   5.777 -45.173  1.00  0.00     0.178 C 
ATOM      6  O   UNL     1     -40.125   5.523 -45.831  1.00  0.00    -0.341 OA
ENDROOT
BRANCH   1   7
ATOM      7  O   UNL     1     -39.634   3.241 -46.113  1.00  0.00    -0.350 OA
BRANCH   7   8
ATOM      8  C   UNL     1     -39.743   2.154 -47.009  1.00  0.00     0.160 C 
ATOM      9  C   UNL     1     -38.621   1.167 -46.733  1.00  0.00     0.035 C 
ENDBRANCH   7   8
ENDBRANCH   1   7
BRANCH   2  10
ATOM     10  O   UNL     1     -39.487   5.832 -48.670  1.00  0.00    -0.385 OA
ATOM     11  H   UNL     1     -40.342   5.519 -49.064  1.00  0.00     0.211 HD
ENDBRANCH   2  10
BRANCH   3  12
ATOM     12  O   UNL     1     -36.768   5.653 -48.260  1.00  0.00    -0.387 OA
ATOM     13  H   UNL     1     -37.218   5.496 -49.131  1.00  0.00     0.211 HD
ENDBRANCH   3  12
BRANCH   5  14
ATOM     14  C   UNL     1     -39.122   6.819 -44.074  1.00  0.00     0.191 C 
BRANCH  14  15
ATOM     15  O   UNL     1     -37.927   7.506 -43.820  1.00  0.00    -0.394 OA
ATOM     16  H   UNL     1     -37.912   7.681 -42.843  1.00  0.00     0.210 HD
ENDBRANCH  14  15
ENDBRANCH   5  14
BRANCH   4  17
ATOM     17  O   UNL     1     -38.221   7.476 -46.754  1.00  0.00    -0.387 OA
ATOM     18  H   UNL     1     -38.676   7.998 -46.042  1.00  0.00     0.211 HD
ENDBRANCH   4  17
TORSDOF 7
ENDMDL
