MODEL 1
REMARK VINA RESULT:    -1.590      0.000      0.000
REMARK INTER + INTRA:          -1.641
REMARK INTER:                  -2.241
REMARK INTRA:                   0.600
REMARK UNBOUND:                 0.600
REMARK SMILES CC1=CCC(=C(C)C)C(=O)CC(C)=CCC1
REMARK SMILES IDX 12 1 14 2 13 3 15 4 16 5 2 6 1 7 3 8 11 10 9 11 10 12 5 13
REMARK SMILES IDX 6 14 7 15 8 16 4 17
REMARK H PARENT
REMARK Flexibility Score: 60.00
ROOT
ATOM      1  C   UNL     1      83.239  31.519  66.918  1.00  0.00    -0.070 C 
ATOM      2  C   UNL     1      84.012  31.743  68.006  1.00  0.00    -0.027 C 
ATOM      3  C   UNL     1      82.134  30.501  67.031  1.00  0.00     0.039 C 
ENDROOT
BRANCH   2   4
ATOM      4  C   UNL     1      85.244  32.611  68.026  1.00  0.00     0.032 C 
BRANCH   4   5
ATOM      5  C   UNL     1      86.498  31.739  67.892  1.00  0.00     0.034 C 
BRANCH   5   6
ATOM      6  C   UNL     1      87.201  31.934  66.563  1.00  0.00    -0.077 C 
ATOM      7  C   UNL     1      88.124  33.115  66.401  1.00  0.00     0.039 C 
ATOM      8  C   UNL     1      87.105  31.063  65.527  1.00  0.00    -0.023 CG0
ATOM      9  G   UNL     1      86.205  29.844  65.429  1.00  0.00     0.000 G0
ENDBRANCH   5   6
ENDBRANCH   4   5
ENDBRANCH   2   4
BRANCH   1  10
ATOM     10  C   UNL     1      83.416  32.253  65.603  1.00  0.00     0.111 C 
BRANCH  10  11
ATOM     11  C   UNL     1      84.375  31.537  64.683  1.00  0.00     0.163 C 
ATOM     12  O   UNL     1      84.845  32.198  63.718  1.00  0.00    -0.294 OA
BRANCH  11  13
ATOM     13  C   UNL     1      84.806  30.111  64.871  1.00  0.00    -0.002 C 
ATOM     14  C   UNL     1      84.033  29.083  64.403  1.00  0.00    -0.069 C 
ATOM     15  C   UNL     1      84.535  27.657  64.363  1.00  0.00     0.039 C 
ATOM     16  C   UNL     1      82.610  29.311  63.945  1.00  0.00     0.039 C 
BRANCH  13  17
ATOM     17  C   UNL     1      86.202  29.858  65.429  1.00  0.00     0.066 CG0
ATOM     18  G   UNL     1      87.121  31.063  65.527  1.00  0.00     0.000 G0
ENDBRANCH  13  17
ENDBRANCH  11  13
ENDBRANCH  10  11
ENDBRANCH   1  10
TORSDOF 0
ENDMDL
MODEL 2
REMARK VINA RESULT:    -0.398      1.469      2.089
REMARK INTER + INTRA:           0.038
REMARK INTER:                  -1.989
REMARK INTRA:                   2.028
REMARK UNBOUND:                 0.600
REMARK SMILES CC1=CCC(=C(C)C)C(=O)CC(C)=CCC1
REMARK SMILES IDX 12 1 14 2 13 3 15 4 16 5 2 6 1 7 3 8 11 10 9 11 10 12 5 13
REMARK SMILES IDX 6 14 7 15 8 16 4 17
REMARK H PARENT
REMARK Flexibility Score: 60.00
ROOT
ATOM      1  C   UNL     1      84.466  31.577  66.816  1.00  0.00    -0.070 C 
ATOM      2  C   UNL     1      85.572  32.084  67.409  1.00  0.00    -0.027 C 
ATOM      3  C   UNL     1      83.150  32.271  67.058  1.00  0.00     0.039 C 
ENDROOT
BRANCH   2   4
ATOM      4  C   UNL     1      86.933  31.437  67.395  1.00  0.00     0.032 C 
BRANCH   4   5
ATOM      5  C   UNL     1      87.997  32.472  67.011  1.00  0.00     0.034 C 
BRANCH   5   6
ATOM      6  C   UNL     1      87.974  32.807  65.533  1.00  0.00    -0.077 C 
ATOM      7  C   UNL     1      87.900  34.255  65.121  1.00  0.00     0.039 C 
ATOM      8  C   UNL     1      88.089  31.877  64.551  1.00  0.00    -0.023 CG0
ATOM      9  G   UNL     1      88.119  30.368  64.710  1.00  0.00     0.000 G0
ENDBRANCH   5   6
ENDBRANCH   4   5
ENDBRANCH   2   4
BRANCH   1  10
ATOM     10  C   UNL     1      84.488  30.362  65.910  1.00  0.00     0.111 C 
BRANCH  10  11
ATOM     11  C   UNL     1      85.530  30.486  64.825  1.00  0.00     0.163 C 
ATOM     12  O   UNL     1      85.343  31.373  63.949  1.00  0.00    -0.294 OA
BRANCH  11  13
ATOM     13  C   UNL     1      86.766  29.638  64.753  1.00  0.00    -0.002 C 
ATOM     14  C   UNL     1      86.672  28.285  64.564  1.00  0.00    -0.069 C 
ATOM     15  C   UNL     1      87.882  27.433  64.255  1.00  0.00     0.039 C 
ATOM     16  C   UNL     1      85.353  27.558  64.705  1.00  0.00     0.039 C 
BRANCH  13  17
ATOM     17  C   UNL     1      88.115  30.348  64.714  1.00  0.00     0.066 CG0
ATOM     18  G   UNL     1      88.081  31.857  64.551  1.00  0.00     0.000 G0
ENDBRANCH  13  17
ENDBRANCH  11  13
ENDBRANCH  10  11
ENDBRANCH   1  10
TORSDOF 0
ENDMDL
MODEL 3
REMARK VINA RESULT:    -0.186      1.752      4.272
REMARK INTER + INTRA:           0.338
REMARK INTER:                  -2.324
REMARK INTRA:                   2.662
REMARK UNBOUND:                 0.600
REMARK SMILES CC1=CCC(=C(C)C)C(=O)CC(C)=CCC1
REMARK SMILES IDX 12 1 14 2 13 3 15 4 16 5 2 6 1 7 3 8 11 10 9 11 10 12 5 13
REMARK SMILES IDX 6 14 7 15 8 16 4 17
REMARK H PARENT
REMARK Flexibility Score: 60.00
ROOT
ATOM      1  C   UNL     1      87.903  32.158  65.382  1.00  0.00    -0.070 C 
ATOM      2  C   UNL     1      88.125  31.764  64.106  1.00  0.00    -0.027 C 
ATOM      3  C   UNL     1      88.123  33.610  65.724  1.00  0.00     0.039 C 
ENDROOT
BRANCH   2   4
ATOM      4  C   UNL     1      88.098  30.335  63.627  1.00  0.00     0.032 C 
BRANCH   4   5
ATOM      5  C   UNL     1      87.995  29.386  64.827  1.00  0.00     0.034 C 
BRANCH   5   6
ATOM      6  C   UNL     1      86.789  28.472  64.742  1.00  0.00    -0.077 C 
ATOM      7  C   UNL     1      87.014  26.983  64.676  1.00  0.00     0.039 C 
ATOM      8  C   UNL     1      85.506  28.914  64.794  1.00  0.00    -0.023 CG0
ATOM      9  G   UNL     1      85.028  30.355  64.803  1.00  0.00     0.000 G0
ENDBRANCH   5   6
ENDBRANCH   4   5
ENDBRANCH   2   4
BRANCH   1  10
ATOM     10  C   UNL     1      87.430  31.220  66.475  1.00  0.00     0.111 C 
BRANCH  10  11
ATOM     11  C   UNL     1      86.011  31.516  66.896  1.00  0.00     0.163 C 
ATOM     12  O   UNL     1      85.854  32.266  67.898  1.00  0.00    -0.294 OA
BRANCH  11  13
ATOM     13  C   UNL     1      84.800  30.990  66.181  1.00  0.00    -0.002 C 
ATOM     14  C   UNL     1      83.545  31.222  66.676  1.00  0.00    -0.069 C 
ATOM     15  C   UNL     1      82.299  30.915  65.875  1.00  0.00     0.039 C 
ATOM     16  C   UNL     1      83.333  31.750  68.077  1.00  0.00     0.039 C 
BRANCH  13  17
ATOM     17  C   UNL     1      85.003  30.359  64.809  1.00  0.00     0.066 CG0
ATOM     18  G   UNL     1      85.498  28.923  64.791  1.00  0.00     0.000 G0
ENDBRANCH  13  17
ENDBRANCH  11  13
ENDBRANCH  10  11
ENDBRANCH   1  10
TORSDOF 0
ENDMDL
MODEL 4
REMARK VINA RESULT:     0.131     14.657     16.483
REMARK INTER + INTRA:           0.784
REMARK INTER:                  -0.055
REMARK INTRA:                   0.839
REMARK UNBOUND:                 0.600
REMARK SMILES CC1=CCC(=C(C)C)C(=O)CC(C)=CCC1
REMARK SMILES IDX 12 1 14 2 13 3 15 4 16 5 2 6 1 7 3 8 11 10 9 11 10 12 5 13
REMARK SMILES IDX 6 14 7 15 8 16 4 17
REMARK H PARENT
REMARK Flexibility Score: 60.00
ROOT
ATOM      1  C   UNL     1      79.742  35.525  50.803  1.00  0.00    -0.070 C 
ATOM      2  C   UNL     1      80.624  34.602  51.254  1.00  0.00    -0.027 C 
ATOM      3  C   UNL     1      79.897  36.022  49.388  1.00  0.00     0.039 C 
ENDROOT
BRANCH   2   4
ATOM      4  C   UNL     1      80.706  34.110  52.676  1.00  0.00     0.032 C 
BRANCH   4   5
ATOM      5  C   UNL     1      80.334  32.624  52.734  1.00  0.00     0.034 C 
BRANCH   5   6
ATOM      6  C   UNL     1      79.383  32.220  51.625  1.00  0.00    -0.077 C 
ATOM      7  C   UNL     1      79.929  31.452  50.448  1.00  0.00     0.039 C 
ATOM      8  C   UNL     1      78.046  32.448  51.663  1.00  0.00    -0.023 CG0
ATOM      9  G   UNL     1      77.276  33.242  52.703  1.00  0.00     0.000 G0
ENDBRANCH   5   6
ENDBRANCH   4   5
ENDBRANCH   2   4
BRANCH   1  10
ATOM     10  C   UNL     1      78.601  36.068  51.641  1.00  0.00     0.111 C 
BRANCH  10  11
ATOM     11  C   UNL     1      77.282  35.430  51.278  1.00  0.00     0.163 C 
ATOM     12  O   UNL     1      76.802  35.710  50.145  1.00  0.00    -0.294 OA
BRANCH  11  13
ATOM     13  C   UNL     1      76.539  34.481  52.172  1.00  0.00    -0.002 C 
ATOM     14  C   UNL     1      75.197  34.637  52.391  1.00  0.00    -0.069 C 
ATOM     15  C   UNL     1      74.371  33.581  53.089  1.00  0.00     0.039 C 
ATOM     16  C   UNL     1      74.474  35.905  51.991  1.00  0.00     0.039 C 
BRANCH  13  17
ATOM     17  C   UNL     1      77.282  33.247  52.671  1.00  0.00     0.066 CG0
ATOM     18  G   UNL     1      78.057  32.456  51.632  1.00  0.00     0.000 G0
ENDBRANCH  13  17
ENDBRANCH  11  13
ENDBRANCH  10  11
ENDBRANCH   1  10
TORSDOF 0
ENDMDL
MODEL 5
REMARK VINA RESULT:     0.480      1.975      3.882
REMARK INTER + INTRA:           1.275
REMARK INTER:                  -0.525
REMARK INTRA:                   1.800
REMARK UNBOUND:                 0.600
REMARK SMILES CC1=CCC(=C(C)C)C(=O)CC(C)=CCC1
REMARK SMILES IDX 12 1 14 2 13 3 15 4 16 5 2 6 1 7 3 8 11 10 9 11 10 12 5 13
REMARK SMILES IDX 6 14 7 15 8 16 4 17
REMARK H PARENT
REMARK Flexibility Score: 60.00
ROOT
ATOM      1  C   UNL     1      87.154  27.579  64.411  1.00  0.00    -0.070 C 
ATOM      2  C   UNL     1      88.118  28.525  64.323  1.00  0.00    -0.027 C 
ATOM      3  C   UNL     1      87.221  26.409  63.462  1.00  0.00     0.039 C 
ENDROOT
BRANCH   2   4
ATOM      4  C   UNL     1      88.123  29.825  65.086  1.00  0.00     0.032 C 
BRANCH   4   5
ATOM      5  C   UNL     1      87.812  30.987  64.136  1.00  0.00     0.034 C 
BRANCH   5   6
ATOM      6  C   UNL     1      87.038  32.100  64.814  1.00  0.00    -0.077 C 
ATOM      7  C   UNL     1      87.425  33.529  64.529  1.00  0.00     0.039 C 
ATOM      8  C   UNL     1      85.961  31.886  65.614  1.00  0.00    -0.023 CG0
ATOM      9  G   UNL     1      85.419  30.550  66.090  1.00  0.00     0.000 G0
ENDBRANCH   5   6
ENDBRANCH   4   5
ENDBRANCH   2   4
BRANCH   1  10
ATOM     10  C   UNL     1      86.027  27.627  65.423  1.00  0.00     0.111 C 
BRANCH  10  11
ATOM     11  C   UNL     1      84.813  28.342  64.881  1.00  0.00     0.163 C 
ATOM     12  O   UNL     1      84.017  27.666  64.174  1.00  0.00    -0.294 OA
BRANCH  11  13
ATOM     13  C   UNL     1      84.501  29.785  65.155  1.00  0.00    -0.002 C 
ATOM     14  C   UNL     1      83.335  30.343  64.703  1.00  0.00    -0.069 C 
ATOM     15  C   UNL     1      82.877  31.712  65.150  1.00  0.00     0.039 C 
ATOM     16  C   UNL     1      82.464  29.638  63.687  1.00  0.00     0.039 C 
BRANCH  13  17
ATOM     17  C   UNL     1      85.426  30.546  66.097  1.00  0.00     0.066 CG0
ATOM     18  G   UNL     1      85.948  31.882  65.601  1.00  0.00     0.000 G0
ENDBRANCH  13  17
ENDBRANCH  11  13
ENDBRANCH  10  11
ENDBRANCH   1  10
TORSDOF 0
ENDMDL
MODEL 6
REMARK VINA RESULT:     0.751      2.308      4.078
REMARK INTER + INTRA:           1.659
REMARK INTER:                   0.879
REMARK INTRA:                   0.780
REMARK UNBOUND:                 0.600
REMARK SMILES CC1=CCC(=C(C)C)C(=O)CC(C)=CCC1
REMARK SMILES IDX 12 1 14 2 13 3 15 4 16 5 2 6 1 7 3 8 11 10 9 11 10 12 5 13
REMARK SMILES IDX 6 14 7 15 8 16 4 17
REMARK H PARENT
REMARK Flexibility Score: 60.00
ROOT
ATOM      1  C   UNL     1      84.916  30.409  64.497  1.00  0.00    -0.070 C 
ATOM      2  C   UNL     1      85.847  29.886  65.328  1.00  0.00    -0.027 C 
ATOM      3  C   UNL     1      83.471  30.053  64.736  1.00  0.00     0.039 C 
ENDROOT
BRANCH   2   4
ATOM      4  C   UNL     1      87.337  30.017  65.147  1.00  0.00     0.032 C 
BRANCH   4   5
ATOM      5  C   UNL     1      87.919  30.907  66.252  1.00  0.00     0.034 C 
BRANCH   5   6
ATOM      6  C   UNL     1      86.902  31.886  66.804  1.00  0.00    -0.077 C 
ATOM      7  C   UNL     1      86.199  31.548  68.094  1.00  0.00     0.039 C 
ATOM      8  C   UNL     1      86.637  33.091  66.238  1.00  0.00    -0.023 CG0
ATOM      9  G   UNL     1      87.168  33.629  64.922  1.00  0.00     0.000 G0
ENDBRANCH   5   6
ENDBRANCH   4   5
ENDBRANCH   2   4
BRANCH   1  10
ATOM     10  C   UNL     1      85.251  31.347  63.354  1.00  0.00     0.111 C 
BRANCH  10  11
ATOM     11  C   UNL     1      85.023  32.792  63.725  1.00  0.00     0.163 C 
ATOM     12  O   UNL     1      83.838  33.138  63.984  1.00  0.00    -0.294 OA
BRANCH  11  13
ATOM     13  C   UNL     1      86.119  33.814  63.821  1.00  0.00    -0.002 C 
ATOM     14  C   UNL     1      86.091  34.939  63.042  1.00  0.00    -0.069 C 
ATOM     15  C   UNL     1      87.040  36.094  63.270  1.00  0.00     0.039 C 
ATOM     16  C   UNL     1      85.140  35.068  61.873  1.00  0.00     0.039 C 
BRANCH  13  17
ATOM     17  C   UNL     1      87.151  33.647  64.930  1.00  0.00     0.066 CG0
ATOM     18  G   UNL     1      86.646  33.079  66.245  1.00  0.00     0.000 G0
ENDBRANCH  13  17
ENDBRANCH  11  13
ENDBRANCH  10  11
ENDBRANCH   1  10
TORSDOF 0
ENDMDL
MODEL 7
REMARK VINA RESULT:     0.798      2.025      3.641
REMARK INTER + INTRA:           1.724
REMARK INTER:                  -0.627
REMARK INTRA:                   2.351
REMARK UNBOUND:                 0.600
REMARK SMILES CC1=CCC(=C(C)C)C(=O)CC(C)=CCC1
REMARK SMILES IDX 12 1 14 2 13 3 15 4 16 5 2 6 1 7 3 8 11 10 9 11 10 12 5 13
REMARK SMILES IDX 6 14 7 15 8 16 4 17
REMARK H PARENT
REMARK Flexibility Score: 60.00
ROOT
ATOM      1  C   UNL     1      87.628  31.488  66.093  1.00  0.00    -0.070 C 
ATOM      2  C   UNL     1      87.553  32.833  66.224  1.00  0.00    -0.027 C 
ATOM      3  C   UNL     1      87.994  30.677  67.309  1.00  0.00     0.039 C 
ENDROOT
BRANCH   2   4
ATOM      4  C   UNL     1      87.348  33.801  65.087  1.00  0.00     0.032 C 
BRANCH   4   5
ATOM      5  C   UNL     1      86.896  33.043  63.833  1.00  0.00     0.034 C 
BRANCH   5   6
ATOM      6  C   UNL     1      85.450  33.324  63.475  1.00  0.00    -0.077 C 
ATOM      7  C   UNL     1      85.157  34.309  62.371  1.00  0.00     0.039 C 
ATOM      8  C   UNL     1      84.397  32.684  64.044  1.00  0.00    -0.023 CG0
ATOM      9  G   UNL     1      84.432  31.704  65.203  1.00  0.00     0.000 G0
ENDBRANCH   5   6
ENDBRANCH   4   5
ENDBRANCH   2   4
BRANCH   1  10
ATOM     10  C   UNL     1      87.347  30.760  64.793  1.00  0.00     0.111 C 
BRANCH  10  11
ATOM     11  C   UNL     1      86.176  29.815  64.919  1.00  0.00     0.163 C 
ATOM     12  O   UNL     1      86.441  28.597  65.111  1.00  0.00    -0.294 OA
BRANCH  11  13
ATOM     13  C   UNL     1      84.741  30.249  64.850  1.00  0.00    -0.002 C 
ATOM     14  C   UNL     1      83.746  29.332  64.645  1.00  0.00    -0.069 C 
ATOM     15  C   UNL     1      82.285  29.688  64.800  1.00  0.00     0.039 C 
ATOM     16  C   UNL     1      84.053  27.919  64.201  1.00  0.00     0.039 C 
BRANCH  13  17
ATOM     17  C   UNL     1      84.420  31.699  65.195  1.00  0.00     0.066 CG0
ATOM     18  G   UNL     1      84.393  32.680  64.036  1.00  0.00     0.000 G0
ENDBRANCH  13  17
ENDBRANCH  11  13
ENDBRANCH  10  11
ENDBRANCH   1  10
TORSDOF 0
ENDMDL
MODEL 8
REMARK VINA RESULT:     0.887      1.595      4.145
REMARK INTER + INTRA:           1.850
REMARK INTER:                   0.705
REMARK INTRA:                   1.145
REMARK UNBOUND:                 0.600
REMARK SMILES CC1=CCC(=C(C)C)C(=O)CC(C)=CCC1
REMARK SMILES IDX 12 1 14 2 13 3 15 4 16 5 2 6 1 7 3 8 11 10 9 11 10 12 5 13
REMARK SMILES IDX 6 14 7 15 8 16 4 17
REMARK H PARENT
REMARK Flexibility Score: 60.00
ROOT
ATOM      1  C   UNL     1      84.129  30.009  64.745  1.00  0.00    -0.070 C 
ATOM      2  C   UNL     1      84.101  28.707  65.116  1.00  0.00    -0.027 C 
ATOM      3  C   UNL     1      83.245  30.977  65.488  1.00  0.00     0.039 C 
ENDROOT
BRANCH   2   4
ATOM      4  C   UNL     1      84.804  27.588  64.392  1.00  0.00     0.032 C 
BRANCH   4   5
ATOM      5  C   UNL     1      86.107  27.236  65.119  1.00  0.00     0.034 C 
BRANCH   5   6
ATOM      6  C   UNL     1      87.325  27.844  64.453  1.00  0.00    -0.077 C 
ATOM      7  C   UNL     1      88.066  27.034  63.420  1.00  0.00     0.039 C 
ATOM      8  C   UNL     1      87.750  29.114  64.681  1.00  0.00    -0.023 CG0
ATOM      9  G   UNL     1      87.210  30.096  65.705  1.00  0.00     0.000 G0
ENDBRANCH   5   6
ENDBRANCH   4   5
ENDBRANCH   2   4
BRANCH   1  10
ATOM     10  C   UNL     1      85.016  30.541  63.636  1.00  0.00     0.111 C 
BRANCH  10  11
ATOM     11  C   UNL     1      85.904  31.664  64.115  1.00  0.00     0.163 C 
ATOM     12  O   UNL     1      85.790  32.775  63.529  1.00  0.00    -0.294 OA
BRANCH  11  13
ATOM     13  C   UNL     1      86.880  31.533  65.248  1.00  0.00    -0.002 C 
ATOM     14  C   UNL     1      87.303  32.640  65.933  1.00  0.00    -0.069 C 
ATOM     15  C   UNL     1      88.096  32.532  67.216  1.00  0.00     0.039 C 
ATOM     16  C   UNL     1      87.043  34.037  65.415  1.00  0.00     0.039 C 
BRANCH  13  17
ATOM     17  C   UNL     1      87.236  30.128  65.720  1.00  0.00     0.066 CG0
ATOM     18  G   UNL     1      87.711  29.156  64.655  1.00  0.00     0.000 G0
ENDBRANCH  13  17
ENDBRANCH  11  13
ENDBRANCH  10  11
ENDBRANCH   1  10
TORSDOF 0
ENDMDL
MODEL 9
REMARK VINA RESULT:     1.197      2.020      4.794
REMARK INTER + INTRA:           2.286
REMARK INTER:                   1.309
REMARK INTRA:                   0.977
REMARK UNBOUND:                 0.600
REMARK SMILES CC1=CCC(=C(C)C)C(=O)CC(C)=CCC1
REMARK SMILES IDX 12 1 14 2 13 3 15 4 16 5 2 6 1 7 3 8 11 10 9 11 10 12 5 13
REMARK SMILES IDX 6 14 7 15 8 16 4 17
REMARK H PARENT
REMARK Flexibility Score: 60.00
ROOT
ATOM      1  C   UNL     1      87.039  29.719  64.956  1.00  0.00    -0.070 C 
ATOM      2  C   UNL     1      86.161  28.877  64.362  1.00  0.00    -0.027 C 
ATOM      3  C   UNL     1      88.088  30.374  64.093  1.00  0.00     0.039 C 
ENDROOT
BRANCH   2   4
ATOM      4  C   UNL     1      85.150  28.030  65.091  1.00  0.00     0.032 C 
BRANCH   4   5
ATOM      5  C   UNL     1      83.994  28.909  65.585  1.00  0.00     0.034 C 
BRANCH   5   6
ATOM      6  C   UNL     1      83.503  29.872  64.523  1.00  0.00    -0.077 C 
ATOM      7  C   UNL     1      82.875  29.311  63.273  1.00  0.00     0.039 C 
ATOM      8  C   UNL     1      83.529  31.222  64.664  1.00  0.00    -0.023 CG0
ATOM      9  G   UNL     1      84.156  32.018  65.795  1.00  0.00     0.000 G0
ENDBRANCH   5   6
ENDBRANCH   4   5
ENDBRANCH   2   4
BRANCH   1  10
ATOM     10  C   UNL     1      87.010  30.047  66.435  1.00  0.00     0.111 C 
BRANCH  10  11
ATOM     11  C   UNL     1      86.548  31.461  66.690  1.00  0.00     0.163 C 
ATOM     12  O   UNL     1      86.937  32.008  67.758  1.00  0.00    -0.294 OA
BRANCH  11  13
ATOM     13  C   UNL     1      85.683  32.241  65.743  1.00  0.00    -0.002 C 
ATOM     14  C   UNL     1      86.245  32.999  64.751  1.00  0.00    -0.069 C 
ATOM     15  C   UNL     1      85.418  33.608  63.642  1.00  0.00     0.039 C 
ATOM     16  C   UNL     1      87.725  33.313  64.740  1.00  0.00     0.039 C 
BRANCH  13  17
ATOM     17  C   UNL     1      84.177  32.016  65.806  1.00  0.00     0.066 CG0
ATOM     18  G   UNL     1      83.563  31.217  64.670  1.00  0.00     0.000 G0
ENDBRANCH  13  17
ENDBRANCH  11  13
ENDBRANCH  10  11
ENDBRANCH   1  10
TORSDOF 0
ENDMDL
