MODEL 1
REMARK VINA RESULT:    -9.161      0.000      0.000
REMARK INTER + INTRA:         -15.619
REMARK INTER:                 -14.517
REMARK INTRA:                  -1.102
REMARK UNBOUND:                -1.102
REMARK SMILES C[C@@H]1O[C@@H](O[C@H]2[C@H](Oc3cc(O)c4c(c3)O[C@@H](c3ccc(O)cc3)CC4=O)O[C@@H](CO)[C@@H](O)[C@H]2O)[C@@H](O)[C@H](O)[C@@H]1O
REMARK SMILES IDX 6 1 34 2 32 3 29 4 28 5 7 6 5 7 4 8 1 9 2 10 40 11 3 12
REMARK SMILES IDX 38 13 36 14 41 15 39 17 37 19 35 21 8 23 9 24 10 25 15 26
REMARK SMILES IDX 11 27 14 28 13 29 16 30 26 31 17 32 27 33 25 34 12 35 18 37
REMARK SMILES IDX 19 38 24 39 20 40 23 41 21 42 22 43 33 45 30 47 31 48
REMARK H PARENT 41 16 39 18 37 20 35 22 12 36 22 44 33 46 31 49
REMARK Flexibility Score: inf
ROOT
ATOM      1  C   UNL     1     177.620 181.989 153.414  1.00  0.00     0.221 C 
ATOM      2  C   UNL     1     176.269 182.683 153.171  1.00  0.00     0.181 C 
ATOM      3  C   UNL     1     175.509 182.877 154.497  1.00  0.00     0.177 C 
ATOM      4  C   UNL     1     175.427 181.521 155.240  1.00  0.00     0.179 C 
ATOM      5  O   UNL     1     176.723 180.982 155.458  1.00  0.00    -0.332 OA
ATOM      6  C   UNL     1     177.386 180.693 154.237  1.00  0.00     0.339 C 
ENDROOT
BRANCH   1   7
ATOM      7  O   UNL     1     178.474 182.888 154.104  1.00  0.00    -0.337 OA
BRANCH   7   8
ATOM      8  C   UNL     1     179.739 182.319 154.418  1.00  0.00     0.282 C 
ATOM      9  C   UNL     1     180.932 184.963 156.691  1.00  0.00     0.041 C 
ATOM     10  C   UNL     1     180.485 184.333 155.370  1.00  0.00     0.150 C 
ATOM     11  C   UNL     1     181.515 184.593 154.251  1.00  0.00     0.174 C 
ATOM     12  O   UNL     1     180.299 182.939 155.569  1.00  0.00    -0.344 OA
ATOM     13  C   UNL     1     181.023 183.928 152.950  1.00  0.00     0.179 C 
ATOM     14  C   UNL     1     180.686 182.449 153.210  1.00  0.00     0.202 C 
BRANCH  11  15
ATOM     15  O   UNL     1     182.766 184.068 154.623  1.00  0.00    -0.388 OA
ATOM     16  H   UNL     1     183.424 184.808 154.550  1.00  0.00     0.211 HD
ENDBRANCH  11  15
BRANCH  13  17
ATOM     17  O   UNL     1     182.007 184.019 151.951  1.00  0.00    -0.387 OA
ATOM     18  H   UNL     1     182.865 183.741 152.368  1.00  0.00     0.211 HD
ENDBRANCH  13  17
BRANCH  14  19
ATOM     19  O   UNL     1     180.077 181.884 152.077  1.00  0.00    -0.385 OA
ATOM     20  H   UNL     1     179.096 181.920 152.232  1.00  0.00     0.211 HD
ENDBRANCH  14  19
ENDBRANCH   7   8
ENDBRANCH   1   7
BRANCH   2  21
ATOM     21  O   UNL     1     176.480 183.923 152.543  1.00  0.00    -0.387 OA
ATOM     22  H   UNL     1     175.809 183.993 151.816  1.00  0.00     0.211 HD
ENDBRANCH   2  21
BRANCH   6  23
ATOM     23  O   UNL     1     176.646 179.726 153.480  1.00  0.00    -0.462 OA
BRANCH  23  24
ATOM     24  C   UNL     1     176.531 178.361 153.786  1.00  0.00     0.130 A 
ATOM     25  C   UNL     1     177.183 177.442 152.958  1.00  0.00     0.093 A 
ATOM     26  C   UNL     1     175.786 177.887 154.880  1.00  0.00     0.094 A 
ATOM     27  C   UNL     1     177.131 176.067 153.226  1.00  0.00     0.133 A 
ATOM     28  C   UNL     1     175.701 176.518 155.139  1.00  0.00     0.138 A 
ATOM     29  C   UNL     1     176.394 175.596 154.332  1.00  0.00     0.102 A 
ATOM     30  O   UNL     1     174.926 176.070 156.216  1.00  0.00    -0.484 OA
ATOM     31  C   UNL     1     176.336 174.164 154.709  1.00  0.00     0.174 C 
ATOM     32  C   UNL     1     174.492 174.714 156.337  1.00  0.00     0.211 C 
ATOM     33  O   UNL     1     176.902 173.283 154.006  1.00  0.00    -0.294 OA
ATOM     34  C   UNL     1     175.645 173.750 155.981  1.00  0.00     0.131 C 
BRANCH  27  35
ATOM     35  O   UNL     1     177.817 175.178 152.398  1.00  0.00    -0.507 OA
ATOM     36  H   UNL     1     177.732 175.217 151.389  1.00  0.00     0.293 HD
ENDBRANCH  27  35
BRANCH  32  37
ATOM     37  C   UNL     1     173.205 174.526 155.543  1.00  0.00    -0.007 A 
ATOM     38  C   UNL     1     172.615 175.545 154.763  1.00  0.00     0.011 A 
ATOM     39  C   UNL     1     172.549 173.283 155.631  1.00  0.00     0.011 A 
ATOM     40  C   UNL     1     171.417 175.314 154.080  1.00  0.00     0.046 A 
ATOM     41  C   UNL     1     171.350 173.057 154.948  1.00  0.00     0.046 A 
ATOM     42  C   UNL     1     170.781 174.073 154.171  1.00  0.00     0.115 A 
BRANCH  42  43
ATOM     43  O   UNL     1     169.586 173.862 153.487  1.00  0.00    -0.508 OA
ATOM     44  H   UNL     1     169.080 174.628 153.056  1.00  0.00     0.293 HD
ENDBRANCH  42  43
ENDBRANCH  32  37
ENDBRANCH  23  24
ENDBRANCH   6  23
BRANCH   3  45
ATOM     45  O   UNL     1     176.168 183.837 155.287  1.00  0.00    -0.387 OA
ATOM     46  H   UNL     1     176.399 183.399 156.149  1.00  0.00     0.211 HD
ENDBRANCH   3  45
BRANCH   4  47
ATOM     47  C   UNL     1     174.719 181.648 156.599  1.00  0.00     0.191 C 
BRANCH  47  48
ATOM     48  O   UNL     1     173.591 182.476 156.510  1.00  0.00    -0.394 OA
ATOM     49  H   UNL     1     173.176 182.297 155.628  1.00  0.00     0.210 HD
ENDBRANCH  47  48
ENDBRANCH   4  47
TORSDOF 14
ENDMDL
MODEL 2
REMARK VINA RESULT:    -8.895      3.149     11.861
REMARK INTER + INTRA:         -15.198
REMARK INTER:                 -13.749
REMARK INTRA:                  -1.449
REMARK UNBOUND:                -1.102
REMARK SMILES C[C@@H]1O[C@@H](O[C@H]2[C@H](Oc3cc(O)c4c(c3)O[C@@H](c3ccc(O)cc3)CC4=O)O[C@@H](CO)[C@@H](O)[C@H]2O)[C@@H](O)[C@H](O)[C@@H]1O
REMARK SMILES IDX 6 1 34 2 32 3 29 4 28 5 7 6 5 7 4 8 1 9 2 10 40 11 3 12
REMARK SMILES IDX 38 13 36 14 41 15 39 17 37 19 35 21 8 23 9 24 10 25 15 26
REMARK SMILES IDX 11 27 14 28 13 29 16 30 26 31 17 32 27 33 25 34 12 35 18 37
REMARK SMILES IDX 19 38 24 39 20 40 23 41 21 42 22 43 33 45 30 47 31 48
REMARK H PARENT 41 16 39 18 37 20 35 22 12 36 22 44 33 46 31 49
REMARK Flexibility Score: inf
ROOT
ATOM      1  C   UNL     1     171.101 172.560 153.654  1.00  0.00     0.221 C 
ATOM      2  C   UNL     1     172.364 171.765 153.281  1.00  0.00     0.181 C 
ATOM      3  C   UNL     1     173.195 171.441 154.536  1.00  0.00     0.177 C 
ATOM      4  C   UNL     1     173.450 172.746 155.329  1.00  0.00     0.179 C 
ATOM      5  O   UNL     1     172.226 173.382 155.667  1.00  0.00    -0.332 OA
ATOM      6  C   UNL     1     171.507 173.788 154.513  1.00  0.00     0.339 C 
ENDROOT
BRANCH   1   7
ATOM      7  O   UNL     1     170.221 171.704 154.365  1.00  0.00    -0.337 OA
BRANCH   7   8
ATOM      8  C   UNL     1     169.080 172.384 154.876  1.00  0.00     0.282 C 
ATOM      9  C   UNL     1     168.179 169.957 157.497  1.00  0.00     0.041 C 
ATOM     10  C   UNL     1     168.402 170.483 156.079  1.00  0.00     0.150 C 
ATOM     11  C   UNL     1     167.160 170.247 155.194  1.00  0.00     0.174 C 
ATOM     12  O   UNL     1     168.714 171.867 156.149  1.00  0.00    -0.344 OA
ATOM     13  C   UNL     1     167.434 170.806 153.783  1.00  0.00     0.179 C 
ATOM     14  C   UNL     1     167.911 172.266 153.880  1.00  0.00     0.202 C 
BRANCH  11  15
ATOM     15  O   UNL     1     166.042 170.884 155.762  1.00  0.00    -0.388 OA
ATOM     16  H   UNL     1     165.509 171.256 155.011  1.00  0.00     0.211 HD
ENDBRANCH  11  15
BRANCH  13  17
ATOM     17  O   UNL     1     166.272 170.740 152.997  1.00  0.00    -0.387 OA
ATOM     18  H   UNL     1     165.598 171.326 153.433  1.00  0.00     0.211 HD
ENDBRANCH  13  17
BRANCH  14  19
ATOM     19  O   UNL     1     168.326 172.725 152.618  1.00  0.00    -0.385 OA
ATOM     20  H   UNL     1     167.712 172.321 151.950  1.00  0.00     0.211 HD
ENDBRANCH  14  19
ENDBRANCH   7   8
ENDBRANCH   1   7
BRANCH   2  21
ATOM     21  O   UNL     1     171.999 170.582 152.616  1.00  0.00    -0.387 OA
ATOM     22  H   UNL     1     171.668 170.848 151.719  1.00  0.00     0.211 HD
ENDBRANCH   2  21
BRANCH   6  23
ATOM     23  O   UNL     1     172.275 174.724 153.746  1.00  0.00    -0.462 OA
BRANCH  23  24
ATOM     24  C   UNL     1     172.431 176.089 154.038  1.00  0.00     0.130 A 
ATOM     25  C   UNL     1     171.543 176.995 153.449  1.00  0.00     0.093 A 
ATOM     26  C   UNL     1     173.441 176.574 154.888  1.00  0.00     0.094 A 
ATOM     27  C   UNL     1     171.627 178.368 153.723  1.00  0.00     0.133 A 
ATOM     28  C   UNL     1     173.553 177.943 155.143  1.00  0.00     0.138 A 
ATOM     29  C   UNL     1     172.633 178.849 154.586  1.00  0.00     0.102 A 
ATOM     30  O   UNL     1     174.588 178.404 155.967  1.00  0.00    -0.484 OA
ATOM     31  C   UNL     1     172.751 180.278 154.963  1.00  0.00     0.174 C 
ATOM     32  C   UNL     1     174.997 179.772 155.991  1.00  0.00     0.211 C 
ATOM     33  O   UNL     1     171.983 181.147 154.470  1.00  0.00    -0.294 OA
ATOM     34  C   UNL     1     173.761 180.699 155.998  1.00  0.00     0.131 C 
BRANCH  27  35
ATOM     35  O   UNL     1     170.709 179.243 153.142  1.00  0.00    -0.507 OA
ATOM     36  H   UNL     1     170.677 180.224 153.393  1.00  0.00     0.293 HD
ENDBRANCH  27  35
BRANCH  32  37
ATOM     37  C   UNL     1     176.000 180.017 154.871  1.00  0.00    -0.007 A 
ATOM     38  C   UNL     1     176.539 178.985 154.070  1.00  0.00     0.011 A 
ATOM     39  C   UNL     1     176.444 181.335 154.655  1.00  0.00     0.011 A 
ATOM     40  C   UNL     1     177.478 179.275 153.075  1.00  0.00     0.046 A 
ATOM     41  C   UNL     1     177.384 181.620 153.661  1.00  0.00     0.046 A 
ATOM     42  C   UNL     1     177.903 180.590 152.868  1.00  0.00     0.115 A 
BRANCH  42  43
ATOM     43  O   UNL     1     178.842 180.860 151.875  1.00  0.00    -0.508 OA
ATOM     44  H   UNL     1     178.739 181.651 151.250  1.00  0.00     0.293 HD
ENDBRANCH  42  43
ENDBRANCH  32  37
ENDBRANCH  23  24
ENDBRANCH   6  23
BRANCH   3  45
ATOM     45  O   UNL     1     172.510 170.502 155.330  1.00  0.00    -0.387 OA
ATOM     46  H   UNL     1     172.049 171.009 156.050  1.00  0.00     0.211 HD
ENDBRANCH   3  45
BRANCH   4  47
ATOM     47  C   UNL     1     174.238 172.490 156.625  1.00  0.00     0.191 C 
BRANCH  47  48
ATOM     48  O   UNL     1     173.495 171.718 157.529  1.00  0.00    -0.394 OA
ATOM     49  H   UNL     1     172.675 171.429 157.050  1.00  0.00     0.210 HD
ENDBRANCH  47  48
ENDBRANCH   4  47
TORSDOF 14
ENDMDL
MODEL 3
REMARK VINA RESULT:    -8.874      1.204      1.800
REMARK INTER + INTRA:         -15.164
REMARK INTER:                 -13.736
REMARK INTRA:                  -1.427
REMARK UNBOUND:                -1.102
REMARK SMILES C[C@@H]1O[C@@H](O[C@H]2[C@H](Oc3cc(O)c4c(c3)O[C@@H](c3ccc(O)cc3)CC4=O)O[C@@H](CO)[C@@H](O)[C@H]2O)[C@@H](O)[C@H](O)[C@@H]1O
REMARK SMILES IDX 6 1 34 2 32 3 29 4 28 5 7 6 5 7 4 8 1 9 2 10 40 11 3 12
REMARK SMILES IDX 38 13 36 14 41 15 39 17 37 19 35 21 8 23 9 24 10 25 15 26
REMARK SMILES IDX 11 27 14 28 13 29 16 30 26 31 17 32 27 33 25 34 12 35 18 37
REMARK SMILES IDX 19 38 24 39 20 40 23 41 21 42 22 43 33 45 30 47 31 48
REMARK H PARENT 41 16 39 18 37 20 35 22 12 36 22 44 33 46 31 49
REMARK Flexibility Score: inf
ROOT
ATOM      1  C   UNL     1     177.612 182.354 153.787  1.00  0.00     0.221 C 
ATOM      2  C   UNL     1     176.306 182.904 153.190  1.00  0.00     0.181 C 
ATOM      3  C   UNL     1     175.189 182.930 154.250  1.00  0.00     0.177 C 
ATOM      4  C   UNL     1     175.075 181.530 154.904  1.00  0.00     0.179 C 
ATOM      5  O   UNL     1     176.317 181.130 155.466  1.00  0.00    -0.332 OA
ATOM      6  C   UNL     1     177.324 180.992 154.475  1.00  0.00     0.339 C 
ENDROOT
BRANCH   1   7
ATOM      7  O   UNL     1     178.120 183.301 154.714  1.00  0.00    -0.337 OA
BRANCH   7   8
ATOM      8  C   UNL     1     179.043 184.210 154.125  1.00  0.00     0.282 C 
ATOM      9  C   UNL     1     182.055 183.121 155.947  1.00  0.00     0.041 C 
ATOM     10  C   UNL     1     180.663 183.727 155.756  1.00  0.00     0.150 C 
ATOM     11  C   UNL     1     180.570 185.124 156.402  1.00  0.00     0.174 C 
ATOM     12  O   UNL     1     180.381 183.795 154.365  1.00  0.00    -0.344 OA
ATOM     13  C   UNL     1     179.156 185.693 156.170  1.00  0.00     0.179 C 
ATOM     14  C   UNL     1     178.802 185.629 154.673  1.00  0.00     0.202 C 
BRANCH  11  15
ATOM     15  O   UNL     1     181.536 185.977 155.836  1.00  0.00    -0.388 OA
ATOM     16  H   UNL     1     182.422 185.566 156.012  1.00  0.00     0.211 HD
ENDBRANCH  11  15
BRANCH  13  17
ATOM     17  O   UNL     1     179.083 187.023 156.616  1.00  0.00    -0.387 OA
ATOM     18  H   UNL     1     179.166 187.599 155.811  1.00  0.00     0.211 HD
ENDBRANCH  13  17
BRANCH  14  19
ATOM     19  O   UNL     1     177.457 185.982 154.477  1.00  0.00    -0.385 OA
ATOM     20  H   UNL     1     177.451 186.747 153.842  1.00  0.00     0.211 HD
ENDBRANCH  14  19
ENDBRANCH   7   8
ENDBRANCH   1   7
BRANCH   2  21
ATOM     21  O   UNL     1     176.525 184.195 152.680  1.00  0.00    -0.387 OA
ATOM     22  H   UNL     1     176.154 184.206 151.759  1.00  0.00     0.211 HD
ENDBRANCH   2  21
BRANCH   6  23
ATOM     23  O   UNL     1     176.951 179.996 153.515  1.00  0.00    -0.462 OA
BRANCH  23  24
ATOM     24  C   UNL     1     176.781 178.627 153.779  1.00  0.00     0.130 A 
ATOM     25  C   UNL     1     177.381 177.709 152.913  1.00  0.00     0.093 A 
ATOM     26  C   UNL     1     176.030 178.151 154.869  1.00  0.00     0.094 A 
ATOM     27  C   UNL     1     177.273 176.329 153.137  1.00  0.00     0.133 A 
ATOM     28  C   UNL     1     175.890 176.778 155.085  1.00  0.00     0.138 A 
ATOM     29  C   UNL     1     176.531 175.855 154.239  1.00  0.00     0.102 A 
ATOM     30  O   UNL     1     175.111 176.329 156.158  1.00  0.00    -0.484 OA
ATOM     31  C   UNL     1     176.417 174.414 154.570  1.00  0.00     0.174 C 
ATOM     32  C   UNL     1     174.620 174.990 156.242  1.00  0.00     0.211 C 
ATOM     33  O   UNL     1     176.934 173.534 153.832  1.00  0.00    -0.294 OA
ATOM     34  C   UNL     1     175.726 173.990 155.839  1.00  0.00     0.131 C 
BRANCH  27  35
ATOM     35  O   UNL     1     177.908 175.438 152.271  1.00  0.00    -0.507 OA
ATOM     36  H   UNL     1     178.223 174.527 152.582  1.00  0.00     0.293 HD
ENDBRANCH  27  35
BRANCH  32  37
ATOM     37  C   UNL     1     173.315 174.883 155.463  1.00  0.00    -0.007 A 
ATOM     38  C   UNL     1     172.699 175.981 154.823  1.00  0.00     0.011 A 
ATOM     39  C   UNL     1     172.672 173.632 155.418  1.00  0.00     0.011 A 
ATOM     40  C   UNL     1     171.486 175.820 154.146  1.00  0.00     0.046 A 
ATOM     41  C   UNL     1     171.458 173.476 154.742  1.00  0.00     0.046 A 
ATOM     42  C   UNL     1     170.863 174.570 154.104  1.00  0.00     0.115 A 
BRANCH  42  43
ATOM     43  O   UNL     1     169.653 174.428 153.428  1.00  0.00    -0.508 OA
ATOM     44  H   UNL     1     169.544 174.733 152.468  1.00  0.00     0.293 HD
ENDBRANCH  42  43
ENDBRANCH  32  37
ENDBRANCH  23  24
ENDBRANCH   6  23
BRANCH   3  45
ATOM     45  O   UNL     1     175.477 183.909 155.220  1.00  0.00    -0.387 OA
ATOM     46  H   UNL     1     174.634 184.085 155.717  1.00  0.00     0.211 HD
ENDBRANCH   3  45
BRANCH   4  47
ATOM     47  C   UNL     1     174.008 181.494 156.010  1.00  0.00     0.191 C 
BRANCH  47  48
ATOM     48  O   UNL     1     173.119 182.573 155.896  1.00  0.00    -0.394 OA
ATOM     49  H   UNL     1     173.220 182.929 154.976  1.00  0.00     0.210 HD
ENDBRANCH  47  48
ENDBRANCH   4  47
TORSDOF 14
ENDMDL
MODEL 4
REMARK VINA RESULT:    -8.105      2.550     10.455
REMARK INTER + INTRA:         -13.946
REMARK INTER:                 -12.498
REMARK INTRA:                  -1.448
REMARK UNBOUND:                -1.102
REMARK SMILES C[C@@H]1O[C@@H](O[C@H]2[C@H](Oc3cc(O)c4c(c3)O[C@@H](c3ccc(O)cc3)CC4=O)O[C@@H](CO)[C@@H](O)[C@H]2O)[C@@H](O)[C@H](O)[C@@H]1O
REMARK SMILES IDX 6 1 34 2 32 3 29 4 28 5 7 6 5 7 4 8 1 9 2 10 40 11 3 12
REMARK SMILES IDX 38 13 36 14 41 15 39 17 37 19 35 21 8 23 9 24 10 25 15 26
REMARK SMILES IDX 11 27 14 28 13 29 16 30 26 31 17 32 27 33 25 34 12 35 18 37
REMARK SMILES IDX 19 38 24 39 20 40 23 41 21 42 22 43 33 45 30 47 31 48
REMARK H PARENT 41 16 39 18 37 20 35 22 12 36 22 44 33 46 31 49
REMARK Flexibility Score: inf
ROOT
ATOM      1  C   UNL     1     174.256 174.673 154.855  1.00  0.00     0.221 C 
ATOM      2  C   UNL     1     175.751 174.315 154.829  1.00  0.00     0.181 C 
ATOM      3  C   UNL     1     176.064 173.201 155.846  1.00  0.00     0.177 C 
ATOM      4  C   UNL     1     175.510 173.609 157.234  1.00  0.00     0.179 C 
ATOM      5  O   UNL     1     174.116 173.875 157.166  1.00  0.00    -0.332 OA
ATOM      6  C   UNL     1     173.830 174.976 156.317  1.00  0.00     0.339 C 
ENDROOT
BRANCH   1   7
ATOM      7  O   UNL     1     173.520 173.584 154.321  1.00  0.00    -0.337 OA
BRANCH   7   8
ATOM      8  C   UNL     1     172.114 173.740 154.473  1.00  0.00     0.282 C 
ATOM      9  C   UNL     1     171.534 170.895 156.742  1.00  0.00     0.041 C 
ATOM     10  C   UNL     1     171.914 171.610 155.444  1.00  0.00     0.150 C 
ATOM     11  C   UNL     1     171.148 171.025 154.240  1.00  0.00     0.174 C 
ATOM     12  O   UNL     1     171.643 172.997 155.589  1.00  0.00    -0.344 OA
ATOM     13  C   UNL     1     171.559 171.788 152.964  1.00  0.00     0.179 C 
ATOM     14  C   UNL     1     171.396 173.303 153.181  1.00  0.00     0.202 C 
BRANCH  11  15
ATOM     15  O   UNL     1     169.763 171.144 154.453  1.00  0.00    -0.388 OA
ATOM     16  H   UNL     1     169.487 170.366 155.004  1.00  0.00     0.211 HD
ENDBRANCH  11  15
BRANCH  13  17
ATOM     17  O   UNL     1     170.770 171.380 151.875  1.00  0.00    -0.387 OA
ATOM     18  H   UNL     1     171.157 171.808 151.066  1.00  0.00     0.211 HD
ENDBRANCH  13  17
BRANCH  14  19
ATOM     19  O   UNL     1     171.929 174.009 152.090  1.00  0.00    -0.385 OA
ATOM     20  H   UNL     1     171.274 174.720 151.862  1.00  0.00     0.211 HD
ENDBRANCH  14  19
ENDBRANCH   7   8
ENDBRANCH   1   7
BRANCH   2  21
ATOM     21  O   UNL     1     176.119 173.911 153.534  1.00  0.00    -0.387 OA
ATOM     22  H   UNL     1     177.086 173.688 153.567  1.00  0.00     0.211 HD
ENDBRANCH   2  21
BRANCH   6  23
ATOM     23  O   UNL     1     174.466 176.165 156.805  1.00  0.00    -0.462 OA
BRANCH  23  24
ATOM     24  C   UNL     1     174.204 177.473 156.366  1.00  0.00     0.130 A 
ATOM     25  C   UNL     1     173.169 177.664 155.447  1.00  0.00     0.093 A 
ATOM     26  C   UNL     1     174.941 178.585 156.809  1.00  0.00     0.094 A 
ATOM     27  C   UNL     1     172.838 178.948 154.991  1.00  0.00     0.133 A 
ATOM     28  C   UNL     1     174.640 179.865 156.338  1.00  0.00     0.138 A 
ATOM     29  C   UNL     1     173.570 180.063 155.447  1.00  0.00     0.102 A 
ATOM     30  O   UNL     1     175.410 180.953 156.769  1.00  0.00    -0.484 OA
ATOM     31  C   UNL     1     173.244 181.454 155.051  1.00  0.00     0.174 C 
ATOM     32  C   UNL     1     175.417 182.207 156.085  1.00  0.00     0.211 C 
ATOM     33  O   UNL     1     172.323 181.698 154.226  1.00  0.00    -0.294 OA
ATOM     34  C   UNL     1     173.979 182.605 155.685  1.00  0.00     0.131 C 
BRANCH  27  35
ATOM     35  O   UNL     1     171.780 179.109 154.095  1.00  0.00    -0.507 OA
ATOM     36  H   UNL     1     171.246 179.969 154.052  1.00  0.00     0.293 HD
ENDBRANCH  27  35
BRANCH  32  37
ATOM     37  C   UNL     1     176.428 182.152 154.946  1.00  0.00    -0.007 A 
ATOM     38  C   UNL     1     176.213 182.747 153.684  1.00  0.00     0.011 A 
ATOM     39  C   UNL     1     177.619 181.431 155.153  1.00  0.00     0.011 A 
ATOM     40  C   UNL     1     177.172 182.637 152.673  1.00  0.00     0.046 A 
ATOM     41  C   UNL     1     178.575 181.320 154.139  1.00  0.00     0.046 A 
ATOM     42  C   UNL     1     178.353 181.924 152.896  1.00  0.00     0.115 A 
BRANCH  42  43
ATOM     43  O   UNL     1     179.296 181.820 151.875  1.00  0.00    -0.508 OA
ATOM     44  H   UNL     1     179.516 180.928 151.447  1.00  0.00     0.293 HD
ENDBRANCH  42  43
ENDBRANCH  32  37
ENDBRANCH  23  24
ENDBRANCH   6  23
BRANCH   3  45
ATOM     45  O   UNL     1     175.488 171.991 155.418  1.00  0.00    -0.387 OA
ATOM     46  H   UNL     1     174.884 172.206 154.659  1.00  0.00     0.211 HD
ENDBRANCH   3  45
BRANCH   4  47
ATOM     47  C   UNL     1     175.745 172.519 158.293  1.00  0.00     0.191 C 
BRANCH  47  48
ATOM     48  O   UNL     1     174.640 171.662 158.396  1.00  0.00    -0.394 OA
ATOM     49  H   UNL     1     174.974 170.745 158.222  1.00  0.00     0.210 HD
ENDBRANCH  47  48
ENDBRANCH   4  47
TORSDOF 14
ENDMDL
MODEL 5
REMARK VINA RESULT:    -8.024      2.759     11.443
REMARK INTER + INTRA:         -13.817
REMARK INTER:                 -12.942
REMARK INTRA:                  -0.874
REMARK UNBOUND:                -1.102
REMARK SMILES C[C@@H]1O[C@@H](O[C@H]2[C@H](Oc3cc(O)c4c(c3)O[C@@H](c3ccc(O)cc3)CC4=O)O[C@@H](CO)[C@@H](O)[C@H]2O)[C@@H](O)[C@H](O)[C@@H]1O
REMARK SMILES IDX 6 1 34 2 32 3 29 4 28 5 7 6 5 7 4 8 1 9 2 10 40 11 3 12
REMARK SMILES IDX 38 13 36 14 41 15 39 17 37 19 35 21 8 23 9 24 10 25 15 26
REMARK SMILES IDX 11 27 14 28 13 29 16 30 26 31 17 32 27 33 25 34 12 35 18 37
REMARK SMILES IDX 19 38 24 39 20 40 23 41 21 42 22 43 33 45 30 47 31 48
REMARK H PARENT 41 16 39 18 37 20 35 22 12 36 22 44 33 46 31 49
REMARK Flexibility Score: inf
ROOT
ATOM      1  C   UNL     1     172.166 173.421 154.692  1.00  0.00     0.221 C 
ATOM      2  C   UNL     1     173.443 172.738 154.171  1.00  0.00     0.181 C 
ATOM      3  C   UNL     1     174.476 172.577 155.303  1.00  0.00     0.177 C 
ATOM      4  C   UNL     1     174.696 173.947 155.991  1.00  0.00     0.179 C 
ATOM      5  O   UNL     1     173.470 174.474 156.477  1.00  0.00    -0.332 OA
ATOM      6  C   UNL     1     172.553 174.733 155.425  1.00  0.00     0.339 C 
ENDROOT
BRANCH   1   7
ATOM      7  O   UNL     1     171.497 172.523 155.563  1.00  0.00    -0.337 OA
BRANCH   7   8
ATOM      8  C   UNL     1     170.972 171.386 154.888  1.00  0.00     0.282 C 
ATOM      9  C   UNL     1     167.653 172.770 154.080  1.00  0.00     0.041 C 
ATOM     10  C   UNL     1     168.793 172.263 154.965  1.00  0.00     0.150 C 
ATOM     11  C   UNL     1     168.295 171.195 155.961  1.00  0.00     0.174 C 
ATOM     12  O   UNL     1     169.818 171.737 154.135  1.00  0.00    -0.344 OA
ATOM     13  C   UNL     1     169.482 170.711 156.817  1.00  0.00     0.179 C 
ATOM     14  C   UNL     1     170.645 170.277 155.906  1.00  0.00     0.202 C 
BRANCH  11  15
ATOM     15  O   UNL     1     167.729 170.115 155.258  1.00  0.00    -0.388 OA
ATOM     16  H   UNL     1     166.811 169.988 155.613  1.00  0.00     0.211 HD
ENDBRANCH  11  15
BRANCH  13  17
ATOM     17  O   UNL     1     169.093 169.634 157.631  1.00  0.00    -0.387 OA
ATOM     18  H   UNL     1     169.586 169.730 158.488  1.00  0.00     0.211 HD
ENDBRANCH  13  17
BRANCH  14  19
ATOM     19  O   UNL     1     171.787 170.000 156.676  1.00  0.00    -0.385 OA
ATOM     20  H   UNL     1     172.386 170.788 156.594  1.00  0.00     0.211 HD
ENDBRANCH  14  19
ENDBRANCH   7   8
ENDBRANCH   1   7
BRANCH   2  21
ATOM     21  O   UNL     1     173.120 171.486 153.622  1.00  0.00    -0.387 OA
ATOM     22  H   UNL     1     173.707 171.361 152.831  1.00  0.00     0.211 HD
ENDBRANCH   2  21
BRANCH   6  23
ATOM     23  O   UNL     1     173.096 175.695 154.511  1.00  0.00    -0.462 OA
BRANCH  23  24
ATOM     24  C   UNL     1     173.119 177.086 154.706  1.00  0.00     0.130 A 
ATOM     25  C   UNL     1     172.209 177.867 153.988  1.00  0.00     0.093 A 
ATOM     26  C   UNL     1     174.020 177.717 155.582  1.00  0.00     0.094 A 
ATOM     27  C   UNL     1     172.161 179.258 154.158  1.00  0.00     0.133 A 
ATOM     28  C   UNL     1     174.003 179.104 155.736  1.00  0.00     0.138 A 
ATOM     29  C   UNL     1     173.057 179.886 155.047  1.00  0.00     0.102 A 
ATOM     30  O   UNL     1     174.933 179.711 156.590  1.00  0.00    -0.484 OA
ATOM     31  C   UNL     1     173.031 181.343 155.318  1.00  0.00     0.174 C 
ATOM     32  C   UNL     1     175.227 181.108 156.534  1.00  0.00     0.211 C 
ATOM     33  O   UNL     1     172.235 182.105 154.706  1.00  0.00    -0.294 OA
ATOM     34  C   UNL     1     173.924 181.923 156.383  1.00  0.00     0.131 C 
BRANCH  27  35
ATOM     35  O   UNL     1     171.221 180.006 153.449  1.00  0.00    -0.507 OA
ATOM     36  H   UNL     1     170.618 180.677 153.910  1.00  0.00     0.293 HD
ENDBRANCH  27  35
BRANCH  32  37
ATOM     37  C   UNL     1     176.289 181.356 155.470  1.00  0.00    -0.007 A 
ATOM     38  C   UNL     1     176.708 180.374 154.545  1.00  0.00     0.011 A 
ATOM     39  C   UNL     1     176.914 182.616 155.439  1.00  0.00     0.011 A 
ATOM     40  C   UNL     1     177.707 180.659 153.610  1.00  0.00     0.046 A 
ATOM     41  C   UNL     1     177.915 182.897 154.504  1.00  0.00     0.046 A 
ATOM     42  C   UNL     1     178.313 181.917 153.586  1.00  0.00     0.115 A 
BRANCH  42  43
ATOM     43  O   UNL     1     179.311 182.183 152.651  1.00  0.00    -0.508 OA
ATOM     44  H   UNL     1     179.854 181.437 152.231  1.00  0.00     0.293 HD
ENDBRANCH  42  43
ENDBRANCH  32  37
ENDBRANCH  23  24
ENDBRANCH   6  23
BRANCH   3  45
ATOM     45  O   UNL     1     174.019 171.623 156.231  1.00  0.00    -0.387 OA
ATOM     46  H   UNL     1     174.812 171.109 156.538  1.00  0.00     0.211 HD
ENDBRANCH   3  45
BRANCH   4  47
ATOM     47  C   UNL     1     175.683 173.852 157.165  1.00  0.00     0.191 C 
BRANCH  47  48
ATOM     48  O   UNL     1     175.109 173.191 158.261  1.00  0.00    -0.394 OA
ATOM     49  H   UNL     1     175.190 172.219 158.081  1.00  0.00     0.210 HD
ENDBRANCH  47  48
ENDBRANCH   4  47
TORSDOF 14
ENDMDL
MODEL 6
REMARK VINA RESULT:    -7.774      3.454      7.906
REMARK INTER + INTRA:         -13.420
REMARK INTER:                 -12.325
REMARK INTRA:                  -1.095
REMARK UNBOUND:                -1.102
REMARK SMILES C[C@@H]1O[C@@H](O[C@H]2[C@H](Oc3cc(O)c4c(c3)O[C@@H](c3ccc(O)cc3)CC4=O)O[C@@H](CO)[C@@H](O)[C@H]2O)[C@@H](O)[C@H](O)[C@@H]1O
REMARK SMILES IDX 6 1 34 2 32 3 29 4 28 5 7 6 5 7 4 8 1 9 2 10 40 11 3 12
REMARK SMILES IDX 38 13 36 14 41 15 39 17 37 19 35 21 8 23 9 24 10 25 15 26
REMARK SMILES IDX 11 27 14 28 13 29 16 30 26 31 17 32 27 33 25 34 12 35 18 37
REMARK SMILES IDX 19 38 24 39 20 40 23 41 21 42 22 43 33 45 30 47 31 48
REMARK H PARENT 41 16 39 18 37 20 35 22 12 36 22 44 33 46 31 49
REMARK Flexibility Score: inf
ROOT
ATOM      1  C   UNL     1     173.761 176.291 155.481  1.00  0.00     0.221 C 
ATOM      2  C   UNL     1     174.312 175.740 156.808  1.00  0.00     0.181 C 
ATOM      3  C   UNL     1     175.317 174.602 156.550  1.00  0.00     0.177 C 
ATOM      4  C   UNL     1     174.667 173.548 155.621  1.00  0.00     0.179 C 
ATOM      5  O   UNL     1     174.232 174.142 154.406  1.00  0.00    -0.332 OA
ATOM      6  C   UNL     1     173.221 175.113 154.626  1.00  0.00     0.339 C 
ENDROOT
BRANCH   1   7
ATOM      7  O   UNL     1     174.804 176.978 154.808  1.00  0.00    -0.337 OA
BRANCH   7   8
ATOM      8  C   UNL     1     174.338 178.097 154.063  1.00  0.00     0.282 C 
ATOM      9  C   UNL     1     177.404 178.716 152.114  1.00  0.00     0.041 C 
ATOM     10  C   UNL     1     176.517 178.620 153.357  1.00  0.00     0.150 C 
ATOM     11  C   UNL     1     176.580 179.917 154.189  1.00  0.00     0.174 C 
ATOM     12  O   UNL     1     175.184 178.347 152.949  1.00  0.00    -0.344 OA
ATOM     13  C   UNL     1     175.661 179.772 155.419  1.00  0.00     0.179 C 
ATOM     14  C   UNL     1     174.254 179.335 154.976  1.00  0.00     0.202 C 
BRANCH  11  15
ATOM     15  O   UNL     1     176.168 181.009 153.402  1.00  0.00    -0.388 OA
ATOM     16  H   UNL     1     175.447 180.679 152.804  1.00  0.00     0.211 HD
ENDBRANCH  11  15
BRANCH  13  17
ATOM     17  O   UNL     1     175.581 180.988 156.117  1.00  0.00    -0.387 OA
ATOM     18  H   UNL     1     176.464 181.130 156.549  1.00  0.00     0.211 HD
ENDBRANCH  13  17
BRANCH  14  19
ATOM     19  O   UNL     1     173.464 179.034 156.098  1.00  0.00    -0.385 OA
ATOM     20  H   UNL     1     172.693 178.500 155.770  1.00  0.00     0.211 HD
ENDBRANCH  14  19
ENDBRANCH   7   8
ENDBRANCH   1   7
BRANCH   2  21
ATOM     21  O   UNL     1     174.923 176.777 157.533  1.00  0.00    -0.387 OA
ATOM     22  H   UNL     1     174.749 177.617 157.034  1.00  0.00     0.211 HD
ENDBRANCH   2  21
BRANCH   6  23
ATOM     23  O   UNL     1     172.073 174.512 155.240  1.00  0.00    -0.462 OA
BRANCH  23  24
ATOM     24  C   UNL     1     171.306 173.468 154.697  1.00  0.00     0.130 A 
ATOM     25  C   UNL     1     170.342 173.790 153.737  1.00  0.00     0.093 A 
ATOM     26  C   UNL     1     171.466 172.126 155.085  1.00  0.00     0.094 A 
ATOM     27  C   UNL     1     169.564 172.790 153.135  1.00  0.00     0.133 A 
ATOM     28  C   UNL     1     170.675 171.127 154.515  1.00  0.00     0.138 A 
ATOM     29  C   UNL     1     169.736 171.444 153.516  1.00  0.00     0.102 A 
ATOM     30  O   UNL     1     170.831 169.802 154.942  1.00  0.00    -0.484 OA
ATOM     31  C   UNL     1     168.988 170.329 152.887  1.00  0.00     0.174 C 
ATOM     32  C   UNL     1     169.847 168.796 154.694  1.00  0.00     0.211 C 
ATOM     33  O   UNL     1     168.105 170.548 152.014  1.00  0.00    -0.294 OA
ATOM     34  C   UNL     1     169.323 168.906 153.246  1.00  0.00     0.131 C 
BRANCH  27  35
ATOM     35  O   UNL     1     168.631 173.140 152.158  1.00  0.00    -0.507 OA
ATOM     36  H   UNL     1     167.944 173.867 152.315  1.00  0.00     0.293 HD
ENDBRANCH  27  35
BRANCH  32  37
ATOM     37  C   UNL     1     168.786 168.851 155.787  1.00  0.00    -0.007 A 
ATOM     38  C   UNL     1     167.520 169.451 155.613  1.00  0.00     0.011 A 
ATOM     39  C   UNL     1     169.107 168.313 157.048  1.00  0.00     0.011 A 
ATOM     40  C   UNL     1     166.602 169.491 156.667  1.00  0.00     0.046 A 
ATOM     41  C   UNL     1     168.187 168.357 158.099  1.00  0.00     0.046 A 
ATOM     42  C   UNL     1     166.931 168.946 157.910  1.00  0.00     0.115 A 
BRANCH  42  43
ATOM     43  O   UNL     1     166.005 168.998 158.950  1.00  0.00    -0.508 OA
ATOM     44  H   UNL     1     165.574 168.158 159.317  1.00  0.00     0.293 HD
ENDBRANCH  42  43
ENDBRANCH  32  37
ENDBRANCH  23  24
ENDBRANCH   6  23
BRANCH   3  45
ATOM     45  O   UNL     1     176.487 175.123 155.967  1.00  0.00    -0.387 OA
ATOM     46  H   UNL     1     176.415 174.980 154.986  1.00  0.00     0.211 HD
ENDBRANCH   3  45
BRANCH   4  47
ATOM     47  C   UNL     1     175.633 172.401 155.281  1.00  0.00     0.191 C 
BRANCH  47  48
ATOM     48  O   UNL     1     175.149 171.625 154.218  1.00  0.00    -0.394 OA
ATOM     49  H   UNL     1     174.822 170.776 154.612  1.00  0.00     0.210 HD
ENDBRANCH  47  48
ENDBRANCH   4  47
TORSDOF 14
ENDMDL
MODEL 7
REMARK VINA RESULT:    -7.744      2.212      3.722
REMARK INTER + INTRA:         -13.374
REMARK INTER:                 -11.725
REMARK INTRA:                  -1.649
REMARK UNBOUND:                -1.102
REMARK SMILES C[C@@H]1O[C@@H](O[C@H]2[C@H](Oc3cc(O)c4c(c3)O[C@@H](c3ccc(O)cc3)CC4=O)O[C@@H](CO)[C@@H](O)[C@H]2O)[C@@H](O)[C@H](O)[C@@H]1O
REMARK SMILES IDX 6 1 34 2 32 3 29 4 28 5 7 6 5 7 4 8 1 9 2 10 40 11 3 12
REMARK SMILES IDX 38 13 36 14 41 15 39 17 37 19 35 21 8 23 9 24 10 25 15 26
REMARK SMILES IDX 11 27 14 28 13 29 16 30 26 31 17 32 27 33 25 34 12 35 18 37
REMARK SMILES IDX 19 38 24 39 20 40 23 41 21 42 22 43 33 45 30 47 31 48
REMARK H PARENT 41 16 39 18 37 20 35 22 12 36 22 44 33 46 31 49
REMARK Flexibility Score: inf
ROOT
ATOM      1  C   UNL     1     179.110 183.797 153.769  1.00  0.00     0.221 C 
ATOM      2  C   UNL     1     179.296 184.067 152.266  1.00  0.00     0.181 C 
ATOM      3  C   UNL     1     178.830 185.490 151.906  1.00  0.00     0.177 C 
ATOM      4  C   UNL     1     177.392 185.705 152.439  1.00  0.00     0.179 C 
ATOM      5  O   UNL     1     177.330 185.478 153.840  1.00  0.00    -0.332 OA
ATOM      6  C   UNL     1     177.648 184.134 154.170  1.00  0.00     0.339 C 
ENDROOT
BRANCH   1   7
ATOM      7  O   UNL     1     180.037 184.592 154.490  1.00  0.00    -0.337 OA
BRANCH   7   8
ATOM      8  C   UNL     1     180.488 183.967 155.687  1.00  0.00     0.282 C 
ATOM      9  C   UNL     1     181.397 187.021 157.537  1.00  0.00     0.041 C 
ATOM     10  C   UNL     1     181.476 185.962 156.436  1.00  0.00     0.150 C 
ATOM     11  C   UNL     1     182.913 185.421 156.284  1.00  0.00     0.174 C 
ATOM     12  O   UNL     1     180.573 184.911 156.746  1.00  0.00    -0.344 OA
ATOM     13  C   UNL     1     182.934 184.352 155.173  1.00  0.00     0.179 C 
ATOM     14  C   UNL     1     181.851 183.292 155.444  1.00  0.00     0.202 C 
BRANCH  11  15
ATOM     15  O   UNL     1     183.344 184.865 157.503  1.00  0.00    -0.388 OA
ATOM     16  H   UNL     1     184.312 185.069 157.587  1.00  0.00     0.211 HD
ENDBRANCH  11  15
BRANCH  13  17
ATOM     17  O   UNL     1     184.194 183.734 155.112  1.00  0.00    -0.387 OA
ATOM     18  H   UNL     1     184.867 184.463 155.052  1.00  0.00     0.211 HD
ENDBRANCH  13  17
BRANCH  14  19
ATOM     19  O   UNL     1     181.748 182.414 154.351  1.00  0.00    -0.385 OA
ATOM     20  H   UNL     1     182.318 181.628 154.561  1.00  0.00     0.211 HD
ENDBRANCH  14  19
ENDBRANCH   7   8
ENDBRANCH   1   7
BRANCH   2  21
ATOM     21  O   UNL     1     180.646 183.892 151.918  1.00  0.00    -0.387 OA
ATOM     22  H   UNL     1     181.185 184.280 152.656  1.00  0.00     0.211 HD
ENDBRANCH   2  21
BRANCH   6  23
ATOM     23  O   UNL     1     176.721 183.232 153.551  1.00  0.00    -0.462 OA
BRANCH  23  24
ATOM     24  C   UNL     1     176.668 181.844 153.757  1.00  0.00     0.130 A 
ATOM     25  C   UNL     1     177.402 181.022 152.898  1.00  0.00     0.093 A 
ATOM     26  C   UNL     1     175.906 181.256 154.782  1.00  0.00     0.094 A 
ATOM     27  C   UNL     1     177.414 179.630 153.067  1.00  0.00     0.133 A 
ATOM     28  C   UNL     1     175.886 179.869 154.942  1.00  0.00     0.138 A 
ATOM     29  C   UNL     1     176.660 179.045 154.105  1.00  0.00     0.102 A 
ATOM     30  O   UNL     1     175.093 179.306 155.950  1.00  0.00    -0.484 OA
ATOM     31  C   UNL     1     176.665 177.587 154.378  1.00  0.00     0.174 C 
ATOM     32  C   UNL     1     174.729 177.924 155.957  1.00  0.00     0.211 C 
ATOM     33  O   UNL     1     177.306 176.790 153.643  1.00  0.00    -0.294 OA
ATOM     34  C   UNL     1     175.947 177.049 155.587  1.00  0.00     0.131 C 
BRANCH  27  35
ATOM     35  O   UNL     1     178.180 178.839 152.211  1.00  0.00    -0.507 OA
ATOM     36  H   UNL     1     178.333 177.854 152.391  1.00  0.00     0.293 HD
ENDBRANCH  27  35
BRANCH  32  37
ATOM     37  C   UNL     1     173.487 177.727 155.097  1.00  0.00    -0.007 A 
ATOM     38  C   UNL     1     172.724 178.795 154.576  1.00  0.00     0.011 A 
ATOM     39  C   UNL     1     173.057 176.410 154.848  1.00  0.00     0.011 A 
ATOM     40  C   UNL     1     171.578 178.544 153.815  1.00  0.00     0.046 A 
ATOM     41  C   UNL     1     171.910 176.164 154.088  1.00  0.00     0.046 A 
ATOM     42  C   UNL     1     171.168 177.232 153.570  1.00  0.00     0.115 A 
BRANCH  42  43
ATOM     43  O   UNL     1     170.021 177.000 152.813  1.00  0.00    -0.508 OA
ATOM     44  H   UNL     1     169.244 177.652 152.816  1.00  0.00     0.293 HD
ENDBRANCH  42  43
ENDBRANCH  32  37
ENDBRANCH  23  24
ENDBRANCH   6  23
BRANCH   3  45
ATOM     45  O   UNL     1     179.713 186.435 152.462  1.00  0.00    -0.387 OA
ATOM     46  H   UNL     1     180.454 186.560 151.813  1.00  0.00     0.211 HD
ENDBRANCH   3  45
BRANCH   4  47
ATOM     47  C   UNL     1     176.877 187.126 152.156  1.00  0.00     0.191 C 
BRANCH  47  48
ATOM     48  O   UNL     1     177.042 187.960 153.271  1.00  0.00    -0.394 OA
ATOM     49  H   UNL     1     176.146 188.320 153.493  1.00  0.00     0.210 HD
ENDBRANCH  47  48
ENDBRANCH   4  47
TORSDOF 14
ENDMDL
MODEL 8
REMARK VINA RESULT:    -7.651      1.247      2.063
REMARK INTER + INTRA:         -13.227
REMARK INTER:                 -12.139
REMARK INTRA:                  -1.088
REMARK UNBOUND:                -1.102
REMARK SMILES C[C@@H]1O[C@@H](O[C@H]2[C@H](Oc3cc(O)c4c(c3)O[C@@H](c3ccc(O)cc3)CC4=O)O[C@@H](CO)[C@@H](O)[C@H]2O)[C@@H](O)[C@H](O)[C@@H]1O
REMARK SMILES IDX 6 1 34 2 32 3 29 4 28 5 7 6 5 7 4 8 1 9 2 10 40 11 3 12
REMARK SMILES IDX 38 13 36 14 41 15 39 17 37 19 35 21 8 23 9 24 10 25 15 26
REMARK SMILES IDX 11 27 14 28 13 29 16 30 26 31 17 32 27 33 25 34 12 35 18 37
REMARK SMILES IDX 19 38 24 39 20 40 23 41 21 42 22 43 33 45 30 47 31 48
REMARK H PARENT 41 16 39 18 37 20 35 22 12 36 22 44 33 46 31 49
REMARK Flexibility Score: inf
ROOT
ATOM      1  C   UNL     1     176.623 181.385 154.142  1.00  0.00     0.221 C 
ATOM      2  C   UNL     1     175.360 182.193 153.797  1.00  0.00     0.181 C 
ATOM      3  C   UNL     1     174.700 182.746 155.074  1.00  0.00     0.177 C 
ATOM      4  C   UNL     1     174.486 181.588 156.079  1.00  0.00     0.179 C 
ATOM      5  O   UNL     1     175.712 180.934 156.370  1.00  0.00    -0.332 OA
ATOM      6  C   UNL     1     176.269 180.322 155.217  1.00  0.00     0.339 C 
ENDROOT
BRANCH   1   7
ATOM      7  O   UNL     1     177.618 182.281 154.613  1.00  0.00    -0.337 OA
BRANCH   7   8
ATOM      8  C   UNL     1     178.298 182.953 153.560  1.00  0.00     0.282 C 
ATOM      9  C   UNL     1     181.327 180.856 153.498  1.00  0.00     0.041 C 
ATOM     10  C   UNL     1     180.309 181.848 154.063  1.00  0.00     0.150 C 
ATOM     11  C   UNL     1     181.002 183.132 154.567  1.00  0.00     0.174 C 
ATOM     12  O   UNL     1     179.358 182.152 153.053  1.00  0.00    -0.344 OA
ATOM     13  C   UNL     1     179.933 184.099 155.112  1.00  0.00     0.179 C 
ATOM     14  C   UNL     1     178.829 184.310 154.061  1.00  0.00     0.202 C 
BRANCH  11  15
ATOM     15  O   UNL     1     181.712 183.735 153.513  1.00  0.00    -0.388 OA
ATOM     16  H   UNL     1     181.049 183.956 152.807  1.00  0.00     0.211 HD
ENDBRANCH  11  15
BRANCH  13  17
ATOM     17  O   UNL     1     180.513 185.335 155.442  1.00  0.00    -0.387 OA
ATOM     18  H   UNL     1     181.486 185.172 155.559  1.00  0.00     0.211 HD
ENDBRANCH  13  17
BRANCH  14  19
ATOM     19  O   UNL     1     177.768 185.050 154.612  1.00  0.00    -0.385 OA
ATOM     20  H   UNL     1     177.735 185.912 154.121  1.00  0.00     0.211 HD
ENDBRANCH  14  19
ENDBRANCH   7   8
ENDBRANCH   1   7
BRANCH   2  21
ATOM     21  O   UNL     1     175.693 183.243 152.925  1.00  0.00    -0.387 OA
ATOM     22  H   UNL     1     176.501 182.954 152.425  1.00  0.00     0.211 HD
ENDBRANCH   2  21
BRANCH   6  23
ATOM     23  O   UNL     1     175.375 179.333 154.691  1.00  0.00    -0.462 OA
BRANCH  23  24
ATOM     24  C   UNL     1     175.540 177.942 154.795  1.00  0.00     0.130 A 
ATOM     25  C   UNL     1     176.289 177.293 153.809  1.00  0.00     0.093 A 
ATOM     26  C   UNL     1     174.981 177.185 155.839  1.00  0.00     0.094 A 
ATOM     27  C   UNL     1     176.515 175.910 153.869  1.00  0.00     0.133 A 
ATOM     28  C   UNL     1     175.175 175.803 155.893  1.00  0.00     0.138 A 
ATOM     29  C   UNL     1     175.964 175.156 154.926  1.00  0.00     0.102 A 
ATOM     30  O   UNL     1     174.580 175.067 156.926  1.00  0.00    -0.484 OA
ATOM     31  C   UNL     1     176.205 173.702 155.085  1.00  0.00     0.174 C 
ATOM     32  C   UNL     1     174.418 173.649 156.862  1.00  0.00     0.211 C 
ATOM     33  O   UNL     1     176.871 173.055 154.232  1.00  0.00    -0.294 OA
ATOM     34  C   UNL     1     175.701 172.989 156.312  1.00  0.00     0.131 C 
BRANCH  27  35
ATOM     35  O   UNL     1     177.291 175.296 152.886  1.00  0.00    -0.507 OA
ATOM     36  H   UNL     1     177.012 175.296 151.911  1.00  0.00     0.293 HD
ENDBRANCH  27  35
BRANCH  32  37
ATOM     37  C   UNL     1     173.132 173.324 156.111  1.00  0.00    -0.007 A 
ATOM     38  C   UNL     1     172.436 172.103 156.253  1.00  0.00     0.011 A 
ATOM     39  C   UNL     1     172.641 174.275 155.197  1.00  0.00     0.011 A 
ATOM     40  C   UNL     1     171.275 171.858 155.513  1.00  0.00     0.046 A 
ATOM     41  C   UNL     1     171.482 174.024 154.457  1.00  0.00     0.046 A 
ATOM     42  C   UNL     1     170.795 172.814 154.615  1.00  0.00     0.115 A 
BRANCH  42  43
ATOM     43  O   UNL     1     169.640 172.551 153.883  1.00  0.00    -0.508 OA
ATOM     44  H   UNL     1     168.973 173.283 153.665  1.00  0.00     0.293 HD
ENDBRANCH  42  43
ENDBRANCH  32  37
ENDBRANCH  23  24
ENDBRANCH   6  23
BRANCH   3  45
ATOM     45  O   UNL     1     175.516 183.747 155.636  1.00  0.00    -0.387 OA
ATOM     46  H   UNL     1     175.127 184.623 155.373  1.00  0.00     0.211 HD
ENDBRANCH   3  45
BRANCH   4  47
ATOM     47  C   UNL     1     173.871 182.077 157.402  1.00  0.00     0.191 C 
BRANCH  47  48
ATOM     48  O   UNL     1     174.826 182.724 158.199  1.00  0.00    -0.394 OA
ATOM     49  H   UNL     1     175.470 183.153 157.579  1.00  0.00     0.210 HD
ENDBRANCH  47  48
ENDBRANCH   4  47
TORSDOF 14
ENDMDL
MODEL 9
REMARK VINA RESULT:    -7.620      2.299      4.586
REMARK INTER + INTRA:         -13.176
REMARK INTER:                 -11.510
REMARK INTRA:                  -1.666
REMARK UNBOUND:                -1.102
REMARK SMILES C[C@@H]1O[C@@H](O[C@H]2[C@H](Oc3cc(O)c4c(c3)O[C@@H](c3ccc(O)cc3)CC4=O)O[C@@H](CO)[C@@H](O)[C@H]2O)[C@@H](O)[C@H](O)[C@@H]1O
REMARK SMILES IDX 6 1 34 2 32 3 29 4 28 5 7 6 5 7 4 8 1 9 2 10 40 11 3 12
REMARK SMILES IDX 38 13 36 14 41 15 39 17 37 19 35 21 8 23 9 24 10 25 15 26
REMARK SMILES IDX 11 27 14 28 13 29 16 30 26 31 17 32 27 33 25 34 12 35 18 37
REMARK SMILES IDX 19 38 24 39 20 40 23 41 21 42 22 43 33 45 30 47 31 48
REMARK H PARENT 41 16 39 18 37 20 35 22 12 36 22 44 33 46 31 49
REMARK Flexibility Score: inf
ROOT
ATOM      1  C   UNL     1     180.369 183.199 154.384  1.00  0.00     0.221 C 
ATOM      2  C   UNL     1     180.634 183.176 152.869  1.00  0.00     0.181 C 
ATOM      3  C   UNL     1     179.617 184.061 152.124  1.00  0.00     0.177 C 
ATOM      4  C   UNL     1     178.184 183.656 152.547  1.00  0.00     0.179 C 
ATOM      5  O   UNL     1     178.023 183.753 153.954  1.00  0.00    -0.332 OA
ATOM      6  C   UNL     1     178.878 182.855 154.645  1.00  0.00     0.339 C 
ENDROOT
BRANCH   1   7
ATOM      7  O   UNL     1     180.694 184.488 154.881  1.00  0.00    -0.337 OA
BRANCH   7   8
ATOM      8  C   UNL     1     181.215 184.454 156.204  1.00  0.00     0.282 C 
ATOM      9  C   UNL     1     179.998 187.752 157.307  1.00  0.00     0.041 C 
ATOM     10  C   UNL     1     180.818 186.752 156.491  1.00  0.00     0.150 C 
ATOM     11  C   UNL     1     182.319 187.107 156.516  1.00  0.00     0.174 C 
ATOM     12  O   UNL     1     180.600 185.449 157.013  1.00  0.00    -0.344 OA
ATOM     13  C   UNL     1     183.097 186.063 155.691  1.00  0.00     0.179 C 
ATOM     14  C   UNL     1     182.744 184.644 156.171  1.00  0.00     0.202 C 
BRANCH  11  15
ATOM     15  O   UNL     1     182.783 187.122 157.845  1.00  0.00    -0.388 OA
ATOM     16  H   UNL     1     183.379 187.910 157.934  1.00  0.00     0.211 HD
ENDBRANCH  11  15
BRANCH  13  17
ATOM     17  O   UNL     1     184.481 186.272 155.817  1.00  0.00    -0.387 OA
ATOM     18  H   UNL     1     184.895 185.959 154.970  1.00  0.00     0.211 HD
ENDBRANCH  13  17
BRANCH  14  19
ATOM     19  O   UNL     1     183.313 183.686 155.314  1.00  0.00    -0.385 OA
ATOM     20  H   UNL     1     183.982 184.163 154.756  1.00  0.00     0.211 HD
ENDBRANCH  14  19
ENDBRANCH   7   8
ENDBRANCH   1   7
BRANCH   2  21
ATOM     21  O   UNL     1     181.944 183.613 152.611  1.00  0.00    -0.387 OA
ATOM     22  H   UNL     1     182.364 182.930 152.026  1.00  0.00     0.211 HD
ENDBRANCH   2  21
BRANCH   6  23
ATOM     23  O   UNL     1     178.587 181.501 154.277  1.00  0.00    -0.462 OA
BRANCH  23  24
ATOM     24  C   UNL     1     177.362 180.843 154.476  1.00  0.00     0.130 A 
ATOM     25  C   UNL     1     176.524 181.306 155.494  1.00  0.00     0.093 A 
ATOM     26  C   UNL     1     176.955 179.743 153.701  1.00  0.00     0.094 A 
ATOM     27  C   UNL     1     175.275 180.711 155.727  1.00  0.00     0.133 A 
ATOM     28  C   UNL     1     175.727 179.123 153.944  1.00  0.00     0.138 A 
ATOM     29  C   UNL     1     174.864 179.617 154.939  1.00  0.00     0.102 A 
ATOM     30  O   UNL     1     175.359 178.009 153.180  1.00  0.00    -0.484 OA
ATOM     31  C   UNL     1     173.537 178.972 155.090  1.00  0.00     0.174 C 
ATOM     32  C   UNL     1     174.324 177.110 153.583  1.00  0.00     0.211 C 
ATOM     33  O   UNL     1     172.733 179.340 155.988  1.00  0.00    -0.294 OA
ATOM     34  C   UNL     1     173.111 177.900 154.123  1.00  0.00     0.131 C 
BRANCH  27  35
ATOM     35  O   UNL     1     174.449 181.215 156.731  1.00  0.00    -0.507 OA
ATOM     36  H   UNL     1     174.826 181.571 157.602  1.00  0.00     0.293 HD
ENDBRANCH  27  35
BRANCH  32  37
ATOM     37  C   UNL     1     174.906 176.065 154.528  1.00  0.00    -0.007 A 
ATOM     38  C   UNL     1     174.425 175.846 155.838  1.00  0.00     0.011 A 
ATOM     39  C   UNL     1     176.009 175.313 154.083  1.00  0.00     0.011 A 
ATOM     40  C   UNL     1     175.023 174.888 156.662  1.00  0.00     0.046 A 
ATOM     41  C   UNL     1     176.605 174.358 154.912  1.00  0.00     0.046 A 
ATOM     42  C   UNL     1     176.112 174.144 156.205  1.00  0.00     0.115 A 
BRANCH  42  43
ATOM     43  O   UNL     1     176.698 173.197 157.042  1.00  0.00    -0.508 OA
ATOM     44  H   UNL     1     177.358 173.465 157.764  1.00  0.00     0.293 HD
ENDBRANCH  42  43
ENDBRANCH  32  37
ENDBRANCH  23  24
ENDBRANCH   6  23
BRANCH   3  45
ATOM     45  O   UNL     1     179.859 185.416 152.420  1.00  0.00    -0.387 OA
ATOM     46  H   UNL     1     180.787 185.478 152.769  1.00  0.00     0.211 HD
ENDBRANCH   3  45
BRANCH   4  47
ATOM     47  C   UNL     1     177.114 184.533 151.875  1.00  0.00     0.191 C 
BRANCH  47  48
ATOM     48  O   UNL     1     176.847 185.683 152.633  1.00  0.00    -0.394 OA
ATOM     49  H   UNL     1     177.214 186.450 152.124  1.00  0.00     0.210 HD
ENDBRANCH  47  48
ENDBRANCH   4  47
TORSDOF 14
ENDMDL
