MODEL 1
REMARK VINA RESULT:    -4.147      0.000      0.000
REMARK INTER + INTRA:          -4.389
REMARK INTER:                  -4.389
REMARK INTRA:                   0.000
REMARK UNBOUND:                 0.000
REMARK SMILES Cc1cc(O)c(C)c(C)c1O
REMARK SMILES IDX 1 1 2 2 3 3 4 4 6 5 8 6 10 7 9 8 7 9 11 10 5 12
REMARK H PARENT 11 11 5 13
REMARK Flexibility Score: inf
ROOT
ATOM      1  C   UNL     1     145.266 132.020 117.679  1.00  0.00     0.048 C 
ATOM      2  C   UNL     1     145.415 130.683 117.003  1.00  0.00    -0.005 A 
ATOM      3  C   UNL     1     145.314 130.605 115.610  1.00  0.00     0.053 A 
ATOM      4  C   UNL     1     145.436 129.387 114.945  1.00  0.00     0.119 A 
ATOM      5  C   UNL     1     145.643 128.194 115.677  1.00  0.00    -0.003 A 
ATOM      6  C   UNL     1     145.811 128.268 117.088  1.00  0.00    -0.002 A 
ATOM      7  C   UNL     1     145.670 129.510 117.748  1.00  0.00     0.121 A 
ATOM      8  C   UNL     1     146.114 127.027 117.898  1.00  0.00     0.049 C 
ATOM      9  C   UNL     1     145.710 126.875 114.938  1.00  0.00     0.049 C 
ENDROOT
BRANCH   7  10
ATOM     10  O   UNL     1     145.784 129.560 119.142  1.00  0.00    -0.507 OA
ATOM     11  H   UNL     1     146.671 129.575 119.629  1.00  0.00     0.293 HD
ENDBRANCH   7  10
BRANCH   4  12
ATOM     12  O   UNL     1     145.353 129.401 113.550  1.00  0.00    -0.508 OA
ATOM     13  H   UNL     1     146.155 129.501 112.941  1.00  0.00     0.293 HD
ENDBRANCH   4  12
TORSDOF 2
ENDMDL
MODEL 2
REMARK VINA RESULT:    -4.061      2.697      3.329
REMARK INTER + INTRA:          -4.299
REMARK INTER:                  -4.299
REMARK INTRA:                   0.000
REMARK UNBOUND:                 0.000
REMARK SMILES Cc1cc(O)c(C)c(C)c1O
REMARK SMILES IDX 1 1 2 2 3 3 4 4 6 5 8 6 10 7 9 8 7 9 11 10 5 12
REMARK H PARENT 11 11 5 13
REMARK Flexibility Score: inf
ROOT
ATOM      1  C   UNL     1     143.944 128.537 120.737  1.00  0.00     0.048 C 
ATOM      2  C   UNL     1     143.946 128.409 119.237  1.00  0.00    -0.005 A 
ATOM      3  C   UNL     1     142.909 127.711 118.609  1.00  0.00     0.053 A 
ATOM      4  C   UNL     1     142.877 127.560 117.224  1.00  0.00     0.119 A 
ATOM      5  C   UNL     1     143.915 128.094 116.426  1.00  0.00    -0.003 A 
ATOM      6  C   UNL     1     144.941 128.859 117.046  1.00  0.00    -0.002 A 
ATOM      7  C   UNL     1     144.966 128.991 118.454  1.00  0.00     0.121 A 
ATOM      8  C   UNL     1     146.026 129.515 116.220  1.00  0.00     0.049 C 
ATOM      9  C   UNL     1     143.891 127.863 114.930  1.00  0.00     0.049 C 
ENDROOT
BRANCH   7  10
ATOM     10  O   UNL     1     146.011 129.702 119.055  1.00  0.00    -0.507 OA
ATOM     11  H   UNL     1     145.869 130.505 119.653  1.00  0.00     0.293 HD
ENDBRANCH   7  10
BRANCH   4  12
ATOM     12  O   UNL     1     141.790 126.875 116.674  1.00  0.00    -0.508 OA
ATOM     13  H   UNL     1     140.978 126.590 117.206  1.00  0.00     0.293 HD
ENDBRANCH   4  12
TORSDOF 2
ENDMDL
MODEL 3
REMARK VINA RESULT:    -3.996      2.600      4.512
REMARK INTER + INTRA:          -4.230
REMARK INTER:                  -4.230
REMARK INTRA:                   0.000
REMARK UNBOUND:                 0.000
REMARK SMILES Cc1cc(O)c(C)c(C)c1O
REMARK SMILES IDX 1 1 2 2 3 3 4 4 6 5 8 6 10 7 9 8 7 9 11 10 5 12
REMARK H PARENT 11 11 5 13
REMARK Flexibility Score: inf
ROOT
ATOM      1  C   UNL     1     145.825 127.003 114.402  1.00  0.00     0.048 C 
ATOM      2  C   UNL     1     145.187 127.209 115.750  1.00  0.00    -0.005 A 
ATOM      3  C   UNL     1     145.995 127.240 116.891  1.00  0.00     0.053 A 
ATOM      4  C   UNL     1     145.447 127.418 118.160  1.00  0.00     0.119 A 
ATOM      5  C   UNL     1     144.047 127.547 118.317  1.00  0.00    -0.003 A 
ATOM      6  C   UNL     1     143.220 127.581 117.160  1.00  0.00    -0.002 A 
ATOM      7  C   UNL     1     143.793 127.384 115.882  1.00  0.00     0.121 A 
ATOM      8  C   UNL     1     141.728 127.798 117.280  1.00  0.00     0.049 C 
ATOM      9  C   UNL     1     143.469 127.677 119.710  1.00  0.00     0.049 C 
ENDROOT
BRANCH   7  10
ATOM     10  O   UNL     1     142.961 127.366 114.757  1.00  0.00    -0.507 OA
ATOM     11  H   UNL     1     142.457 128.176 114.422  1.00  0.00     0.293 HD
ENDBRANCH   7  10
BRANCH   4  12
ATOM     12  O   UNL     1     146.327 127.468 119.244  1.00  0.00    -0.508 OA
ATOM     13  H   UNL     1     146.518 126.679 119.848  1.00  0.00     0.293 HD
ENDBRANCH   4  12
TORSDOF 2
ENDMDL
MODEL 4
REMARK VINA RESULT:    -3.936     19.524     21.165
REMARK INTER + INTRA:          -4.166
REMARK INTER:                  -4.166
REMARK INTRA:                   0.000
REMARK UNBOUND:                 0.000
REMARK SMILES Cc1cc(O)c(C)c(C)c1O
REMARK SMILES IDX 1 1 2 2 3 3 4 4 6 5 8 6 10 7 9 8 7 9 11 10 5 12
REMARK H PARENT 11 11 5 13
REMARK Flexibility Score: inf
ROOT
ATOM      1  C   UNL     1     127.030 139.594 115.303  1.00  0.00     0.048 C 
ATOM      2  C   UNL     1     127.987 140.747 115.163  1.00  0.00    -0.005 A 
ATOM      3  C   UNL     1     127.737 141.933 115.861  1.00  0.00     0.053 A 
ATOM      4  C   UNL     1     128.592 143.028 115.753  1.00  0.00     0.119 A 
ATOM      5  C   UNL     1     129.724 142.966 114.907  1.00  0.00    -0.003 A 
ATOM      6  C   UNL     1     130.024 141.745 114.241  1.00  0.00    -0.002 A 
ATOM      7  C   UNL     1     129.138 140.648 114.352  1.00  0.00     0.121 A 
ATOM      8  C   UNL     1     131.269 141.612 113.392  1.00  0.00     0.049 C 
ATOM      9  C   UNL     1     130.603 144.189 114.757  1.00  0.00     0.049 C 
ENDROOT
BRANCH   7  10
ATOM     10  O   UNL     1     129.418 139.471 113.648  1.00  0.00    -0.507 OA
ATOM     11  H   UNL     1     129.517 139.431 112.643  1.00  0.00     0.293 HD
ENDBRANCH   7  10
BRANCH   4  12
ATOM     12  O   UNL     1     128.287 144.164 116.508  1.00  0.00    -0.508 OA
ATOM     13  H   UNL     1     128.929 144.591 117.163  1.00  0.00     0.293 HD
ENDBRANCH   4  12
TORSDOF 2
ENDMDL
MODEL 5
REMARK VINA RESULT:    -3.926      2.757      4.090
REMARK INTER + INTRA:          -4.155
REMARK INTER:                  -4.155
REMARK INTRA:                   0.000
REMARK UNBOUND:                 0.000
REMARK SMILES Cc1cc(O)c(C)c(C)c1O
REMARK SMILES IDX 1 1 2 2 3 3 4 4 6 5 8 6 10 7 9 8 7 9 11 10 5 12
REMARK H PARENT 11 11 5 13
REMARK Flexibility Score: inf
ROOT
ATOM      1  C   UNL     1     141.856 127.254 119.366  1.00  0.00     0.048 C 
ATOM      2  C   UNL     1     142.923 127.820 118.467  1.00  0.00    -0.005 A 
ATOM      3  C   UNL     1     143.973 128.553 119.029  1.00  0.00     0.053 A 
ATOM      4  C   UNL     1     144.976 129.104 118.234  1.00  0.00     0.119 A 
ATOM      5  C   UNL     1     144.934 128.948 116.829  1.00  0.00    -0.003 A 
ATOM      6  C   UNL     1     143.908 128.151 116.250  1.00  0.00    -0.002 A 
ATOM      7  C   UNL     1     142.890 127.612 117.071  1.00  0.00     0.121 A 
ATOM      8  C   UNL     1     143.874 127.893 114.760  1.00  0.00     0.049 C 
ATOM      9  C   UNL     1     146.000 129.607 115.980  1.00  0.00     0.049 C 
ENDROOT
BRANCH   7  10
ATOM     10  O   UNL     1     141.856 126.875 116.482  1.00  0.00    -0.507 OA
ATOM     11  H   UNL     1     141.434 127.116 115.596  1.00  0.00     0.293 HD
ENDBRANCH   7  10
BRANCH   4  12
ATOM     12  O   UNL     1     146.005 129.796 118.878  1.00  0.00    -0.508 OA
ATOM     13  H   UNL     1     146.561 129.405 119.627  1.00  0.00     0.293 HD
ENDBRANCH   4  12
TORSDOF 2
ENDMDL
MODEL 6
REMARK VINA RESULT:    -3.910      3.228      3.969
REMARK INTER + INTRA:          -4.138
REMARK INTER:                  -4.138
REMARK INTRA:                   0.000
REMARK UNBOUND:                 0.000
REMARK SMILES Cc1cc(O)c(C)c(C)c1O
REMARK SMILES IDX 1 1 2 2 3 3 4 4 6 5 8 6 10 7 9 8 7 9 11 10 5 12
REMARK H PARENT 11 11 5 13
REMARK Flexibility Score: inf
ROOT
ATOM      1  C   UNL     1     140.732 127.334 114.833  1.00  0.00     0.048 C 
ATOM      2  C   UNL     1     142.065 127.332 115.532  1.00  0.00    -0.005 A 
ATOM      3  C   UNL     1     143.236 127.427 114.773  1.00  0.00     0.053 A 
ATOM      4  C   UNL     1     144.491 127.418 115.377  1.00  0.00     0.119 A 
ATOM      5  C   UNL     1     144.603 127.288 116.782  1.00  0.00    -0.003 A 
ATOM      6  C   UNL     1     143.420 127.255 117.570  1.00  0.00    -0.002 A 
ATOM      7  C   UNL     1     142.155 127.250 116.939  1.00  0.00     0.121 A 
ATOM      8  C   UNL     1     143.496 127.197 119.080  1.00  0.00     0.049 C 
ATOM      9  C   UNL     1     145.978 127.218 117.410  1.00  0.00     0.049 C 
ENDROOT
BRANCH   7  10
ATOM     10  O   UNL     1     140.999 127.163 117.724  1.00  0.00    -0.507 OA
ATOM     11  H   UNL     1     140.203 127.776 117.615  1.00  0.00     0.293 HD
ENDBRANCH   7  10
BRANCH   4  12
ATOM     12  O   UNL     1     145.609 127.548 114.549  1.00  0.00    -0.508 OA
ATOM     13  H   UNL     1     145.706 128.268 113.845  1.00  0.00     0.293 HD
ENDBRANCH   4  12
TORSDOF 2
ENDMDL
MODEL 7
REMARK VINA RESULT:    -3.909     15.723     16.465
REMARK INTER + INTRA:          -4.138
REMARK INTER:                  -4.138
REMARK INTRA:                   0.000
REMARK UNBOUND:                 0.000
REMARK SMILES Cc1cc(O)c(C)c(C)c1O
REMARK SMILES IDX 1 1 2 2 3 3 4 4 6 5 8 6 10 7 9 8 7 9 11 10 5 12
REMARK H PARENT 11 11 5 13
REMARK Flexibility Score: inf
ROOT
ATOM      1  C   UNL     1     131.232 128.353 115.243  1.00  0.00     0.048 C 
ATOM      2  C   UNL     1     130.458 129.640 115.150  1.00  0.00    -0.005 A 
ATOM      3  C   UNL     1     129.260 129.770 115.860  1.00  0.00     0.053 A 
ATOM      4  C   UNL     1     128.506 130.940 115.796  1.00  0.00     0.119 A 
ATOM      5  C   UNL     1     128.933 132.017 114.983  1.00  0.00    -0.003 A 
ATOM      6  C   UNL     1     130.180 131.922 114.307  1.00  0.00    -0.002 A 
ATOM      7  C   UNL     1     130.925 130.722 114.372  1.00  0.00     0.121 A 
ATOM      8  C   UNL     1     130.711 133.082 113.493  1.00  0.00     0.049 C 
ATOM      9  C   UNL     1     128.066 133.253 114.880  1.00  0.00     0.049 C 
ENDROOT
BRANCH   7  10
ATOM     10  O   UNL     1     132.125 130.623 113.659  1.00  0.00    -0.507 OA
ATOM     11  H   UNL     1     132.178 130.325 112.693  1.00  0.00     0.293 HD
ENDBRANCH   7  10
BRANCH   4  12
ATOM     12  O   UNL     1     127.337 131.000 116.560  1.00  0.00    -0.508 OA
ATOM     13  H   UNL     1     126.781 130.189 116.798  1.00  0.00     0.293 HD
ENDBRANCH   4  12
TORSDOF 2
ENDMDL
MODEL 8
REMARK VINA RESULT:    -3.857     15.638     15.972
REMARK INTER + INTRA:          -4.082
REMARK INTER:                  -4.082
REMARK INTRA:                   0.000
REMARK UNBOUND:                 0.000
REMARK SMILES Cc1cc(O)c(C)c(C)c1O
REMARK SMILES IDX 1 1 2 2 3 3 4 4 6 5 8 6 10 7 9 8 7 9 11 10 5 12
REMARK H PARENT 11 11 5 13
REMARK Flexibility Score: inf
ROOT
ATOM      1  C   UNL     1     127.927 133.265 114.784  1.00  0.00     0.048 C 
ATOM      2  C   UNL     1     128.943 132.154 114.829  1.00  0.00    -0.005 A 
ATOM      3  C   UNL     1     130.090 132.243 114.034  1.00  0.00     0.053 A 
ATOM      4  C   UNL     1     131.050 131.234 114.037  1.00  0.00     0.119 A 
ATOM      5  C   UNL     1     130.867 130.081 114.835  1.00  0.00    -0.003 A 
ATOM      6  C   UNL     1     129.737 130.007 115.696  1.00  0.00    -0.002 A 
ATOM      7  C   UNL     1     128.765 131.034 115.669  1.00  0.00     0.121 A 
ATOM      8  C   UNL     1     129.546 128.828 116.624  1.00  0.00     0.049 C 
ATOM      9  C   UNL     1     131.893 128.970 114.775  1.00  0.00     0.049 C 
ENDROOT
BRANCH   7  10
ATOM     10  O   UNL     1     127.631 130.922 116.482  1.00  0.00    -0.507 OA
ATOM     11  H   UNL     1     127.566 131.325 117.407  1.00  0.00     0.293 HD
ENDBRANCH   7  10
BRANCH   4  12
ATOM     12  O   UNL     1     132.181 131.415 113.237  1.00  0.00    -0.508 OA
ATOM     13  H   UNL     1     133.013 130.842 113.302  1.00  0.00     0.293 HD
ENDBRANCH   4  12
TORSDOF 2
ENDMDL
MODEL 9
REMARK VINA RESULT:    -3.855      2.997      4.368
REMARK INTER + INTRA:          -4.080
REMARK INTER:                  -4.080
REMARK INTRA:                   0.000
REMARK UNBOUND:                 0.000
REMARK SMILES Cc1cc(O)c(C)c(C)c1O
REMARK SMILES IDX 1 1 2 2 3 3 4 4 6 5 8 6 10 7 9 8 7 9 11 10 5 12
REMARK H PARENT 11 11 5 13
REMARK Flexibility Score: inf
ROOT
ATOM      1  C   UNL     1     143.692 128.257 115.155  1.00  0.00     0.048 C 
ATOM      2  C   UNL     1     143.821 128.283 116.655  1.00  0.00    -0.005 A 
ATOM      3  C   UNL     1     144.873 128.997 117.238  1.00  0.00     0.053 A 
ATOM      4  C   UNL     1     145.036 129.040 118.621  1.00  0.00     0.119 A 
ATOM      5  C   UNL     1     144.144 128.337 119.465  1.00  0.00    -0.003 A 
ATOM      6  C   UNL     1     143.034 127.660 118.888  1.00  0.00    -0.002 A 
ATOM      7  C   UNL     1     142.892 127.615 117.482  1.00  0.00     0.121 A 
ATOM      8  C   UNL     1     142.013 126.964 119.760  1.00  0.00     0.049 C 
ATOM      9  C   UNL     1     144.378 128.348 120.960  1.00  0.00     0.049 C 
ENDROOT
BRANCH   7  10
ATOM     10  O   UNL     1     141.825 126.901 116.926  1.00  0.00    -0.507 OA
ATOM     11  H   UNL     1     141.537 125.986 117.247  1.00  0.00     0.293 HD
ENDBRANCH   7  10
BRANCH   4  12
ATOM     12  O   UNL     1     146.095 129.801 119.125  1.00  0.00    -0.508 OA
ATOM     13  H   UNL     1     147.015 129.424 119.317  1.00  0.00     0.293 HD
ENDBRANCH   4  12
TORSDOF 2
ENDMDL
