MODEL 1
REMARK VINA RESULT:    -3.277      0.000      0.000
REMARK INTER + INTRA:          -4.013
REMARK INTER:                  -3.948
REMARK INTRA:                  -0.065
REMARK UNBOUND:                -0.065
REMARK SMILES CCCCCO
REMARK SMILES IDX 4 1 3 2 2 3 1 4 5 5 6 6
REMARK H PARENT 6 7
REMARK Flexibility Score: inf
ROOT
ATOM      1  C   UNL     1      20.605 -10.272 -48.692  1.00  0.00     0.028 C 
ENDROOT
BRANCH   1   2
ATOM      2  C   UNL     1      20.904  -9.710 -47.293  1.00  0.00     0.002 C 
BRANCH   2   3
ATOM      3  C   UNL     1      19.669  -9.719 -46.379  1.00  0.00    -0.003 C 
ATOM      4  C   UNL     1      18.376 -10.024 -47.134  1.00  0.00     0.004 C 
ENDBRANCH   2   3
ENDBRANCH   1   2
BRANCH   1   5
ATOM      5  C   UNL     1      20.782  -9.206 -49.779  1.00  0.00     0.156 C 
BRANCH   5   6
ATOM      6  O   UNL     1      21.334  -8.033 -49.245  1.00  0.00    -0.396 OA
ATOM      7  H   UNL     1      22.152  -7.839 -49.773  1.00  0.00     0.210 HD
ENDBRANCH   5   6
ENDBRANCH   1   5
TORSDOF 4
ENDMDL
MODEL 2
REMARK VINA RESULT:    -3.232      9.289     10.036
REMARK INTER + INTRA:          -3.958
REMARK INTER:                  -3.897
REMARK INTRA:                  -0.061
REMARK UNBOUND:                -0.065
REMARK SMILES CCCCCO
REMARK SMILES IDX 4 1 3 2 2 3 1 4 5 5 6 6
REMARK H PARENT 6 7
REMARK Flexibility Score: inf
ROOT
ATOM      1  C   UNL     1      25.803  -2.124 -49.633  1.00  0.00     0.028 C 
ENDROOT
BRANCH   1   2
ATOM      2  C   UNL     1      27.289  -2.421 -49.377  1.00  0.00     0.002 C 
BRANCH   2   3
ATOM      3  C   UNL     1      27.755  -1.940 -47.995  1.00  0.00    -0.003 C 
ATOM      4  C   UNL     1      28.852  -2.822 -47.400  1.00  0.00     0.004 C 
ENDBRANCH   2   3
ENDBRANCH   1   2
BRANCH   1   5
ATOM      5  C   UNL     1      25.124  -1.528 -48.394  1.00  0.00     0.156 C 
BRANCH   5   6
ATOM      6  O   UNL     1      23.969  -2.249 -48.059  1.00  0.00    -0.396 OA
ATOM      7  H   UNL     1      23.277  -1.579 -47.818  1.00  0.00     0.210 HD
ENDBRANCH   5   6
ENDBRANCH   1   5
TORSDOF 4
ENDMDL
MODEL 3
REMARK VINA RESULT:    -3.188     15.272     16.526
REMARK INTER + INTRA:          -3.906
REMARK INTER:                  -3.872
REMARK INTRA:                  -0.033
REMARK UNBOUND:                -0.065
REMARK SMILES CCCCCO
REMARK SMILES IDX 4 1 3 2 2 3 1 4 5 5 6 6
REMARK H PARENT 6 7
REMARK Flexibility Score: inf
ROOT
ATOM      1  C   UNL     1      16.178  -4.870 -33.076  1.00  0.00     0.028 C 
ENDROOT
BRANCH   1   2
ATOM      2  C   UNL     1      15.338  -6.018 -32.493  1.00  0.00     0.002 C 
BRANCH   2   3
ATOM      3  C   UNL     1      14.655  -6.859 -33.582  1.00  0.00    -0.003 C 
ATOM      4  C   UNL     1      15.642  -7.407 -34.612  1.00  0.00     0.004 C 
ENDBRANCH   2   3
ENDBRANCH   1   2
BRANCH   1   5
ATOM      5  C   UNL     1      17.328  -4.479 -32.141  1.00  0.00     0.156 C 
BRANCH   5   6
ATOM      6  O   UNL     1      17.028  -4.809 -30.812  1.00  0.00    -0.396 OA
ATOM      7  H   UNL     1      16.555  -4.026 -30.426  1.00  0.00     0.210 HD
ENDBRANCH   5   6
ENDBRANCH   1   5
TORSDOF 4
ENDMDL
MODEL 4
REMARK VINA RESULT:    -3.163     11.106     11.428
REMARK INTER + INTRA:          -3.876
REMARK INTER:                  -3.817
REMARK INTRA:                  -0.059
REMARK UNBOUND:                -0.065
REMARK SMILES CCCCCO
REMARK SMILES IDX 4 1 3 2 2 3 1 4 5 5 6 6
REMARK H PARENT 6 7
REMARK Flexibility Score: inf
ROOT
ATOM      1  C   UNL     1      17.258   2.227 -47.445  1.00  0.00     0.028 C 
ENDROOT
BRANCH   1   2
ATOM      2  C   UNL     1      16.024   1.678 -48.178  1.00  0.00     0.002 C 
BRANCH   2   3
ATOM      3  C   UNL     1      15.731   0.212 -47.820  1.00  0.00    -0.003 C 
ATOM      4  C   UNL     1      16.029  -0.749 -48.970  1.00  0.00     0.004 C 
ENDBRANCH   2   3
ENDBRANCH   1   2
BRANCH   1   5
ATOM      5  C   UNL     1      17.475   1.525 -46.099  1.00  0.00     0.156 C 
BRANCH   5   6
ATOM      6  O   UNL     1      18.834   1.512 -45.754  1.00  0.00    -0.396 OA
ATOM      7  H   UNL     1      19.165   2.442 -45.871  1.00  0.00     0.210 HD
ENDBRANCH   5   6
ENDBRANCH   1   5
TORSDOF 4
ENDMDL
MODEL 5
REMARK VINA RESULT:    -3.130     10.374     10.728
REMARK INTER + INTRA:          -3.836
REMARK INTER:                  -3.827
REMARK INTRA:                  -0.008
REMARK UNBOUND:                -0.065
REMARK SMILES CCCCCO
REMARK SMILES IDX 4 1 3 2 2 3 1 4 5 5 6 6
REMARK H PARENT 6 7
REMARK Flexibility Score: inf
ROOT
ATOM      1  C   UNL     1      16.338   0.748 -47.125  1.00  0.00     0.028 C 
ENDROOT
BRANCH   1   2
ATOM      2  C   UNL     1      16.172   0.349 -48.600  1.00  0.00     0.002 C 
BRANCH   2   3
ATOM      3  C   UNL     1      15.503  -1.024 -48.766  1.00  0.00    -0.003 C 
ATOM      4  C   UNL     1      16.395  -2.035 -49.485  1.00  0.00     0.004 C 
ENDBRANCH   2   3
ENDBRANCH   1   2
BRANCH   1   5
ATOM      5  C   UNL     1      17.352   1.886 -46.958  1.00  0.00     0.156 C 
BRANCH   5   6
ATOM      6  O   UNL     1      18.432   1.482 -46.159  1.00  0.00    -0.396 OA
ATOM      7  H   UNL     1      18.492   0.494 -46.244  1.00  0.00     0.210 HD
ENDBRANCH   5   6
ENDBRANCH   1   5
TORSDOF 4
ENDMDL
MODEL 6
REMARK VINA RESULT:    -3.124     15.523     16.867
REMARK INTER + INTRA:          -3.828
REMARK INTER:                  -3.732
REMARK INTRA:                  -0.096
REMARK UNBOUND:                -0.065
REMARK SMILES CCCCCO
REMARK SMILES IDX 4 1 3 2 2 3 1 4 5 5 6 6
REMARK H PARENT 6 7
REMARK Flexibility Score: inf
ROOT
ATOM      1  C   UNL     1      13.527  -5.318 -32.582  1.00  0.00     0.028 C 
ENDROOT
BRANCH   1   2
ATOM      2  C   UNL     1      13.537  -6.432 -33.642  1.00  0.00     0.002 C 
BRANCH   2   3
ATOM      3  C   UNL     1      14.685  -6.274 -34.650  1.00  0.00    -0.003 C 
ATOM      4  C   UNL     1      15.727  -7.386 -34.540  1.00  0.00     0.004 C 
ENDBRANCH   2   3
ENDBRANCH   1   2
BRANCH   1   5
ATOM      5  C   UNL     1      14.463  -5.643 -31.412  1.00  0.00     0.156 C 
BRANCH   5   6
ATOM      6  O   UNL     1      14.281  -6.964 -30.976  1.00  0.00    -0.396 OA
ATOM      7  H   UNL     1      14.715  -7.030 -30.085  1.00  0.00     0.210 HD
ENDBRANCH   5   6
ENDBRANCH   1   5
TORSDOF 4
ENDMDL
MODEL 7
REMARK VINA RESULT:    -3.102     14.839     15.668
REMARK INTER + INTRA:          -3.802
REMARK INTER:                  -3.780
REMARK INTRA:                  -0.022
REMARK UNBOUND:                -0.065
REMARK SMILES CCCCCO
REMARK SMILES IDX 4 1 3 2 2 3 1 4 5 5 6 6
REMARK H PARENT 6 7
REMARK Flexibility Score: inf
ROOT
ATOM      1  C   UNL     1      14.135  -6.388 -34.477  1.00  0.00     0.028 C 
ENDROOT
BRANCH   1   2
ATOM      2  C   UNL     1      13.128  -6.364 -33.316  1.00  0.00     0.002 C 
BRANCH   2   3
ATOM      3  C   UNL     1      11.735  -5.890 -33.756  1.00  0.00    -0.003 C 
ATOM      4  C   UNL     1      11.714  -5.362 -35.189  1.00  0.00     0.004 C 
ENDBRANCH   2   3
ENDBRANCH   1   2
BRANCH   1   5
ATOM      5  C   UNL     1      15.384  -7.205 -34.126  1.00  0.00     0.156 C 
BRANCH   5   6
ATOM      6  O   UNL     1      16.039  -7.643 -35.286  1.00  0.00    -0.396 OA
ATOM      7  H   UNL     1      15.768  -7.026 -36.015  1.00  0.00     0.210 HD
ENDBRANCH   5   6
ENDBRANCH   1   5
TORSDOF 4
ENDMDL
MODEL 8
REMARK VINA RESULT:    -3.082     10.448     10.733
REMARK INTER + INTRA:          -3.778
REMARK INTER:                  -3.769
REMARK INTRA:                  -0.009
REMARK UNBOUND:                -0.065
REMARK SMILES CCCCCO
REMARK SMILES IDX 4 1 3 2 2 3 1 4 5 5 6 6
REMARK H PARENT 6 7
REMARK Flexibility Score: inf
ROOT
ATOM      1  C   UNL     1      15.657  -0.141 -47.990  1.00  0.00     0.028 C 
ENDROOT
BRANCH   1   2
ATOM      2  C   UNL     1      16.515   1.127 -47.862  1.00  0.00     0.002 C 
BRANCH   2   3
ATOM      3  C   UNL     1      16.540   1.678 -46.427  1.00  0.00    -0.003 C 
ATOM      4  C   UNL     1      17.935   1.643 -45.805  1.00  0.00     0.004 C 
ENDBRANCH   2   3
ENDBRANCH   1   2
BRANCH   1   5
ATOM      5  C   UNL     1      15.985  -0.919 -49.270  1.00  0.00     0.156 C 
BRANCH   5   6
ATOM      6  O   UNL     1      16.919  -1.933 -49.015  1.00  0.00    -0.396 OA
ATOM      7  H   UNL     1      16.469  -2.590 -48.421  1.00  0.00     0.210 HD
ENDBRANCH   5   6
ENDBRANCH   1   5
TORSDOF 4
ENDMDL
MODEL 9
REMARK VINA RESULT:    -3.016     11.900     12.230
REMARK INTER + INTRA:          -3.698
REMARK INTER:                  -3.659
REMARK INTRA:                  -0.040
REMARK UNBOUND:                -0.065
REMARK SMILES CCCCCO
REMARK SMILES IDX 4 1 3 2 2 3 1 4 5 5 6 6
REMARK H PARENT 6 7
REMARK Flexibility Score: inf
ROOT
ATOM      1  C   UNL     1      17.288   2.001 -47.169  1.00  0.00     0.028 C 
ENDROOT
BRANCH   1   2
ATOM      2  C   UNL     1      16.147   1.258 -47.882  1.00  0.00     0.002 C 
BRANCH   2   3
ATOM      3  C   UNL     1      14.974   2.184 -48.239  1.00  0.00    -0.003 C 
ATOM      4  C   UNL     1      13.891   2.209 -47.162  1.00  0.00     0.004 C 
ENDBRANCH   2   3
ENDBRANCH   1   2
BRANCH   1   5
ATOM      5  C   UNL     1      17.234   1.797 -45.651  1.00  0.00     0.156 C 
BRANCH   5   6
ATOM      6  O   UNL     1      17.436   0.449 -45.319  1.00  0.00    -0.396 OA
ATOM      7  H   UNL     1      17.922   0.040 -46.082  1.00  0.00     0.210 HD
ENDBRANCH   5   6
ENDBRANCH   1   5
TORSDOF 4
ENDMDL
