MODEL 1
REMARK VINA RESULT:    -3.275      0.000      0.000
REMARK INTER + INTRA:          -3.489
REMARK INTER:                  -3.945
REMARK INTRA:                   0.456
REMARK UNBOUND:                 0.456
REMARK SMILES O=c1c(O)c(-c2ccc(O)c(O)c2)oc2cc(O)cc(O)c12
REMARK SMILES IDX 5 1 3 2 2 3 1 4 22 5 20 6 19 7 17 8 16 9 15 10 14 11 6 12
REMARK SMILES IDX 7 13 8 14 9 15 13 16 11 17 10 18 12 20 4 22 21 24 18 26
REMARK H PARENT 10 19 12 21 4 23 21 25 18 27
REMARK Flexibility Score: inf
ROOT
ATOM      1  C   UNL     1      -8.690 -18.162  -1.824  1.00  0.00     0.180 A 
ATOM      2  C   UNL     1      -9.225 -18.736  -2.993  1.00  0.00     0.208 A 
ATOM      3  C   UNL     1      -9.425 -20.126  -3.036  1.00  0.00     0.238 A 
ATOM      4  O   UNL     1      -9.914 -20.650  -4.074  1.00  0.00    -0.285 OA
ATOM      5  C   UNL     1      -9.071 -20.916  -1.924  1.00  0.00     0.111 A 
ATOM      6  C   UNL     1      -9.236 -22.321  -1.888  1.00  0.00     0.134 A 
ATOM      7  C   UNL     1      -8.851 -23.038  -0.746  1.00  0.00     0.093 A 
ATOM      8  C   UNL     1      -8.302 -22.379   0.358  1.00  0.00     0.123 A 
ATOM      9  C   UNL     1      -8.136 -20.991   0.328  1.00  0.00     0.094 A 
ATOM     10  C   UNL     1      -8.517 -20.258  -0.800  1.00  0.00     0.146 A 
ATOM     11  O   UNL     1      -8.353 -18.940  -0.800  1.00  0.00    -0.452 OA
ENDROOT
BRANCH   1  12
ATOM     12  C   UNL     1      -8.468 -16.704  -1.695  1.00  0.00     0.025 A 
ATOM     13  C   UNL     1      -8.144 -16.163  -0.440  1.00  0.00     0.016 A 
ATOM     14  C   UNL     1      -7.950 -14.788  -0.291  1.00  0.00     0.051 A 
ATOM     15  C   UNL     1      -8.092 -13.932  -1.390  1.00  0.00     0.157 A 
ATOM     16  C   UNL     1      -8.628 -15.838  -2.792  1.00  0.00     0.062 A 
ATOM     17  C   UNL     1      -8.435 -14.457  -2.642  1.00  0.00     0.158 A 
BRANCH  15  18
ATOM     18  O   UNL     1      -7.897 -12.559  -1.246  1.00  0.00    -0.504 OA
ATOM     19  H   UNL     1      -8.167 -12.072  -0.399  1.00  0.00     0.293 HD
ENDBRANCH  15  18
BRANCH  17  20
ATOM     20  O   UNL     1      -8.589 -13.601  -3.731  1.00  0.00    -0.504 OA
ATOM     21  H   UNL     1      -8.251 -13.850  -4.654  1.00  0.00     0.293 HD
ENDBRANCH  17  20
ENDBRANCH   1  12
BRANCH   2  22
ATOM     22  O   UNL     1      -9.522 -17.938  -4.101  1.00  0.00    -0.502 OA
ATOM     23  H   UNL     1     -10.161 -18.234  -4.828  1.00  0.00     0.293 HD
ENDBRANCH   2  22
BRANCH   6  24
ATOM     24  O   UNL     1      -9.780 -23.008  -2.974  1.00  0.00    -0.507 OA
ATOM     25  H   UNL     1     -10.526 -23.685  -2.857  1.00  0.00     0.293 HD
ENDBRANCH   6  24
BRANCH   8  26
ATOM     26  O   UNL     1      -7.926 -23.115   1.479  1.00  0.00    -0.508 OA
ATOM     27  H   UNL     1      -7.670 -24.093   1.409  1.00  0.00     0.293 HD
ENDBRANCH   8  26
TORSDOF 6
ENDMDL
