MODEL 1
REMARK VINA RESULT:    -4.541      0.000      0.000
REMARK INTER + INTRA:          -7.010
REMARK INTER:                  -6.134
REMARK INTRA:                  -0.877
REMARK UNBOUND:                -0.877
REMARK SMILES CC(=O)CCC=C(C)CCC=C(C)C
REMARK SMILES IDX 7 1 6 2 8 3 9 4 10 5 11 6 13 7 12 8 14 9 5 10 4 11 2 12 3 13
REMARK SMILES IDX 1 14
REMARK H PARENT
REMARK Flexibility Score: inf
ROOT
ATOM      1  C   UNL     1     -30.642  19.439  23.399  1.00  0.00    -0.077 C 
ATOM      2  C   UNL     1     -29.683  20.228  22.862  1.00  0.00    -0.028 C 
ATOM      3  C   UNL     1     -30.825  18.054  22.833  1.00  0.00     0.039 C 
ENDROOT
BRANCH   1   4
ATOM      4  C   UNL     1     -31.511  19.872  24.566  1.00  0.00     0.034 C 
BRANCH   4   5
ATOM      5  C   UNL     1     -32.999  19.589  24.308  1.00  0.00     0.032 C 
BRANCH   5   6
ATOM      6  C   UNL     1     -33.606  18.734  25.394  1.00  0.00    -0.028 C 
ATOM      7  C   UNL     1     -33.931  16.758  23.890  1.00  0.00     0.039 C 
ATOM      8  C   UNL     1     -34.000  17.452  25.229  1.00  0.00    -0.080 C 
ATOM      9  C   UNL     1     -34.542  16.709  26.424  1.00  0.00     0.039 C 
ENDBRANCH   5   6
ENDBRANCH   4   5
ENDBRANCH   1   4
BRANCH   2  10
ATOM     10  C   UNL     1     -29.410  21.657  23.268  1.00  0.00     0.035 C 
BRANCH  10  11
ATOM     11  C   UNL     1     -28.130  21.782  24.106  1.00  0.00     0.079 C 
BRANCH  11  12
ATOM     12  C   UNL     1     -28.405  21.588  25.577  1.00  0.00     0.130 C 
ATOM     13  O   UNL     1     -28.149  20.515  26.101  1.00  0.00    -0.300 OA
ATOM     14  C   UNL     1     -28.974  22.693  26.416  1.00  0.00     0.087 C 
ENDBRANCH  11  12
ENDBRANCH  10  11
ENDBRANCH   2  10
TORSDOF 6
ENDMDL
MODEL 2
REMARK VINA RESULT:    -4.520      3.856      6.569
REMARK INTER + INTRA:          -6.982
REMARK INTER:                  -6.496
REMARK INTRA:                  -0.486
REMARK UNBOUND:                -0.877
REMARK SMILES CC(=O)CCC=C(C)CCC=C(C)C
REMARK SMILES IDX 7 1 6 2 8 3 9 4 10 5 11 6 13 7 12 8 14 9 5 10 4 11 2 12 3 13
REMARK SMILES IDX 1 14
REMARK H PARENT
REMARK Flexibility Score: inf
ROOT
ATOM      1  C   UNL     1     -29.182  22.278  28.387  1.00  0.00    -0.077 C 
ATOM      2  C   UNL     1     -30.125  22.323  29.356  1.00  0.00    -0.028 C 
ATOM      3  C   UNL     1     -27.867  21.611  28.702  1.00  0.00     0.039 C 
ENDROOT
BRANCH   1   4
ATOM      4  C   UNL     1     -29.404  22.831  26.991  1.00  0.00     0.034 C 
BRANCH   4   5
ATOM      5  C   UNL     1     -28.601  22.058  25.934  1.00  0.00     0.032 C 
BRANCH   5   6
ATOM      6  C   UNL     1     -29.500  21.275  25.006  1.00  0.00    -0.028 C 
ATOM      7  C   UNL     1     -28.262  21.973  22.944  1.00  0.00     0.039 C 
ATOM      8  C   UNL     1     -29.342  21.202  23.667  1.00  0.00    -0.080 C 
ATOM      9  C   UNL     1     -30.291  20.337  22.878  1.00  0.00     0.039 C 
ENDBRANCH   5   6
ENDBRANCH   4   5
ENDBRANCH   1   4
BRANCH   2  10
ATOM     10  C   UNL     1     -31.466  23.004  29.227  1.00  0.00     0.035 C 
BRANCH  10  11
ATOM     11  C   UNL     1     -31.393  24.492  29.597  1.00  0.00     0.079 C 
BRANCH  11  12
ATOM     12  C   UNL     1     -32.335  24.834  30.725  1.00  0.00     0.130 C 
ATOM     13  O   UNL     1     -31.959  24.712  31.881  1.00  0.00    -0.300 OA
ATOM     14  C   UNL     1     -33.723  25.335  30.457  1.00  0.00     0.087 C 
ENDBRANCH  11  12
ENDBRANCH  10  11
ENDBRANCH   2  10
TORSDOF 6
ENDMDL
MODEL 3
REMARK VINA RESULT:    -4.450      2.216      5.043
REMARK INTER + INTRA:          -6.888
REMARK INTER:                  -5.250
REMARK INTRA:                  -1.638
REMARK UNBOUND:                -0.877
REMARK SMILES CC(=O)CCC=C(C)CCC=C(C)C
REMARK SMILES IDX 7 1 6 2 8 3 9 4 10 5 11 6 13 7 12 8 14 9 5 10 4 11 2 12 3 13
REMARK SMILES IDX 1 14
REMARK H PARENT
REMARK Flexibility Score: inf
ROOT
ATOM      1  C   UNL     1     -28.811  20.790  23.344  1.00  0.00    -0.077 C 
ATOM      2  C   UNL     1     -30.118  20.761  22.997  1.00  0.00    -0.028 C 
ATOM      3  C   UNL     1     -27.983  21.970  22.902  1.00  0.00     0.039 C 
ENDROOT
BRANCH   1   4
ATOM      4  C   UNL     1     -28.154  19.711  24.186  1.00  0.00     0.034 C 
BRANCH   4   5
ATOM      5  C   UNL     1     -27.800  20.219  25.593  1.00  0.00     0.032 C 
BRANCH   5   6
ATOM      6  C   UNL     1     -29.019  20.322  26.477  1.00  0.00    -0.028 C 
ATOM      7  C   UNL     1     -29.031  22.826  26.457  1.00  0.00     0.039 C 
ATOM      8  C   UNL     1     -29.601  21.483  26.848  1.00  0.00    -0.080 C 
ATOM      9  C   UNL     1     -30.847  21.423  27.694  1.00  0.00     0.039 C 
ENDBRANCH   5   6
ENDBRANCH   4   5
ENDBRANCH   1   4
BRANCH   2  10
ATOM     10  C   UNL     1     -31.069  19.629  23.305  1.00  0.00     0.035 C 
BRANCH  10  11
ATOM     11  C   UNL     1     -32.109  20.023  24.362  1.00  0.00     0.079 C 
BRANCH  11  12
ATOM     12  C   UNL     1     -32.613  18.822  25.124  1.00  0.00     0.130 C 
ATOM     13  O   UNL     1     -33.810  18.580  25.142  1.00  0.00    -0.300 OA
ATOM     14  C   UNL     1     -31.673  17.908  25.851  1.00  0.00     0.087 C 
ENDBRANCH  11  12
ENDBRANCH  10  11
ENDBRANCH   2  10
TORSDOF 6
ENDMDL
MODEL 4
REMARK VINA RESULT:    -4.426      5.060      7.758
REMARK INTER + INTRA:          -6.855
REMARK INTER:                  -5.687
REMARK INTRA:                  -1.168
REMARK UNBOUND:                -0.877
REMARK SMILES CC(=O)CCC=C(C)CCC=C(C)C
REMARK SMILES IDX 7 1 6 2 8 3 9 4 10 5 11 6 13 7 12 8 14 9 5 10 4 11 2 12 3 13
REMARK SMILES IDX 1 14
REMARK H PARENT
REMARK Flexibility Score: inf
ROOT
ATOM      1  C   UNL     1     -30.805  21.831  31.000  1.00  0.00    -0.077 C 
ATOM      2  C   UNL     1     -31.801  22.512  30.387  1.00  0.00    -0.028 C 
ATOM      3  C   UNL     1     -31.174  20.643  31.852  1.00  0.00     0.039 C 
ENDROOT
BRANCH   1   4
ATOM      4  C   UNL     1     -29.338  22.186  30.836  1.00  0.00     0.034 C 
BRANCH   4   5
ATOM      5  C   UNL     1     -28.640  21.279  29.811  1.00  0.00     0.032 C 
BRANCH   5   6
ATOM      6  C   UNL     1     -28.327  22.015  28.530  1.00  0.00    -0.028 C 
ATOM      7  C   UNL     1     -30.307  21.084  27.312  1.00  0.00     0.039 C 
ATOM      8  C   UNL     1     -29.082  21.962  27.411  1.00  0.00    -0.080 C 
ATOM      9  C   UNL     1     -28.667  22.795  26.226  1.00  0.00     0.039 C 
ENDBRANCH   5   6
ENDBRANCH   4   5
ENDBRANCH   1   4
BRANCH   2  10
ATOM     10  C   UNL     1     -31.611  23.756  29.553  1.00  0.00     0.035 C 
BRANCH  10  11
ATOM     11  C   UNL     1     -31.663  25.033  30.404  1.00  0.00     0.079 C 
BRANCH  11  12
ATOM     12  C   UNL     1     -32.981  25.170  31.125  1.00  0.00     0.130 C 
ATOM     13  O   UNL     1     -33.029  24.987  32.331  1.00  0.00    -0.300 OA
ATOM     14  C   UNL     1     -34.236  25.539  30.392  1.00  0.00     0.087 C 
ENDBRANCH  11  12
ENDBRANCH  10  11
ENDBRANCH   2  10
TORSDOF 6
ENDMDL
MODEL 5
REMARK VINA RESULT:    -4.425      1.872      4.299
REMARK INTER + INTRA:          -6.853
REMARK INTER:                  -5.348
REMARK INTRA:                  -1.505
REMARK UNBOUND:                -0.877
REMARK SMILES CC(=O)CCC=C(C)CCC=C(C)C
REMARK SMILES IDX 7 1 6 2 8 3 9 4 10 5 11 6 13 7 12 8 14 9 5 10 4 11 2 12 3 13
REMARK SMILES IDX 1 14
REMARK H PARENT
REMARK Flexibility Score: inf
ROOT
ATOM      1  C   UNL     1     -31.797  19.467  24.426  1.00  0.00    -0.077 C 
ATOM      2  C   UNL     1     -31.383  20.039  23.271  1.00  0.00    -0.028 C 
ATOM      3  C   UNL     1     -33.268  19.506  24.753  1.00  0.00     0.039 C 
ENDROOT
BRANCH   1   4
ATOM      4  C   UNL     1     -30.854  18.760  25.383  1.00  0.00     0.034 C 
BRANCH   4   5
ATOM      5  C   UNL     1     -30.815  19.443  26.758  1.00  0.00     0.032 C 
BRANCH   5   6
ATOM      6  C   UNL     1     -30.420  20.897  26.652  1.00  0.00    -0.028 C 
ATOM      7  C   UNL     1     -27.985  20.437  27.007  1.00  0.00     0.039 C 
ATOM      8  C   UNL     1     -29.152  21.355  26.731  1.00  0.00    -0.080 C 
ATOM      9  C   UNL     1     -28.910  22.832  26.556  1.00  0.00     0.039 C 
ENDBRANCH   5   6
ENDBRANCH   4   5
ENDBRANCH   1   4
BRANCH   2  10
ATOM     10  C   UNL     1     -29.945  20.142  22.824  1.00  0.00     0.035 C 
BRANCH  10  11
ATOM     11  C   UNL     1     -29.363  21.539  23.079  1.00  0.00     0.079 C 
BRANCH  11  12
ATOM     12  C   UNL     1     -27.863  21.499  23.233  1.00  0.00     0.130 C 
ATOM     13  O   UNL     1     -27.231  22.545  23.257  1.00  0.00    -0.300 OA
ATOM     14  C   UNL     1     -27.127  20.200  23.372  1.00  0.00     0.087 C 
ENDBRANCH  11  12
ENDBRANCH  10  11
ENDBRANCH   2  10
TORSDOF 6
ENDMDL
MODEL 6
REMARK VINA RESULT:    -4.339      4.864      7.264
REMARK INTER + INTRA:          -6.737
REMARK INTER:                  -6.161
REMARK INTRA:                  -0.576
REMARK UNBOUND:                -0.877
REMARK SMILES CC(=O)CCC=C(C)CCC=C(C)C
REMARK SMILES IDX 7 1 6 2 8 3 9 4 10 5 11 6 13 7 12 8 14 9 5 10 4 11 2 12 3 13
REMARK SMILES IDX 1 14
REMARK H PARENT
REMARK Flexibility Score: inf
ROOT
ATOM      1  C   UNL     1     -30.677  22.249  29.233  1.00  0.00    -0.077 C 
ATOM      2  C   UNL     1     -31.685  22.830  29.922  1.00  0.00    -0.028 C 
ATOM      3  C   UNL     1     -30.155  20.920  29.718  1.00  0.00     0.039 C 
ENDROOT
BRANCH   1   4
ATOM      4  C   UNL     1     -30.076  22.855  27.977  1.00  0.00     0.034 C 
BRANCH   4   5
ATOM      5  C   UNL     1     -28.914  22.009  27.433  1.00  0.00     0.032 C 
BRANCH   5   6
ATOM      6  C   UNL     1     -28.784  22.131  25.934  1.00  0.00    -0.028 C 
ATOM      7  C   UNL     1     -30.325  20.212  25.475  1.00  0.00     0.039 C 
ATOM      8  C   UNL     1     -29.434  21.352  25.042  1.00  0.00    -0.080 C 
ATOM      9  C   UNL     1     -29.242  21.628  23.573  1.00  0.00     0.039 C 
ENDBRANCH   5   6
ENDBRANCH   4   5
ENDBRANCH   1   4
BRANCH   2  10
ATOM     10  C   UNL     1     -32.280  24.182  29.609  1.00  0.00     0.035 C 
BRANCH  10  11
ATOM     11  C   UNL     1     -32.384  25.067  30.859  1.00  0.00     0.079 C 
BRANCH  11  12
ATOM     12  C   UNL     1     -33.817  25.420  31.174  1.00  0.00     0.130 C 
ATOM     13  O   UNL     1     -34.288  26.463  30.748  1.00  0.00    -0.300 OA
ATOM     14  C   UNL     1     -34.683  24.509  31.991  1.00  0.00     0.087 C 
ENDBRANCH  11  12
ENDBRANCH  10  11
ENDBRANCH   2  10
TORSDOF 6
ENDMDL
MODEL 7
REMARK VINA RESULT:    -4.329      3.187      6.164
REMARK INTER + INTRA:          -6.723
REMARK INTER:                  -6.126
REMARK INTRA:                  -0.597
REMARK UNBOUND:                -0.877
REMARK SMILES CC(=O)CCC=C(C)CCC=C(C)C
REMARK SMILES IDX 7 1 6 2 8 3 9 4 10 5 11 6 13 7 12 8 14 9 5 10 4 11 2 12 3 13
REMARK SMILES IDX 1 14
REMARK H PARENT
REMARK Flexibility Score: inf
ROOT
ATOM      1  C   UNL     1     -29.453  21.637  26.211  1.00  0.00    -0.077 C 
ATOM      2  C   UNL     1     -29.496  20.887  25.086  1.00  0.00    -0.028 C 
ATOM      3  C   UNL     1     -28.448  22.759  26.281  1.00  0.00     0.039 C 
ENDROOT
BRANCH   1   4
ATOM      4  C   UNL     1     -30.394  21.425  27.383  1.00  0.00     0.034 C 
BRANCH   4   5
ATOM      5  C   UNL     1     -29.977  22.252  28.609  1.00  0.00     0.032 C 
BRANCH   5   6
ATOM      6  C   UNL     1     -30.991  23.321  28.937  1.00  0.00    -0.028 C 
ATOM      7  C   UNL     1     -30.580  23.191  31.404  1.00  0.00     0.039 C 
ATOM      8  C   UNL     1     -31.251  23.775  30.183  1.00  0.00    -0.080 C 
ATOM      9  C   UNL     1     -32.257  24.885  30.347  1.00  0.00     0.039 C 
ENDBRANCH   5   6
ENDBRANCH   4   5
ENDBRANCH   1   4
BRANCH   2  10
ATOM     10  C   UNL     1     -30.396  19.692  24.877  1.00  0.00     0.035 C 
BRANCH  10  11
ATOM     11  C   UNL     1     -31.564  20.011  23.933  1.00  0.00     0.079 C 
BRANCH  11  12
ATOM     12  C   UNL     1     -32.897  19.727  24.579  1.00  0.00     0.130 C 
ATOM     13  O   UNL     1     -33.853  20.444  24.328  1.00  0.00    -0.300 OA
ATOM     14  C   UNL     1     -33.079  18.570  25.516  1.00  0.00     0.087 C 
ENDBRANCH  11  12
ENDBRANCH  10  11
ENDBRANCH   2  10
TORSDOF 6
ENDMDL
MODEL 8
REMARK VINA RESULT:    -4.324      5.826      8.563
REMARK INTER + INTRA:          -6.717
REMARK INTER:                  -5.925
REMARK INTRA:                  -0.791
REMARK UNBOUND:                -0.877
REMARK SMILES CC(=O)CCC=C(C)CCC=C(C)C
REMARK SMILES IDX 7 1 6 2 8 3 9 4 10 5 11 6 13 7 12 8 14 9 5 10 4 11 2 12 3 13
REMARK SMILES IDX 1 14
REMARK H PARENT
REMARK Flexibility Score: inf
ROOT
ATOM      1  C   UNL     1     -31.152  23.295  30.965  1.00  0.00    -0.077 C 
ATOM      2  C   UNL     1     -31.745  24.507  31.071  1.00  0.00    -0.028 C 
ATOM      3  C   UNL     1     -29.969  23.001  31.853  1.00  0.00     0.039 C 
ENDROOT
BRANCH   1   4
ATOM      4  C   UNL     1     -31.646  22.212  30.024  1.00  0.00     0.034 C 
BRANCH   4   5
ATOM      5  C   UNL     1     -30.485  21.437  29.382  1.00  0.00     0.032 C 
BRANCH   5   6
ATOM      6  C   UNL     1     -30.107  22.004  28.035  1.00  0.00    -0.028 C 
ATOM      7  C   UNL     1     -27.653  21.993  28.529  1.00  0.00     0.039 C 
ATOM      8  C   UNL     1     -28.840  22.230  27.626  1.00  0.00    -0.080 C 
ATOM      9  C   UNL     1     -28.618  22.753  26.230  1.00  0.00     0.039 C 
ENDBRANCH   5   6
ENDBRANCH   4   5
ENDBRANCH   1   4
BRANCH   2  10
ATOM     10  C   UNL     1     -32.896  24.984  30.217  1.00  0.00     0.035 C 
BRANCH  10  11
ATOM     11  C   UNL     1     -33.927  25.775  31.033  1.00  0.00     0.079 C 
BRANCH  11  12
ATOM     12  C   UNL     1     -34.496  24.951  32.162  1.00  0.00     0.130 C 
ATOM     13  O   UNL     1     -35.162  23.959  31.907  1.00  0.00    -0.300 OA
ATOM     14  C   UNL     1     -34.249  25.316  33.595  1.00  0.00     0.087 C 
ENDBRANCH  11  12
ENDBRANCH  10  11
ENDBRANCH   2  10
TORSDOF 6
ENDMDL
MODEL 9
REMARK VINA RESULT:    -4.265      1.880      3.052
REMARK INTER + INTRA:          -6.638
REMARK INTER:                  -5.426
REMARK INTRA:                  -1.212
REMARK UNBOUND:                -0.877
REMARK SMILES CC(=O)CCC=C(C)CCC=C(C)C
REMARK SMILES IDX 7 1 6 2 8 3 9 4 10 5 11 6 13 7 12 8 14 9 5 10 4 11 2 12 3 13
REMARK SMILES IDX 1 14
REMARK H PARENT
REMARK Flexibility Score: inf
ROOT
ATOM      1  C   UNL     1     -29.286  20.907  23.864  1.00  0.00    -0.077 C 
ATOM      2  C   UNL     1     -29.344  21.281  25.163  1.00  0.00    -0.028 C 
ATOM      3  C   UNL     1     -28.971  21.961  22.832  1.00  0.00     0.039 C 
ENDROOT
BRANCH   1   4
ATOM      4  C   UNL     1     -29.486  19.474  23.406  1.00  0.00     0.034 C 
BRANCH   4   5
ATOM      5  C   UNL     1     -30.917  19.227  22.907  1.00  0.00     0.032 C 
BRANCH   5   6
ATOM      6  C   UNL     1     -31.705  18.363  23.862  1.00  0.00    -0.028 C 
ATOM      7  C   UNL     1     -33.378  20.156  24.370  1.00  0.00     0.039 C 
ATOM      8  C   UNL     1     -32.828  18.755  24.502  1.00  0.00    -0.080 C 
ATOM      9  C   UNL     1     -33.534  17.760  25.388  1.00  0.00     0.039 C 
ENDBRANCH   5   6
ENDBRANCH   4   5
ENDBRANCH   1   4
BRANCH   2  10
ATOM     10  C   UNL     1     -29.706  20.369  26.310  1.00  0.00     0.035 C 
BRANCH  10  11
ATOM     11  C   UNL     1     -30.934  20.874  27.081  1.00  0.00     0.079 C 
BRANCH  11  12
ATOM     12  C   UNL     1     -30.557  21.412  28.439  1.00  0.00     0.130 C 
ATOM     13  O   UNL     1     -30.214  20.638  29.319  1.00  0.00    -0.300 OA
ATOM     14  C   UNL     1     -30.580  22.883  28.729  1.00  0.00     0.087 C 
ENDBRANCH  11  12
ENDBRANCH  10  11
ENDBRANCH   2  10
TORSDOF 6
ENDMDL
