MODEL 1
REMARK VINA RESULT:    -6.171      0.000      0.000
REMARK INTER + INTRA:          -7.384
REMARK INTER:                  -7.073
REMARK INTRA:                  -0.312
REMARK UNBOUND:                -0.312
REMARK SMILES O=C1C[C@H](c2ccc(O)cc2)Oc2cc(O)cc(O)c21
REMARK SMILES IDX 3 1 4 2 12 3 13 4 14 5 15 6 17 7 18 8 20 9 2 10 1 11 5 12
REMARK SMILES IDX 6 13 11 14 7 15 10 16 8 17 9 18 19 20 16 22
REMARK H PARENT 9 19 19 21 16 23
REMARK Flexibility Score: inf
ROOT
ATOM      1  C   UNL     1       1.228 -19.272  -7.835  1.00  0.00     0.131 C 
ATOM      2  C   UNL     1      -0.254 -19.652  -7.959  1.00  0.00     0.211 C 
ATOM      3  O   UNL     1      -1.030 -18.523  -8.369  1.00  0.00    -0.484 OA
ATOM      4  C   UNL     1      -0.791 -17.227  -7.892  1.00  0.00     0.138 A 
ATOM      5  C   UNL     1      -1.749 -16.235  -8.114  1.00  0.00     0.093 A 
ATOM      6  C   UNL     1      -1.545 -14.938  -7.638  1.00  0.00     0.123 A 
ATOM      7  C   UNL     1      -0.364 -14.624  -6.961  1.00  0.00     0.093 A 
ATOM      8  C   UNL     1       0.628 -15.593  -6.762  1.00  0.00     0.133 A 
ATOM      9  C   UNL     1       0.404 -16.924  -7.202  1.00  0.00     0.102 A 
ATOM     10  C   UNL     1       1.351 -18.044  -6.983  1.00  0.00     0.174 C 
ATOM     11  O   UNL     1       2.216 -18.013  -6.068  1.00  0.00    -0.294 OA
ENDROOT
BRANCH   2  12
ATOM     12  C   UNL     1      -0.435 -20.787  -8.937  1.00  0.00    -0.007 A 
ATOM     13  C   UNL     1       0.576 -21.748  -9.112  1.00  0.00     0.011 A 
ATOM     14  C   UNL     1      -1.641 -20.925  -9.644  1.00  0.00     0.011 A 
ATOM     15  C   UNL     1       0.392 -22.815  -9.996  1.00  0.00     0.046 A 
ATOM     16  C   UNL     1      -1.823 -21.993 -10.528  1.00  0.00     0.046 A 
ATOM     17  C   UNL     1      -0.810 -22.940 -10.708  1.00  0.00     0.115 A 
BRANCH  17  18
ATOM     18  O   UNL     1      -1.004 -23.998 -11.593  1.00  0.00    -0.508 OA
ATOM     19  H   UNL     1      -1.479 -24.846 -11.308  1.00  0.00     0.293 HD
ENDBRANCH  17  18
ENDBRANCH   2  12
BRANCH   8  20
ATOM     20  O   UNL     1       1.819 -15.178  -6.159  1.00  0.00    -0.507 OA
ATOM     21  H   UNL     1       2.727 -15.262  -6.590  1.00  0.00     0.293 HD
ENDBRANCH   8  20
BRANCH   6  22
ATOM     22  O   UNL     1      -2.505 -13.948  -7.836  1.00  0.00    -0.508 OA
ATOM     23  H   UNL     1      -2.805 -13.341  -7.082  1.00  0.00     0.293 HD
ENDBRANCH   6  22
TORSDOF 4
ENDMDL
MODEL 2
REMARK VINA RESULT:    -5.741      1.739      6.514
REMARK INTER + INTRA:          -6.891
REMARK INTER:                  -6.581
REMARK INTRA:                  -0.311
REMARK UNBOUND:                -0.312
REMARK SMILES O=C1C[C@H](c2ccc(O)cc2)Oc2cc(O)cc(O)c21
REMARK SMILES IDX 3 1 4 2 12 3 13 4 14 5 15 6 17 7 18 8 20 9 2 10 1 11 5 12
REMARK SMILES IDX 6 13 11 14 7 15 10 16 8 17 9 18 19 20 16 22
REMARK H PARENT 9 19 19 21 16 23
REMARK Flexibility Score: inf
ROOT
ATOM      1  C   UNL     1       1.327 -19.039  -6.692  1.00  0.00     0.131 C 
ATOM      2  C   UNL     1       0.853 -18.566  -8.073  1.00  0.00     0.211 C 
ATOM      3  O   UNL     1       0.190 -19.626  -8.767  1.00  0.00    -0.484 OA
ATOM      4  C   UNL     1       0.632 -20.955  -8.718  1.00  0.00     0.138 A 
ATOM      5  C   UNL     1       0.112 -21.876  -9.630  1.00  0.00     0.093 A 
ATOM      6  C   UNL     1       0.545 -23.205  -9.615  1.00  0.00     0.123 A 
ATOM      7  C   UNL     1       1.479 -23.620  -8.664  1.00  0.00     0.093 A 
ATOM      8  C   UNL     1       1.984 -22.723  -7.714  1.00  0.00     0.133 A 
ATOM      9  C   UNL     1       1.583 -21.361  -7.757  1.00  0.00     0.102 A 
ATOM     10  C   UNL     1       2.105 -20.311  -6.848  1.00  0.00     0.174 C 
ATOM     11  O   UNL     1       3.206 -20.438  -6.250  1.00  0.00    -0.294 OA
ENDROOT
BRANCH   2  12
ATOM     12  C   UNL     1      -0.068 -17.376  -7.944  1.00  0.00    -0.007 A 
ATOM     13  C   UNL     1       0.415 -16.148  -7.457  1.00  0.00     0.011 A 
ATOM     14  C   UNL     1      -1.405 -17.469  -8.362  1.00  0.00     0.011 A 
ATOM     15  C   UNL     1      -0.434 -15.042  -7.369  1.00  0.00     0.046 A 
ATOM     16  C   UNL     1      -2.252 -16.360  -8.273  1.00  0.00     0.046 A 
ATOM     17  C   UNL     1      -1.771 -15.145  -7.776  1.00  0.00     0.115 A 
BRANCH  17  18
ATOM     18  O   UNL     1      -2.626 -14.049  -7.692  1.00  0.00    -0.508 OA
ATOM     19  H   UNL     1      -2.778 -13.561  -6.816  1.00  0.00     0.293 HD
ENDBRANCH  17  18
ENDBRANCH   2  12
BRANCH   8  20
ATOM     20  O   UNL     1       2.843 -23.236  -6.738  1.00  0.00    -0.507 OA
ATOM     21  H   UNL     1       2.995 -22.805  -5.838  1.00  0.00     0.293 HD
ENDBRANCH   8  20
BRANCH   6  22
ATOM     22  O   UNL     1       0.048 -24.125 -10.536  1.00  0.00    -0.508 OA
ATOM     23  H   UNL     1       0.503 -25.017 -10.693  1.00  0.00     0.293 HD
ENDBRANCH   6  22
TORSDOF 4
ENDMDL
MODEL 3
REMARK VINA RESULT:    -5.468      2.384      3.945
REMARK INTER + INTRA:          -6.578
REMARK INTER:                  -6.262
REMARK INTRA:                  -0.316
REMARK UNBOUND:                -0.312
REMARK SMILES O=C1C[C@H](c2ccc(O)cc2)Oc2cc(O)cc(O)c21
REMARK SMILES IDX 3 1 4 2 12 3 13 4 14 5 15 6 17 7 18 8 20 9 2 10 1 11 5 12
REMARK SMILES IDX 6 13 11 14 7 15 10 16 8 17 9 18 19 20 16 22
REMARK H PARENT 9 19 19 21 16 23
REMARK Flexibility Score: inf
ROOT
ATOM      1  C   UNL     1      -2.225 -17.623  -6.650  1.00  0.00     0.131 C 
ATOM      2  C   UNL     1      -0.980 -17.257  -7.468  1.00  0.00     0.211 C 
ATOM      3  O   UNL     1      -0.158 -16.334  -6.746  1.00  0.00    -0.484 OA
ATOM      4  C   UNL     1      -0.690 -15.289  -5.979  1.00  0.00     0.138 A 
ATOM      5  C   UNL     1       0.161 -14.273  -5.536  1.00  0.00     0.093 A 
ATOM      6  C   UNL     1      -0.343 -13.210  -4.781  1.00  0.00     0.123 A 
ATOM      7  C   UNL     1      -1.698 -13.179  -4.444  1.00  0.00     0.093 A 
ATOM      8  C   UNL     1      -2.561 -14.207  -4.842  1.00  0.00     0.133 A 
ATOM      9  C   UNL     1      -2.063 -15.264  -5.650  1.00  0.00     0.102 A 
ATOM     10  C   UNL     1      -2.898 -16.365  -6.188  1.00  0.00     0.174 C 
ATOM     11  O   UNL     1      -4.146 -16.250  -6.317  1.00  0.00    -0.294 OA
ENDROOT
BRANCH   2  12
ATOM     12  C   UNL     1      -0.186 -18.492  -7.816  1.00  0.00    -0.007 A 
ATOM     13  C   UNL     1       1.158 -18.613  -7.421  1.00  0.00     0.011 A 
ATOM     14  C   UNL     1      -0.800 -19.559  -8.493  1.00  0.00     0.011 A 
ATOM     15  C   UNL     1       1.880 -19.773  -7.720  1.00  0.00     0.046 A 
ATOM     16  C   UNL     1      -0.075 -20.717  -8.791  1.00  0.00     0.046 A 
ATOM     17  C   UNL     1       1.265 -20.828  -8.407  1.00  0.00     0.115 A 
BRANCH  17  18
ATOM     18  O   UNL     1       1.975 -21.987  -8.710  1.00  0.00    -0.508 OA
ATOM     19  H   UNL     1       2.898 -22.158  -8.329  1.00  0.00     0.293 HD
ENDBRANCH  17  18
ENDBRANCH   2  12
BRANCH   8  20
ATOM     20  O   UNL     1      -3.880 -14.152  -4.387  1.00  0.00    -0.507 OA
ATOM     21  H   UNL     1      -4.479 -14.958  -4.292  1.00  0.00     0.293 HD
ENDBRANCH   8  20
BRANCH   6  22
ATOM     22  O   UNL     1       0.495 -12.182  -4.354  1.00  0.00    -0.508 OA
ATOM     23  H   UNL     1       0.182 -11.217  -4.334  1.00  0.00     0.293 HD
ENDBRANCH   6  22
TORSDOF 4
ENDMDL
MODEL 4
REMARK VINA RESULT:    -5.431      2.059      3.498
REMARK INTER + INTRA:          -6.536
REMARK INTER:                  -6.223
REMARK INTRA:                  -0.313
REMARK UNBOUND:                -0.312
REMARK SMILES O=C1C[C@H](c2ccc(O)cc2)Oc2cc(O)cc(O)c21
REMARK SMILES IDX 3 1 4 2 12 3 13 4 14 5 15 6 17 7 18 8 20 9 2 10 1 11 5 12
REMARK SMILES IDX 6 13 11 14 7 15 10 16 8 17 9 18 19 20 16 22
REMARK H PARENT 9 19 19 21 16 23
REMARK Flexibility Score: inf
ROOT
ATOM      1  C   UNL     1      -1.243 -18.689  -8.423  1.00  0.00     0.131 C 
ATOM      2  C   UNL     1       0.282 -18.580  -8.294  1.00  0.00     0.211 C 
ATOM      3  O   UNL     1       0.634 -17.689  -7.231  1.00  0.00    -0.484 OA
ATOM      4  C   UNL     1      -0.067 -16.503  -6.975  1.00  0.00     0.138 A 
ATOM      5  C   UNL     1       0.494 -15.557  -6.113  1.00  0.00     0.093 A 
ATOM      6  C   UNL     1      -0.175 -14.359  -5.850  1.00  0.00     0.123 A 
ATOM      7  C   UNL     1      -1.423 -14.118  -6.428  1.00  0.00     0.093 A 
ATOM      8  C   UNL     1      -2.022 -15.070  -7.263  1.00  0.00     0.133 A 
ATOM      9  C   UNL     1      -1.325 -16.268  -7.571  1.00  0.00     0.102 A 
ATOM     10  C   UNL     1      -1.831 -17.311  -8.497  1.00  0.00     0.174 C 
ATOM     11  O   UNL     1      -2.697 -17.056  -9.375  1.00  0.00    -0.294 OA
ENDROOT
BRANCH   2  12
ATOM     12  C   UNL     1       0.897 -19.937  -8.056  1.00  0.00    -0.007 A 
ATOM     13  C   UNL     1       0.566 -21.026  -8.882  1.00  0.00     0.011 A 
ATOM     14  C   UNL     1       1.851 -20.113  -7.040  1.00  0.00     0.011 A 
ATOM     15  C   UNL     1       1.162 -22.274  -8.678  1.00  0.00     0.046 A 
ATOM     16  C   UNL     1       2.445 -21.363  -6.838  1.00  0.00     0.046 A 
ATOM     17  C   UNL     1       2.103 -22.446  -7.653  1.00  0.00     0.115 A 
BRANCH  17  18
ATOM     18  O   UNL     1       2.702 -23.685  -7.441  1.00  0.00    -0.508 OA
ATOM     19  H   UNL     1       2.155 -24.505  -7.204  1.00  0.00     0.293 HD
ENDBRANCH  17  18
ENDBRANCH   2  12
BRANCH   8  20
ATOM     20  O   UNL     1      -3.311 -14.796  -7.727  1.00  0.00    -0.507 OA
ATOM     21  H   UNL     1      -3.811 -13.941  -7.534  1.00  0.00     0.293 HD
ENDBRANCH   8  20
BRANCH   6  22
ATOM     22  O   UNL     1       0.388 -13.401  -5.009  1.00  0.00    -0.508 OA
ATOM     23  H   UNL     1       1.335 -13.494  -4.657  1.00  0.00     0.293 HD
ENDBRANCH   6  22
TORSDOF 4
ENDMDL
MODEL 5
REMARK VINA RESULT:    -5.393      1.653      3.284
REMARK INTER + INTRA:          -6.493
REMARK INTER:                  -6.190
REMARK INTRA:                  -0.302
REMARK UNBOUND:                -0.312
REMARK SMILES O=C1C[C@H](c2ccc(O)cc2)Oc2cc(O)cc(O)c21
REMARK SMILES IDX 3 1 4 2 12 3 13 4 14 5 15 6 17 7 18 8 20 9 2 10 1 11 5 12
REMARK SMILES IDX 6 13 11 14 7 15 10 16 8 17 9 18 19 20 16 22
REMARK H PARENT 9 19 19 21 16 23
REMARK Flexibility Score: inf
ROOT
ATOM      1  C   UNL     1      -2.034 -17.451  -8.464  1.00  0.00     0.131 C 
ATOM      2  C   UNL     1      -0.638 -18.078  -8.346  1.00  0.00     0.211 C 
ATOM      3  O   UNL     1      -0.171 -18.012  -6.995  1.00  0.00    -0.484 OA
ATOM      4  C   UNL     1      -0.390 -16.900  -6.172  1.00  0.00     0.138 A 
ATOM      5  C   UNL     1       0.324 -16.790  -4.977  1.00  0.00     0.093 A 
ATOM      6  C   UNL     1       0.137 -15.684  -4.143  1.00  0.00     0.123 A 
ATOM      7  C   UNL     1      -0.789 -14.700  -4.492  1.00  0.00     0.093 A 
ATOM      8  C   UNL     1      -1.546 -14.810  -5.665  1.00  0.00     0.133 A 
ATOM      9  C   UNL     1      -1.325 -15.907  -6.539  1.00  0.00     0.102 A 
ATOM     10  C   UNL     1      -2.016 -16.088  -7.839  1.00  0.00     0.174 C 
ATOM     11  O   UNL     1      -2.537 -15.120  -8.454  1.00  0.00    -0.294 OA
ENDROOT
BRANCH   2  12
ATOM     12  C   UNL     1      -0.654 -19.511  -8.819  1.00  0.00    -0.007 A 
ATOM     13  C   UNL     1      -1.751 -20.014  -9.540  1.00  0.00     0.011 A 
ATOM     14  C   UNL     1       0.455 -20.342  -8.592  1.00  0.00     0.011 A 
ATOM     15  C   UNL     1      -1.747 -21.333 -10.003  1.00  0.00     0.046 A 
ATOM     16  C   UNL     1       0.457 -21.661  -9.056  1.00  0.00     0.046 A 
ATOM     17  C   UNL     1      -0.643 -22.161  -9.761  1.00  0.00     0.115 A 
BRANCH  17  18
ATOM     18  O   UNL     1      -0.629 -23.476 -10.217  1.00  0.00    -0.508 OA
ATOM     19  H   UNL     1      -1.370 -24.127  -9.983  1.00  0.00     0.293 HD
ENDBRANCH  17  18
ENDBRANCH   2  12
BRANCH   8  20
ATOM     20  O   UNL     1      -2.518 -13.833  -5.896  1.00  0.00    -0.507 OA
ATOM     21  H   UNL     1      -3.144 -13.481  -5.188  1.00  0.00     0.293 HD
ENDBRANCH   8  20
BRANCH   6  22
ATOM     22  O   UNL     1       0.863 -15.556  -2.960  1.00  0.00    -0.508 OA
ATOM     23  H   UNL     1       1.211 -16.367  -2.461  1.00  0.00     0.293 HD
ENDBRANCH   6  22
TORSDOF 4
ENDMDL
MODEL 6
REMARK VINA RESULT:    -5.224      1.664      6.671
REMARK INTER + INTRA:          -6.299
REMARK INTER:                  -5.989
REMARK INTRA:                  -0.310
REMARK UNBOUND:                -0.312
REMARK SMILES O=C1C[C@H](c2ccc(O)cc2)Oc2cc(O)cc(O)c21
REMARK SMILES IDX 3 1 4 2 12 3 13 4 14 5 15 6 17 7 18 8 20 9 2 10 1 11 5 12
REMARK SMILES IDX 6 13 11 14 7 15 10 16 8 17 9 18 19 20 16 22
REMARK H PARENT 9 19 19 21 16 23
REMARK Flexibility Score: inf
ROOT
ATOM      1  C   UNL     1       1.287 -18.528  -7.127  1.00  0.00     0.131 C 
ATOM      2  C   UNL     1       0.451 -17.671  -8.088  1.00  0.00     0.211 C 
ATOM      3  O   UNL     1      -0.718 -18.382  -8.508  1.00  0.00    -0.484 OA
ATOM      4  C   UNL     1      -0.705 -19.753  -8.797  1.00  0.00     0.138 A 
ATOM      5  C   UNL     1      -1.798 -20.315  -9.461  1.00  0.00     0.093 A 
ATOM      6  C   UNL     1      -1.808 -21.677  -9.775  1.00  0.00     0.123 A 
ATOM      7  C   UNL     1      -0.733 -22.485  -9.399  1.00  0.00     0.093 A 
ATOM      8  C   UNL     1       0.355 -21.950  -8.697  1.00  0.00     0.133 A 
ATOM      9  C   UNL     1       0.391 -20.559  -8.417  1.00  0.00     0.102 A 
ATOM     10  C   UNL     1       1.522 -19.873  -7.745  1.00  0.00     0.174 C 
ATOM     11  O   UNL     1       2.681 -20.366  -7.728  1.00  0.00    -0.294 OA
ENDROOT
BRANCH   2  12
ATOM     12  C   UNL     1       0.057 -16.367  -7.438  1.00  0.00    -0.007 A 
ATOM     13  C   UNL     1      -0.991 -15.593  -7.967  1.00  0.00     0.011 A 
ATOM     14  C   UNL     1       0.699 -15.940  -6.264  1.00  0.00     0.011 A 
ATOM     15  C   UNL     1      -1.372 -14.402  -7.343  1.00  0.00     0.046 A 
ATOM     16  C   UNL     1       0.316 -14.748  -5.642  1.00  0.00     0.046 A 
ATOM     17  C   UNL     1      -0.719 -13.975  -6.179  1.00  0.00     0.115 A 
BRANCH  17  18
ATOM     18  O   UNL     1      -1.090 -12.789  -5.550  1.00  0.00    -0.508 OA
ATOM     19  H   UNL     1      -2.034 -12.426  -5.619  1.00  0.00     0.293 HD
ENDBRANCH  17  18
ENDBRANCH   2  12
BRANCH   8  20
ATOM     20  O   UNL     1       1.346 -22.840  -8.274  1.00  0.00    -0.507 OA
ATOM     21  H   UNL     1       1.635 -22.947  -7.313  1.00  0.00     0.293 HD
ENDBRANCH   8  20
BRANCH   6  22
ATOM     22  O   UNL     1      -2.885 -22.241 -10.457  1.00  0.00    -0.508 OA
ATOM     23  H   UNL     1      -2.897 -23.223 -10.709  1.00  0.00     0.293 HD
ENDBRANCH   6  22
TORSDOF 4
ENDMDL
MODEL 7
REMARK VINA RESULT:    -5.223     11.454     14.022
REMARK INTER + INTRA:          -6.298
REMARK INTER:                  -5.980
REMARK INTRA:                  -0.319
REMARK UNBOUND:                -0.312
REMARK SMILES O=C1C[C@H](c2ccc(O)cc2)Oc2cc(O)cc(O)c21
REMARK SMILES IDX 3 1 4 2 12 3 13 4 14 5 15 6 17 7 18 8 20 9 2 10 1 11 5 12
REMARK SMILES IDX 6 13 11 14 7 15 10 16 8 17 9 18 19 20 16 22
REMARK H PARENT 9 19 19 21 16 23
REMARK Flexibility Score: inf
ROOT
ATOM      1  C   UNL     1      10.618 -18.039  -6.709  1.00  0.00     0.131 C 
ATOM      2  C   UNL     1      11.962 -17.410  -6.318  1.00  0.00     0.211 C 
ATOM      3  O   UNL     1      12.681 -16.996  -7.483  1.00  0.00    -0.484 OA
ATOM      4  C   UNL     1      12.703 -17.748  -8.665  1.00  0.00     0.138 A 
ATOM      5  C   UNL     1      13.638 -17.429  -9.653  1.00  0.00     0.093 A 
ATOM      6  C   UNL     1      13.693 -18.170 -10.837  1.00  0.00     0.123 A 
ATOM      7  C   UNL     1      12.790 -19.215 -11.044  1.00  0.00     0.093 A 
ATOM      8  C   UNL     1      11.818 -19.525 -10.085  1.00  0.00     0.133 A 
ATOM      9  C   UNL     1      11.790 -18.807  -8.861  1.00  0.00     0.102 A 
ATOM     10  C   UNL     1      10.853 -19.095  -7.747  1.00  0.00     0.174 C 
ATOM     11  O   UNL     1      10.295 -20.218  -7.623  1.00  0.00    -0.294 OA
ENDROOT
BRANCH   2  12
ATOM     12  C   UNL     1      11.754 -16.236  -5.393  1.00  0.00    -0.007 A 
ATOM     13  C   UNL     1      12.607 -15.119  -5.453  1.00  0.00     0.011 A 
ATOM     14  C   UNL     1      10.670 -16.222  -4.499  1.00  0.00     0.011 A 
ATOM     15  C   UNL     1      12.392 -14.021  -4.616  1.00  0.00     0.046 A 
ATOM     16  C   UNL     1      10.457 -15.122  -3.663  1.00  0.00     0.046 A 
ATOM     17  C   UNL     1      11.316 -14.020  -3.717  1.00  0.00     0.115 A 
BRANCH  17  18
ATOM     18  O   UNL     1      11.092 -12.931  -2.878  1.00  0.00    -0.508 OA
ATOM     19  H   UNL     1      11.777 -12.644  -2.189  1.00  0.00     0.293 HD
ENDBRANCH  17  18
ENDBRANCH   2  12
BRANCH   8  20
ATOM     20  O   UNL     1      10.893 -20.522 -10.407  1.00  0.00    -0.507 OA
ATOM     21  H   UNL     1      10.532 -20.678 -11.337  1.00  0.00     0.293 HD
ENDBRANCH   8  20
BRANCH   6  22
ATOM     22  O   UNL     1      14.637 -17.873 -11.818  1.00  0.00    -0.508 OA
ATOM     23  H   UNL     1      15.082 -18.603 -12.363  1.00  0.00     0.293 HD
ENDBRANCH   6  22
TORSDOF 4
ENDMDL
MODEL 8
REMARK VINA RESULT:    -5.197      2.479      7.389
REMARK INTER + INTRA:          -6.269
REMARK INTER:                  -5.955
REMARK INTRA:                  -0.314
REMARK UNBOUND:                -0.312
REMARK SMILES O=C1C[C@H](c2ccc(O)cc2)Oc2cc(O)cc(O)c21
REMARK SMILES IDX 3 1 4 2 12 3 13 4 14 5 15 6 17 7 18 8 20 9 2 10 1 11 5 12
REMARK SMILES IDX 6 13 11 14 7 15 10 16 8 17 9 18 19 20 16 22
REMARK H PARENT 9 19 19 21 16 23
REMARK Flexibility Score: inf
ROOT
ATOM      1  C   UNL     1       1.076 -15.631  -5.165  1.00  0.00     0.131 C 
ATOM      2  C   UNL     1       0.061 -14.974  -6.109  1.00  0.00     0.211 C 
ATOM      3  O   UNL     1      -0.757 -15.966  -6.737  1.00  0.00    -0.484 OA
ATOM      4  C   UNL     1      -0.249 -17.195  -7.178  1.00  0.00     0.138 A 
ATOM      5  C   UNL     1      -1.032 -17.988  -8.021  1.00  0.00     0.093 A 
ATOM      6  C   UNL     1      -0.547 -19.213  -8.488  1.00  0.00     0.123 A 
ATOM      7  C   UNL     1       0.714 -19.658  -8.088  1.00  0.00     0.093 A 
ATOM      8  C   UNL     1       1.499 -18.899  -7.212  1.00  0.00     0.133 A 
ATOM      9  C   UNL     1       1.031 -17.633  -6.772  1.00  0.00     0.102 A 
ATOM     10  C   UNL     1       1.805 -16.714  -5.903  1.00  0.00     0.174 C 
ATOM     11  O   UNL     1       3.060 -16.785  -5.812  1.00  0.00    -0.294 OA
ENDROOT
BRANCH   2  12
ATOM     12  C   UNL     1      -0.804 -13.988  -5.363  1.00  0.00    -0.007 A 
ATOM     13  C   UNL     1      -2.178 -14.232  -5.185  1.00  0.00     0.011 A 
ATOM     14  C   UNL     1      -0.234 -12.840  -4.788  1.00  0.00     0.011 A 
ATOM     15  C   UNL     1      -2.968 -13.331  -4.467  1.00  0.00     0.046 A 
ATOM     16  C   UNL     1      -1.027 -11.940  -4.070  1.00  0.00     0.046 A 
ATOM     17  C   UNL     1      -2.395 -12.181  -3.907  1.00  0.00     0.115 A 
BRANCH  17  18
ATOM     18  O   UNL     1      -3.173 -11.277  -3.190  1.00  0.00    -0.508 OA
ATOM     19  H   UNL     1      -3.064 -11.160  -2.189  1.00  0.00     0.293 HD
ENDBRANCH  17  18
ENDBRANCH   2  12
BRANCH   8  20
ATOM     20  O   UNL     1       2.708 -19.456  -6.784  1.00  0.00    -0.507 OA
ATOM     21  H   UNL     1       3.469 -19.693  -7.402  1.00  0.00     0.293 HD
ENDBRANCH   8  20
BRANCH   6  22
ATOM     22  O   UNL     1      -1.312 -19.999  -9.347  1.00  0.00    -0.508 OA
ATOM     23  H   UNL     1      -1.083 -20.972  -9.521  1.00  0.00     0.293 HD
ENDBRANCH   6  22
TORSDOF 4
ENDMDL
MODEL 9
REMARK VINA RESULT:    -5.177      3.369      5.471
REMARK INTER + INTRA:          -6.246
REMARK INTER:                  -5.943
REMARK INTRA:                  -0.303
REMARK UNBOUND:                -0.312
REMARK SMILES O=C1C[C@H](c2ccc(O)cc2)Oc2cc(O)cc(O)c21
REMARK SMILES IDX 3 1 4 2 12 3 13 4 14 5 15 6 17 7 18 8 20 9 2 10 1 11 5 12
REMARK SMILES IDX 6 13 11 14 7 15 10 16 8 17 9 18 19 20 16 22
REMARK H PARENT 9 19 19 21 16 23
REMARK Flexibility Score: inf
ROOT
ATOM      1  C   UNL     1       0.997 -18.142  -7.025  1.00  0.00     0.131 C 
ATOM      2  C   UNL     1       2.105 -17.312  -6.364  1.00  0.00     0.211 C 
ATOM      3  O   UNL     1       1.544 -16.226  -5.620  1.00  0.00    -0.484 OA
ATOM      4  C   UNL     1       0.443 -15.488  -6.075  1.00  0.00     0.138 A 
ATOM      5  C   UNL     1       0.128 -14.283  -5.443  1.00  0.00     0.093 A 
ATOM      6  C   UNL     1      -0.955 -13.517  -5.883  1.00  0.00     0.123 A 
ATOM      7  C   UNL     1      -1.743 -13.973  -6.942  1.00  0.00     0.093 A 
ATOM      8  C   UNL     1      -1.470 -15.198  -7.564  1.00  0.00     0.133 A 
ATOM      9  C   UNL     1      -0.343 -15.955  -7.151  1.00  0.00     0.102 A 
ATOM     10  C   UNL     1       0.083 -17.228  -7.784  1.00  0.00     0.174 C 
ATOM     11  O   UNL     1      -0.259 -17.532  -8.958  1.00  0.00    -0.294 OA
ENDROOT
BRANCH   2  12
ATOM     12  C   UNL     1       2.953 -18.173  -5.461  1.00  0.00    -0.007 A 
ATOM     13  C   UNL     1       3.945 -17.596  -4.647  1.00  0.00     0.011 A 
ATOM     14  C   UNL     1       2.723 -19.557  -5.383  1.00  0.00     0.011 A 
ATOM     15  C   UNL     1       4.707 -18.395  -3.790  1.00  0.00     0.046 A 
ATOM     16  C   UNL     1       3.487 -20.353  -4.524  1.00  0.00     0.046 A 
ATOM     17  C   UNL     1       4.480 -19.777  -3.726  1.00  0.00     0.115 A 
BRANCH  17  18
ATOM     18  O   UNL     1       5.234 -20.581  -2.876  1.00  0.00    -0.508 OA
ATOM     19  H   UNL     1       6.223 -20.737  -3.032  1.00  0.00     0.293 HD
ENDBRANCH  17  18
ENDBRANCH   2  12
BRANCH   8  20
ATOM     20  O   UNL     1      -2.359 -15.629  -8.552  1.00  0.00    -0.507 OA
ATOM     21  H   UNL     1      -3.267 -15.218  -8.713  1.00  0.00     0.293 HD
ENDBRANCH   8  20
BRANCH   6  22
ATOM     22  O   UNL     1      -1.263 -12.303  -5.272  1.00  0.00    -0.508 OA
ATOM     23  H   UNL     1      -2.219 -11.976  -5.194  1.00  0.00     0.293 HD
ENDBRANCH   6  22
TORSDOF 4
ENDMDL
