MODEL 1
REMARK VINA RESULT:    -6.266      0.000      0.000
REMARK INTER + INTRA:          -6.266
REMARK INTER:                  -6.266
REMARK INTRA:                   0.000
REMARK UNBOUND:                 0.000
REMARK SMILES O=c1ccc2ccc3occc3c2o1
REMARK SMILES IDX 6 1 7 2 8 3 12 4 11 5 10 6 9 7 13 8 5 9 4 10 3 11 2 12 1 13
REMARK SMILES IDX 14 14
REMARK H PARENT
REMARK Flexibility Score: inf
ROOT
ATOM      1  C   UNL     1       3.276  28.733  54.676  1.00  0.00     0.016 A 
ATOM      2  C   UNL     1       4.364  28.105  55.313  1.00  0.00     0.048 A 
ATOM      3  C   UNL     1       4.197  27.683  56.631  1.00  0.00     0.137 A 
ATOM      4  C   UNL     1       3.021  27.865  57.306  1.00  0.00     0.064 A 
ATOM      5  C   UNL     1       3.197  27.340  58.566  1.00  0.00     0.054 A 
ATOM      6  C   UNL     1       4.504  26.865  58.566  1.00  0.00     0.196 A 
ATOM      7  O   UNL     1       5.077  27.084  57.396  1.00  0.00    -0.464 OA
ATOM      8  C   UNL     1       1.922  28.481  56.712  1.00  0.00     0.149 A 
ATOM      9  C   UNL     1       2.056  28.922  55.371  1.00  0.00     0.018 A 
ATOM     10  C   UNL     1       0.957  29.542  54.769  1.00  0.00     0.019 A 
ATOM     11  C   UNL     1      -0.222  29.704  55.498  1.00  0.00     0.094 A 
ATOM     12  C   UNL     1      -0.277  29.241  56.819  1.00  0.00     0.336 A 
ATOM     13  O   UNL     1      -1.334  29.380  57.490  1.00  0.00    -0.246 OA
ATOM     14  O   UNL     1       0.781  28.653  57.374  1.00  0.00    -0.422 OA
ENDROOT
TORSDOF 0
ENDMDL
MODEL 2
REMARK VINA RESULT:    -6.159      1.183      4.264
REMARK INTER + INTRA:          -6.159
REMARK INTER:                  -6.159
REMARK INTRA:                   0.000
REMARK UNBOUND:                 0.000
REMARK SMILES O=c1ccc2ccc3occc3c2o1
REMARK SMILES IDX 6 1 7 2 8 3 12 4 11 5 10 6 9 7 13 8 5 9 4 10 3 11 2 12 1 13
REMARK SMILES IDX 14 14
REMARK H PARENT
REMARK Flexibility Score: inf
ROOT
ATOM      1  C   UNL     1       2.686  29.108  54.483  1.00  0.00     0.016 A 
ATOM      2  C   UNL     1       1.391  29.661  54.479  1.00  0.00     0.048 A 
ATOM      3  C   UNL     1       0.636  29.570  55.647  1.00  0.00     0.137 A 
ATOM      4  C   UNL     1       1.119  28.966  56.776  1.00  0.00     0.064 A 
ATOM      5  C   UNL     1       0.131  29.050  57.730  1.00  0.00     0.054 A 
ATOM      6  C   UNL     1      -0.911  29.717  57.094  1.00  0.00     0.196 A 
ATOM      7  O   UNL     1      -0.581  30.015  55.850  1.00  0.00    -0.464 OA
ATOM      8  C   UNL     1       2.395  28.409  56.820  1.00  0.00     0.149 A 
ATOM      9  C   UNL     1       3.191  28.484  55.649  1.00  0.00     0.018 A 
ATOM     10  C   UNL     1       4.472  27.926  55.688  1.00  0.00     0.019 A 
ATOM     11  C   UNL     1       4.921  27.321  56.862  1.00  0.00     0.094 A 
ATOM     12  C   UNL     1       4.076  27.287  57.979  1.00  0.00     0.336 A 
ATOM     13  O   UNL     1       4.467  26.745  59.046  1.00  0.00    -0.246 OA
ATOM     14  O   UNL     1       2.860  27.824  57.922  1.00  0.00    -0.422 OA
ENDROOT
TORSDOF 0
ENDMDL
MODEL 3
REMARK VINA RESULT:    -5.366      2.383      3.641
REMARK INTER + INTRA:          -5.366
REMARK INTER:                  -5.366
REMARK INTRA:                   0.000
REMARK UNBOUND:                 0.000
REMARK SMILES O=c1ccc2ccc3occc3c2o1
REMARK SMILES IDX 6 1 7 2 8 3 12 4 11 5 10 6 9 7 13 8 5 9 4 10 3 11 2 12 1 13
REMARK SMILES IDX 14 14
REMARK H PARENT
REMARK Flexibility Score: inf
ROOT
ATOM      1  C   UNL     1       1.810  28.385  56.702  1.00  0.00     0.016 A 
ATOM      2  C   UNL     1       2.219  27.751  57.891  1.00  0.00     0.048 A 
ATOM      3  C   UNL     1       3.572  27.448  58.040  1.00  0.00     0.137 A 
ATOM      4  C   UNL     1       4.492  27.749  57.073  1.00  0.00     0.064 A 
ATOM      5  C   UNL     1       5.714  27.319  57.536  1.00  0.00     0.054 A 
ATOM      6  C   UNL     1       5.442  26.773  58.786  1.00  0.00     0.196 A 
ATOM      7  O   UNL     1       4.153  26.863  59.060  1.00  0.00    -0.464 OA
ATOM      8  C   UNL     1       4.128  28.376  55.884  1.00  0.00     0.149 A 
ATOM      9  C   UNL     1       2.759  28.699  55.698  1.00  0.00     0.018 A 
ATOM     10  C   UNL     1       2.388  29.329  54.507  1.00  0.00     0.019 A 
ATOM     11  C   UNL     1       3.362  29.616  53.551  1.00  0.00     0.094 A 
ATOM     12  C   UNL     1       4.694  29.266  53.807  1.00  0.00     0.336 A 
ATOM     13  O   UNL     1       5.586  29.518  52.954  1.00  0.00    -0.246 OA
ATOM     14  O   UNL     1       5.028  28.667  54.948  1.00  0.00    -0.422 OA
ENDROOT
TORSDOF 0
ENDMDL
MODEL 4
REMARK VINA RESULT:    -5.280      2.057      3.381
REMARK INTER + INTRA:          -5.280
REMARK INTER:                  -5.280
REMARK INTRA:                   0.000
REMARK UNBOUND:                 0.000
REMARK SMILES O=c1ccc2ccc3occc3c2o1
REMARK SMILES IDX 6 1 7 2 8 3 12 4 11 5 10 6 9 7 13 8 5 9 4 10 3 11 2 12 1 13
REMARK SMILES IDX 14 14
REMARK H PARENT
REMARK Flexibility Score: inf
ROOT
ATOM      1  C   UNL     1       4.303  28.562  57.119  1.00  0.00     0.016 A 
ATOM      2  C   UNL     1       5.429  28.895  56.342  1.00  0.00     0.048 A 
ATOM      3  C   UNL     1       5.221  29.287  55.021  1.00  0.00     0.137 A 
ATOM      4  C   UNL     1       3.968  29.353  54.474  1.00  0.00     0.064 A 
ATOM      5  C   UNL     1       4.121  29.768  53.172  1.00  0.00     0.054 A 
ATOM      6  C   UNL     1       5.493  29.930  53.015  1.00  0.00     0.196 A 
ATOM      7  O   UNL     1       6.125  29.634  54.137  1.00  0.00    -0.464 OA
ATOM      8  C   UNL     1       2.829  29.032  55.210  1.00  0.00     0.149 A 
ATOM      9  C   UNL     1       3.004  28.630  56.558  1.00  0.00     0.018 A 
ATOM     10  C   UNL     1       1.865  28.306  57.302  1.00  0.00     0.019 A 
ATOM     11  C   UNL     1       0.609  28.389  56.701  1.00  0.00     0.094 A 
ATOM     12  C   UNL     1       0.517  28.796  55.364  1.00  0.00     0.336 A 
ATOM     13  O   UNL     1      -0.610  28.875  54.807  1.00  0.00    -0.246 OA
ATOM     14  O   UNL     1       1.614  29.099  54.673  1.00  0.00    -0.422 OA
ENDROOT
TORSDOF 0
ENDMDL
MODEL 5
REMARK VINA RESULT:    -5.239      8.198      9.884
REMARK INTER + INTRA:          -5.239
REMARK INTER:                  -5.239
REMARK INTRA:                   0.000
REMARK UNBOUND:                 0.000
REMARK SMILES O=c1ccc2ccc3occc3c2o1
REMARK SMILES IDX 6 1 7 2 8 3 12 4 11 5 10 6 9 7 13 8 5 9 4 10 3 11 2 12 1 13
REMARK SMILES IDX 14 14
REMARK H PARENT
REMARK Flexibility Score: inf
ROOT
ATOM      1  C   UNL     1      -8.586  31.302  57.775  1.00  0.00     0.016 A 
ATOM      2  C   UNL     1      -7.741  31.949  58.697  1.00  0.00     0.048 A 
ATOM      3  C   UNL     1      -6.485  31.394  58.936  1.00  0.00     0.137 A 
ATOM      4  C   UNL     1      -6.064  30.255  58.304  1.00  0.00     0.064 A 
ATOM      5  C   UNL     1      -4.796  29.988  58.763  1.00  0.00     0.054 A 
ATOM      6  C   UNL     1      -4.528  31.010  59.667  1.00  0.00     0.196 A 
ATOM      7  O   UNL     1      -5.556  31.836  59.749  1.00  0.00    -0.464 OA
ATOM      8  C   UNL     1      -6.870  29.587  57.385  1.00  0.00     0.149 A 
ATOM      9  C   UNL     1      -8.155  30.124  57.118  1.00  0.00     0.018 A 
ATOM     10  C   UNL     1      -8.969  29.458  56.197  1.00  0.00     0.019 A 
ATOM     11  C   UNL     1      -8.496  28.300  55.577  1.00  0.00     0.094 A 
ATOM     12  C   UNL     1      -7.214  27.832  55.893  1.00  0.00     0.336 A 
ATOM     13  O   UNL     1      -6.773  26.788  55.343  1.00  0.00    -0.246 OA
ATOM     14  O   UNL     1      -6.455  28.481  56.773  1.00  0.00    -0.422 OA
ENDROOT
TORSDOF 0
ENDMDL
MODEL 6
REMARK VINA RESULT:    -5.232      8.233     10.066
REMARK INTER + INTRA:          -5.232
REMARK INTER:                  -5.232
REMARK INTRA:                   0.000
REMARK UNBOUND:                 0.000
REMARK SMILES O=c1ccc2ccc3occc3c2o1
REMARK SMILES IDX 6 1 7 2 8 3 12 4 11 5 10 6 9 7 13 8 5 9 4 10 3 11 2 12 1 13
REMARK SMILES IDX 14 14
REMARK H PARENT
REMARK Flexibility Score: inf
ROOT
ATOM      1  C   UNL     1      -6.681  28.322  57.054  1.00  0.00     0.016 A 
ATOM      2  C   UNL     1      -5.569  28.615  57.867  1.00  0.00     0.048 A 
ATOM      3  C   UNL     1      -5.550  29.838  58.536  1.00  0.00     0.137 A 
ATOM      4  C   UNL     1      -6.572  30.742  58.422  1.00  0.00     0.064 A 
ATOM      5  C   UNL     1      -6.238  31.824  59.202  1.00  0.00     0.054 A 
ATOM      6  C   UNL     1      -5.003  31.493  59.749  1.00  0.00     0.196 A 
ATOM      7  O   UNL     1      -4.617  30.299  59.333  1.00  0.00    -0.464 OA
ATOM      8  C   UNL     1      -7.689  30.488  57.629  1.00  0.00     0.149 A 
ATOM      9  C   UNL     1      -7.741  29.254  56.933  1.00  0.00     0.018 A 
ATOM     10  C   UNL     1      -8.859  28.994  56.135  1.00  0.00     0.019 A 
ATOM     11  C   UNL     1      -9.875  29.947  56.050  1.00  0.00     0.094 A 
ATOM     12  C   UNL     1      -9.752  31.143  56.768  1.00  0.00     0.336 A 
ATOM     13  O   UNL     1     -10.660  32.013  56.701  1.00  0.00    -0.246 OA
ATOM     14  O   UNL     1      -8.679  31.371  57.522  1.00  0.00    -0.422 OA
ENDROOT
TORSDOF 0
ENDMDL
MODEL 7
REMARK VINA RESULT:    -5.191      2.169      4.470
REMARK INTER + INTRA:          -5.191
REMARK INTER:                  -5.191
REMARK INTRA:                   0.000
REMARK UNBOUND:                 0.000
REMARK SMILES O=c1ccc2ccc3occc3c2o1
REMARK SMILES IDX 6 1 7 2 8 3 12 4 11 5 10 6 9 7 13 8 5 9 4 10 3 11 2 12 1 13
REMARK SMILES IDX 14 14
REMARK H PARENT
REMARK Flexibility Score: inf
ROOT
ATOM      1  C   UNL     1       3.468  28.042  57.183  1.00  0.00     0.016 A 
ATOM      2  C   UNL     1       2.210  28.064  57.815  1.00  0.00     0.048 A 
ATOM      3  C   UNL     1       1.134  28.609  57.117  1.00  0.00     0.137 A 
ATOM      4  C   UNL     1       1.273  29.115  55.853  1.00  0.00     0.064 A 
ATOM      5  C   UNL     1       0.034  29.567  55.463  1.00  0.00     0.054 A 
ATOM      6  C   UNL     1      -0.793  29.297  56.548  1.00  0.00     0.196 A 
ATOM      7  O   UNL     1      -0.107  28.725  57.522  1.00  0.00    -0.464 OA
ATOM      8  C   UNL     1       2.500  29.111  55.193  1.00  0.00     0.149 A 
ATOM      9  C   UNL     1       3.617  28.563  55.874  1.00  0.00     0.018 A 
ATOM     10  C   UNL     1       4.851  28.556  55.217  1.00  0.00     0.019 A 
ATOM     11  C   UNL     1       4.943  29.083  53.928  1.00  0.00     0.094 A 
ATOM     12  C   UNL     1       3.795  29.607  53.321  1.00  0.00     0.336 A 
ATOM     13  O   UNL     1       3.862  30.086  52.158  1.00  0.00    -0.246 OA
ATOM     14  O   UNL     1       2.629  29.603  53.963  1.00  0.00    -0.422 OA
ENDROOT
TORSDOF 0
ENDMDL
MODEL 8
REMARK VINA RESULT:    -5.179      2.230      4.654
REMARK INTER + INTRA:          -5.179
REMARK INTER:                  -5.179
REMARK INTRA:                   0.000
REMARK UNBOUND:                 0.000
REMARK SMILES O=c1ccc2ccc3occc3c2o1
REMARK SMILES IDX 6 1 7 2 8 3 12 4 11 5 10 6 9 7 13 8 5 9 4 10 3 11 2 12 1 13
REMARK SMILES IDX 14 14
REMARK H PARENT
REMARK Flexibility Score: inf
ROOT
ATOM      1  C   UNL     1       1.533  28.664  56.355  1.00  0.00     0.016 A 
ATOM      2  C   UNL     1       1.588  29.252  55.077  1.00  0.00     0.048 A 
ATOM      3  C   UNL     1       2.818  29.286  54.422  1.00  0.00     0.137 A 
ATOM      4  C   UNL     1       3.952  28.768  54.986  1.00  0.00     0.064 A 
ATOM      5  C   UNL     1       4.973  28.964  54.085  1.00  0.00     0.054 A 
ATOM      6  C   UNL     1       4.370  29.605  53.008  1.00  0.00     0.196 A 
ATOM      7  O   UNL     1       3.081  29.784  53.238  1.00  0.00    -0.464 OA
ATOM      8  C   UNL     1       3.940  28.177  56.247  1.00  0.00     0.149 A 
ATOM      9  C   UNL     1       2.705  28.126  56.942  1.00  0.00     0.018 A 
ATOM     10  C   UNL     1       2.686  27.534  58.209  1.00  0.00     0.019 A 
ATOM     11  C   UNL     1       3.868  27.020  58.742  1.00  0.00     0.094 A 
ATOM     12  C   UNL     1       5.049  27.107  57.994  1.00  0.00     0.336 A 
ATOM     13  O   UNL     1       6.125  26.648  58.461  1.00  0.00    -0.246 OA
ATOM     14  O   UNL     1       5.046  27.675  56.790  1.00  0.00    -0.422 OA
ENDROOT
TORSDOF 0
ENDMDL
MODEL 9
REMARK VINA RESULT:    -4.876      8.712     10.417
REMARK INTER + INTRA:          -4.876
REMARK INTER:                  -4.876
REMARK INTRA:                   0.000
REMARK UNBOUND:                 0.000
REMARK SMILES O=c1ccc2ccc3occc3c2o1
REMARK SMILES IDX 6 1 7 2 8 3 12 4 11 5 10 6 9 7 13 8 5 9 4 10 3 11 2 12 1 13
REMARK SMILES IDX 14 14
REMARK H PARENT
REMARK Flexibility Score: inf
ROOT
ATOM      1  C   UNL     1      -9.126  30.927  56.996  1.00  0.00     0.016 A 
ATOM      2  C   UNL     1      -9.428  29.894  56.088  1.00  0.00     0.048 A 
ATOM      3  C   UNL     1      -8.506  28.858  55.944  1.00  0.00     0.137 A 
ATOM      4  C   UNL     1      -7.335  28.827  56.652  1.00  0.00     0.064 A 
ATOM      5  C   UNL     1      -6.669  27.685  56.274  1.00  0.00     0.054 A 
ATOM      6  C   UNL     1      -7.504  27.087  55.336  1.00  0.00     0.196 A 
ATOM      7  O   UNL     1      -8.595  27.812  55.159  1.00  0.00    -0.464 OA
ATOM      8  C   UNL     1      -7.001  29.830  57.559  1.00  0.00     0.149 A 
ATOM      9  C   UNL     1      -7.916  30.899  57.732  1.00  0.00     0.018 A 
ATOM     10  C   UNL     1      -7.586  31.908  58.641  1.00  0.00     0.019 A 
ATOM     11  C   UNL     1      -6.381  31.833  59.340  1.00  0.00     0.094 A 
ATOM     12  C   UNL     1      -5.529  30.744  59.116  1.00  0.00     0.336 A 
ATOM     13  O   UNL     1      -4.437  30.661  59.739  1.00  0.00    -0.246 OA
ATOM     14  O   UNL     1      -5.862  29.793  58.246  1.00  0.00    -0.422 OA
ENDROOT
TORSDOF 0
ENDMDL
