MODEL 1
REMARK VINA RESULT:    -2.796      0.000      0.000
REMARK INTER + INTRA:          -6.613
REMARK INTER:                  -4.758
REMARK INTRA:                  -1.854
REMARK UNBOUND:                -1.854
REMARK SMILES CCCCCCCCCCCCCC(=O)[O-]
REMARK SMILES IDX 8 1 9 2 10 3 11 4 12 5 13 6 14 7 15 8 16 9 7 10 6 11 5 12
REMARK SMILES IDX 4 13 3 14 2 15 1 16
REMARK H PARENT
REMARK Flexibility Score: inf
ROOT
ATOM      1  C   UNL     1       9.915   7.310  -9.161  1.00  0.00     0.000 C 
ENDROOT
BRANCH   1   2
ATOM      2  C   UNL     1       9.559   7.038  -7.688  1.00  0.00     0.000 C 
BRANCH   2   3
ATOM      3  C   UNL     1       8.150   7.520  -7.316  1.00  0.00     0.000 C 
BRANCH   3   4
ATOM      4  C   UNL     1       7.114   6.410  -7.539  1.00  0.00     0.000 C 
BRANCH   4   5
ATOM      5  C   UNL     1       6.747   5.665  -6.242  1.00  0.00     0.006 C 
BRANCH   5   6
ATOM      6  C   UNL     1       5.398   6.082  -5.634  1.00  0.00     0.053 C 
BRANCH   6   7
ATOM      7  C   UNL     1       5.546   7.209  -4.659  1.00  0.00     0.041 C 
ATOM      8  O   UNL     1       5.627   8.397  -5.069  1.00  0.00    -0.550 OA
ATOM      9  O   UNL     1       5.628   6.946  -3.297  1.00  0.00    -0.550 OA
ENDBRANCH   6   7
ENDBRANCH   5   6
ENDBRANCH   4   5
ENDBRANCH   3   4
ENDBRANCH   2   3
ENDBRANCH   1   2
BRANCH   1  10
ATOM     10  C   UNL     1      10.240   6.053  -9.994  1.00  0.00     0.000 C 
BRANCH  10  11
ATOM     11  C   UNL     1       9.021   5.357 -10.633  1.00  0.00    -0.000 C 
BRANCH  11  12
ATOM     12  C   UNL     1       8.934   3.842 -10.377  1.00  0.00    -0.000 C 
BRANCH  12  13
ATOM     13  C   UNL     1       7.694   3.448  -9.554  1.00  0.00    -0.000 C 
BRANCH  13  14
ATOM     14  C   UNL     1       8.060   2.791  -8.214  1.00  0.00    -0.000 C 
BRANCH  14  15
ATOM     15  C   UNL     1       9.563   2.873  -7.909  1.00  0.00    -0.003 C 
ATOM     16  C   UNL     1       9.817   3.597  -6.590  1.00  0.00     0.004 C 
ENDBRANCH  14  15
ENDBRANCH  13  14
ENDBRANCH  12  13
ENDBRANCH  11  12
ENDBRANCH  10  11
ENDBRANCH   1  10
TORSDOF 12
ENDMDL
MODEL 2
REMARK VINA RESULT:    -2.727     17.597     18.904
REMARK INTER + INTRA:          -6.494
REMARK INTER:                  -4.742
REMARK INTRA:                  -1.752
REMARK UNBOUND:                -1.854
REMARK SMILES CCCCCCCCCCCCCC(=O)[O-]
REMARK SMILES IDX 8 1 9 2 10 3 11 4 12 5 13 6 14 7 15 8 16 9 7 10 6 11 5 12
REMARK SMILES IDX 4 13 3 14 2 15 1 16
REMARK H PARENT
REMARK Flexibility Score: inf
ROOT
ATOM      1  C   UNL     1      16.724   2.370   7.648  1.00  0.00     0.000 C 
ENDROOT
BRANCH   1   2
ATOM      2  C   UNL     1      16.897   1.349   8.786  1.00  0.00     0.000 C 
BRANCH   2   3
ATOM      3  C   UNL     1      16.512  -0.078   8.371  1.00  0.00     0.000 C 
BRANCH   3   4
ATOM      4  C   UNL     1      15.789  -0.079   7.016  1.00  0.00     0.000 C 
BRANCH   4   5
ATOM      5  C   UNL     1      16.260  -1.213   6.087  1.00  0.00     0.006 C 
BRANCH   5   6
ATOM      6  C   UNL     1      16.099  -2.623   6.679  1.00  0.00     0.053 C 
BRANCH   6   7
ATOM      7  C   UNL     1      14.661  -2.984   6.887  1.00  0.00     0.041 C 
ATOM      8  O   UNL     1      14.157  -2.943   8.041  1.00  0.00    -0.550 OA
ATOM      9  O   UNL     1      13.884  -3.400   5.813  1.00  0.00    -0.550 OA
ENDBRANCH   6   7
ENDBRANCH   5   6
ENDBRANCH   4   5
ENDBRANCH   3   4
ENDBRANCH   2   3
ENDBRANCH   1   2
BRANCH   1  10
ATOM     10  C   UNL     1      17.663   3.592   7.722  1.00  0.00     0.000 C 
BRANCH  10  11
ATOM     11  C   UNL     1      19.094   3.289   8.211  1.00  0.00    -0.000 C 
BRANCH  11  12
ATOM     12  C   UNL     1      20.189   3.443   7.141  1.00  0.00    -0.000 C 
BRANCH  12  13
ATOM     13  C   UNL     1      20.410   2.157   6.325  1.00  0.00    -0.000 C 
BRANCH  13  14
ATOM     14  C   UNL     1      20.395   0.894   7.199  1.00  0.00    -0.000 C 
BRANCH  14  15
ATOM     15  C   UNL     1      19.746  -0.305   6.492  1.00  0.00    -0.003 C 
ATOM     16  C   UNL     1      19.776  -1.547   7.378  1.00  0.00     0.004 C 
ENDBRANCH  14  15
ENDBRANCH  13  14
ENDBRANCH  12  13
ENDBRANCH  11  12
ENDBRANCH  10  11
ENDBRANCH   1  10
TORSDOF 12
ENDMDL
MODEL 3
REMARK VINA RESULT:    -2.590     17.559     18.665
REMARK INTER + INTRA:          -6.261
REMARK INTER:                  -4.541
REMARK INTRA:                  -1.720
REMARK UNBOUND:                -1.854
REMARK SMILES CCCCCCCCCCCCCC(=O)[O-]
REMARK SMILES IDX 8 1 9 2 10 3 11 4 12 5 13 6 14 7 15 8 16 9 7 10 6 11 5 12
REMARK SMILES IDX 4 13 3 14 2 15 1 16
REMARK H PARENT
REMARK Flexibility Score: inf
ROOT
ATOM      1  C   UNL     1      18.109   3.441   7.710  1.00  0.00     0.000 C 
ENDROOT
BRANCH   1   2
ATOM      2  C   UNL     1      17.574   2.847   9.025  1.00  0.00     0.000 C 
BRANCH   2   3
ATOM      3  C   UNL     1      16.612   1.672   8.803  1.00  0.00     0.000 C 
BRANCH   3   4
ATOM      4  C   UNL     1      16.051   1.685   7.374  1.00  0.00     0.000 C 
BRANCH   4   5
ATOM      5  C   UNL     1      15.899   0.274   6.778  1.00  0.00     0.006 C 
BRANCH   5   6
ATOM      6  C   UNL     1      15.819  -0.849   7.824  1.00  0.00     0.053 C 
BRANCH   6   7
ATOM      7  C   UNL     1      15.004  -2.009   7.344  1.00  0.00     0.041 C 
ATOM      8  O   UNL     1      15.083  -2.387   6.145  1.00  0.00    -0.550 OA
ATOM      9  O   UNL     1      14.130  -2.654   8.210  1.00  0.00    -0.550 OA
ENDBRANCH   6   7
ENDBRANCH   5   6
ENDBRANCH   4   5
ENDBRANCH   3   4
ENDBRANCH   2   3
ENDBRANCH   1   2
BRANCH   1  10
ATOM     10  C   UNL     1      19.643   3.415   7.561  1.00  0.00     0.000 C 
BRANCH  10  11
ATOM     11  C   UNL     1      20.278   2.009   7.561  1.00  0.00    -0.000 C 
BRANCH  11  12
ATOM     12  C   UNL     1      20.094   1.217   6.255  1.00  0.00    -0.000 C 
BRANCH  12  13
ATOM     13  C   UNL     1      19.420  -0.148   6.477  1.00  0.00    -0.000 C 
BRANCH  13  14
ATOM     14  C   UNL     1      19.169  -0.903   5.162  1.00  0.00    -0.000 C 
BRANCH  14  15
ATOM     15  C   UNL     1      18.546  -2.288   5.387  1.00  0.00    -0.003 C 
ATOM     16  C   UNL     1      18.813  -2.788   6.803  1.00  0.00     0.004 C 
ENDBRANCH  14  15
ENDBRANCH  13  14
ENDBRANCH  12  13
ENDBRANCH  11  12
ENDBRANCH  10  11
ENDBRANCH   1  10
TORSDOF 12
ENDMDL
MODEL 4
REMARK VINA RESULT:    -2.588      2.138      3.950
REMARK INTER + INTRA:          -6.259
REMARK INTER:                  -4.434
REMARK INTRA:                  -1.824
REMARK UNBOUND:                -1.854
REMARK SMILES CCCCCCCCCCCCCC(=O)[O-]
REMARK SMILES IDX 8 1 9 2 10 3 11 4 12 5 13 6 14 7 15 8 16 9 7 10 6 11 5 12
REMARK SMILES IDX 4 13 3 14 2 15 1 16
REMARK H PARENT
REMARK Flexibility Score: inf
ROOT
ATOM      1  C   UNL     1       9.063   4.618 -10.126  1.00  0.00     0.000 C 
ENDROOT
BRANCH   1   2
ATOM      2  C   UNL     1      10.129   5.610  -9.626  1.00  0.00     0.000 C 
BRANCH   2   3
ATOM      3  C   UNL     1       9.533   6.957  -9.192  1.00  0.00     0.000 C 
BRANCH   3   4
ATOM      4  C   UNL     1       9.825   7.233  -7.710  1.00  0.00     0.000 C 
BRANCH   4   5
ATOM      5  C   UNL     1       8.988   8.394  -7.142  1.00  0.00     0.006 C 
BRANCH   5   6
ATOM      6  C   UNL     1       9.769   9.705  -6.960  1.00  0.00     0.053 C 
BRANCH   6   7
ATOM      7  C   UNL     1       9.472  10.360  -5.646  1.00  0.00     0.041 C 
ATOM      8  O   UNL     1       9.653  11.597  -5.499  1.00  0.00    -0.550 OA
ATOM      9  O   UNL     1       9.029   9.598  -4.573  1.00  0.00    -0.550 OA
ENDBRANCH   6   7
ENDBRANCH   5   6
ENDBRANCH   4   5
ENDBRANCH   3   4
ENDBRANCH   2   3
ENDBRANCH   1   2
BRANCH   1  10
ATOM     10  C   UNL     1       8.817   3.409  -9.201  1.00  0.00     0.000 C 
BRANCH  10  11
ATOM     11  C   UNL     1       9.618   3.418  -7.883  1.00  0.00    -0.000 C 
BRANCH  11  12
ATOM     12  C   UNL     1       8.831   3.896  -6.651  1.00  0.00    -0.000 C 
BRANCH  12  13
ATOM     13  C   UNL     1       7.310   3.911  -6.885  1.00  0.00    -0.000 C 
BRANCH  13  14
ATOM     14  C   UNL     1       6.597   4.998  -6.067  1.00  0.00    -0.000 C 
BRANCH  14  15
ATOM     15  C   UNL     1       6.162   6.193  -6.927  1.00  0.00    -0.003 C 
ATOM     16  C   UNL     1       6.020   5.793  -8.392  1.00  0.00     0.004 C 
ENDBRANCH  14  15
ENDBRANCH  13  14
ENDBRANCH  12  13
ENDBRANCH  11  12
ENDBRANCH  10  11
ENDBRANCH   1  10
TORSDOF 12
ENDMDL
MODEL 5
REMARK VINA RESULT:    -2.505      3.202      4.925
REMARK INTER + INTRA:          -6.117
REMARK INTER:                  -4.197
REMARK INTRA:                  -1.919
REMARK UNBOUND:                -1.854
REMARK SMILES CCCCCCCCCCCCCC(=O)[O-]
REMARK SMILES IDX 8 1 9 2 10 3 11 4 12 5 13 6 14 7 15 8 16 9 7 10 6 11 5 12
REMARK SMILES IDX 4 13 3 14 2 15 1 16
REMARK H PARENT
REMARK Flexibility Score: inf
ROOT
ATOM      1  C   UNL     1       7.108   7.922  -9.523  1.00  0.00     0.000 C 
ENDROOT
BRANCH   1   2
ATOM      2  C   UNL     1       6.115   7.236  -8.567  1.00  0.00     0.000 C 
BRANCH   2   3
ATOM      3  C   UNL     1       6.475   5.771  -8.284  1.00  0.00     0.000 C 
BRANCH   3   4
ATOM      4  C   UNL     1       7.249   5.642  -6.964  1.00  0.00     0.000 C 
BRANCH   4   5
ATOM      5  C   UNL     1       7.850   4.239  -6.757  1.00  0.00     0.006 C 
BRANCH   5   6
ATOM      6  C   UNL     1       7.505   3.235  -7.869  1.00  0.00     0.053 C 
BRANCH   6   7
ATOM      7  C   UNL     1       8.725   2.761  -8.597  1.00  0.00     0.041 C 
ATOM      8  O   UNL     1       9.116   3.358  -9.634  1.00  0.00    -0.550 OA
ATOM      9  O   UNL     1       9.411   1.639  -8.150  1.00  0.00    -0.550 OA
ENDBRANCH   6   7
ENDBRANCH   5   6
ENDBRANCH   4   5
ENDBRANCH   3   4
ENDBRANCH   2   3
ENDBRANCH   1   2
BRANCH   1  10
ATOM     10  C   UNL     1       7.999   6.961 -10.335  1.00  0.00     0.000 C 
BRANCH  10  11
ATOM     11  C   UNL     1       9.512   7.249 -10.260  1.00  0.00    -0.000 C 
BRANCH  11  12
ATOM     12  C   UNL     1      10.245   6.552  -9.100  1.00  0.00    -0.000 C 
BRANCH  12  13
ATOM     13  C   UNL     1      10.186   7.356  -7.789  1.00  0.00    -0.000 C 
BRANCH  13  14
ATOM     14  C   UNL     1      10.671   8.803  -7.962  1.00  0.00    -0.000 C 
BRANCH  14  15
ATOM     15  C   UNL     1       9.832   9.806  -7.156  1.00  0.00    -0.003 C 
ATOM     16  C   UNL     1       8.749   9.095  -6.351  1.00  0.00     0.004 C 
ENDBRANCH  14  15
ENDBRANCH  13  14
ENDBRANCH  12  13
ENDBRANCH  11  12
ENDBRANCH  10  11
ENDBRANCH   1  10
TORSDOF 12
ENDMDL
MODEL 6
REMARK VINA RESULT:    -2.498      2.847      4.994
REMARK INTER + INTRA:          -6.104
REMARK INTER:                  -4.455
REMARK INTRA:                  -1.649
REMARK UNBOUND:                -1.854
REMARK SMILES CCCCCCCCCCCCCC(=O)[O-]
REMARK SMILES IDX 8 1 9 2 10 3 11 4 12 5 13 6 14 7 15 8 16 9 7 10 6 11 5 12
REMARK SMILES IDX 4 13 3 14 2 15 1 16
REMARK H PARENT
REMARK Flexibility Score: inf
ROOT
ATOM      1  C   UNL     1      10.168   7.306  -7.755  1.00  0.00     0.000 C 
ENDROOT
BRANCH   1   2
ATOM      2  C   UNL     1      10.296   6.810  -9.206  1.00  0.00     0.000 C 
BRANCH   2   3
ATOM      3  C   UNL     1       9.006   6.999 -10.017  1.00  0.00     0.000 C 
BRANCH   3   4
ATOM      4  C   UNL     1       8.415   5.643 -10.431  1.00  0.00     0.000 C 
BRANCH   4   5
ATOM      5  C   UNL     1       9.211   4.449  -9.873  1.00  0.00     0.006 C 
BRANCH   5   6
ATOM      6  C   UNL     1       8.364   3.438  -9.085  1.00  0.00     0.053 C 
BRANCH   6   7
ATOM      7  C   UNL     1       9.188   2.649  -8.114  1.00  0.00     0.041 C 
ATOM      8  O   UNL     1       9.161   1.390  -8.136  1.00  0.00    -0.550 OA
ATOM      9  O   UNL     1       9.959   3.303  -7.162  1.00  0.00    -0.550 OA
ENDBRANCH   6   7
ENDBRANCH   5   6
ENDBRANCH   4   5
ENDBRANCH   3   4
ENDBRANCH   2   3
ENDBRANCH   1   2
BRANCH   1  10
ATOM     10  C   UNL     1       9.483   8.678  -7.594  1.00  0.00     0.000 C 
BRANCH  10  11
ATOM     11  C   UNL     1       8.192   8.669  -6.750  1.00  0.00    -0.000 C 
BRANCH  11  12
ATOM     12  C   UNL     1       6.887   8.683  -7.566  1.00  0.00    -0.000 C 
BRANCH  12  13
ATOM     13  C   UNL     1       5.973   7.487  -7.248  1.00  0.00    -0.000 C 
BRANCH  13  14
ATOM     14  C   UNL     1       6.751   6.169  -7.111  1.00  0.00    -0.000 C 
BRANCH  14  15
ATOM     15  C   UNL     1       6.297   5.339  -5.902  1.00  0.00    -0.003 C 
ATOM     16  C   UNL     1       5.616   6.217  -4.857  1.00  0.00     0.004 C 
ENDBRANCH  14  15
ENDBRANCH  13  14
ENDBRANCH  12  13
ENDBRANCH  11  12
ENDBRANCH  10  11
ENDBRANCH   1  10
TORSDOF 12
ENDMDL
MODEL 7
REMARK VINA RESULT:    -2.494     11.366     13.081
REMARK INTER + INTRA:          -6.097
REMARK INTER:                  -5.161
REMARK INTRA:                  -0.936
REMARK UNBOUND:                -1.854
REMARK SMILES CCCCCCCCCCCCCC(=O)[O-]
REMARK SMILES IDX 8 1 9 2 10 3 11 4 12 5 13 6 14 7 15 8 16 9 7 10 6 11 5 12
REMARK SMILES IDX 4 13 3 14 2 15 1 16
REMARK H PARENT
REMARK Flexibility Score: inf
ROOT
ATOM      1  C   UNL     1       9.229  -5.353  -0.806  1.00  0.00     0.000 C 
ENDROOT
BRANCH   1   2
ATOM      2  C   UNL     1       7.791  -5.069  -1.274  1.00  0.00     0.000 C 
BRANCH   2   3
ATOM      3  C   UNL     1       6.734  -5.498  -0.246  1.00  0.00     0.000 C 
BRANCH   3   4
ATOM      4  C   UNL     1       7.367  -5.710   1.136  1.00  0.00     0.000 C 
BRANCH   4   5
ATOM      5  C   UNL     1       6.416  -5.346   2.292  1.00  0.00     0.006 C 
BRANCH   5   6
ATOM      6  C   UNL     1       6.095  -3.847   2.397  1.00  0.00     0.053 C 
BRANCH   6   7
ATOM      7  C   UNL     1       6.455  -3.287   3.738  1.00  0.00     0.041 C 
ATOM      8  O   UNL     1       6.467  -4.031   4.754  1.00  0.00    -0.550 OA
ATOM      9  O   UNL     1       6.743  -1.935   3.874  1.00  0.00    -0.550 OA
ENDBRANCH   6   7
ENDBRANCH   5   6
ENDBRANCH   4   5
ENDBRANCH   3   4
ENDBRANCH   2   3
ENDBRANCH   1   2
BRANCH   1  10
ATOM     10  C   UNL     1      10.118  -6.077  -1.839  1.00  0.00     0.000 C 
BRANCH  10  11
ATOM     11  C   UNL     1      10.232  -5.378  -3.209  1.00  0.00    -0.000 C 
BRANCH  11  12
ATOM     12  C   UNL     1      10.843  -3.966  -3.165  1.00  0.00    -0.000 C 
BRANCH  12  13
ATOM     13  C   UNL     1      12.317  -3.941  -3.605  1.00  0.00    -0.000 C 
BRANCH  13  14
ATOM     14  C   UNL     1      13.272  -4.399  -2.492  1.00  0.00    -0.000 C 
BRANCH  14  15
ATOM     15  C   UNL     1      12.923  -3.788  -1.127  1.00  0.00    -0.003 C 
ATOM     16  C   UNL     1      13.694  -4.475  -0.004  1.00  0.00     0.004 C 
ENDBRANCH  14  15
ENDBRANCH  13  14
ENDBRANCH  12  13
ENDBRANCH  11  12
ENDBRANCH  10  11
ENDBRANCH   1  10
TORSDOF 12
ENDMDL
MODEL 8
REMARK VINA RESULT:    -2.490     11.738     13.535
REMARK INTER + INTRA:          -6.091
REMARK INTER:                  -4.739
REMARK INTRA:                  -1.352
REMARK UNBOUND:                -1.854
REMARK SMILES CCCCCCCCCCCCCC(=O)[O-]
REMARK SMILES IDX 8 1 9 2 10 3 11 4 12 5 13 6 14 7 15 8 16 9 7 10 6 11 5 12
REMARK SMILES IDX 4 13 3 14 2 15 1 16
REMARK H PARENT
REMARK Flexibility Score: inf
ROOT
ATOM      1  C   UNL     1      10.049  -4.820  -1.163  1.00  0.00     0.000 C 
ENDROOT
BRANCH   1   2
ATOM      2  C   UNL     1      10.875  -5.298  -2.370  1.00  0.00     0.000 C 
BRANCH   2   3
ATOM      3  C   UNL     1      11.497  -4.140  -3.165  1.00  0.00     0.000 C 
BRANCH   3   4
ATOM      4  C   UNL     1      13.030  -4.204  -3.118  1.00  0.00     0.000 C 
BRANCH   4   5
ATOM      5  C   UNL     1      13.554  -5.389  -2.287  1.00  0.00     0.006 C 
BRANCH   5   6
ATOM      6  C   UNL     1      14.751  -5.048  -1.386  1.00  0.00     0.053 C 
BRANCH   6   7
ATOM      7  C   UNL     1      14.352  -4.909   0.051  1.00  0.00     0.041 C 
ATOM      8  O   UNL     1      13.299  -4.291   0.360  1.00  0.00    -0.550 OA
ATOM      9  O   UNL     1      15.161  -5.432   1.052  1.00  0.00    -0.550 OA
ENDBRANCH   6   7
ENDBRANCH   5   6
ENDBRANCH   4   5
ENDBRANCH   3   4
ENDBRANCH   2   3
ENDBRANCH   1   2
BRANCH   1  10
ATOM     10  C   UNL     1       9.344  -5.940  -0.373  1.00  0.00     0.000 C 
BRANCH  10  11
ATOM     11  C   UNL     1       7.849  -5.694  -0.080  1.00  0.00    -0.000 C 
BRANCH  11  12
ATOM     12  C   UNL     1       7.111  -4.863  -1.144  1.00  0.00    -0.000 C 
BRANCH  12  13
ATOM     13  C   UNL     1       6.750  -5.684  -2.395  1.00  0.00    -0.000 C 
BRANCH  13  14
ATOM     14  C   UNL     1       7.319  -5.074  -3.685  1.00  0.00    -0.000 C 
BRANCH  14  15
ATOM     15  C   UNL     1       7.966  -6.125  -4.598  1.00  0.00    -0.003 C 
ATOM     16  C   UNL     1       8.584  -5.475  -5.832  1.00  0.00     0.004 C 
ENDBRANCH  14  15
ENDBRANCH  13  14
ENDBRANCH  12  13
ENDBRANCH  11  12
ENDBRANCH  10  11
ENDBRANCH   1  10
TORSDOF 12
ENDMDL
MODEL 9
REMARK VINA RESULT:    -2.488     11.149     13.369
REMARK INTER + INTRA:          -6.088
REMARK INTER:                  -5.165
REMARK INTRA:                  -0.923
REMARK UNBOUND:                -1.854
REMARK SMILES CCCCCCCCCCCCCC(=O)[O-]
REMARK SMILES IDX 8 1 9 2 10 3 11 4 12 5 13 6 14 7 15 8 16 9 7 10 6 11 5 12
REMARK SMILES IDX 4 13 3 14 2 15 1 16
REMARK H PARENT
REMARK Flexibility Score: inf
ROOT
ATOM      1  C   UNL     1       6.695  -3.282  -2.013  1.00  0.00     0.000 C 
ENDROOT
BRANCH   1   2
ATOM      2  C   UNL     1       7.813  -3.792  -2.939  1.00  0.00     0.000 C 
BRANCH   2   3
ATOM      3  C   UNL     1       8.367  -5.158  -2.512  1.00  0.00     0.000 C 
BRANCH   3   4
ATOM      4  C   UNL     1       8.948  -5.094  -1.092  1.00  0.00     0.000 C 
BRANCH   4   5
ATOM      5  C   UNL     1      10.484  -4.983  -1.078  1.00  0.00     0.006 C 
BRANCH   5   6
ATOM      6  C   UNL     1      11.070  -4.199  -2.262  1.00  0.00     0.053 C 
BRANCH   6   7
ATOM      7  C   UNL     1      12.504  -3.830  -2.038  1.00  0.00     0.041 C 
ATOM      8  O   UNL     1      13.006  -3.907  -0.885  1.00  0.00    -0.550 OA
ATOM      9  O   UNL     1      13.278  -3.368  -3.094  1.00  0.00    -0.550 OA
ENDBRANCH   6   7
ENDBRANCH   5   6
ENDBRANCH   4   5
ENDBRANCH   3   4
ENDBRANCH   2   3
ENDBRANCH   1   2
BRANCH   1  10
ATOM     10  C   UNL     1       5.423  -4.154  -1.988  1.00  0.00     0.000 C 
BRANCH  10  11
ATOM     11  C   UNL     1       5.034  -4.705  -0.600  1.00  0.00    -0.000 C 
BRANCH  11  12
ATOM     12  C   UNL     1       5.708  -3.997   0.588  1.00  0.00    -0.000 C 
BRANCH  12  13
ATOM     13  C   UNL     1       6.422  -4.976   1.537  1.00  0.00    -0.000 C 
BRANCH  13  14
ATOM     14  C   UNL     1       6.223  -4.615   3.017  1.00  0.00    -0.000 C 
BRANCH  14  15
ATOM     15  C   UNL     1       5.528  -3.258   3.204  1.00  0.00    -0.003 C 
ATOM     16  C   UNL     1       6.460  -2.250   3.869  1.00  0.00     0.004 C 
ENDBRANCH  14  15
ENDBRANCH  13  14
ENDBRANCH  12  13
ENDBRANCH  11  12
ENDBRANCH  10  11
ENDBRANCH   1  10
TORSDOF 12
ENDMDL
