MODEL 1
REMARK VINA RESULT:    -5.288      0.000      0.000
REMARK INTER + INTRA:         -10.246
REMARK INTER:                  -7.143
REMARK INTRA:                  -3.103
REMARK UNBOUND:                -3.103
REMARK SMILES CC[C@H](CC[C@H](C)[C@@H]1CC[C@H]2[C@@H]3CC(=O)C4=CC(=O)CC[C@]4(C)[C@@H]3CC[C@@]21C)C(C)C
REMARK SMILES IDX 4 1 3 2 2 3 1 4 29 5 30 6 31 7 5 8 6 9 7 10 8 11 9 12 27 13
REMARK SMILES IDX 10 14 11 15 26 16 28 17 12 18 25 19 24 20 13 21 22 22 14 23
REMARK SMILES IDX 16 24 21 25 23 26 15 27 17 28 20 29 18 30 19 31
REMARK H PARENT
REMARK Flexibility Score: inf
ROOT
ATOM      1  C   UNL     1     187.793 185.954 224.254  1.00  0.00     0.004 C 
ENDROOT
BRANCH   1   2
ATOM      2  C   UNL     1     188.452 187.250 224.819  1.00  0.00    -0.009 C 
BRANCH   2   3
ATOM      3  C   UNL     1     187.352 188.308 225.143  1.00  0.00     0.000 C 
ATOM      4  C   UNL     1     187.518 189.626 224.373  1.00  0.00     0.004 C 
ENDBRANCH   2   3
BRANCH   2   5
ATOM      5  C   UNL     1     189.391 186.989 226.051  1.00  0.00    -0.014 C 
ATOM      6  C   UNL     1     190.771 187.653 225.893  1.00  0.00     0.007 C 
ATOM      7  C   UNL     1     188.770 187.393 227.402  1.00  0.00     0.007 C 
ENDBRANCH   2   5
ENDBRANCH   1   2
BRANCH   1   8
ATOM      8  C   UNL     1     186.457 185.496 224.898  1.00  0.00     0.004 C 
BRANCH   8   9
ATOM      9  C   UNL     1     186.087 183.983 224.749  1.00  0.00    -0.011 C 
ATOM     10  C   UNL     1     184.606 183.858 224.315  1.00  0.00     0.008 C 
BRANCH   9  11
ATOM     11  C   UNL     1     186.433 183.058 225.999  1.00  0.00    -0.002 C 
ATOM     12  C   UNL     1     186.645 183.848 227.343  1.00  0.00     0.005 C 
ATOM     13  C   UNL     1     187.770 182.238 225.908  1.00  0.00    -0.026 C 
ATOM     14  C   UNL     1     188.153 183.884 227.647  1.00  0.00     0.005 C 
ATOM     15  C   UNL     1     188.771 183.308 226.389  1.00  0.00    -0.001 C 
ATOM     16  C   UNL     1     188.252 181.617 224.548  1.00  0.00     0.007 C 
ATOM     17  C   UNL     1     187.642 181.029 226.902  1.00  0.00     0.012 C 
ATOM     18  C   UNL     1     190.223 182.802 226.356  1.00  0.00     0.004 C 
ATOM     19  C   UNL     1     189.410 182.384 223.886  1.00  0.00     0.005 C 
ATOM     20  C   UNL     1     190.651 182.571 224.841  1.00  0.00     0.003 C 
ATOM     21  C   UNL     1     191.159 183.693 227.187  1.00  0.00     0.085 C 
ATOM     22  C   UNL     1     191.772 183.546 224.239  1.00  0.00    -0.000 C 
ATOM     23  C   UNL     1     192.550 183.585 226.687  1.00  0.00     0.159 C 
ATOM     24  C   UNL     1     192.765 183.998 225.309  1.00  0.00     0.005 C 
ATOM     25  C   UNL     1     191.178 184.827 223.581  1.00  0.00     0.020 C 
ATOM     26  C   UNL     1     192.564 182.751 223.168  1.00  0.00     0.017 C 
ATOM     27  O   UNL     1     193.503 183.277 227.450  1.00  0.00    -0.295 OA
ATOM     28  C   UNL     1     193.618 185.012 225.088  1.00  0.00     0.055 C 
ATOM     29  C   UNL     1     192.253 185.788 223.030  1.00  0.00     0.081 C 
ATOM     30  C   UNL     1     193.470 185.877 223.911  1.00  0.00     0.156 C 
ATOM     31  O   UNL     1     194.340 186.755 223.677  1.00  0.00    -0.295 OA
ENDBRANCH   9  11
ENDBRANCH   8   9
ENDBRANCH   1   8
TORSDOF 6
ENDMDL
MODEL 2
REMARK VINA RESULT:    -5.231      4.987      8.813
REMARK INTER + INTRA:         -10.168
REMARK INTER:                  -7.468
REMARK INTRA:                  -2.700
REMARK UNBOUND:                -3.103
REMARK SMILES CC[C@H](CC[C@H](C)[C@@H]1CC[C@H]2[C@@H]3CC(=O)C4=CC(=O)CC[C@]4(C)[C@@H]3CC[C@@]21C)C(C)C
REMARK SMILES IDX 4 1 3 2 2 3 1 4 29 5 30 6 31 7 5 8 6 9 7 10 8 11 9 12 27 13
REMARK SMILES IDX 10 14 11 15 26 16 28 17 12 18 25 19 24 20 13 21 22 22 14 23
REMARK SMILES IDX 16 24 21 25 23 26 15 27 17 28 20 29 18 30 19 31
REMARK H PARENT
REMARK Flexibility Score: inf
ROOT
ATOM      1  C   UNL     1     183.126 185.434 225.795  1.00  0.00     0.004 C 
ENDROOT
BRANCH   1   2
ATOM      2  C   UNL     1     184.216 185.137 224.720  1.00  0.00    -0.009 C 
BRANCH   2   3
ATOM      3  C   UNL     1     185.455 186.057 224.950  1.00  0.00     0.000 C 
ATOM      4  C   UNL     1     185.659 187.104 223.845  1.00  0.00     0.004 C 
ENDBRANCH   2   3
BRANCH   2   5
ATOM      5  C   UNL     1     184.623 183.621 224.642  1.00  0.00    -0.014 C 
ATOM      6  C   UNL     1     185.793 183.371 223.672  1.00  0.00     0.007 C 
ATOM      7  C   UNL     1     184.939 182.991 226.012  1.00  0.00     0.007 C 
ENDBRANCH   2   5
ENDBRANCH   1   2
BRANCH   1   8
ATOM      8  C   UNL     1     181.692 184.906 225.518  1.00  0.00     0.004 C 
BRANCH   8   9
ATOM      9  C   UNL     1     180.508 185.855 225.896  1.00  0.00    -0.011 C 
ATOM     10  C   UNL     1     179.381 185.029 226.562  1.00  0.00     0.008 C 
BRANCH   9  11
ATOM     11  C   UNL     1     179.964 186.787 224.724  1.00  0.00    -0.002 C 
ATOM     12  C   UNL     1     180.580 186.468 223.312  1.00  0.00     0.005 C 
ATOM     13  C   UNL     1     180.274 188.322 224.857  1.00  0.00    -0.026 C 
ATOM     14  C   UNL     1     181.601 187.568 222.973  1.00  0.00     0.005 C 
ATOM     15  C   UNL     1     181.696 188.358 224.263  1.00  0.00    -0.001 C 
ATOM     16  C   UNL     1     180.251 189.038 226.256  1.00  0.00     0.007 C 
ATOM     17  C   UNL     1     179.222 189.085 223.976  1.00  0.00     0.012 C 
ATOM     18  C   UNL     1     182.309 189.769 224.308  1.00  0.00     0.004 C 
ATOM     19  C   UNL     1     181.649 189.346 226.822  1.00  0.00     0.005 C 
ATOM     20  C   UNL     1     182.549 190.175 225.828  1.00  0.00     0.003 C 
ATOM     21  C   UNL     1     183.528 189.893 223.382  1.00  0.00     0.085 C 
ATOM     22  C   UNL     1     184.068 190.318 226.317  1.00  0.00    -0.000 C 
ATOM     23  C   UNL     1     184.428 190.969 223.858  1.00  0.00     0.159 C 
ATOM     24  C   UNL     1     184.985 190.790 225.190  1.00  0.00     0.005 C 
ATOM     25  C   UNL     1     184.658 188.988 226.874  1.00  0.00     0.020 C 
ATOM     26  C   UNL     1     184.105 191.391 227.435  1.00  0.00     0.017 C 
ATOM     27  O   UNL     1     184.786 191.913 223.104  1.00  0.00    -0.295 OA
ATOM     28  C   UNL     1     186.322 190.725 225.302  1.00  0.00     0.055 C 
ATOM     29  C   UNL     1     186.132 189.109 227.315  1.00  0.00     0.081 C 
ATOM     30  C   UNL     1     186.949 189.983 226.402  1.00  0.00     0.156 C 
ATOM     31  O   UNL     1     188.200 190.022 226.540  1.00  0.00    -0.295 OA
ENDBRANCH   9  11
ENDBRANCH   8   9
ENDBRANCH   1   8
TORSDOF 6
ENDMDL
MODEL 3
REMARK VINA RESULT:    -5.231      2.326      5.739
REMARK INTER + INTRA:         -10.168
REMARK INTER:                  -7.466
REMARK INTRA:                  -2.702
REMARK UNBOUND:                -3.103
REMARK SMILES CC[C@H](CC[C@H](C)[C@@H]1CC[C@H]2[C@@H]3CC(=O)C4=CC(=O)CC[C@]4(C)[C@@H]3CC[C@@]21C)C(C)C
REMARK SMILES IDX 4 1 3 2 2 3 1 4 29 5 30 6 31 7 5 8 6 9 7 10 8 11 9 12 27 13
REMARK SMILES IDX 10 14 11 15 26 16 28 17 12 18 25 19 24 20 13 21 22 22 14 23
REMARK SMILES IDX 16 24 21 25 23 26 15 27 17 28 20 29 18 30 19 31
REMARK H PARENT
REMARK Flexibility Score: inf
ROOT
ATOM      1  C   UNL     1     189.641 187.307 225.787  1.00  0.00     0.004 C 
ENDROOT
BRANCH   1   2
ATOM      2  C   UNL     1     188.550 187.611 224.715  1.00  0.00    -0.009 C 
BRANCH   2   3
ATOM      3  C   UNL     1     187.305 186.700 224.947  1.00  0.00     0.000 C 
ATOM      4  C   UNL     1     187.081 185.664 223.836  1.00  0.00     0.004 C 
ENDBRANCH   2   3
BRANCH   2   5
ATOM      5  C   UNL     1     188.154 189.130 224.636  1.00  0.00    -0.014 C 
ATOM      6  C   UNL     1     186.966 189.383 223.689  1.00  0.00     0.007 C 
ATOM      7  C   UNL     1     187.872 189.770 226.009  1.00  0.00     0.007 C 
ENDBRANCH   2   5
ENDBRANCH   1   2
BRANCH   1   8
ATOM      8  C   UNL     1     191.072 187.843 225.516  1.00  0.00     0.004 C 
BRANCH   8   9
ATOM      9  C   UNL     1     192.259 186.890 225.878  1.00  0.00    -0.011 C 
ATOM     10  C   UNL     1     193.393 187.712 226.539  1.00  0.00     0.008 C 
BRANCH   9  11
ATOM     11  C   UNL     1     192.791 185.965 224.697  1.00  0.00    -0.002 C 
ATOM     12  C   UNL     1     192.166 186.295 223.291  1.00  0.00     0.005 C 
ATOM     13  C   UNL     1     192.478 184.429 224.822  1.00  0.00    -0.026 C 
ATOM     14  C   UNL     1     191.139 185.201 222.952  1.00  0.00     0.005 C 
ATOM     15  C   UNL     1     191.051 184.402 224.237  1.00  0.00    -0.001 C 
ATOM     16  C   UNL     1     192.508 183.704 226.215  1.00  0.00     0.007 C 
ATOM     17  C   UNL     1     193.520 183.669 223.927  1.00  0.00     0.012 C 
ATOM     18  C   UNL     1     190.434 182.993 224.277  1.00  0.00     0.004 C 
ATOM     19  C   UNL     1     191.114 183.397 226.790  1.00  0.00     0.005 C 
ATOM     20  C   UNL     1     190.204 182.578 225.796  1.00  0.00     0.003 C 
ATOM     21  C   UNL     1     189.207 182.879 223.360  1.00  0.00     0.085 C 
ATOM     22  C   UNL     1     188.687 182.436 226.295  1.00  0.00    -0.000 C 
ATOM     23  C   UNL     1     188.307 181.803 223.835  1.00  0.00     0.159 C 
ATOM     24  C   UNL     1     187.761 181.974 225.172  1.00  0.00     0.005 C 
ATOM     25  C   UNL     1     188.106 183.765 226.866  1.00  0.00     0.020 C 
ATOM     26  C   UNL     1     188.655 181.356 227.407  1.00  0.00     0.017 C 
ATOM     27  O   UNL     1     187.941 180.865 223.078  1.00  0.00    -0.295 OA
ATOM     28  C   UNL     1     186.424 182.043 225.295  1.00  0.00     0.055 C 
ATOM     29  C   UNL     1     186.634 183.646 227.317  1.00  0.00     0.081 C 
ATOM     30  C   UNL     1     185.808 182.780 226.404  1.00  0.00     0.156 C 
ATOM     31  O   UNL     1     184.559 182.744 226.551  1.00  0.00    -0.295 OA
ENDBRANCH   9  11
ENDBRANCH   8   9
ENDBRANCH   1   8
TORSDOF 6
ENDMDL
MODEL 4
REMARK VINA RESULT:    -5.195      5.791      9.949
REMARK INTER + INTRA:         -10.120
REMARK INTER:                  -7.015
REMARK INTRA:                  -3.104
REMARK UNBOUND:                -3.103
REMARK SMILES CC[C@H](CC[C@H](C)[C@@H]1CC[C@H]2[C@@H]3CC(=O)C4=CC(=O)CC[C@]4(C)[C@@H]3CC[C@@]21C)C(C)C
REMARK SMILES IDX 4 1 3 2 2 3 1 4 29 5 30 6 31 7 5 8 6 9 7 10 8 11 9 12 27 13
REMARK SMILES IDX 10 14 11 15 26 16 28 17 12 18 25 19 24 20 13 21 22 22 14 23
REMARK SMILES IDX 16 24 21 25 23 26 15 27 17 28 20 29 18 30 19 31
REMARK H PARENT
REMARK Flexibility Score: inf
ROOT
ATOM      1  C   UNL     1     185.040 186.641 224.301  1.00  0.00     0.004 C 
ENDROOT
BRANCH   1   2
ATOM      2  C   UNL     1     184.298 185.425 224.936  1.00  0.00    -0.009 C 
BRANCH   2   3
ATOM      3  C   UNL     1     185.310 184.271 225.216  1.00  0.00     0.000 C 
ATOM      4  C   UNL     1     185.611 183.401 223.987  1.00  0.00     0.004 C 
ENDBRANCH   2   3
BRANCH   2   5
ATOM      5  C   UNL     1     183.468 185.796 226.218  1.00  0.00    -0.014 C 
ATOM      6  C   UNL     1     181.993 185.367 226.113  1.00  0.00     0.007 C 
ATOM      7  C   UNL     1     184.076 185.259 227.528  1.00  0.00     0.007 C 
ENDBRANCH   2   5
ENDBRANCH   1   2
BRANCH   1   8
ATOM      8  C   UNL     1     186.362 187.097 224.973  1.00  0.00     0.004 C 
BRANCH   8   9
ATOM      9  C   UNL     1     186.762 188.598 224.790  1.00  0.00    -0.011 C 
ATOM     10  C   UNL     1     188.247 188.685 224.358  1.00  0.00     0.008 C 
BRANCH   9  11
ATOM     11  C   UNL     1     186.431 189.559 226.016  1.00  0.00    -0.002 C 
ATOM     12  C   UNL     1     186.180 188.804 227.374  1.00  0.00     0.005 C 
ATOM     13  C   UNL     1     185.120 190.417 225.892  1.00  0.00    -0.026 C 
ATOM     14  C   UNL     1     184.669 188.820 227.660  1.00  0.00     0.005 C 
ATOM     15  C   UNL     1     184.082 189.389 226.383  1.00  0.00    -0.001 C 
ATOM     16  C   UNL     1     184.673 191.025 224.514  1.00  0.00     0.007 C 
ATOM     17  C   UNL     1     185.274 191.642 226.863  1.00  0.00     0.012 C 
ATOM     18  C   UNL     1     182.647 189.938 226.322  1.00  0.00     0.004 C 
ATOM     19  C   UNL     1     183.500 190.280 223.854  1.00  0.00     0.005 C 
ATOM     20  C   UNL     1     182.243 190.150 224.798  1.00  0.00     0.003 C 
ATOM     21  C   UNL     1     181.675 189.093 227.160  1.00  0.00     0.085 C 
ATOM     22  C   UNL     1     181.100 189.197 224.203  1.00  0.00    -0.000 C 
ATOM     23  C   UNL     1     180.294 189.233 226.642  1.00  0.00     0.159 C 
ATOM     24  C   UNL     1     180.082 188.798 225.270  1.00  0.00     0.005 C 
ATOM     25  C   UNL     1     181.662 187.885 223.578  1.00  0.00     0.020 C 
ATOM     26  C   UNL     1     180.345 189.993 223.106  1.00  0.00     0.017 C 
ATOM     27  O   UNL     1     179.341 189.586 227.387  1.00  0.00    -0.295 OA
ATOM     28  C   UNL     1     179.201 187.806 225.060  1.00  0.00     0.055 C 
ATOM     29  C   UNL     1     180.564 186.946 223.034  1.00  0.00     0.081 C 
ATOM     30  C   UNL     1     179.335 186.913 223.902  1.00  0.00     0.156 C 
ATOM     31  O   UNL     1     178.441 186.057 223.676  1.00  0.00    -0.295 OA
ENDBRANCH   9  11
ENDBRANCH   8   9
ENDBRANCH   1   8
TORSDOF 6
ENDMDL
MODEL 5
REMARK VINA RESULT:    -4.904      3.967      7.769
REMARK INTER + INTRA:          -9.727
REMARK INTER:                  -6.630
REMARK INTRA:                  -3.097
REMARK UNBOUND:                -3.103
REMARK SMILES CC[C@H](CC[C@H](C)[C@@H]1CC[C@H]2[C@@H]3CC(=O)C4=CC(=O)CC[C@]4(C)[C@@H]3CC[C@@]21C)C(C)C
REMARK SMILES IDX 4 1 3 2 2 3 1 4 29 5 30 6 31 7 5 8 6 9 7 10 8 11 9 12 27 13
REMARK SMILES IDX 10 14 11 15 26 16 28 17 12 18 25 19 24 20 13 21 22 22 14 23
REMARK SMILES IDX 16 24 21 25 23 26 15 27 17 28 20 29 18 30 19 31
REMARK H PARENT
REMARK Flexibility Score: inf
ROOT
ATOM      1  C   UNL     1     186.016 185.775 224.555  1.00  0.00     0.004 C 
ENDROOT
BRANCH   1   2
ATOM      2  C   UNL     1     184.516 185.828 224.978  1.00  0.00    -0.009 C 
BRANCH   2   3
ATOM      3  C   UNL     1     183.924 184.385 225.022  1.00  0.00     0.000 C 
ATOM      4  C   UNL     1     182.478 184.295 224.513  1.00  0.00     0.004 C 
ENDBRANCH   2   3
BRANCH   2   5
ATOM      5  C   UNL     1     184.270 186.600 226.324  1.00  0.00    -0.014 C 
ATOM      6  C   UNL     1     183.106 187.603 226.227  1.00  0.00     0.007 C 
ATOM      7  C   UNL     1     184.063 185.676 227.541  1.00  0.00     0.007 C 
ENDBRANCH   2   5
ENDBRANCH   1   2
BRANCH   1   8
ATOM      8  C   UNL     1     186.996 185.033 225.503  1.00  0.00     0.004 C 
BRANCH   8   9
ATOM      9  C   UNL     1     188.493 185.486 225.462  1.00  0.00    -0.011 C 
ATOM     10  C   UNL     1     189.400 184.246 225.275  1.00  0.00     0.008 C 
BRANCH   9  11
ATOM     11  C   UNL     1     188.971 186.410 226.668  1.00  0.00    -0.002 C 
ATOM     12  C   UNL     1     188.085 186.285 227.963  1.00  0.00     0.005 C 
ATOM     13  C   UNL     1     188.931 187.960 226.414  1.00  0.00    -0.026 C 
ATOM     14  C   UNL     1     187.206 187.543 228.067  1.00  0.00     0.005 C 
ATOM     15  C   UNL     1     187.453 188.246 226.746  1.00  0.00    -0.001 C 
ATOM     16  C   UNL     1     189.299 188.564 225.011  1.00  0.00     0.007 C 
ATOM     17  C   UNL     1     189.926 188.623 227.432  1.00  0.00     0.012 C 
ATOM     18  C   UNL     1     187.084 189.724 226.531  1.00  0.00     0.004 C 
ATOM     19  C   UNL     1     188.082 189.032 224.194  1.00  0.00     0.005 C 
ATOM     20  C   UNL     1     187.168 190.051 224.976  1.00  0.00     0.003 C 
ATOM     21  C   UNL     1     185.761 190.090 227.221  1.00  0.00     0.085 C 
ATOM     22  C   UNL     1     185.794 190.380 224.221  1.00  0.00    -0.000 C 
ATOM     23  C   UNL     1     185.133 191.249 226.546  1.00  0.00     0.159 C 
ATOM     24  C   UNL     1     184.786 191.060 225.145  1.00  0.00     0.005 C 
ATOM     25  C   UNL     1     185.105 189.113 223.628  1.00  0.00     0.020 C 
ATOM     26  C   UNL     1     186.112 191.365 223.066  1.00  0.00     0.017 C 
ATOM     27  O   UNL     1     184.805 192.286 227.182  1.00  0.00    -0.295 OA
ATOM     28  C   UNL     1     183.493 191.182 224.802  1.00  0.00     0.055 C 
ATOM     29  C   UNL     1     183.763 189.416 222.929  1.00  0.00     0.081 C 
ATOM     30  C   UNL     1     182.951 190.463 223.643  1.00  0.00     0.156 C 
ATOM     31  O   UNL     1     181.763 190.675 223.286  1.00  0.00    -0.295 OA
ENDBRANCH   9  11
ENDBRANCH   8   9
ENDBRANCH   1   8
TORSDOF 6
ENDMDL
MODEL 6
REMARK VINA RESULT:    -4.884      5.634      9.208
REMARK INTER + INTRA:          -9.701
REMARK INTER:                  -6.591
REMARK INTRA:                  -3.110
REMARK UNBOUND:                -3.103
REMARK SMILES CC[C@H](CC[C@H](C)[C@@H]1CC[C@H]2[C@@H]3CC(=O)C4=CC(=O)CC[C@]4(C)[C@@H]3CC[C@@]21C)C(C)C
REMARK SMILES IDX 4 1 3 2 2 3 1 4 29 5 30 6 31 7 5 8 6 9 7 10 8 11 9 12 27 13
REMARK SMILES IDX 10 14 11 15 26 16 28 17 12 18 25 19 24 20 13 21 22 22 14 23
REMARK SMILES IDX 16 24 21 25 23 26 15 27 17 28 20 29 18 30 19 31
REMARK H PARENT
REMARK Flexibility Score: inf
ROOT
ATOM      1  C   UNL     1     183.118 190.794 224.614  1.00  0.00     0.004 C 
ENDROOT
BRANCH   1   2
ATOM      2  C   UNL     1     181.973 189.787 224.285  1.00  0.00    -0.009 C 
BRANCH   2   3
ATOM      3  C   UNL     1     181.338 190.134 222.903  1.00  0.00     0.000 C 
ATOM      4  C   UNL     1     179.809 190.002 222.875  1.00  0.00     0.004 C 
ENDBRANCH   2   3
BRANCH   2   5
ATOM      5  C   UNL     1     182.420 188.282 224.360  1.00  0.00    -0.014 C 
ATOM      6  C   UNL     1     181.535 187.448 225.303  1.00  0.00     0.007 C 
ATOM      7  C   UNL     1     182.511 187.593 222.985  1.00  0.00     0.007 C 
ENDBRANCH   2   5
ENDBRANCH   1   2
BRANCH   1   8
ATOM      8  C   UNL     1     184.200 191.019 223.524  1.00  0.00     0.004 C 
BRANCH   8   9
ATOM      9  C   UNL     1     185.612 191.478 224.019  1.00  0.00    -0.011 C 
ATOM     10  C   UNL     1     186.095 192.670 223.157  1.00  0.00     0.008 C 
BRANCH   9  11
ATOM     11  C   UNL     1     186.711 190.332 224.140  1.00  0.00    -0.002 C 
ATOM     12  C   UNL     1     186.383 189.038 223.307  1.00  0.00     0.005 C 
ATOM     13  C   UNL     1     186.932 189.729 225.575  1.00  0.00    -0.026 C 
ATOM     14  C   UNL     1     185.922 187.942 224.284  1.00  0.00     0.005 C 
ATOM     15  C   UNL     1     185.799 188.683 225.600  1.00  0.00    -0.001 C 
ATOM     16  C   UNL     1     186.863 190.635 226.857  1.00  0.00     0.007 C 
ATOM     17  C   UNL     1     188.363 189.083 225.591  1.00  0.00     0.012 C 
ATOM     18  C   UNL     1     185.724 187.942 226.946  1.00  0.00     0.004 C 
ATOM     19  C   UNL     1     185.568 190.470 227.670  1.00  0.00     0.005 C 
ATOM     20  C   UNL     1     185.280 188.973 228.075  1.00  0.00     0.003 C 
ATOM     21  C   UNL     1     184.886 186.659 226.847  1.00  0.00     0.085 C 
ATOM     22  C   UNL     1     183.835 188.761 228.734  1.00  0.00    -0.000 C 
ATOM     23  C   UNL     1     184.329 186.303 228.173  1.00  0.00     0.159 C 
ATOM     24  C   UNL     1     183.441 187.286 228.775  1.00  0.00     0.005 C 
ATOM     25  C   UNL     1     182.704 189.528 227.986  1.00  0.00     0.020 C 
ATOM     26  C   UNL     1     183.904 189.270 230.198  1.00  0.00     0.017 C 
ATOM     27  O   UNL     1     184.515 185.167 228.684  1.00  0.00    -0.295 OA
ATOM     28  C   UNL     1     182.179 186.906 229.038  1.00  0.00     0.055 C 
ATOM     29  C   UNL     1     181.304 189.301 228.595  1.00  0.00     0.081 C 
ATOM     30  C   UNL     1     181.088 187.886 229.062  1.00  0.00     0.156 C 
ATOM     31  O   UNL     1     179.935 187.519 229.409  1.00  0.00    -0.295 OA
ENDBRANCH   9  11
ENDBRANCH   8   9
ENDBRANCH   1   8
TORSDOF 6
ENDMDL
MODEL 7
REMARK VINA RESULT:    -4.822      4.567      8.543
REMARK INTER + INTRA:          -9.617
REMARK INTER:                  -6.570
REMARK INTRA:                  -3.047
REMARK UNBOUND:                -3.103
REMARK SMILES CC[C@H](CC[C@H](C)[C@@H]1CC[C@H]2[C@@H]3CC(=O)C4=CC(=O)CC[C@]4(C)[C@@H]3CC[C@@]21C)C(C)C
REMARK SMILES IDX 4 1 3 2 2 3 1 4 29 5 30 6 31 7 5 8 6 9 7 10 8 11 9 12 27 13
REMARK SMILES IDX 10 14 11 15 26 16 28 17 12 18 25 19 24 20 13 21 22 22 14 23
REMARK SMILES IDX 16 24 21 25 23 26 15 27 17 28 20 29 18 30 19 31
REMARK H PARENT
REMARK Flexibility Score: inf
ROOT
ATOM      1  C   UNL     1     186.161 185.477 224.163  1.00  0.00     0.004 C 
ENDROOT
BRANCH   1   2
ATOM      2  C   UNL     1     185.097 184.609 224.903  1.00  0.00    -0.009 C 
BRANCH   2   3
ATOM      3  C   UNL     1     185.669 184.112 226.266  1.00  0.00     0.000 C 
ATOM      4  C   UNL     1     185.467 182.609 226.510  1.00  0.00     0.004 C 
ENDBRANCH   2   3
BRANCH   2   5
ATOM      5  C   UNL     1     183.712 185.330 225.080  1.00  0.00    -0.014 C 
ATOM      6  C   UNL     1     182.543 184.518 224.492  1.00  0.00     0.007 C 
ATOM      7  C   UNL     1     183.397 185.719 226.537  1.00  0.00     0.007 C 
ENDBRANCH   2   5
ENDBRANCH   1   2
BRANCH   1   8
ATOM      8  C   UNL     1     187.636 185.340 224.626  1.00  0.00     0.004 C 
BRANCH   8   9
ATOM      9  C   UNL     1     188.537 186.612 224.489  1.00  0.00    -0.011 C 
ATOM     10  C   UNL     1     189.916 186.204 223.915  1.00  0.00     0.008 C 
BRANCH   9  11
ATOM     11  C   UNL     1     188.667 187.514 225.795  1.00  0.00    -0.002 C 
ATOM     12  C   UNL     1     188.118 186.833 227.103  1.00  0.00     0.005 C 
ATOM     13  C   UNL     1     187.864 188.865 225.789  1.00  0.00    -0.026 C 
ATOM     14  C   UNL     1     186.768 187.483 227.453  1.00  0.00     0.005 C 
ATOM     15  C   UNL     1     186.483 188.355 226.246  1.00  0.00    -0.001 C 
ATOM     16  C   UNL     1     187.721 189.720 224.479  1.00  0.00     0.007 C 
ATOM     17  C   UNL     1     188.544 189.814 226.839  1.00  0.00     0.012 C 
ATOM     18  C   UNL     1     185.432 189.478 226.286  1.00  0.00     0.004 C 
ATOM     19  C   UNL     1     186.336 189.620 223.815  1.00  0.00     0.005 C 
ATOM     20  C   UNL     1     185.154 189.972 224.799  1.00  0.00     0.003 C 
ATOM     21  C   UNL     1     184.193 189.075 227.099  1.00  0.00     0.085 C 
ATOM     22  C   UNL     1     183.706 189.667 224.184  1.00  0.00    -0.000 C 
ATOM     23  C   UNL     1     183.010 189.846 226.651  1.00  0.00     0.159 C 
ATOM     24  C   UNL     1     182.622 189.664 225.260  1.00  0.00     0.005 C 
ATOM     25  C   UNL     1     183.633 188.299 223.442  1.00  0.00     0.020 C 
ATOM     26  C   UNL     1     183.370 190.802 223.181  1.00  0.00     0.017 C 
ATOM     27  O   UNL     1     182.313 190.515 227.458  1.00  0.00    -0.295 OA
ATOM     28  C   UNL     1     181.394 189.177 225.015  1.00  0.00     0.055 C 
ATOM     29  C   UNL     1     182.232 187.983 222.877  1.00  0.00     0.081 C 
ATOM     30  C   UNL     1     181.117 188.416 223.791  1.00  0.00     0.156 C 
ATOM     31  O   UNL     1     179.937 188.058 223.540  1.00  0.00    -0.295 OA
ENDBRANCH   9  11
ENDBRANCH   8   9
ENDBRANCH   1   8
TORSDOF 6
ENDMDL
MODEL 8
REMARK VINA RESULT:    -4.802      4.509      7.874
REMARK INTER + INTRA:          -9.589
REMARK INTER:                  -6.378
REMARK INTRA:                  -3.212
REMARK UNBOUND:                -3.103
REMARK SMILES CC[C@H](CC[C@H](C)[C@@H]1CC[C@H]2[C@@H]3CC(=O)C4=CC(=O)CC[C@]4(C)[C@@H]3CC[C@@]21C)C(C)C
REMARK SMILES IDX 4 1 3 2 2 3 1 4 29 5 30 6 31 7 5 8 6 9 7 10 8 11 9 12 27 13
REMARK SMILES IDX 10 14 11 15 26 16 28 17 12 18 25 19 24 20 13 21 22 22 14 23
REMARK SMILES IDX 16 24 21 25 23 26 15 27 17 28 20 29 18 30 19 31
REMARK H PARENT
REMARK Flexibility Score: inf
ROOT
ATOM      1  C   UNL     1     182.477 190.384 224.846  1.00  0.00     0.004 C 
ENDROOT
BRANCH   1   2
ATOM      2  C   UNL     1     182.666 188.937 225.399  1.00  0.00    -0.009 C 
BRANCH   2   3
ATOM      3  C   UNL     1     181.799 188.740 226.681  1.00  0.00     0.000 C 
ATOM      4  C   UNL     1     181.977 189.852 227.724  1.00  0.00     0.004 C 
ENDBRANCH   2   3
BRANCH   2   5
ATOM      5  C   UNL     1     182.392 187.817 224.332  1.00  0.00    -0.014 C 
ATOM      6  C   UNL     1     181.033 187.122 224.539  1.00  0.00     0.007 C 
ATOM      7  C   UNL     1     182.511 188.305 222.875  1.00  0.00     0.007 C 
ENDBRANCH   2   5
ENDBRANCH   1   2
BRANCH   1   8
ATOM      8  C   UNL     1     183.729 191.300 224.810  1.00  0.00     0.004 C 
BRANCH   8   9
ATOM      9  C   UNL     1     184.952 190.853 225.677  1.00  0.00    -0.011 C 
ATOM     10  C   UNL     1     185.235 191.926 226.757  1.00  0.00     0.008 C 
BRANCH   9  11
ATOM     11  C   UNL     1     186.263 190.447 224.870  1.00  0.00    -0.002 C 
ATOM     12  C   UNL     1     186.007 190.116 223.353  1.00  0.00     0.005 C 
ATOM     13  C   UNL     1     186.999 189.144 225.350  1.00  0.00    -0.026 C 
ATOM     14  C   UNL     1     186.084 188.590 223.174  1.00  0.00     0.005 C 
ATOM     15  C   UNL     1     186.174 188.080 224.599  1.00  0.00    -0.001 C 
ATOM     16  C   UNL     1     187.094 188.779 226.876  1.00  0.00     0.007 C 
ATOM     17  C   UNL     1     188.483 189.236 224.846  1.00  0.00     0.012 C 
ATOM     18  C   UNL     1     186.638 186.649 224.922  1.00  0.00     0.004 C 
ATOM     19  C   UNL     1     186.143 187.649 227.309  1.00  0.00     0.005 C 
ATOM     20  C   UNL     1     186.312 186.338 226.448  1.00  0.00     0.003 C 
ATOM     21  C   UNL     1     186.104 185.631 223.904  1.00  0.00     0.085 C 
ATOM     22  C   UNL     1     185.189 185.235 226.748  1.00  0.00    -0.000 C 
ATOM     23  C   UNL     1     186.029 184.283 224.515  1.00  0.00     0.159 C 
ATOM     24  C   UNL     1     185.151 184.156 225.668  1.00  0.00     0.005 C 
ATOM     25  C   UNL     1     183.756 185.837 226.859  1.00  0.00     0.020 C 
ATOM     26  C   UNL     1     185.549 184.546 228.090  1.00  0.00     0.017 C 
ATOM     27  O   UNL     1     186.591 183.287 223.988  1.00  0.00    -0.295 OA
ATOM     28  C   UNL     1     184.126 183.291 225.578  1.00  0.00     0.055 C 
ATOM     29  C   UNL     1     182.664 184.776 227.113  1.00  0.00     0.081 C 
ATOM     30  C   UNL     1     182.898 183.497 226.354  1.00  0.00     0.156 C 
ATOM     31  O   UNL     1     181.996 182.620 226.327  1.00  0.00    -0.295 OA
ENDBRANCH   9  11
ENDBRANCH   8   9
ENDBRANCH   1   8
TORSDOF 6
ENDMDL
MODEL 9
REMARK VINA RESULT:    -4.794      5.243      8.966
REMARK INTER + INTRA:          -9.579
REMARK INTER:                  -6.557
REMARK INTRA:                  -3.022
REMARK UNBOUND:                -3.103
REMARK SMILES CC[C@H](CC[C@H](C)[C@@H]1CC[C@H]2[C@@H]3CC(=O)C4=CC(=O)CC[C@]4(C)[C@@H]3CC[C@@]21C)C(C)C
REMARK SMILES IDX 4 1 3 2 2 3 1 4 29 5 30 6 31 7 5 8 6 9 7 10 8 11 9 12 27 13
REMARK SMILES IDX 10 14 11 15 26 16 28 17 12 18 25 19 24 20 13 21 22 22 14 23
REMARK SMILES IDX 16 24 21 25 23 26 15 27 17 28 20 29 18 30 19 31
REMARK H PARENT
REMARK Flexibility Score: inf
ROOT
ATOM      1  C   UNL     1     183.783 184.142 224.437  1.00  0.00     0.004 C 
ENDROOT
BRANCH   1   2
ATOM      2  C   UNL     1     183.076 184.175 225.827  1.00  0.00    -0.009 C 
BRANCH   2   3
ATOM      3  C   UNL     1     181.587 184.608 225.658  1.00  0.00     0.000 C 
ATOM      4  C   UNL     1     181.155 185.726 226.618  1.00  0.00     0.004 C 
ENDBRANCH   2   3
BRANCH   2   5
ATOM      5  C   UNL     1     183.203 182.829 226.628  1.00  0.00    -0.014 C 
ATOM      6  C   UNL     1     184.048 182.979 227.906  1.00  0.00     0.007 C 
ATOM      7  C   UNL     1     181.849 182.180 226.971  1.00  0.00     0.007 C 
ENDBRANCH   2   5
ENDBRANCH   1   2
BRANCH   1   8
ATOM      8  C   UNL     1     185.274 183.711 224.409  1.00  0.00     0.004 C 
BRANCH   8   9
ATOM      9  C   UNL     1     186.302 184.769 223.888  1.00  0.00    -0.011 C 
ATOM     10  C   UNL     1     187.369 184.062 223.017  1.00  0.00     0.008 C 
BRANCH   9  11
ATOM     11  C   UNL     1     186.951 185.710 224.996  1.00  0.00    -0.002 C 
ATOM     12  C   UNL     1     186.572 185.319 226.473  1.00  0.00     0.005 C 
ATOM     13  C   UNL     1     186.529 187.223 224.958  1.00  0.00    -0.026 C 
ATOM     14  C   UNL     1     185.544 186.340 226.991  1.00  0.00     0.005 C 
ATOM     15  C   UNL     1     185.210 187.150 225.754  1.00  0.00    -0.001 C 
ATOM     16  C   UNL     1     186.299 187.969 223.595  1.00  0.00     0.007 C 
ATOM     17  C   UNL     1     187.647 188.036 225.701  1.00  0.00     0.012 C 
ATOM     18  C   UNL     1     184.509 188.517 225.843  1.00  0.00     0.004 C 
ATOM     19  C   UNL     1     184.817 188.194 223.247  1.00  0.00     0.005 C 
ATOM     20  C   UNL     1     184.022 188.938 224.388  1.00  0.00     0.003 C 
ATOM     21  C   UNL     1     183.434 188.538 226.940  1.00  0.00     0.085 C 
ATOM     22  C   UNL     1     182.441 188.989 224.130  1.00  0.00    -0.000 C 
ATOM     23  C   UNL     1     182.407 189.561 226.634  1.00  0.00     0.159 C 
ATOM     24  C   UNL     1     181.672 189.374 225.392  1.00  0.00     0.005 C 
ATOM     25  C   UNL     1     181.862 187.634 223.623  1.00  0.00     0.020 C 
ATOM     26  C   UNL     1     182.171 190.081 223.062  1.00  0.00     0.017 C 
ATOM     27  O   UNL     1     182.104 190.461 227.461  1.00  0.00    -0.295 OA
ATOM     28  C   UNL     1     180.340 189.221 225.474  1.00  0.00     0.055 C 
ATOM     29  C   UNL     1     180.334 187.665 223.405  1.00  0.00     0.081 C 
ATOM     30  C   UNL     1     179.606 188.462 224.453  1.00  0.00     0.156 C 
ATOM     31  O   UNL     1     178.349 188.419 224.501  1.00  0.00    -0.295 OA
ENDBRANCH   9  11
ENDBRANCH   8   9
ENDBRANCH   1   8
TORSDOF 6
ENDMDL
