MODEL 1
REMARK VINA RESULT:    -5.779      0.000      0.000
REMARK INTER + INTRA:          -7.927
REMARK INTER:                  -7.299
REMARK INTRA:                  -0.627
REMARK UNBOUND:                -0.627
REMARK SMILES Oc1cc(O)cc(CCc2ccccc2O)c1
REMARK SMILES IDX 9 1 10 2 12 3 13 4 11 5 14 6 15 7 16 8 8 10 7 11 6 12 17 13
REMARK SMILES IDX 4 14 2 15 3 16 5 17 1 19
REMARK H PARENT 16 9 5 18 1 20
REMARK Flexibility Score: inf
ROOT
ATOM      1  C   UNL     1      11.787 -27.672  13.542  1.00  0.00     0.044 C 
ENDROOT
BRANCH   1   2
ATOM      2  C   UNL     1      12.508 -26.868  12.485  1.00  0.00    -0.006 A 
ATOM      3  C   UNL     1      13.454 -26.725  10.249  1.00  0.00     0.001 A 
ATOM      4  C   UNL     1      13.761 -25.379  10.460  1.00  0.00     0.004 A 
ATOM      5  C   UNL     1      12.830 -27.467  11.254  1.00  0.00     0.007 A 
ATOM      6  C   UNL     1      13.440 -24.771  11.676  1.00  0.00     0.046 A 
ATOM      7  C   UNL     1      12.810 -25.507  12.691  1.00  0.00     0.118 A 
BRANCH   7   8
ATOM      8  O   UNL     1      12.483 -24.890  13.898  1.00  0.00    -0.508 OA
ATOM      9  H   UNL     1      12.985 -24.076  14.233  1.00  0.00     0.293 HD
ENDBRANCH   7   8
ENDBRANCH   1   2
BRANCH   1  10
ATOM     10  C   UNL     1      10.283 -27.774  13.255  1.00  0.00     0.040 C 
BRANCH  10  11
ATOM     11  C   UNL     1       9.483 -26.840  14.127  1.00  0.00    -0.040 A 
ATOM     12  C   UNL     1       8.409 -26.113  13.587  1.00  0.00     0.050 A 
ATOM     13  C   UNL     1       9.843 -26.642  15.470  1.00  0.00     0.050 A 
ATOM     14  C   UNL     1       7.695 -25.208  14.384  1.00  0.00     0.119 A 
ATOM     15  C   UNL     1       9.133 -25.737  16.267  1.00  0.00     0.119 A 
ATOM     16  C   UNL     1       8.057 -25.024  15.722  1.00  0.00     0.092 A 
BRANCH  14  17
ATOM     17  O   UNL     1       6.628 -24.487  13.855  1.00  0.00    -0.508 OA
ATOM     18  H   UNL     1       5.686 -24.596  14.212  1.00  0.00     0.293 HD
ENDBRANCH  14  17
BRANCH  15  19
ATOM     19  O   UNL     1       9.506 -25.554  17.596  1.00  0.00    -0.508 OA
ATOM     20  H   UNL     1       9.941 -24.694  17.910  1.00  0.00     0.293 HD
ENDBRANCH  15  19
ENDBRANCH  10  11
ENDBRANCH   1  10
TORSDOF 6
ENDMDL
MODEL 2
REMARK VINA RESULT:    -5.743      0.076      2.036
REMARK INTER + INTRA:          -7.881
REMARK INTER:                  -7.257
REMARK INTRA:                  -0.624
REMARK UNBOUND:                -0.627
REMARK SMILES Oc1cc(O)cc(CCc2ccccc2O)c1
REMARK SMILES IDX 9 1 10 2 12 3 13 4 11 5 14 6 15 7 16 8 8 10 7 11 6 12 17 13
REMARK SMILES IDX 4 14 2 15 3 16 5 17 1 19
REMARK H PARENT 16 9 5 18 1 20
REMARK Flexibility Score: inf
ROOT
ATOM      1  C   UNL     1      11.779 -27.752  13.506  1.00  0.00     0.044 C 
ENDROOT
BRANCH   1   2
ATOM      2  C   UNL     1      12.503 -26.945  12.452  1.00  0.00    -0.006 A 
ATOM      3  C   UNL     1      13.395 -26.772  10.196  1.00  0.00     0.001 A 
ATOM      4  C   UNL     1      13.759 -25.447  10.437  1.00  0.00     0.004 A 
ATOM      5  C   UNL     1      12.768 -27.519  11.196  1.00  0.00     0.007 A 
ATOM      6  C   UNL     1      13.495 -24.863  11.678  1.00  0.00     0.046 A 
ATOM      7  C   UNL     1      12.864 -25.604  12.689  1.00  0.00     0.118 A 
BRANCH   7   8
ATOM      8  O   UNL     1      12.593 -25.011  13.921  1.00  0.00    -0.508 OA
ATOM      9  H   UNL     1      11.649 -24.949  14.286  1.00  0.00     0.293 HD
ENDBRANCH   7   8
ENDBRANCH   1   2
BRANCH   1  10
ATOM     10  C   UNL     1      10.266 -27.797  13.250  1.00  0.00     0.040 C 
BRANCH  10  11
ATOM     11  C   UNL     1       9.524 -26.804  14.108  1.00  0.00    -0.040 A 
ATOM     12  C   UNL     1       9.882 -26.627  15.454  1.00  0.00     0.050 A 
ATOM     13  C   UNL     1       8.430 -26.094  13.585  1.00  0.00     0.050 A 
ATOM     14  C   UNL     1       9.163 -25.739  16.266  1.00  0.00     0.119 A 
ATOM     15  C   UNL     1       7.709 -25.210  14.394  1.00  0.00     0.119 A 
ATOM     16  C   UNL     1       8.080 -25.032  15.734  1.00  0.00     0.092 A 
BRANCH  14  17
ATOM     17  O   UNL     1       9.513 -25.556  17.601  1.00  0.00    -0.508 OA
ATOM     18  H   UNL     1       9.687 -26.343  18.216  1.00  0.00     0.293 HD
ENDBRANCH  14  17
BRANCH  15  19
ATOM     19  O   UNL     1       6.627 -24.517  13.858  1.00  0.00    -0.508 OA
ATOM     20  H   UNL     1       5.872 -24.999  13.384  1.00  0.00     0.293 HD
ENDBRANCH  15  19
ENDBRANCH  10  11
ENDBRANCH   1  10
TORSDOF 6
ENDMDL
MODEL 3
REMARK VINA RESULT:    -5.663      1.143      1.651
REMARK INTER + INTRA:          -7.780
REMARK INTER:                  -7.144
REMARK INTRA:                  -0.636
REMARK UNBOUND:                -0.627
REMARK SMILES Oc1cc(O)cc(CCc2ccccc2O)c1
REMARK SMILES IDX 9 1 10 2 12 3 13 4 11 5 14 6 15 7 16 8 8 10 7 11 6 12 17 13
REMARK SMILES IDX 4 14 2 15 3 16 5 17 1 19
REMARK H PARENT 16 9 5 18 1 20
REMARK Flexibility Score: inf
ROOT
ATOM      1  C   UNL     1      11.884 -27.454  13.588  1.00  0.00     0.044 C 
ENDROOT
BRANCH   1   2
ATOM      2  C   UNL     1      12.540 -26.427  12.695  1.00  0.00    -0.006 A 
ATOM      3  C   UNL     1      13.291 -24.142  12.336  1.00  0.00     0.001 A 
ATOM      4  C   UNL     1      13.837 -24.510  11.105  1.00  0.00     0.004 A 
ATOM      5  C   UNL     1      12.647 -25.094  13.129  1.00  0.00     0.007 A 
ATOM      6  C   UNL     1      13.743 -25.832  10.665  1.00  0.00     0.046 A 
ATOM      7  C   UNL     1      13.101 -26.797  11.456  1.00  0.00     0.118 A 
BRANCH   7   8
ATOM      8  O   UNL     1      13.021 -28.118  11.016  1.00  0.00    -0.508 OA
ATOM      9  H   UNL     1      13.151 -28.898  11.649  1.00  0.00     0.293 HD
ENDBRANCH   7   8
ENDBRANCH   1   2
BRANCH   1  10
ATOM     10  C   UNL     1      10.390 -27.614  13.272  1.00  0.00     0.040 C 
BRANCH  10  11
ATOM     11  C   UNL     1       9.537 -26.730  14.144  1.00  0.00    -0.040 A 
ATOM     12  C   UNL     1       8.443 -26.040  13.597  1.00  0.00     0.050 A 
ATOM     13  C   UNL     1       9.866 -26.538  15.496  1.00  0.00     0.050 A 
ATOM     14  C   UNL     1       7.677 -25.180  14.395  1.00  0.00     0.119 A 
ATOM     15  C   UNL     1       9.105 -25.678  16.295  1.00  0.00     0.119 A 
ATOM     16  C   UNL     1       8.008 -25.003  15.742  1.00  0.00     0.092 A 
BRANCH  14  17
ATOM     17  O   UNL     1       6.589 -24.496  13.859  1.00  0.00    -0.508 OA
ATOM     18  H   UNL     1       6.666 -23.969  12.997  1.00  0.00     0.293 HD
ENDBRANCH  14  17
BRANCH  15  19
ATOM     19  O   UNL     1       9.447 -25.501  17.633  1.00  0.00    -0.508 OA
ATOM     20  H   UNL     1       9.204 -26.188  18.337  1.00  0.00     0.293 HD
ENDBRANCH  15  19
ENDBRANCH  10  11
ENDBRANCH   1  10
TORSDOF 6
ENDMDL
MODEL 4
REMARK VINA RESULT:    -5.647      1.983      5.888
REMARK INTER + INTRA:          -7.759
REMARK INTER:                  -7.214
REMARK INTRA:                  -0.545
REMARK UNBOUND:                -0.627
REMARK SMILES Oc1cc(O)cc(CCc2ccccc2O)c1
REMARK SMILES IDX 9 1 10 2 12 3 13 4 11 5 14 6 15 7 16 8 8 10 7 11 6 12 17 13
REMARK SMILES IDX 4 14 2 15 3 16 5 17 1 19
REMARK H PARENT 16 9 5 18 1 20
REMARK Flexibility Score: inf
ROOT
ATOM      1  C   UNL     1      10.652 -26.807  15.001  1.00  0.00     0.044 C 
ENDROOT
BRANCH   1   2
ATOM      2  C   UNL     1       9.473 -25.887  15.214  1.00  0.00    -0.006 A 
ATOM      3  C   UNL     1       7.564 -24.686  14.303  1.00  0.00     0.001 A 
ATOM      4  C   UNL     1       7.218 -24.255  15.584  1.00  0.00     0.004 A 
ATOM      5  C   UNL     1       8.685 -25.499  14.116  1.00  0.00     0.007 A 
ATOM      6  C   UNL     1       7.988 -24.639  16.684  1.00  0.00     0.046 A 
ATOM      7  C   UNL     1       9.114 -25.459  16.508  1.00  0.00     0.118 A 
BRANCH   7   8
ATOM      8  O   UNL     1       9.872 -25.847  17.612  1.00  0.00    -0.508 OA
ATOM      9  H   UNL     1      10.693 -26.433  17.513  1.00  0.00     0.293 HD
ENDBRANCH   7   8
ENDBRANCH   1   2
BRANCH   1  10
ATOM     10  C   UNL     1      11.061 -26.876  13.523  1.00  0.00     0.040 C 
BRANCH  10  11
ATOM     11  C   UNL     1      12.415 -26.254  13.288  1.00  0.00    -0.040 A 
ATOM     12  C   UNL     1      12.516 -24.922  12.858  1.00  0.00     0.050 A 
ATOM     13  C   UNL     1      13.582 -27.021  13.438  1.00  0.00     0.050 A 
ATOM     14  C   UNL     1      13.770 -24.356  12.593  1.00  0.00     0.119 A 
ATOM     15  C   UNL     1      14.836 -26.461  13.171  1.00  0.00     0.119 A 
ATOM     16  C   UNL     1      14.927 -25.126  12.752  1.00  0.00     0.092 A 
BRANCH  14  17
ATOM     17  O   UNL     1      13.878 -23.035  12.169  1.00  0.00    -0.508 OA
ATOM     18  H   UNL     1      14.441 -22.360  12.673  1.00  0.00     0.293 HD
ENDBRANCH  14  17
BRANCH  15  19
ATOM     19  O   UNL     1      15.982 -27.237  13.324  1.00  0.00    -0.508 OA
ATOM     20  H   UNL     1      16.822 -26.862  13.748  1.00  0.00     0.293 HD
ENDBRANCH  15  19
ENDBRANCH  10  11
ENDBRANCH   1  10
TORSDOF 6
ENDMDL
MODEL 5
REMARK VINA RESULT:    -5.635      1.149      2.621
REMARK INTER + INTRA:          -7.745
REMARK INTER:                  -7.127
REMARK INTRA:                  -0.618
REMARK UNBOUND:                -0.627
REMARK SMILES Oc1cc(O)cc(CCc2ccccc2O)c1
REMARK SMILES IDX 9 1 10 2 12 3 13 4 11 5 14 6 15 7 16 8 8 10 7 11 6 12 17 13
REMARK SMILES IDX 4 14 2 15 3 16 5 17 1 19
REMARK H PARENT 16 9 5 18 1 20
REMARK Flexibility Score: inf
ROOT
ATOM      1  C   UNL     1      11.873 -27.563  13.537  1.00  0.00     0.044 C 
ENDROOT
BRANCH   1   2
ATOM      2  C   UNL     1      12.501 -26.511  12.652  1.00  0.00    -0.006 A 
ATOM      3  C   UNL     1      13.229 -24.214  12.327  1.00  0.00     0.001 A 
ATOM      4  C   UNL     1      13.747 -24.550  11.075  1.00  0.00     0.004 A 
ATOM      5  C   UNL     1      12.610 -25.187  13.114  1.00  0.00     0.007 A 
ATOM      6  C   UNL     1      13.651 -25.863  10.608  1.00  0.00     0.046 A 
ATOM      7  C   UNL     1      13.034 -26.850  11.392  1.00  0.00     0.118 A 
BRANCH   7   8
ATOM      8  O   UNL     1      12.951 -28.161  10.924  1.00  0.00    -0.508 OA
ATOM      9  H   UNL     1      13.417 -28.451  10.072  1.00  0.00     0.293 HD
ENDBRANCH   7   8
ENDBRANCH   1   2
BRANCH   1  10
ATOM     10  C   UNL     1      10.363 -27.690  13.288  1.00  0.00     0.040 C 
BRANCH  10  11
ATOM     11  C   UNL     1       9.573 -26.731  14.143  1.00  0.00    -0.040 A 
ATOM     12  C   UNL     1       9.908 -26.547  15.494  1.00  0.00     0.050 A 
ATOM     13  C   UNL     1       8.458 -26.062  13.611  1.00  0.00     0.050 A 
ATOM     14  C   UNL     1       9.146 -25.692  16.302  1.00  0.00     0.119 A 
ATOM     15  C   UNL     1       7.693 -25.211  14.416  1.00  0.00     0.119 A 
ATOM     16  C   UNL     1       8.042 -25.025  15.761  1.00  0.00     0.092 A 
BRANCH  14  17
ATOM     17  O   UNL     1       9.475 -25.502  17.641  1.00  0.00    -0.508 OA
ATOM     18  H   UNL     1       9.806 -26.266  18.219  1.00  0.00     0.293 HD
ENDBRANCH  14  17
BRANCH  15  19
ATOM     19  O   UNL     1       6.591 -24.558  13.872  1.00  0.00    -0.508 OA
ATOM     20  H   UNL     1       5.725 -24.461  14.389  1.00  0.00     0.293 HD
ENDBRANCH  15  19
ENDBRANCH  10  11
ENDBRANCH   1  10
TORSDOF 6
ENDMDL
MODEL 6
REMARK VINA RESULT:    -5.588      1.962      6.097
REMARK INTER + INTRA:          -7.686
REMARK INTER:                  -7.136
REMARK INTRA:                  -0.550
REMARK UNBOUND:                -0.627
REMARK SMILES Oc1cc(O)cc(CCc2ccccc2O)c1
REMARK SMILES IDX 9 1 10 2 12 3 13 4 11 5 14 6 15 7 16 8 8 10 7 11 6 12 17 13
REMARK SMILES IDX 4 14 2 15 3 16 5 17 1 19
REMARK H PARENT 16 9 5 18 1 20
REMARK Flexibility Score: inf
ROOT
ATOM      1  C   UNL     1      10.662 -26.781  15.006  1.00  0.00     0.044 C 
ENDROOT
BRANCH   1   2
ATOM      2  C   UNL     1       9.475 -25.869  15.216  1.00  0.00    -0.006 A 
ATOM      3  C   UNL     1       7.558 -24.686  14.300  1.00  0.00     0.001 A 
ATOM      4  C   UNL     1       7.207 -24.255  15.580  1.00  0.00     0.004 A 
ATOM      5  C   UNL     1       8.685 -25.490  14.117  1.00  0.00     0.007 A 
ATOM      6  C   UNL     1       7.980 -24.629  16.682  1.00  0.00     0.046 A 
ATOM      7  C   UNL     1       9.113 -25.440  16.509  1.00  0.00     0.118 A 
BRANCH   7   8
ATOM      8  O   UNL     1       9.873 -25.819  17.614  1.00  0.00    -0.508 OA
ATOM      9  H   UNL     1      10.599 -25.221  17.991  1.00  0.00     0.293 HD
ENDBRANCH   7   8
ENDBRANCH   1   2
BRANCH   1  10
ATOM     10  C   UNL     1      11.023 -26.914  13.520  1.00  0.00     0.040 C 
BRANCH  10  11
ATOM     11  C   UNL     1      12.379 -26.327  13.219  1.00  0.00    -0.040 A 
ATOM     12  C   UNL     1      13.539 -27.098  13.398  1.00  0.00     0.050 A 
ATOM     13  C   UNL     1      12.497 -24.985  12.819  1.00  0.00     0.050 A 
ATOM     14  C   UNL     1      14.803 -26.539  13.165  1.00  0.00     0.119 A 
ATOM     15  C   UNL     1      13.757 -24.424  12.589  1.00  0.00     0.119 A 
ATOM     16  C   UNL     1      14.909 -25.204  12.759  1.00  0.00     0.092 A 
BRANCH  14  17
ATOM     17  O   UNL     1      15.957 -27.298  13.337  1.00  0.00    -0.508 OA
ATOM     18  H   UNL     1      16.112 -27.843  14.177  1.00  0.00     0.293 HD
ENDBRANCH  14  17
BRANCH  15  19
ATOM     19  O   UNL     1      13.854 -23.092  12.194  1.00  0.00    -0.508 OA
ATOM     20  H   UNL     1      14.732 -22.589  12.239  1.00  0.00     0.293 HD
ENDBRANCH  15  19
ENDBRANCH  10  11
ENDBRANCH   1  10
TORSDOF 6
ENDMDL
MODEL 7
REMARK VINA RESULT:    -5.551      2.299      5.479
REMARK INTER + INTRA:          -7.639
REMARK INTER:                  -6.917
REMARK INTRA:                  -0.722
REMARK UNBOUND:                -0.627
REMARK SMILES Oc1cc(O)cc(CCc2ccccc2O)c1
REMARK SMILES IDX 9 1 10 2 12 3 13 4 11 5 14 6 15 7 16 8 8 10 7 11 6 12 17 13
REMARK SMILES IDX 4 14 2 15 3 16 5 17 1 19
REMARK H PARENT 16 9 5 18 1 20
REMARK Flexibility Score: inf
ROOT
ATOM      1  C   UNL     1      13.292 -28.159  13.139  1.00  0.00     0.044 C 
ENDROOT
BRANCH   1   2
ATOM      2  C   UNL     1      11.855 -27.731  13.330  1.00  0.00    -0.006 A 
ATOM      3  C   UNL     1       9.499 -28.013  12.797  1.00  0.00     0.001 A 
ATOM      4  C   UNL     1       9.166 -27.029  13.729  1.00  0.00     0.004 A 
ATOM      5  C   UNL     1      10.836 -28.365  12.598  1.00  0.00     0.007 A 
ATOM      6  C   UNL     1      10.168 -26.396  14.467  1.00  0.00     0.046 A 
ATOM      7  C   UNL     1      11.514 -26.745  14.277  1.00  0.00     0.118 A 
BRANCH   7   8
ATOM      8  O   UNL     1      12.509 -26.117  15.026  1.00  0.00    -0.508 OA
ATOM      9  H   UNL     1      12.876 -25.209  14.766  1.00  0.00     0.293 HD
ENDBRANCH   7   8
ENDBRANCH   1   2
BRANCH   1  10
ATOM     10  C   UNL     1      13.854 -27.684  11.791  1.00  0.00     0.040 C 
BRANCH  10  11
ATOM     11  C   UNL     1      14.158 -26.207  11.803  1.00  0.00    -0.040 A 
ATOM     12  C   UNL     1      13.374 -25.317  11.050  1.00  0.00     0.050 A 
ATOM     13  C   UNL     1      15.266 -25.717  12.515  1.00  0.00     0.050 A 
ATOM     14  C   UNL     1      13.685 -23.951  11.022  1.00  0.00     0.119 A 
ATOM     15  C   UNL     1      15.580 -24.355  12.485  1.00  0.00     0.119 A 
ATOM     16  C   UNL     1      14.785 -23.473  11.740  1.00  0.00     0.092 A 
BRANCH  14  17
ATOM     17  O   UNL     1      12.910 -23.063  10.280  1.00  0.00    -0.508 OA
ATOM     18  H   UNL     1      11.935 -22.897  10.502  1.00  0.00     0.293 HD
ENDBRANCH  14  17
BRANCH  15  19
ATOM     19  O   UNL     1      16.683 -23.888  13.197  1.00  0.00    -0.508 OA
ATOM     20  H   UNL     1      16.578 -23.248  13.975  1.00  0.00     0.293 HD
ENDBRANCH  15  19
ENDBRANCH  10  11
ENDBRANCH   1  10
TORSDOF 6
ENDMDL
MODEL 8
REMARK VINA RESULT:    -5.544      1.713      2.697
REMARK INTER + INTRA:          -7.629
REMARK INTER:                  -7.102
REMARK INTRA:                  -0.527
REMARK UNBOUND:                -0.627
REMARK SMILES Oc1cc(O)cc(CCc2ccccc2O)c1
REMARK SMILES IDX 9 1 10 2 12 3 13 4 11 5 14 6 15 7 16 8 8 10 7 11 6 12 17 13
REMARK SMILES IDX 4 14 2 15 3 16 5 17 1 19
REMARK H PARENT 16 9 5 18 1 20
REMARK Flexibility Score: inf
ROOT
ATOM      1  C   UNL     1      11.863 -26.983  14.520  1.00  0.00     0.044 C 
ENDROOT
BRANCH   1   2
ATOM      2  C   UNL     1      12.858 -26.218  13.679  1.00  0.00    -0.006 A 
ATOM      3  C   UNL     1      13.416 -24.239  12.381  1.00  0.00     0.001 A 
ATOM      4  C   UNL     1      14.712 -24.723  12.191  1.00  0.00     0.004 A 
ATOM      5  C   UNL     1      12.493 -24.981  13.122  1.00  0.00     0.007 A 
ATOM      6  C   UNL     1      15.089 -25.949  12.746  1.00  0.00     0.046 A 
ATOM      7  C   UNL     1      14.170 -26.700  13.495  1.00  0.00     0.118 A 
BRANCH   7   8
ATOM      8  O   UNL     1      14.557 -27.916  14.055  1.00  0.00    -0.508 OA
ATOM      9  H   UNL     1      15.107 -28.590  13.534  1.00  0.00     0.293 HD
ENDBRANCH   7   8
ENDBRANCH   1   2
BRANCH   1  10
ATOM     10  C   UNL     1      10.551 -27.236  13.763  1.00  0.00     0.040 C 
BRANCH  10  11
ATOM     11  C   UNL     1       9.367 -26.643  14.483  1.00  0.00    -0.040 A 
ATOM     12  C   UNL     1       9.067 -27.038  15.797  1.00  0.00     0.050 A 
ATOM     13  C   UNL     1       8.517 -25.739  13.824  1.00  0.00     0.050 A 
ATOM     14  C   UNL     1       7.939 -26.524  16.450  1.00  0.00     0.119 A 
ATOM     15  C   UNL     1       7.389 -25.227  14.473  1.00  0.00     0.119 A 
ATOM     16  C   UNL     1       7.104 -25.619  15.788  1.00  0.00     0.092 A 
BRANCH  14  17
ATOM     17  O   UNL     1       7.638 -26.909  17.754  1.00  0.00    -0.508 OA
ATOM     18  H   UNL     1       6.971 -27.647  17.948  1.00  0.00     0.293 HD
ENDBRANCH  14  17
BRANCH  15  19
ATOM     19  O   UNL     1       6.558 -24.332  13.802  1.00  0.00    -0.508 OA
ATOM     20  H   UNL     1       5.802 -24.655  13.211  1.00  0.00     0.293 HD
ENDBRANCH  15  19
ENDBRANCH  10  11
ENDBRANCH   1  10
TORSDOF 6
ENDMDL
MODEL 9
REMARK VINA RESULT:    -5.534      1.753      1.942
REMARK INTER + INTRA:          -7.617
REMARK INTER:                  -7.075
REMARK INTRA:                  -0.542
REMARK UNBOUND:                -0.627
REMARK SMILES Oc1cc(O)cc(CCc2ccccc2O)c1
REMARK SMILES IDX 9 1 10 2 12 3 13 4 11 5 14 6 15 7 16 8 8 10 7 11 6 12 17 13
REMARK SMILES IDX 4 14 2 15 3 16 5 17 1 19
REMARK H PARENT 16 9 5 18 1 20
REMARK Flexibility Score: inf
ROOT
ATOM      1  C   UNL     1      11.865 -26.973  14.441  1.00  0.00     0.044 C 
ENDROOT
BRANCH   1   2
ATOM      2  C   UNL     1      12.885 -26.176  13.661  1.00  0.00    -0.006 A 
ATOM      3  C   UNL     1      13.486 -24.143  12.470  1.00  0.00     0.001 A 
ATOM      4  C   UNL     1      14.784 -24.625  12.291  1.00  0.00     0.004 A 
ATOM      5  C   UNL     1      12.541 -24.911  13.152  1.00  0.00     0.007 A 
ATOM      6  C   UNL     1      15.141 -25.877  12.798  1.00  0.00     0.046 A 
ATOM      7  C   UNL     1      14.199 -26.656  13.488  1.00  0.00     0.118 A 
BRANCH   7   8
ATOM      8  O   UNL     1      14.566 -27.900  14.000  1.00  0.00    -0.508 OA
ATOM      9  H   UNL     1      15.124 -28.553  13.463  1.00  0.00     0.293 HD
ENDBRANCH   7   8
ENDBRANCH   1   2
BRANCH   1  10
ATOM     10  C   UNL     1      10.544 -27.115  13.671  1.00  0.00     0.040 C 
BRANCH  10  11
ATOM     11  C   UNL     1       9.382 -26.543  14.444  1.00  0.00    -0.040 A 
ATOM     12  C   UNL     1       8.666 -25.447  13.936  1.00  0.00     0.050 A 
ATOM     13  C   UNL     1       9.048 -27.061  15.706  1.00  0.00     0.050 A 
ATOM     14  C   UNL     1       7.617 -24.884  14.675  1.00  0.00     0.119 A 
ATOM     15  C   UNL     1       8.003 -26.499  16.448  1.00  0.00     0.119 A 
ATOM     16  C   UNL     1       7.287 -25.412  15.928  1.00  0.00     0.092 A 
BRANCH  14  17
ATOM     17  O   UNL     1       6.900 -23.800  14.177  1.00  0.00    -0.508 OA
ATOM     18  H   UNL     1       5.918 -23.877  13.939  1.00  0.00     0.293 HD
ENDBRANCH  14  17
BRANCH  15  19
ATOM     19  O   UNL     1       7.687 -27.025  17.698  1.00  0.00    -0.508 OA
ATOM     20  H   UNL     1       8.160 -26.713  18.538  1.00  0.00     0.293 HD
ENDBRANCH  15  19
ENDBRANCH  10  11
ENDBRANCH   1  10
TORSDOF 6
ENDMDL
