MODEL 1
REMARK VINA RESULT:    -5.218      0.000      0.000
REMARK INTER + INTRA:          -9.134
REMARK INTER:                  -8.268
REMARK INTRA:                  -0.866
REMARK UNBOUND:                -0.866
REMARK SMILES CCCCCCCCCCCC(=O)[O-]
REMARK SMILES IDX 7 1 8 2 9 3 10 4 11 5 12 6 13 7 14 8 6 9 5 10 4 11 3 12 2 13
REMARK SMILES IDX 1 14
REMARK H PARENT
REMARK Flexibility Score: inf
ROOT
ATOM      1  C   UNL     1       6.834  54.179  21.835  1.00  0.00     0.000 C 
ENDROOT
BRANCH   1   2
ATOM      2  C   UNL     1       7.981  53.153  21.783  1.00  0.00     0.000 C 
BRANCH   2   3
ATOM      3  C   UNL     1       9.357  53.812  21.603  1.00  0.00     0.000 C 
BRANCH   3   4
ATOM      4  C   UNL     1      10.268  53.617  22.828  1.00  0.00     0.006 C 
BRANCH   4   5
ATOM      5  C   UNL     1      10.017  54.675  23.910  1.00  0.00     0.053 C 
BRANCH   5   6
ATOM      6  C   UNL     1       9.376  54.083  25.128  1.00  0.00     0.041 C 
ATOM      7  O   UNL     1       9.898  54.245  26.262  1.00  0.00    -0.550 OA
ATOM      8  O   UNL     1       8.184  53.378  25.013  1.00  0.00    -0.550 OA
ENDBRANCH   5   6
ENDBRANCH   4   5
ENDBRANCH   3   4
ENDBRANCH   2   3
ENDBRANCH   1   2
BRANCH   1   9
ATOM      9  C   UNL     1       7.302  55.606  21.506  1.00  0.00     0.000 C 
BRANCH   9  10
ATOM     10  C   UNL     1       6.494  56.244  20.366  1.00  0.00    -0.000 C 
BRANCH  10  11
ATOM     11  C   UNL     1       7.307  56.264  19.063  1.00  0.00    -0.000 C 
BRANCH  11  12
ATOM     12  C   UNL     1       7.588  54.855  18.510  1.00  0.00    -0.000 C 
BRANCH  12  13
ATOM     13  C   UNL     1       6.443  54.245  17.679  1.00  0.00    -0.003 C 
ATOM     14  C   UNL     1       6.387  54.785  16.250  1.00  0.00     0.004 C 
ENDBRANCH  12  13
ENDBRANCH  11  12
ENDBRANCH  10  11
ENDBRANCH   9  10
ENDBRANCH   1   9
TORSDOF 10
ENDMDL
MODEL 2
REMARK VINA RESULT:    -5.207      3.004      6.249
REMARK INTER + INTRA:          -9.116
REMARK INTER:                  -8.047
REMARK INTRA:                  -1.069
REMARK UNBOUND:                -0.866
REMARK SMILES CCCCCCCCCCCC(=O)[O-]
REMARK SMILES IDX 7 1 8 2 9 3 10 4 11 5 12 6 13 7 14 8 6 9 5 10 4 11 3 12 2 13
REMARK SMILES IDX 1 14
REMARK H PARENT
REMARK Flexibility Score: inf
ROOT
ATOM      1  C   UNL     1       7.803  53.398  21.983  1.00  0.00     0.000 C 
ENDROOT
BRANCH   1   2
ATOM      2  C   UNL     1       6.730  54.499  21.894  1.00  0.00     0.000 C 
BRANCH   2   3
ATOM      3  C   UNL     1       7.292  55.833  21.377  1.00  0.00     0.000 C 
BRANCH   3   4
ATOM      4  C   UNL     1       6.581  56.318  20.103  1.00  0.00     0.006 C 
BRANCH   4   5
ATOM      5  C   UNL     1       7.444  56.129  18.850  1.00  0.00     0.053 C 
BRANCH   5   6
ATOM      6  C   UNL     1       6.901  55.056  17.956  1.00  0.00     0.041 C 
ATOM      7  O   UNL     1       6.941  55.192  16.705  1.00  0.00    -0.550 OA
ATOM      8  O   UNL     1       6.378  53.893  18.506  1.00  0.00    -0.550 OA
ENDBRANCH   5   6
ENDBRANCH   4   5
ENDBRANCH   3   4
ENDBRANCH   2   3
ENDBRANCH   1   2
BRANCH   1   9
ATOM      9  C   UNL     1       8.908  53.562  20.927  1.00  0.00     0.000 C 
BRANCH   9  10
ATOM     10  C   UNL     1      10.317  53.522  21.537  1.00  0.00    -0.000 C 
BRANCH  10  11
ATOM     11  C   UNL     1      10.261  53.144  23.024  1.00  0.00    -0.000 C 
BRANCH  11  12
ATOM     12  C   UNL     1      10.751  54.274  23.948  1.00  0.00    -0.000 C 
BRANCH  12  13
ATOM     13  C   UNL     1      10.126  54.276  25.355  1.00  0.00    -0.003 C 
ATOM     14  C   UNL     1       8.626  53.985  25.344  1.00  0.00     0.004 C 
ENDBRANCH  12  13
ENDBRANCH  11  12
ENDBRANCH  10  11
ENDBRANCH   9  10
ENDBRANCH   1   9
TORSDOF 10
ENDMDL
MODEL 3
REMARK VINA RESULT:    -5.041      3.766      6.080
REMARK INTER + INTRA:          -8.854
REMARK INTER:                  -7.867
REMARK INTRA:                  -0.987
REMARK UNBOUND:                -0.866
REMARK SMILES CCCCCCCCCCCC(=O)[O-]
REMARK SMILES IDX 7 1 8 2 9 3 10 4 11 5 12 6 13 7 14 8 6 9 5 10 4 11 3 12 2 13
REMARK SMILES IDX 1 14
REMARK H PARENT
REMARK Flexibility Score: inf
ROOT
ATOM      1  C   UNL     1       5.734  55.133  21.857  1.00  0.00     0.000 C 
ENDROOT
BRANCH   1   2
ATOM      2  C   UNL     1       6.197  56.347  21.030  1.00  0.00     0.000 C 
BRANCH   2   3
ATOM      3  C   UNL     1       7.582  56.138  20.398  1.00  0.00     0.000 C 
BRANCH   3   4
ATOM      4  C   UNL     1       7.523  56.054  18.862  1.00  0.00     0.006 C 
BRANCH   4   5
ATOM      5  C   UNL     1       7.187  54.640  18.373  1.00  0.00     0.053 C 
BRANCH   5   6
ATOM      6  C   UNL     1       6.515  54.659  17.035  1.00  0.00     0.041 C 
ATOM      7  O   UNL     1       6.808  55.544  16.189  1.00  0.00    -0.550 OA
ATOM      8  O   UNL     1       5.584  53.679  16.712  1.00  0.00    -0.550 OA
ENDBRANCH   5   6
ENDBRANCH   4   5
ENDBRANCH   3   4
ENDBRANCH   2   3
ENDBRANCH   1   2
BRANCH   1   9
ATOM      9  C   UNL     1       6.839  54.080  22.032  1.00  0.00     0.000 C 
BRANCH   9  10
ATOM     10  C   UNL     1       7.100  53.737  23.507  1.00  0.00    -0.000 C 
BRANCH  10  11
ATOM     11  C   UNL     1       8.591  53.466  23.752  1.00  0.00    -0.000 C 
BRANCH  11  12
ATOM     12  C   UNL     1       9.510  54.303  22.843  1.00  0.00    -0.000 C 
BRANCH  12  13
ATOM     13  C   UNL     1      10.474  53.483  21.965  1.00  0.00    -0.003 C 
ATOM     14  C   UNL     1      10.065  52.016  21.837  1.00  0.00     0.004 C 
ENDBRANCH  12  13
ENDBRANCH  11  12
ENDBRANCH  10  11
ENDBRANCH   9  10
ENDBRANCH   1   9
TORSDOF 10
ENDMDL
MODEL 4
REMARK VINA RESULT:    -4.984      1.982      2.372
REMARK INTER + INTRA:          -8.763
REMARK INTER:                  -7.885
REMARK INTRA:                  -0.879
REMARK UNBOUND:                -0.866
REMARK SMILES CCCCCCCCCCCC(=O)[O-]
REMARK SMILES IDX 7 1 8 2 9 3 10 4 11 5 12 6 13 7 14 8 6 9 5 10 4 11 3 12 2 13
REMARK SMILES IDX 1 14
REMARK H PARENT
REMARK Flexibility Score: inf
ROOT
ATOM      1  C   UNL     1       5.789  55.056  22.084  1.00  0.00     0.000 C 
ENDROOT
BRANCH   1   2
ATOM      2  C   UNL     1       6.742  53.848  22.012  1.00  0.00     0.000 C 
BRANCH   2   3
ATOM      3  C   UNL     1       7.644  53.731  23.250  1.00  0.00     0.000 C 
BRANCH   3   4
ATOM      4  C   UNL     1       8.894  54.623  23.156  1.00  0.00     0.006 C 
BRANCH   4   5
ATOM      5  C   UNL     1      10.190  53.805  23.153  1.00  0.00     0.053 C 
BRANCH   5   6
ATOM      6  C   UNL     1      10.224  52.818  22.026  1.00  0.00     0.041 C 
ATOM      7  O   UNL     1      10.087  53.208  20.838  1.00  0.00    -0.550 OA
ATOM      8  O   UNL     1      10.437  51.471  22.289  1.00  0.00    -0.550 OA
ENDBRANCH   5   6
ENDBRANCH   4   5
ENDBRANCH   3   4
ENDBRANCH   2   3
ENDBRANCH   1   2
BRANCH   1   9
ATOM      9  C   UNL     1       5.761  55.866  20.777  1.00  0.00     0.000 C 
BRANCH   9  10
ATOM     10  C   UNL     1       7.058  56.656  20.544  1.00  0.00    -0.000 C 
BRANCH  10  11
ATOM     11  C   UNL     1       7.600  56.416  19.128  1.00  0.00    -0.000 C 
BRANCH  11  12
ATOM     12  C   UNL     1       7.206  55.040  18.560  1.00  0.00    -0.000 C 
BRANCH  12  13
ATOM     13  C   UNL     1       6.885  55.029  17.054  1.00  0.00    -0.003 C 
ATOM     14  C   UNL     1       5.959  53.882  16.648  1.00  0.00     0.004 C 
ENDBRANCH  12  13
ENDBRANCH  11  12
ENDBRANCH  10  11
ENDBRANCH   9  10
ENDBRANCH   1   9
TORSDOF 10
ENDMDL
MODEL 5
REMARK VINA RESULT:    -4.759      3.196      5.812
REMARK INTER + INTRA:          -8.407
REMARK INTER:                  -7.405
REMARK INTRA:                  -1.002
REMARK UNBOUND:                -0.866
REMARK SMILES CCCCCCCCCCCC(=O)[O-]
REMARK SMILES IDX 7 1 8 2 9 3 10 4 11 5 12 6 13 7 14 8 6 9 5 10 4 11 3 12 2 13
REMARK SMILES IDX 1 14
REMARK H PARENT
REMARK Flexibility Score: inf
ROOT
ATOM      1  C   UNL     1      10.251  53.504  21.089  1.00  0.00     0.000 C 
ENDROOT
BRANCH   1   2
ATOM      2  C   UNL     1       8.975  54.357  20.953  1.00  0.00     0.000 C 
BRANCH   2   3
ATOM      3  C   UNL     1       7.699  53.504  20.871  1.00  0.00     0.000 C 
BRANCH   3   4
ATOM      4  C   UNL     1       6.508  54.282  20.286  1.00  0.00     0.006 C 
BRANCH   4   5
ATOM      5  C   UNL     1       5.870  55.223  21.315  1.00  0.00     0.053 C 
BRANCH   5   6
ATOM      6  C   UNL     1       5.716  56.613  20.778  1.00  0.00     0.041 C 
ATOM      7  O   UNL     1       6.549  57.070  19.953  1.00  0.00    -0.550 OA
ATOM      8  O   UNL     1       4.634  57.392  21.168  1.00  0.00    -0.550 OA
ENDBRANCH   5   6
ENDBRANCH   4   5
ENDBRANCH   3   4
ENDBRANCH   2   3
ENDBRANCH   1   2
BRANCH   1   9
ATOM      9  C   UNL     1      10.604  53.198  22.554  1.00  0.00     0.000 C 
BRANCH   9  10
ATOM     10  C   UNL     1      10.565  54.449  23.445  1.00  0.00    -0.000 C 
BRANCH  10  11
ATOM     11  C   UNL     1      10.373  54.067  24.919  1.00  0.00    -0.000 C 
BRANCH  11  12
ATOM     12  C   UNL     1       8.953  54.363  25.436  1.00  0.00    -0.000 C 
BRANCH  12  13
ATOM     13  C   UNL     1       7.817  53.927  24.492  1.00  0.00    -0.003 C 
ATOM     14  C   UNL     1       7.693  52.409  24.366  1.00  0.00     0.004 C 
ENDBRANCH  12  13
ENDBRANCH  11  12
ENDBRANCH  10  11
ENDBRANCH   9  10
ENDBRANCH   1   9
TORSDOF 10
ENDMDL
MODEL 6
REMARK VINA RESULT:    -4.610      2.089      3.338
REMARK INTER + INTRA:          -8.170
REMARK INTER:                  -7.676
REMARK INTRA:                  -0.494
REMARK UNBOUND:                -0.866
REMARK SMILES CCCCCCCCCCCC(=O)[O-]
REMARK SMILES IDX 7 1 8 2 9 3 10 4 11 5 12 6 13 7 14 8 6 9 5 10 4 11 3 12 2 13
REMARK SMILES IDX 1 14
REMARK H PARENT
REMARK Flexibility Score: inf
ROOT
ATOM      1  C   UNL     1       7.159  54.155  21.082  1.00  0.00     0.000 C 
ENDROOT
BRANCH   1   2
ATOM      2  C   UNL     1       8.568  54.738  21.297  1.00  0.00     0.000 C 
BRANCH   2   3
ATOM      3  C   UNL     1       9.663  53.660  21.279  1.00  0.00     0.000 C 
BRANCH   3   4
ATOM      4  C   UNL     1      10.225  53.366  22.681  1.00  0.00     0.006 C 
BRANCH   4   5
ATOM      5  C   UNL     1       9.992  54.529  23.653  1.00  0.00     0.053 C 
BRANCH   5   6
ATOM      6  C   UNL     1       9.210  54.100  24.857  1.00  0.00     0.041 C 
ATOM      7  O   UNL     1       8.034  53.670  24.729  1.00  0.00    -0.550 OA
ATOM      8  O   UNL     1       9.792  54.149  26.117  1.00  0.00    -0.550 OA
ENDBRANCH   5   6
ENDBRANCH   4   5
ENDBRANCH   3   4
ENDBRANCH   2   3
ENDBRANCH   1   2
BRANCH   1   9
ATOM      9  C   UNL     1       6.314  54.994  20.110  1.00  0.00     0.000 C 
BRANCH   9  10
ATOM     10  C   UNL     1       6.360  56.496  20.433  1.00  0.00    -0.000 C 
BRANCH  10  11
ATOM     11  C   UNL     1       5.075  56.944  21.143  1.00  0.00    -0.000 C 
BRANCH  11  12
ATOM     12  C   UNL     1       4.300  58.018  20.358  1.00  0.00    -0.000 C 
BRANCH  12  13
ATOM     13  C   UNL     1       2.889  58.322  20.896  1.00  0.00    -0.003 C 
ATOM     14  C   UNL     1       2.712  59.779  21.322  1.00  0.00     0.004 C 
ENDBRANCH  12  13
ENDBRANCH  11  12
ENDBRANCH  10  11
ENDBRANCH   9  10
ENDBRANCH   1   9
TORSDOF 10
ENDMDL
MODEL 7
REMARK VINA RESULT:    -4.592      2.569      5.849
REMARK INTER + INTRA:          -8.143
REMARK INTER:                  -7.728
REMARK INTRA:                  -0.415
REMARK UNBOUND:                -0.866
REMARK SMILES CCCCCCCCCCCC(=O)[O-]
REMARK SMILES IDX 7 1 8 2 9 3 10 4 11 5 12 6 13 7 14 8 6 9 5 10 4 11 3 12 2 13
REMARK SMILES IDX 1 14
REMARK H PARENT
REMARK Flexibility Score: inf
ROOT
ATOM      1  C   UNL     1       9.735  53.676  21.289  1.00  0.00     0.000 C 
ENDROOT
BRANCH   1   2
ATOM      2  C   UNL     1       8.752  54.774  20.845  1.00  0.00     0.000 C 
BRANCH   2   3
ATOM      3  C   UNL     1       7.940  54.375  19.602  1.00  0.00     0.000 C 
BRANCH   3   4
ATOM      4  C   UNL     1       6.992  55.492  19.133  1.00  0.00     0.006 C 
BRANCH   4   5
ATOM      5  C   UNL     1       6.827  56.592  20.189  1.00  0.00     0.053 C 
BRANCH   5   6
ATOM      6  C   UNL     1       5.577  56.407  20.994  1.00  0.00     0.041 C 
ATOM      7  O   UNL     1       4.664  57.272  20.956  1.00  0.00    -0.550 OA
ATOM      8  O   UNL     1       5.411  55.263  21.765  1.00  0.00    -0.550 OA
ENDBRANCH   5   6
ENDBRANCH   4   5
ENDBRANCH   3   4
ENDBRANCH   2   3
ENDBRANCH   1   2
BRANCH   1   9
ATOM      9  C   UNL     1       9.030  52.487  21.961  1.00  0.00     0.000 C 
BRANCH   9  10
ATOM     10  C   UNL     1       7.986  52.929  22.998  1.00  0.00    -0.000 C 
BRANCH  10  11
ATOM     11  C   UNL     1       8.463  54.174  23.760  1.00  0.00    -0.000 C 
BRANCH  11  12
ATOM     12  C   UNL     1       8.684  53.910  25.261  1.00  0.00    -0.000 C 
BRANCH  12  13
ATOM     13  C   UNL     1      10.095  54.249  25.777  1.00  0.00    -0.003 C 
ATOM     14  C   UNL     1      11.119  54.413  24.654  1.00  0.00     0.004 C 
ENDBRANCH  12  13
ENDBRANCH  11  12
ENDBRANCH  10  11
ENDBRANCH   9  10
ENDBRANCH   1   9
TORSDOF 10
ENDMDL
MODEL 8
REMARK VINA RESULT:    -4.429      3.074      6.230
REMARK INTER + INTRA:          -7.884
REMARK INTER:                  -7.362
REMARK INTRA:                  -0.522
REMARK UNBOUND:                -0.866
REMARK SMILES CCCCCCCCCCCC(=O)[O-]
REMARK SMILES IDX 7 1 8 2 9 3 10 4 11 5 12 6 13 7 14 8 6 9 5 10 4 11 3 12 2 13
REMARK SMILES IDX 1 14
REMARK H PARENT
REMARK Flexibility Score: inf
ROOT
ATOM      1  C   UNL     1       9.820  53.642  20.849  1.00  0.00     0.000 C 
ENDROOT
BRANCH   1   2
ATOM      2  C   UNL     1       8.440  54.311  20.982  1.00  0.00     0.000 C 
BRANCH   2   3
ATOM      3  C   UNL     1       8.396  55.710  20.349  1.00  0.00     0.000 C 
BRANCH   3   4
ATOM      4  C   UNL     1       7.149  55.922  19.473  1.00  0.00     0.006 C 
BRANCH   4   5
ATOM      5  C   UNL     1       7.319  55.327  18.070  1.00  0.00     0.053 C 
BRANCH   5   6
ATOM      6  C   UNL     1       6.383  54.181  17.834  1.00  0.00     0.041 C 
ATOM      7  O   UNL     1       5.862  54.011  16.701  1.00  0.00    -0.550 OA
ATOM      8  O   UNL     1       6.110  53.285  18.860  1.00  0.00    -0.550 OA
ENDBRANCH   5   6
ENDBRANCH   4   5
ENDBRANCH   3   4
ENDBRANCH   2   3
ENDBRANCH   1   2
BRANCH   1   9
ATOM      9  C   UNL     1      10.484  53.380  22.211  1.00  0.00     0.000 C 
BRANCH   9  10
ATOM     10  C   UNL     1      10.360  54.576  23.168  1.00  0.00    -0.000 C 
BRANCH  10  11
ATOM     11  C   UNL     1      10.365  54.110  24.631  1.00  0.00    -0.000 C 
BRANCH  11  12
ATOM     12  C   UNL     1       8.955  54.051  25.246  1.00  0.00    -0.000 C 
BRANCH  12  13
ATOM     13  C   UNL     1       8.041  52.955  24.668  1.00  0.00    -0.003 C 
ATOM     14  C   UNL     1       6.980  53.502  23.714  1.00  0.00     0.004 C 
ENDBRANCH  12  13
ENDBRANCH  11  12
ENDBRANCH  10  11
ENDBRANCH   9  10
ENDBRANCH   1   9
TORSDOF 10
ENDMDL
MODEL 9
REMARK VINA RESULT:    -4.424      3.943      6.775
REMARK INTER + INTRA:          -7.876
REMARK INTER:                  -7.408
REMARK INTRA:                  -0.468
REMARK UNBOUND:                -0.866
REMARK SMILES CCCCCCCCCCCC(=O)[O-]
REMARK SMILES IDX 7 1 8 2 9 3 10 4 11 5 12 6 13 7 14 8 6 9 5 10 4 11 3 12 2 13
REMARK SMILES IDX 1 14
REMARK H PARENT
REMARK Flexibility Score: inf
ROOT
ATOM      1  C   UNL     1       7.703  56.051  19.666  1.00  0.00     0.000 C 
ENDROOT
BRANCH   1   2
ATOM      2  C   UNL     1       6.977  56.497  20.948  1.00  0.00     0.000 C 
BRANCH   2   3
ATOM      3  C   UNL     1       5.478  56.160  20.928  1.00  0.00     0.000 C 
BRANCH   3   4
ATOM      4  C   UNL     1       4.603  57.334  21.401  1.00  0.00     0.006 C 
BRANCH   4   5
ATOM      5  C   UNL     1       3.955  58.082  20.229  1.00  0.00     0.053 C 
BRANCH   5   6
ATOM      6  C   UNL     1       2.678  58.752  20.634  1.00  0.00     0.041 C 
ATOM      7  O   UNL     1       1.763  58.937  19.789  1.00  0.00    -0.550 OA
ATOM      8  O   UNL     1       2.489  59.147  21.952  1.00  0.00    -0.550 OA
ENDBRANCH   5   6
ENDBRANCH   4   5
ENDBRANCH   3   4
ENDBRANCH   2   3
ENDBRANCH   1   2
BRANCH   1   9
ATOM      9  C   UNL     1       7.898  54.528  19.595  1.00  0.00     0.000 C 
BRANCH   9  10
ATOM     10  C   UNL     1       8.230  53.912  20.962  1.00  0.00    -0.000 C 
BRANCH  10  11
ATOM     11  C   UNL     1       9.749  53.842  21.178  1.00  0.00    -0.000 C 
BRANCH  11  12
ATOM     12  C   UNL     1      10.133  53.453  22.618  1.00  0.00    -0.000 C 
BRANCH  12  13
ATOM     13  C   UNL     1      10.039  54.598  23.644  1.00  0.00    -0.003 C 
ATOM     14  C   UNL     1      10.283  54.135  25.080  1.00  0.00     0.004 C 
ENDBRANCH  12  13
ENDBRANCH  11  12
ENDBRANCH  10  11
ENDBRANCH   9  10
ENDBRANCH   1   9
TORSDOF 10
ENDMDL
