MODEL 1
REMARK VINA RESULT:    -7.395      0.000      0.000
REMARK INTER + INTRA:          -8.961
REMARK INTER:                  -8.692
REMARK INTRA:                  -0.269
REMARK UNBOUND:                -0.269
REMARK SMILES O=c1cc(-c2ccc(O)c(O)c2)oc2cc(O)cc(O)c12
REMARK SMILES IDX 4 1 3 2 2 3 1 4 21 5 19 6 18 7 16 8 15 9 14 10 13 11 5 12
REMARK SMILES IDX 6 13 7 14 8 15 12 16 10 17 9 18 11 20 20 22 17 24
REMARK H PARENT 9 19 11 21 20 23 17 25
REMARK Flexibility Score: inf
ROOT
ATOM      1  C   UNL     1      41.969  43.912   3.839  1.00  0.00     0.138 A 
ATOM      2  C   UNL     1      43.237  43.796   3.255  1.00  0.00     0.100 A 
ATOM      3  C   UNL     1      44.055  42.716   3.590  1.00  0.00     0.197 A 
ATOM      4  O   UNL     1      45.165  42.609   3.009  1.00  0.00    -0.289 OA
ATOM      5  C   UNL     1      43.612  41.767   4.544  1.00  0.00     0.107 A 
ATOM      6  C   UNL     1      44.372  40.643   4.989  1.00  0.00     0.134 A 
ATOM      7  C   UNL     1      43.788  39.717   5.862  1.00  0.00     0.093 A 
ATOM      8  C   UNL     1      42.494  39.904   6.352  1.00  0.00     0.123 A 
ATOM      9  C   UNL     1      41.762  41.023   5.963  1.00  0.00     0.094 A 
ATOM     10  C   UNL     1      42.302  41.947   5.065  1.00  0.00     0.146 A 
ATOM     11  O   UNL     1      41.563  42.991   4.706  1.00  0.00    -0.456 OA
ENDROOT
BRANCH   1  12
ATOM     12  C   UNL     1      41.058  45.043   3.521  1.00  0.00     0.021 A 
ATOM     13  C   UNL     1      40.375  45.120   2.292  1.00  0.00     0.016 A 
ATOM     14  C   UNL     1      39.517  46.190   2.024  1.00  0.00     0.051 A 
ATOM     15  C   UNL     1      39.322  47.195   2.978  1.00  0.00     0.157 A 
ATOM     16  C   UNL     1      40.846  46.050   4.479  1.00  0.00     0.062 A 
ATOM     17  C   UNL     1      39.986  47.124   4.209  1.00  0.00     0.158 A 
BRANCH  15  18
ATOM     18  O   UNL     1      38.468  48.264   2.714  1.00  0.00    -0.504 OA
ATOM     19  H   UNL     1      37.494  48.119   2.478  1.00  0.00     0.293 HD
ENDBRANCH  15  18
BRANCH  17  20
ATOM     20  O   UNL     1      39.787  48.124   5.160  1.00  0.00    -0.504 OA
ATOM     21  H   UNL     1      38.943  48.683   5.173  1.00  0.00     0.293 HD
ENDBRANCH  17  20
ENDBRANCH   1  12
BRANCH   6  22
ATOM     22  O   UNL     1      45.701  40.404   4.626  1.00  0.00    -0.507 OA
ATOM     23  H   UNL     1      46.030  39.588   4.134  1.00  0.00     0.293 HD
ENDBRANCH   6  22
BRANCH   8  24
ATOM     24  O   UNL     1      41.927  38.986   7.232  1.00  0.00    -0.508 OA
ATOM     25  H   UNL     1      41.878  39.168   8.228  1.00  0.00     0.293 HD
ENDBRANCH   8  24
TORSDOF 5
ENDMDL
MODEL 2
REMARK VINA RESULT:    -6.510      1.712      2.141
REMARK INTER + INTRA:          -7.921
REMARK INTER:                  -7.657
REMARK INTRA:                  -0.264
REMARK UNBOUND:                -0.269
REMARK SMILES O=c1cc(-c2ccc(O)c(O)c2)oc2cc(O)cc(O)c12
REMARK SMILES IDX 4 1 3 2 2 3 1 4 21 5 19 6 18 7 16 8 15 9 14 10 13 11 5 12
REMARK SMILES IDX 6 13 7 14 8 15 12 16 10 17 9 18 11 20 20 22 17 24
REMARK H PARENT 9 19 11 21 20 23 17 25
REMARK Flexibility Score: inf
ROOT
ATOM      1  C   UNL     1      41.784  42.742   4.051  1.00  0.00     0.138 A 
ATOM      2  C   UNL     1      42.150  42.076   2.874  1.00  0.00     0.100 A 
ATOM      3  C   UNL     1      42.636  40.770   2.942  1.00  0.00     0.197 A 
ATOM      4  O   UNL     1      42.904  40.180   1.865  1.00  0.00    -0.289 OA
ATOM      5  C   UNL     1      42.791  40.142   4.202  1.00  0.00     0.107 A 
ATOM      6  C   UNL     1      43.309  38.826   4.398  1.00  0.00     0.134 A 
ATOM      7  C   UNL     1      43.321  38.274   5.685  1.00  0.00     0.093 A 
ATOM      8  C   UNL     1      42.890  39.010   6.790  1.00  0.00     0.123 A 
ATOM      9  C   UNL     1      42.429  40.313   6.616  1.00  0.00     0.094 A 
ATOM     10  C   UNL     1      42.371  40.880   5.341  1.00  0.00     0.146 A 
ATOM     11  O   UNL     1      41.908  42.120   5.218  1.00  0.00    -0.456 OA
ENDROOT
BRANCH   1  12
ATOM     12  C   UNL     1      41.263  44.134   4.036  1.00  0.00     0.021 A 
ATOM     13  C   UNL     1      42.011  45.209   4.551  1.00  0.00     0.016 A 
ATOM     14  C   UNL     1      41.500  46.510   4.515  1.00  0.00     0.051 A 
ATOM     15  C   UNL     1      40.239  46.759   3.960  1.00  0.00     0.157 A 
ATOM     16  C   UNL     1      40.003  44.395   3.469  1.00  0.00     0.062 A 
ATOM     17  C   UNL     1      39.490  45.699   3.434  1.00  0.00     0.158 A 
BRANCH  15  18
ATOM     18  O   UNL     1      39.726  48.054   3.925  1.00  0.00    -0.504 OA
ATOM     19  H   UNL     1      39.900  48.671   3.141  1.00  0.00     0.293 HD
ENDBRANCH  15  18
BRANCH  17  20
ATOM     20  O   UNL     1      38.237  45.949   2.878  1.00  0.00    -0.504 OA
ATOM     21  H   UNL     1      37.421  46.109   3.457  1.00  0.00     0.293 HD
ENDBRANCH  17  20
ENDBRANCH   1  12
BRANCH   6  22
ATOM     22  O   UNL     1      43.840  38.033   3.376  1.00  0.00    -0.507 OA
ATOM     23  H   UNL     1      43.336  37.725   2.559  1.00  0.00     0.293 HD
ENDBRANCH   6  22
BRANCH   8  24
ATOM     24  O   UNL     1      42.920  38.458   8.069  1.00  0.00    -0.508 OA
ATOM     25  H   UNL     1      42.116  37.980   8.458  1.00  0.00     0.293 HD
ENDBRANCH   8  24
TORSDOF 5
ENDMDL
MODEL 3
REMARK VINA RESULT:    -6.496      2.213      3.238
REMARK INTER + INTRA:          -7.905
REMARK INTER:                  -7.611
REMARK INTRA:                  -0.294
REMARK UNBOUND:                -0.269
REMARK SMILES O=c1cc(-c2ccc(O)c(O)c2)oc2cc(O)cc(O)c12
REMARK SMILES IDX 4 1 3 2 2 3 1 4 21 5 19 6 18 7 16 8 15 9 14 10 13 11 5 12
REMARK SMILES IDX 6 13 7 14 8 15 12 16 10 17 9 18 11 20 20 22 17 24
REMARK H PARENT 9 19 11 21 20 23 17 25
REMARK Flexibility Score: inf
ROOT
ATOM      1  C   UNL     1      40.260  45.472   3.393  1.00  0.00     0.138 A 
ATOM      2  C   UNL     1      39.808  44.281   2.811  1.00  0.00     0.100 A 
ATOM      3  C   UNL     1      40.606  43.138   2.870  1.00  0.00     0.197 A 
ATOM      4  O   UNL     1      40.150  42.070   2.387  1.00  0.00    -0.289 OA
ATOM      5  C   UNL     1      41.881  43.200   3.485  1.00  0.00     0.107 A 
ATOM      6  C   UNL     1      42.795  42.107   3.575  1.00  0.00     0.134 A 
ATOM      7  C   UNL     1      43.986  42.262   4.296  1.00  0.00     0.093 A 
ATOM      8  C   UNL     1      44.322  43.485   4.880  1.00  0.00     0.123 A 
ATOM      9  C   UNL     1      43.459  44.572   4.755  1.00  0.00     0.094 A 
ATOM     10  C   UNL     1      42.248  44.440   4.073  1.00  0.00     0.146 A 
ATOM     11  O   UNL     1      41.445  45.497   3.993  1.00  0.00    -0.456 OA
ENDROOT
BRANCH   1  12
ATOM     12  C   UNL     1      39.454  46.720   3.358  1.00  0.00     0.021 A 
ATOM     13  C   UNL     1      38.780  47.132   2.192  1.00  0.00     0.016 A 
ATOM     14  C   UNL     1      38.020  48.306   2.191  1.00  0.00     0.051 A 
ATOM     15  C   UNL     1      37.915  49.081   3.351  1.00  0.00     0.157 A 
ATOM     16  C   UNL     1      39.331  47.498   4.523  1.00  0.00     0.062 A 
ATOM     17  C   UNL     1      38.570  48.675   4.520  1.00  0.00     0.158 A 
BRANCH  15  18
ATOM     18  O   UNL     1      37.159  50.252   3.353  1.00  0.00    -0.504 OA
ATOM     19  H   UNL     1      36.536  50.479   4.117  1.00  0.00     0.293 HD
ENDBRANCH  15  18
BRANCH  17  20
ATOM     20  O   UNL     1      38.460  49.446   5.676  1.00  0.00    -0.504 OA
ATOM     21  H   UNL     1      39.265  49.651   6.256  1.00  0.00     0.293 HD
ENDBRANCH  17  20
ENDBRANCH   1  12
BRANCH   6  22
ATOM     22  O   UNL     1      42.596  40.866   2.962  1.00  0.00    -0.507 OA
ATOM     23  H   UNL     1      43.329  40.246   2.656  1.00  0.00     0.293 HD
ENDBRANCH   6  22
BRANCH   8  24
ATOM     24  O   UNL     1      45.516  43.634   5.582  1.00  0.00    -0.508 OA
ATOM     25  H   UNL     1      46.279  42.976   5.474  1.00  0.00     0.293 HD
ENDBRANCH   8  24
TORSDOF 5
ENDMDL
MODEL 4
REMARK VINA RESULT:    -6.384      1.930      6.887
REMARK INTER + INTRA:          -7.773
REMARK INTER:                  -7.510
REMARK INTRA:                  -0.263
REMARK UNBOUND:                -0.269
REMARK SMILES O=c1cc(-c2ccc(O)c(O)c2)oc2cc(O)cc(O)c12
REMARK SMILES IDX 4 1 3 2 2 3 1 4 21 5 19 6 18 7 16 8 15 9 14 10 13 11 5 12
REMARK SMILES IDX 6 13 7 14 8 15 12 16 10 17 9 18 11 20 20 22 17 24
REMARK H PARENT 9 19 11 21 20 23 17 25
REMARK Flexibility Score: inf
ROOT
ATOM      1  C   UNL     1      42.785  41.942   4.041  1.00  0.00     0.138 A 
ATOM      2  C   UNL     1      43.885  42.808   4.004  1.00  0.00     0.100 A 
ATOM      3  C   UNL     1      43.688  44.162   3.728  1.00  0.00     0.197 A 
ATOM      4  O   UNL     1      44.688  44.924   3.757  1.00  0.00    -0.289 OA
ATOM      5  C   UNL     1      42.385  44.642   3.452  1.00  0.00     0.107 A 
ATOM      6  C   UNL     1      42.068  45.995   3.125  1.00  0.00     0.134 A 
ATOM      7  C   UNL     1      40.728  46.371   2.970  1.00  0.00     0.093 A 
ATOM      8  C   UNL     1      39.698  45.434   3.073  1.00  0.00     0.123 A 
ATOM      9  C   UNL     1      40.001  44.101   3.342  1.00  0.00     0.094 A 
ATOM     10  C   UNL     1      41.325  43.700   3.537  1.00  0.00     0.146 A 
ATOM     11  O   UNL     1      41.568  42.422   3.810  1.00  0.00    -0.456 OA
ENDROOT
BRANCH   1  12
ATOM     12  C   UNL     1      42.936  40.491   4.326  1.00  0.00     0.021 A 
ATOM     13  C   UNL     1      43.111  39.548   3.295  1.00  0.00     0.016 A 
ATOM     14  C   UNL     1      43.261  38.191   3.595  1.00  0.00     0.051 A 
ATOM     15  C   UNL     1      43.246  37.755   4.924  1.00  0.00     0.157 A 
ATOM     16  C   UNL     1      42.936  40.045   5.660  1.00  0.00     0.062 A 
ATOM     17  C   UNL     1      43.085  38.684   5.959  1.00  0.00     0.158 A 
BRANCH  15  18
ATOM     18  O   UNL     1      43.393  36.402   5.225  1.00  0.00    -0.504 OA
ATOM     19  H   UNL     1      43.826  35.758   4.574  1.00  0.00     0.293 HD
ENDBRANCH  15  18
BRANCH  17  20
ATOM     20  O   UNL     1      43.074  38.247   7.283  1.00  0.00    -0.504 OA
ATOM     21  H   UNL     1      42.278  37.759   7.675  1.00  0.00     0.293 HD
ENDBRANCH  17  20
ENDBRANCH   1  12
BRANCH   6  22
ATOM     22  O   UNL     1      43.023  46.996   2.920  1.00  0.00    -0.507 OA
ATOM     23  H   UNL     1      42.959  47.939   3.269  1.00  0.00     0.293 HD
ENDBRANCH   6  22
BRANCH   8  24
ATOM     24  O   UNL     1      38.369  45.814   2.901  1.00  0.00    -0.508 OA
ATOM     25  H   UNL     1      37.726  45.258   2.350  1.00  0.00     0.293 HD
ENDBRANCH   8  24
TORSDOF 5
ENDMDL
MODEL 5
REMARK VINA RESULT:    -6.276      1.858      2.065
REMARK INTER + INTRA:          -7.646
REMARK INTER:                  -7.376
REMARK INTRA:                  -0.270
REMARK UNBOUND:                -0.269
REMARK SMILES O=c1cc(-c2ccc(O)c(O)c2)oc2cc(O)cc(O)c12
REMARK SMILES IDX 4 1 3 2 2 3 1 4 21 5 19 6 18 7 16 8 15 9 14 10 13 11 5 12
REMARK SMILES IDX 6 13 7 14 8 15 12 16 10 17 9 18 11 20 20 22 17 24
REMARK H PARENT 9 19 11 21 20 23 17 25
REMARK Flexibility Score: inf
ROOT
ATOM      1  C   UNL     1      41.643  45.123   3.598  1.00  0.00     0.138 A 
ATOM      2  C   UNL     1      42.932  45.498   4.000  1.00  0.00     0.100 A 
ATOM      3  C   UNL     1      43.931  44.530   4.106  1.00  0.00     0.197 A 
ATOM      4  O   UNL     1      45.091  44.906   4.416  1.00  0.00    -0.289 OA
ATOM      5  C   UNL     1      43.628  43.172   3.841  1.00  0.00     0.107 A 
ATOM      6  C   UNL     1      44.557  42.094   3.948  1.00  0.00     0.134 A 
ATOM      7  C   UNL     1      44.166  40.805   3.563  1.00  0.00     0.093 A 
ATOM      8  C   UNL     1      42.864  40.546   3.131  1.00  0.00     0.123 A 
ATOM      9  C   UNL     1      41.935  41.582   3.070  1.00  0.00     0.094 A 
ATOM     10  C   UNL     1      42.304  42.885   3.413  1.00  0.00     0.146 A 
ATOM     11  O   UNL     1      41.391  43.847   3.323  1.00  0.00    -0.456 OA
ENDROOT
BRANCH   1  12
ATOM     12  C   UNL     1      40.541  46.110   3.472  1.00  0.00     0.021 A 
ATOM     13  C   UNL     1      39.779  46.223   2.293  1.00  0.00     0.016 A 
ATOM     14  C   UNL     1      38.740  47.155   2.206  1.00  0.00     0.051 A 
ATOM     15  C   UNL     1      38.441  47.983   3.294  1.00  0.00     0.157 A 
ATOM     16  C   UNL     1      40.224  46.937   4.564  1.00  0.00     0.062 A 
ATOM     17  C   UNL     1      39.184  47.873   4.477  1.00  0.00     0.158 A 
BRANCH  15  18
ATOM     18  O   UNL     1      37.408  48.914   3.210  1.00  0.00    -0.504 OA
ATOM     19  H   UNL     1      37.535  49.806   2.749  1.00  0.00     0.293 HD
ENDBRANCH  15  18
BRANCH  17  20
ATOM     20  O   UNL     1      38.882  48.695   5.560  1.00  0.00    -0.504 OA
ATOM     21  H   UNL     1      38.013  49.215   5.607  1.00  0.00     0.293 HD
ENDBRANCH  17  20
ENDBRANCH   1  12
BRANCH   6  22
ATOM     22  O   UNL     1      45.858  42.227   4.444  1.00  0.00    -0.507 OA
ATOM     23  H   UNL     1      46.645  41.663   4.167  1.00  0.00     0.293 HD
ENDBRANCH   6  22
BRANCH   8  24
ATOM     24  O   UNL     1      42.480  39.258   2.764  1.00  0.00    -0.508 OA
ATOM     25  H   UNL     1      43.034  38.702   2.123  1.00  0.00     0.293 HD
ENDBRANCH   8  24
TORSDOF 5
ENDMDL
MODEL 6
REMARK VINA RESULT:    -5.742      2.565      8.365
REMARK INTER + INTRA:          -7.018
REMARK INTER:                  -6.747
REMARK INTRA:                  -0.271
REMARK UNBOUND:                -0.269
REMARK SMILES O=c1cc(-c2ccc(O)c(O)c2)oc2cc(O)cc(O)c12
REMARK SMILES IDX 4 1 3 2 2 3 1 4 21 5 19 6 18 7 16 8 15 9 14 10 13 11 5 12
REMARK SMILES IDX 6 13 7 14 8 15 12 16 10 17 9 18 11 20 20 22 17 24
REMARK H PARENT 9 19 11 21 20 23 17 25
REMARK Flexibility Score: inf
ROOT
ATOM      1  C   UNL     1      40.094  46.514   3.294  1.00  0.00     0.138 A 
ATOM      2  C   UNL     1      39.663  47.116   4.483  1.00  0.00     0.100 A 
ATOM      3  C   UNL     1      38.735  48.157   4.433  1.00  0.00     0.197 A 
ATOM      4  O   UNL     1      38.327  48.640   5.520  1.00  0.00    -0.289 OA
ATOM      5  C   UNL     1      38.265  48.622   3.180  1.00  0.00     0.107 A 
ATOM      6  C   UNL     1      37.344  49.699   3.005  1.00  0.00     0.134 A 
ATOM      7  C   UNL     1      36.875  50.002   1.720  1.00  0.00     0.093 A 
ATOM      8  C   UNL     1      37.336  49.307   0.601  1.00  0.00     0.123 A 
ATOM      9  C   UNL     1      38.273  48.288   0.756  1.00  0.00     0.094 A 
ATOM     10  C   UNL     1      38.734  47.937   2.027  1.00  0.00     0.146 A 
ATOM     11  O   UNL     1      39.613  46.946   2.133  1.00  0.00    -0.456 OA
ENDROOT
BRANCH   1  12
ATOM     12  C   UNL     1      41.081  45.404   3.288  1.00  0.00     0.021 A 
ATOM     13  C   UNL     1      42.430  45.612   3.633  1.00  0.00     0.016 A 
ATOM     14  C   UNL     1      43.335  44.546   3.629  1.00  0.00     0.051 A 
ATOM     15  C   UNL     1      42.909  43.258   3.287  1.00  0.00     0.157 A 
ATOM     16  C   UNL     1      40.659  44.104   2.959  1.00  0.00     0.062 A 
ATOM     17  C   UNL     1      41.567  43.036   2.953  1.00  0.00     0.158 A 
BRANCH  15  18
ATOM     18  O   UNL     1      43.809  42.194   3.280  1.00  0.00    -0.504 OA
ATOM     19  H   UNL     1      44.544  42.117   3.972  1.00  0.00     0.293 HD
ENDBRANCH  15  18
BRANCH  17  20
ATOM     20  O   UNL     1      41.143  41.751   2.617  1.00  0.00    -0.504 OA
ATOM     21  H   UNL     1      41.163  40.993   3.288  1.00  0.00     0.293 HD
ENDBRANCH  17  20
ENDBRANCH   1  12
BRANCH   6  22
ATOM     22  O   UNL     1      36.880  50.510   4.044  1.00  0.00    -0.507 OA
ATOM     23  H   UNL     1      36.410  50.180   4.872  1.00  0.00     0.293 HD
ENDBRANCH   6  22
BRANCH   8  24
ATOM     24  O   UNL     1      36.876  49.626  -0.675  1.00  0.00    -0.508 OA
ATOM     25  H   UNL     1      37.423  49.421  -1.502  1.00  0.00     0.293 HD
ENDBRANCH   8  24
TORSDOF 5
ENDMDL
MODEL 7
REMARK VINA RESULT:    -5.642     13.546     15.040
REMARK INTER + INTRA:          -6.900
REMARK INTER:                  -6.583
REMARK INTRA:                  -0.317
REMARK UNBOUND:                -0.269
REMARK SMILES O=c1cc(-c2ccc(O)c(O)c2)oc2cc(O)cc(O)c12
REMARK SMILES IDX 4 1 3 2 2 3 1 4 21 5 19 6 18 7 16 8 15 9 14 10 13 11 5 12
REMARK SMILES IDX 6 13 7 14 8 15 12 16 10 17 9 18 11 20 20 22 17 24
REMARK H PARENT 9 19 11 21 20 23 17 25
REMARK Flexibility Score: inf
ROOT
ATOM      1  C   UNL     1      46.092  53.950  13.825  1.00  0.00     0.138 A 
ATOM      2  C   UNL     1      47.454  54.256  13.933  1.00  0.00     0.100 A 
ATOM      3  C   UNL     1      48.170  53.836  15.055  1.00  0.00     0.197 A 
ATOM      4  O   UNL     1      49.403  54.079  15.097  1.00  0.00    -0.289 OA
ATOM      5  C   UNL     1      47.506  53.137  16.092  1.00  0.00     0.107 A 
ATOM      6  C   UNL     1      48.125  52.689  17.299  1.00  0.00     0.134 A 
ATOM      7  C   UNL     1      47.387  51.920  18.207  1.00  0.00     0.093 A 
ATOM      8  C   UNL     1      46.040  51.631  17.982  1.00  0.00     0.123 A 
ATOM      9  C   UNL     1      45.414  52.106  16.832  1.00  0.00     0.094 A 
ATOM     10  C   UNL     1      46.130  52.846  15.889  1.00  0.00     0.146 A 
ATOM     11  O   UNL     1      45.498  53.264  14.796  1.00  0.00    -0.456 OA
ENDROOT
BRANCH   1  12
ATOM     12  C   UNL     1      45.281  54.374  12.654  1.00  0.00     0.021 A 
ATOM     13  C   UNL     1      45.803  55.224  11.661  1.00  0.00     0.016 A 
ATOM     14  C   UNL     1      45.020  55.598  10.565  1.00  0.00     0.051 A 
ATOM     15  C   UNL     1      43.709  55.126  10.439  1.00  0.00     0.157 A 
ATOM     16  C   UNL     1      43.967  53.893  12.513  1.00  0.00     0.062 A 
ATOM     17  C   UNL     1      43.181  54.270  11.414  1.00  0.00     0.158 A 
BRANCH  15  18
ATOM     18  O   UNL     1      42.926  55.499   9.349  1.00  0.00    -0.504 OA
ATOM     19  H   UNL     1      42.741  54.859   8.586  1.00  0.00     0.293 HD
ENDBRANCH  15  18
BRANCH  17  20
ATOM     20  O   UNL     1      41.876  53.798  11.285  1.00  0.00    -0.504 OA
ATOM     21  H   UNL     1      41.113  54.412  11.029  1.00  0.00     0.293 HD
ENDBRANCH  17  20
ENDBRANCH   1  12
BRANCH   6  22
ATOM     22  O   UNL     1      49.441  52.989  17.661  1.00  0.00    -0.507 OA
ATOM     23  H   UNL     1      50.197  53.156  17.016  1.00  0.00     0.293 HD
ENDBRANCH   6  22
BRANCH   8  24
ATOM     24  O   UNL     1      45.311  50.877  18.899  1.00  0.00    -0.508 OA
ATOM     25  H   UNL     1      45.234  49.870  18.814  1.00  0.00     0.293 HD
ENDBRANCH   8  24
TORSDOF 5
ENDMDL
MODEL 8
REMARK VINA RESULT:    -5.568      2.333      7.828
REMARK INTER + INTRA:          -6.814
REMARK INTER:                  -6.543
REMARK INTRA:                  -0.271
REMARK UNBOUND:                -0.269
REMARK SMILES O=c1cc(-c2ccc(O)c(O)c2)oc2cc(O)cc(O)c12
REMARK SMILES IDX 4 1 3 2 2 3 1 4 21 5 19 6 18 7 16 8 15 9 14 10 13 11 5 12
REMARK SMILES IDX 6 13 7 14 8 15 12 16 10 17 9 18 11 20 20 22 17 24
REMARK H PARENT 9 19 11 21 20 23 17 25
REMARK Flexibility Score: inf
ROOT
ATOM      1  C   UNL     1      39.905  46.226   3.342  1.00  0.00     0.138 A 
ATOM      2  C   UNL     1      39.542  46.796   2.114  1.00  0.00     0.100 A 
ATOM      3  C   UNL     1      38.749  47.944   2.094  1.00  0.00     0.197 A 
ATOM      4  O   UNL     1      38.486  48.464   0.979  1.00  0.00    -0.289 OA
ATOM      5  C   UNL     1      38.288  48.504   3.311  1.00  0.00     0.107 A 
ATOM      6  C   UNL     1      37.447  49.653   3.412  1.00  0.00     0.134 A 
ATOM      7  C   UNL     1      37.138  50.172   4.675  1.00  0.00     0.093 A 
ATOM      8  C   UNL     1      37.591  49.551   5.841  1.00  0.00     0.123 A 
ATOM      9  C   UNL     1      38.370  48.400   5.754  1.00  0.00     0.094 A 
ATOM     10  C   UNL     1      38.726  47.877   4.509  1.00  0.00     0.146 A 
ATOM     11  O   UNL     1      39.487  46.788   4.471  1.00  0.00    -0.456 OA
ENDROOT
BRANCH   1  12
ATOM     12  C   UNL     1      40.744  45.003   3.422  1.00  0.00     0.021 A 
ATOM     13  C   UNL     1      40.257  43.744   3.020  1.00  0.00     0.016 A 
ATOM     14  C   UNL     1      41.073  42.611   3.098  1.00  0.00     0.051 A 
ATOM     15  C   UNL     1      42.386  42.717   3.571  1.00  0.00     0.157 A 
ATOM     16  C   UNL     1      42.069  45.102   3.883  1.00  0.00     0.062 A 
ATOM     17  C   UNL     1      42.886  43.965   3.963  1.00  0.00     0.158 A 
BRANCH  15  18
ATOM     18  O   UNL     1      43.201  41.590   3.651  1.00  0.00    -0.504 OA
ATOM     19  H   UNL     1      44.201  41.647   3.498  1.00  0.00     0.293 HD
ENDBRANCH  15  18
BRANCH  17  20
ATOM     20  O   UNL     1      44.195  44.069   4.429  1.00  0.00    -0.504 OA
ATOM     21  H   UNL     1      44.740  43.250   4.668  1.00  0.00     0.293 HD
ENDBRANCH  17  20
ENDBRANCH   1  12
BRANCH   6  22
ATOM     22  O   UNL     1      36.875  50.304   2.315  1.00  0.00    -0.507 OA
ATOM     23  H   UNL     1      37.327  50.449   1.426  1.00  0.00     0.293 HD
ENDBRANCH   6  22
BRANCH   8  24
ATOM     24  O   UNL     1      37.265  50.066   7.094  1.00  0.00    -0.508 OA
ATOM     25  H   UNL     1      37.794  50.826   7.508  1.00  0.00     0.293 HD
ENDBRANCH   8  24
TORSDOF 5
ENDMDL
MODEL 9
REMARK VINA RESULT:    -5.518     12.797     14.779
REMARK INTER + INTRA:          -6.755
REMARK INTER:                  -6.476
REMARK INTRA:                  -0.279
REMARK UNBOUND:                -0.269
REMARK SMILES O=c1cc(-c2ccc(O)c(O)c2)oc2cc(O)cc(O)c12
REMARK SMILES IDX 4 1 3 2 2 3 1 4 21 5 19 6 18 7 16 8 15 9 14 10 13 11 5 12
REMARK SMILES IDX 6 13 7 14 8 15 12 16 10 17 9 18 11 20 20 22 17 24
REMARK H PARENT 9 19 11 21 20 23 17 25
REMARK Flexibility Score: inf
ROOT
ATOM      1  C   UNL     1      44.784  54.051  13.156  1.00  0.00     0.138 A 
ATOM      2  C   UNL     1      43.776  53.687  14.058  1.00  0.00     0.100 A 
ATOM      3  C   UNL     1      44.119  53.235  15.333  1.00  0.00     0.197 A 
ATOM      4  O   UNL     1      43.191  52.969  16.138  1.00  0.00    -0.289 OA
ATOM      5  C   UNL     1      45.484  53.114  15.693  1.00  0.00     0.107 A 
ATOM      6  C   UNL     1      45.954  52.633  16.952  1.00  0.00     0.134 A 
ATOM      7  C   UNL     1      47.327  52.653  17.228  1.00  0.00     0.093 A 
ATOM      8  C   UNL     1      48.250  53.080  16.271  1.00  0.00     0.123 A 
ATOM      9  C   UNL     1      47.805  53.503  15.021  1.00  0.00     0.094 A 
ATOM     10  C   UNL     1      46.439  53.530  14.727  1.00  0.00     0.146 A 
ATOM     11  O   UNL     1      46.056  53.959  13.529  1.00  0.00    -0.456 OA
ENDROOT
BRANCH   1  12
ATOM     12  C   UNL     1      44.476  54.535  11.786  1.00  0.00     0.021 A 
ATOM     13  C   UNL     1      43.698  55.687  11.566  1.00  0.00     0.016 A 
ATOM     14  C   UNL     1      43.432  56.125  10.264  1.00  0.00     0.051 A 
ATOM     15  C   UNL     1      43.943  55.426   9.165  1.00  0.00     0.157 A 
ATOM     16  C   UNL     1      44.996  53.846  10.675  1.00  0.00     0.062 A 
ATOM     17  C   UNL     1      44.729  54.284   9.371  1.00  0.00     0.158 A 
BRANCH  15  18
ATOM     18  O   UNL     1      43.679  55.858   7.867  1.00  0.00    -0.504 OA
ATOM     19  H   UNL     1      44.248  56.565   7.418  1.00  0.00     0.293 HD
ENDBRANCH  15  18
BRANCH  17  20
ATOM     20  O   UNL     1      45.240  53.592   8.275  1.00  0.00    -0.504 OA
ATOM     21  H   UNL     1      45.192  53.972   7.337  1.00  0.00     0.293 HD
ENDBRANCH  17  20
ENDBRANCH   1  12
BRANCH   6  22
ATOM     22  O   UNL     1      45.126  52.110  17.950  1.00  0.00    -0.507 OA
ATOM     23  H   UNL     1      45.431  51.829  18.868  1.00  0.00     0.293 HD
ENDBRANCH   6  22
BRANCH   8  24
ATOM     24  O   UNL     1      49.615  53.081  16.550  1.00  0.00    -0.508 OA
ATOM     25  H   UNL     1      50.174  53.920  16.452  1.00  0.00     0.293 HD
ENDBRANCH   8  24
TORSDOF 5
ENDMDL
