MODEL 1
REMARK VINA RESULT:    -4.042      0.000      0.000
REMARK INTER + INTRA:          -5.702
REMARK INTER:                  -6.169
REMARK INTRA:                   0.467
REMARK UNBOUND:                 0.467
REMARK SMILES CC1=CCC[C@H](C)C(=O)C[C@H](C(C)C)C(=O)C1
REMARK SMILES IDX 8 1 9 2 6 3 7 4 5 5 4 6 3 7 2 8 1 9 10 11 11 12 15 13 16 14
REMARK SMILES IDX 17 15 12 17 13 18 14 19
REMARK H PARENT
REMARK Flexibility Score: 70.00
ROOT
ATOM      1  C   UNL     1      49.298  25.159  21.375  1.00  0.00     0.136 C 
ATOM      2  O   UNL     1      48.089  25.326  21.471  1.00  0.00    -0.299 OA
ENDROOT
BRANCH   1   3
ATOM      3  C   UNL     1      50.212  26.363  21.271  1.00  0.00     0.053 C 
ATOM      4  C   UNL     1      49.616  27.525  22.074  1.00  0.00     0.016 C 
BRANCH   3   5
ATOM      5  C   UNL     1      51.647  26.055  21.766  1.00  0.00     0.015 C 
BRANCH   5   6
ATOM      6  C   UNL     1      52.676  25.891  20.636  1.00  0.00     0.028 C 
BRANCH   6   7
ATOM      7  C   UNL     1      52.058  26.145  19.282  1.00  0.00    -0.028 C 
ATOM      8  C   UNL     1      51.529  25.194  18.478  1.00  0.00    -0.070 CG0
ATOM      9  C   UNL     1      50.969  25.623  17.147  1.00  0.00     0.039 C 
ATOM     10  G   UNL     1      51.482  23.725  18.860  1.00  0.00     0.000 G0
ENDBRANCH   6   7
ENDBRANCH   5   6
ENDBRANCH   3   5
ENDBRANCH   1   3
BRANCH   1  11
ATOM     11  C   UNL     1      49.842  23.750  21.313  1.00  0.00     0.087 C 
BRANCH  11  12
ATOM     12  C   UNL     1      49.266  22.918  20.139  1.00  0.00     0.066 C 
BRANCH  12  13
ATOM     13  C   UNL     1      50.052  23.145  18.852  1.00  0.00     0.140 C 
ATOM     14  O   UNL     1      49.520  22.894  17.779  1.00  0.00    -0.299 OA
BRANCH  13  15
ATOM     15  C   UNL     1      51.456  23.715  18.830  1.00  0.00     0.106 CG0
ATOM     16  G   UNL     1      51.526  25.190  18.477  1.00  0.00     0.000 G0
ENDBRANCH  13  15
ENDBRANCH  12  13
BRANCH  12  17
ATOM     17  C   UNL     1      49.148  21.408  20.514  1.00  0.00    -0.006 C 
ATOM     18  C   UNL     1      50.084  20.484  19.714  1.00  0.00     0.008 C 
ATOM     19  C   UNL     1      47.699  20.912  20.388  1.00  0.00     0.008 C 
ENDBRANCH  12  17
ENDBRANCH  11  12
ENDBRANCH   1  11
TORSDOF 1
ENDMDL
MODEL 2
REMARK VINA RESULT:    -3.959      1.928      4.803
REMARK INTER + INTRA:          -5.576
REMARK INTER:                  -5.387
REMARK INTRA:                  -0.189
REMARK UNBOUND:                 0.467
REMARK SMILES CC1=CCC[C@H](C)C(=O)C[C@H](C(C)C)C(=O)C1
REMARK SMILES IDX 8 1 9 2 6 3 7 4 5 5 4 6 3 7 2 8 1 9 10 11 11 12 15 13 16 14
REMARK SMILES IDX 17 15 12 17 13 18 14 19
REMARK H PARENT
REMARK Flexibility Score: 70.00
ROOT
ATOM      1  C   UNL     1      51.109  22.411  18.693  1.00  0.00     0.136 C 
ATOM      2  O   UNL     1      51.467  21.253  18.526  1.00  0.00    -0.299 OA
ENDROOT
BRANCH   1   3
ATOM      3  C   UNL     1      49.701  22.695  19.175  1.00  0.00     0.053 C 
ATOM      4  C   UNL     1      48.808  21.486  18.876  1.00  0.00     0.016 C 
BRANCH   3   5
ATOM      5  C   UNL     1      49.654  23.030  20.685  1.00  0.00     0.015 C 
BRANCH   5   6
ATOM      6  C   UNL     1      48.809  24.268  21.026  1.00  0.00     0.028 C 
BRANCH   6   7
ATOM      7  C   UNL     1      49.587  25.255  21.863  1.00  0.00    -0.028 C 
ATOM      8  C   UNL     1      50.317  26.284  21.374  1.00  0.00    -0.070 CG0
ATOM      9  C   UNL     1      51.048  27.164  22.355  1.00  0.00     0.039 C 
ATOM     10  G   UNL     1      50.432  26.580  19.890  1.00  0.00     0.000 G0
ENDBRANCH   6   7
ENDBRANCH   5   6
ENDBRANCH   3   5
ENDBRANCH   1   3
BRANCH   1  11
ATOM     11  C   UNL     1      52.069  23.532  18.364  1.00  0.00     0.087 C 
BRANCH  11  12
ATOM     12  C   UNL     1      51.363  24.875  18.050  1.00  0.00     0.066 C 
BRANCH  12  13
ATOM     13  C   UNL     1      51.579  25.895  19.164  1.00  0.00     0.140 C 
ATOM     14  O   UNL     1      52.721  26.200  19.478  1.00  0.00    -0.299 OA
BRANCH  13  15
ATOM     15  C   UNL     1      50.438  26.592  19.878  1.00  0.00     0.106 CG0
ATOM     16  G   UNL     1      50.343  26.277  21.360  1.00  0.00     0.000 G0
ENDBRANCH  13  15
ENDBRANCH  12  13
BRANCH  12  17
ATOM     17  C   UNL     1      51.772  25.423  16.647  1.00  0.00    -0.006 C 
ATOM     18  C   UNL     1      51.000  26.680  16.211  1.00  0.00     0.008 C 
ATOM     19  C   UNL     1      51.651  24.337  15.566  1.00  0.00     0.008 C 
ENDBRANCH  12  17
ENDBRANCH  11  12
ENDBRANCH   1  11
TORSDOF 1
ENDMDL
MODEL 3
REMARK VINA RESULT:    -3.939      2.070      2.963
REMARK INTER + INTRA:          -5.545
REMARK INTER:                  -5.020
REMARK INTRA:                  -0.525
REMARK UNBOUND:                 0.467
REMARK SMILES CC1=CCC[C@H](C)C(=O)C[C@H](C(C)C)C(=O)C1
REMARK SMILES IDX 8 1 9 2 6 3 7 4 5 5 4 6 3 7 2 8 1 9 10 11 11 12 15 13 16 14
REMARK SMILES IDX 17 15 12 17 13 18 14 19
REMARK H PARENT
REMARK Flexibility Score: 70.00
ROOT
ATOM      1  C   UNL     1      52.280  26.294  21.009  1.00  0.00     0.136 C 
ATOM      2  O   UNL     1      53.275  26.336  21.720  1.00  0.00    -0.299 OA
ENDROOT
BRANCH   1   3
ATOM      3  C   UNL     1      51.470  27.555  20.783  1.00  0.00     0.053 C 
ATOM      4  C   UNL     1      51.124  28.186  22.137  1.00  0.00     0.016 C 
BRANCH   3   5
ATOM      5  C   UNL     1      52.215  28.580  19.894  1.00  0.00     0.015 C 
BRANCH   5   6
ATOM      6  C   UNL     1      51.725  28.618  18.438  1.00  0.00     0.028 C 
BRANCH   6   7
ATOM      7  C   UNL     1      52.593  27.771  17.539  1.00  0.00    -0.028 C 
ATOM      8  C   UNL     1      52.212  26.609  16.960  1.00  0.00    -0.070 CG0
ATOM      9  C   UNL     1      53.215  25.881  16.104  1.00  0.00     0.039 C 
ATOM     10  G   UNL     1      50.827  26.013  17.142  1.00  0.00     0.000 G0
ENDBRANCH   6   7
ENDBRANCH   5   6
ENDBRANCH   3   5
ENDBRANCH   1   3
BRANCH   1  11
ATOM     11  C   UNL     1      51.857  24.971  20.414  1.00  0.00     0.087 C 
BRANCH  11  12
ATOM     12  C   UNL     1      50.532  25.050  19.613  1.00  0.00     0.066 C 
BRANCH  12  13
ATOM     13  C   UNL     1      50.767  24.848  18.119  1.00  0.00     0.140 C 
ATOM     14  O   UNL     1      50.874  23.709  17.684  1.00  0.00    -0.299 OA
BRANCH  13  15
ATOM     15  C   UNL     1      50.828  25.994  17.129  1.00  0.00     0.106 CG0
ATOM     16  G   UNL     1      52.209  26.604  16.965  1.00  0.00     0.000 G0
ENDBRANCH  13  15
ENDBRANCH  12  13
BRANCH  12  17
ATOM     17  C   UNL     1      49.456  24.079  20.190  1.00  0.00    -0.006 C 
ATOM     18  C   UNL     1      48.303  24.781  20.929  1.00  0.00     0.008 C 
ATOM     19  C   UNL     1      50.090  23.020  21.105  1.00  0.00     0.008 C 
ENDBRANCH  12  17
ENDBRANCH  11  12
ENDBRANCH   1  11
TORSDOF 1
ENDMDL
MODEL 4
REMARK VINA RESULT:    -3.898      1.947      4.207
REMARK INTER + INTRA:          -5.482
REMARK INTER:                  -5.655
REMARK INTRA:                   0.173
REMARK UNBOUND:                 0.467
REMARK SMILES CC1=CCC[C@H](C)C(=O)C[C@H](C(C)C)C(=O)C1
REMARK SMILES IDX 8 1 9 2 6 3 7 4 5 5 4 6 3 7 2 8 1 9 10 11 11 12 15 13 16 14
REMARK SMILES IDX 17 15 12 17 13 18 14 19
REMARK H PARENT
REMARK Flexibility Score: 70.00
ROOT
ATOM      1  C   UNL     1      50.756  23.444  20.093  1.00  0.00     0.136 C 
ATOM      2  O   UNL     1      50.150  23.057  21.083  1.00  0.00    -0.299 OA
ENDROOT
BRANCH   1   3
ATOM      3  C   UNL     1      50.468  22.811  18.746  1.00  0.00     0.053 C 
ATOM      4  C   UNL     1      49.326  21.800  18.894  1.00  0.00     0.016 C 
BRANCH   3   5
ATOM      5  C   UNL     1      50.112  23.863  17.668  1.00  0.00     0.015 C 
BRANCH   5   6
ATOM      6  C   UNL     1      51.330  24.432  16.923  1.00  0.00     0.028 C 
BRANCH   6   7
ATOM      7  C   UNL     1      51.128  25.884  16.560  1.00  0.00    -0.028 C 
ATOM      8  C   UNL     1      51.636  26.935  17.244  1.00  0.00    -0.070 CG0
ATOM      9  C   UNL     1      51.318  28.322  16.752  1.00  0.00     0.039 C 
ATOM     10  G   UNL     1      52.501  26.771  18.482  1.00  0.00     0.000 G0
ENDBRANCH   6   7
ENDBRANCH   5   6
ENDBRANCH   3   5
ENDBRANCH   1   3
BRANCH   1  11
ATOM     11  C   UNL     1      51.815  24.511  20.250  1.00  0.00     0.087 C 
BRANCH  11  12
ATOM     12  C   UNL     1      51.245  25.888  20.672  1.00  0.00     0.066 C 
BRANCH  12  13
ATOM     13  C   UNL     1      51.796  27.014  19.802  1.00  0.00     0.140 C 
ATOM     14  O   UNL     1      51.694  28.169  20.191  1.00  0.00    -0.299 OA
BRANCH  13  15
ATOM     15  C   UNL     1      52.512  26.768  18.489  1.00  0.00     0.106 CG0
ATOM     16  G   UNL     1      51.642  26.950  17.259  1.00  0.00     0.000 G0
ENDBRANCH  13  15
ENDBRANCH  12  13
BRANCH  12  17
ATOM     17  C   UNL     1      49.685  25.872  20.716  1.00  0.00    -0.006 C 
ATOM     18  C   UNL     1      49.013  26.679  19.591  1.00  0.00     0.008 C 
ATOM     19  C   UNL     1      49.159  26.345  22.080  1.00  0.00     0.008 C 
ENDBRANCH  12  17
ENDBRANCH  11  12
ENDBRANCH   1  11
TORSDOF 1
ENDMDL
MODEL 5
REMARK VINA RESULT:    -3.848      2.272      5.025
REMARK INTER + INTRA:          -5.406
REMARK INTER:                  -5.000
REMARK INTRA:                  -0.406
REMARK UNBOUND:                 0.467
REMARK SMILES CC1=CCC[C@H](C)C(=O)C[C@H](C(C)C)C(=O)C1
REMARK SMILES IDX 8 1 9 2 6 3 7 4 5 5 4 6 3 7 2 8 1 9 10 11 11 12 15 13 16 14
REMARK SMILES IDX 17 15 12 17 13 18 14 19
REMARK H PARENT
REMARK Flexibility Score: 70.00
ROOT
ATOM      1  C   UNL     1      51.526  24.139  19.130  1.00  0.00     0.136 C 
ATOM      2  O   UNL     1      52.377  23.276  18.958  1.00  0.00    -0.299 OA
ENDROOT
BRANCH   1   3
ATOM      3  C   UNL     1      50.122  23.735  19.531  1.00  0.00     0.053 C 
ATOM      4  C   UNL     1      49.695  22.508  18.717  1.00  0.00     0.016 C 
BRANCH   3   5
ATOM      5  C   UNL     1      50.008  23.434  21.045  1.00  0.00     0.015 C 
BRANCH   5   6
ATOM      6  C   UNL     1      50.147  24.675  21.941  1.00  0.00     0.028 C 
BRANCH   6   7
ATOM      7  C   UNL     1      48.966  25.604  21.789  1.00  0.00    -0.028 C 
ATOM      8  C   UNL     1      49.014  26.839  21.239  1.00  0.00    -0.070 CG0
ATOM      9  C   UNL     1      47.740  27.640  21.184  1.00  0.00     0.039 C 
ATOM     10  G   UNL     1      50.292  27.445  20.686  1.00  0.00     0.000 G0
ENDBRANCH   6   7
ENDBRANCH   5   6
ENDBRANCH   3   5
ENDBRANCH   1   3
BRANCH   1  11
ATOM     11  C   UNL     1      51.888  25.587  18.887  1.00  0.00     0.087 C 
BRANCH  11  12
ATOM     12  C   UNL     1      50.740  26.412  18.254  1.00  0.00     0.066 C 
BRANCH  12  13
ATOM     13  C   UNL     1      50.311  27.562  19.160  1.00  0.00     0.140 C 
ATOM     14  O   UNL     1      49.935  28.609  18.652  1.00  0.00    -0.299 OA
BRANCH  13  15
ATOM     15  C   UNL     1      50.281  27.457  20.671  1.00  0.00     0.106 CG0
ATOM     16  G   UNL     1      49.008  26.846  21.230  1.00  0.00     0.000 G0
ENDBRANCH  13  15
ENDBRANCH  12  13
BRANCH  12  17
ATOM     17  C   UNL     1      51.103  26.886  16.812  1.00  0.00    -0.006 C 
ATOM     18  C   UNL     1      50.892  25.816  15.725  1.00  0.00     0.008 C 
ATOM     19  C   UNL     1      52.542  27.419  16.744  1.00  0.00     0.008 C 
ENDBRANCH  12  17
ENDBRANCH  11  12
ENDBRANCH   1  11
TORSDOF 1
ENDMDL
MODEL 6
REMARK VINA RESULT:    -3.837      1.621      3.331
REMARK INTER + INTRA:          -5.390
REMARK INTER:                  -5.406
REMARK INTRA:                   0.016
REMARK UNBOUND:                 0.467
REMARK SMILES CC1=CCC[C@H](C)C(=O)C[C@H](C(C)C)C(=O)C1
REMARK SMILES IDX 8 1 9 2 6 3 7 4 5 5 4 6 3 7 2 8 1 9 10 11 11 12 15 13 16 14
REMARK SMILES IDX 17 15 12 17 13 18 14 19
REMARK H PARENT
REMARK Flexibility Score: 70.00
ROOT
ATOM      1  C   UNL     1      50.340  24.785  18.148  1.00  0.00     0.136 C 
ATOM      2  O   UNL     1      49.588  25.750  18.178  1.00  0.00    -0.299 OA
ENDROOT
BRANCH   1   3
ATOM      3  C   UNL     1      51.832  25.005  18.000  1.00  0.00     0.053 C 
ATOM      4  C   UNL     1      52.153  25.338  16.538  1.00  0.00     0.016 C 
BRANCH   3   5
ATOM      5  C   UNL     1      52.355  26.129  18.927  1.00  0.00     0.015 C 
BRANCH   5   6
ATOM      6  C   UNL     1      52.389  25.745  20.416  1.00  0.00     0.028 C 
BRANCH   6   7
ATOM      7  C   UNL     1      51.246  26.373  21.176  1.00  0.00    -0.028 C 
ATOM      8  C   UNL     1      50.256  25.690  21.796  1.00  0.00    -0.070 CG0
ATOM      9  C   UNL     1      49.180  26.480  22.494  1.00  0.00     0.039 C 
ATOM     10  G   UNL     1      50.185  24.174  21.808  1.00  0.00     0.000 G0
ENDBRANCH   6   7
ENDBRANCH   5   6
ENDBRANCH   3   5
ENDBRANCH   1   3
BRANCH   1  11
ATOM     11  C   UNL     1      49.753  23.394  18.211  1.00  0.00     0.087 C 
BRANCH  11  12
ATOM     12  C   UNL     1      49.923  22.714  19.593  1.00  0.00     0.066 C 
BRANCH  12  13
ATOM     13  C   UNL     1      49.331  23.564  20.713  1.00  0.00     0.140 C 
ATOM     14  O   UNL     1      48.120  23.732  20.753  1.00  0.00    -0.299 OA
BRANCH  13  15
ATOM     15  C   UNL     1      50.169  24.177  21.817  1.00  0.00     0.106 CG0
ATOM     16  G   UNL     1      50.226  25.694  21.789  1.00  0.00     0.000 G0
ENDBRANCH  13  15
ENDBRANCH  12  13
BRANCH  12  17
ATOM     17  C   UNL     1      49.367  21.256  19.586  1.00  0.00    -0.006 C 
ATOM     18  C   UNL     1      47.933  21.130  19.040  1.00  0.00     0.008 C 
ATOM     19  C   UNL     1      49.449  20.619  20.981  1.00  0.00     0.008 C 
ENDBRANCH  12  17
ENDBRANCH  11  12
ENDBRANCH   1  11
TORSDOF 1
ENDMDL
MODEL 7
REMARK VINA RESULT:    -3.831      1.405      2.002
REMARK INTER + INTRA:          -5.381
REMARK INTER:                  -5.372
REMARK INTRA:                  -0.009
REMARK UNBOUND:                 0.467
REMARK SMILES CC1=CCC[C@H](C)C(=O)C[C@H](C(C)C)C(=O)C1
REMARK SMILES IDX 8 1 9 2 6 3 7 4 5 5 4 6 3 7 2 8 1 9 10 11 11 12 15 13 16 14
REMARK SMILES IDX 17 15 12 17 13 18 14 19
REMARK H PARENT
REMARK Flexibility Score: 70.00
ROOT
ATOM      1  C   UNL     1      50.260  25.147  21.239  1.00  0.00     0.136 C 
ATOM      2  O   UNL     1      49.368  24.673  21.930  1.00  0.00    -0.299 OA
ENDROOT
BRANCH   1   3
ATOM      3  C   UNL     1      50.551  26.633  21.312  1.00  0.00     0.053 C 
ATOM      4  C   UNL     1      49.540  27.304  22.248  1.00  0.00     0.016 C 
BRANCH   3   5
ATOM      5  C   UNL     1      51.994  26.925  21.791  1.00  0.00     0.015 C 
BRANCH   5   6
ATOM      6  C   UNL     1      53.016  27.063  20.651  1.00  0.00     0.028 C 
BRANCH   6   7
ATOM      7  C   UNL     1      52.407  27.725  19.438  1.00  0.00    -0.028 C 
ATOM      8  C   UNL     1      52.100  27.095  18.281  1.00  0.00    -0.070 CG0
ATOM      9  C   UNL     1      51.514  27.916  17.161  1.00  0.00     0.039 C 
ATOM     10  G   UNL     1      52.327  25.609  18.066  1.00  0.00     0.000 G0
ENDBRANCH   6   7
ENDBRANCH   5   6
ENDBRANCH   3   5
ENDBRANCH   1   3
BRANCH   1  11
ATOM     11  C   UNL     1      51.016  24.243  20.293  1.00  0.00     0.087 C 
BRANCH  11  12
ATOM     12  C   UNL     1      50.318  24.065  18.921  1.00  0.00     0.066 C 
BRANCH  12  13
ATOM     13  C   UNL     1      51.059  24.808  17.814  1.00  0.00     0.140 C 
ATOM     14  O   UNL     1      50.599  24.798  16.680  1.00  0.00    -0.299 OA
BRANCH  13  15
ATOM     15  C   UNL     1      52.325  25.605  18.058  1.00  0.00     0.106 CG0
ATOM     16  G   UNL     1      52.096  27.089  18.280  1.00  0.00     0.000 G0
ENDBRANCH  13  15
ENDBRANCH  12  13
BRANCH  12  17
ATOM     17  C   UNL     1      50.090  22.558  18.586  1.00  0.00    -0.006 C 
ATOM     18  C   UNL     1      49.154  21.828  19.566  1.00  0.00     0.008 C 
ATOM     19  C   UNL     1      51.423  21.801  18.479  1.00  0.00     0.008 C 
ENDBRANCH  12  17
ENDBRANCH  11  12
ENDBRANCH   1  11
TORSDOF 1
ENDMDL
MODEL 8
REMARK VINA RESULT:    -3.719      2.330      3.135
REMARK INTER + INTRA:          -5.209
REMARK INTER:                  -4.886
REMARK INTRA:                  -0.323
REMARK UNBOUND:                 0.467
REMARK SMILES CC1=CCC[C@H](C)C(=O)C[C@H](C(C)C)C(=O)C1
REMARK SMILES IDX 8 1 9 2 6 3 7 4 5 5 4 6 3 7 2 8 1 9 10 11 11 12 15 13 16 14
REMARK SMILES IDX 17 15 12 17 13 18 14 19
REMARK H PARENT
REMARK Flexibility Score: 70.00
ROOT
ATOM      1  C   UNL     1      48.728  26.427  21.501  1.00  0.00     0.136 C 
ATOM      2  O   UNL     1      49.218  27.304  22.201  1.00  0.00    -0.299 OA
ENDROOT
BRANCH   1   3
ATOM      3  C   UNL     1      47.491  26.731  20.681  1.00  0.00     0.053 C 
ATOM      4  C   UNL     1      46.277  26.837  21.611  1.00  0.00     0.016 C 
BRANCH   3   5
ATOM      5  C   UNL     1      47.641  28.030  19.853  1.00  0.00     0.015 C 
BRANCH   5   6
ATOM      6  C   UNL     1      48.626  27.914  18.679  1.00  0.00     0.028 C 
BRANCH   6   7
ATOM      7  C   UNL     1      49.939  28.592  18.988  1.00  0.00    -0.028 C 
ATOM      8  C   UNL     1      51.145  27.979  19.003  1.00  0.00    -0.070 CG0
ATOM      9  C   UNL     1      52.356  28.805  19.353  1.00  0.00     0.039 C 
ATOM     10  G   UNL     1      51.324  26.504  18.690  1.00  0.00     0.000 G0
ENDBRANCH   6   7
ENDBRANCH   5   6
ENDBRANCH   3   5
ENDBRANCH   1   3
BRANCH   1  11
ATOM     11  C   UNL     1      49.343  25.047  21.515  1.00  0.00     0.087 C 
BRANCH  11  12
ATOM     12  C   UNL     1      50.046  24.672  20.186  1.00  0.00     0.066 C 
BRANCH  12  13
ATOM     13  C   UNL     1      51.237  25.583  19.904  1.00  0.00     0.140 C 
ATOM     14  O   UNL     1      52.191  25.566  20.670  1.00  0.00    -0.299 OA
BRANCH  13  15
ATOM     15  C   UNL     1      51.320  26.481  18.687  1.00  0.00     0.106 CG0
ATOM     16  G   UNL     1      51.143  27.959  18.988  1.00  0.00     0.000 G0
ENDBRANCH  13  15
ENDBRANCH  12  13
BRANCH  12  17
ATOM     17  C   UNL     1      50.424  23.158  20.145  1.00  0.00    -0.006 C 
ATOM     18  C   UNL     1      50.829  22.646  18.752  1.00  0.00     0.008 C 
ATOM     19  C   UNL     1      49.294  22.284  20.712  1.00  0.00     0.008 C 
ENDBRANCH  12  17
ENDBRANCH  11  12
ENDBRANCH   1  11
TORSDOF 1
ENDMDL
MODEL 9
REMARK VINA RESULT:    -3.697      1.704      4.126
REMARK INTER + INTRA:          -5.176
REMARK INTER:                  -4.778
REMARK INTRA:                  -0.398
REMARK UNBOUND:                 0.467
REMARK SMILES CC1=CCC[C@H](C)C(=O)C[C@H](C(C)C)C(=O)C1
REMARK SMILES IDX 8 1 9 2 6 3 7 4 5 5 4 6 3 7 2 8 1 9 10 11 11 12 15 13 16 14
REMARK SMILES IDX 17 15 12 17 13 18 14 19
REMARK H PARENT
REMARK Flexibility Score: 70.00
ROOT
ATOM      1  C   UNL     1      49.435  27.408  19.713  1.00  0.00     0.136 C 
ATOM      2  O   UNL     1      48.546  28.242  19.599  1.00  0.00    -0.299 OA
ENDROOT
BRANCH   1   3
ATOM      3  C   UNL     1      50.131  27.236  21.047  1.00  0.00     0.053 C 
ATOM      4  C   UNL     1      50.057  28.549  21.833  1.00  0.00     0.016 C 
BRANCH   3   5
ATOM      5  C   UNL     1      49.523  26.082  21.882  1.00  0.00     0.015 C 
BRANCH   5   6
ATOM      6  C   UNL     1      50.387  24.811  21.915  1.00  0.00     0.028 C 
BRANCH   6   7
ATOM      7  C   UNL     1      49.781  23.708  21.080  1.00  0.00    -0.028 C 
ATOM      8  C   UNL     1      50.324  23.201  19.950  1.00  0.00    -0.070 CG0
ATOM      9  C   UNL     1      49.573  22.112  19.229  1.00  0.00     0.039 C 
ATOM     10  G   UNL     1      51.646  23.686  19.381  1.00  0.00     0.000 G0
ENDBRANCH   6   7
ENDBRANCH   5   6
ENDBRANCH   3   5
ENDBRANCH   1   3
BRANCH   1  11
ATOM     11  C   UNL     1      49.849  26.607  18.500  1.00  0.00     0.087 C 
BRANCH  11  12
ATOM     12  C   UNL     1      51.345  26.201  18.510  1.00  0.00     0.066 C 
BRANCH  12  13
ATOM     13  C   UNL     1      51.523  24.707  18.261  1.00  0.00     0.140 C 
ATOM     14  O   UNL     1      51.606  24.303  17.110  1.00  0.00    -0.299 OA
BRANCH  13  15
ATOM     15  C   UNL     1      51.651  23.692  19.380  1.00  0.00     0.106 CG0
ATOM     16  G   UNL     1      50.325  23.213  19.943  1.00  0.00     0.000 G0
ENDBRANCH  13  15
ENDBRANCH  12  13
BRANCH  12  17
ATOM     17  C   UNL     1      52.182  27.079  17.528  1.00  0.00    -0.006 C 
ATOM     18  C   UNL     1      53.399  27.765  18.174  1.00  0.00     0.008 C 
ATOM     19  C   UNL     1      51.305  28.128  16.829  1.00  0.00     0.008 C 
ENDBRANCH  12  17
ENDBRANCH  11  12
ENDBRANCH   1  11
TORSDOF 1
ENDMDL
