MODEL 1
REMARK VINA RESULT:    -4.708      0.000      0.000
REMARK INTER + INTRA:          -6.847
REMARK INTER:                  -6.359
REMARK INTRA:                  -0.487
REMARK UNBOUND:                -0.487
REMARK SMILES CC(=O)CCC=C(C)CCC=C(C)C
REMARK SMILES IDX 7 1 6 2 8 3 9 4 10 5 11 6 13 7 12 8 14 9 5 10 4 11 2 12 3 13
REMARK SMILES IDX 1 14
REMARK H PARENT
REMARK Flexibility Score: inf
ROOT
ATOM      1  C   UNL     1      12.693  31.405  29.452  1.00  0.00    -0.077 C 
ATOM      2  C   UNL     1      14.042  31.387  29.408  1.00  0.00    -0.028 C 
ATOM      3  C   UNL     1      11.930  30.627  30.498  1.00  0.00     0.039 C 
ENDROOT
BRANCH   1   4
ATOM      4  C   UNL     1      11.930  32.226  28.435  1.00  0.00     0.034 C 
BRANCH   4   5
ATOM      5  C   UNL     1      12.889  33.060  27.576  1.00  0.00     0.032 C 
BRANCH   5   6
ATOM      6  C   UNL     1      12.139  34.065  26.736  1.00  0.00    -0.028 C 
ATOM      7  C   UNL     1      11.853  35.687  24.910  1.00  0.00     0.039 C 
ATOM      8  C   UNL     1      12.691  34.700  25.681  1.00  0.00    -0.080 C 
ATOM      9  C   UNL     1      14.120  34.443  25.263  1.00  0.00     0.039 C 
ENDBRANCH   5   6
ENDBRANCH   4   5
ENDBRANCH   1   4
BRANCH   2  10
ATOM     10  C   UNL     1      14.890  30.593  30.376  1.00  0.00     0.035 C 
BRANCH  10  11
ATOM     11  C   UNL     1      16.388  30.712  30.065  1.00  0.00     0.079 C 
BRANCH  11  12
ATOM     12  C   UNL     1      16.808  32.147  29.877  1.00  0.00     0.130 C 
ATOM     13  O   UNL     1      17.204  32.523  28.784  1.00  0.00    -0.300 OA
ATOM     14  C   UNL     1      16.781  33.116  31.021  1.00  0.00     0.087 C 
ENDBRANCH  11  12
ENDBRANCH  10  11
ENDBRANCH   2  10
TORSDOF 6
ENDMDL
MODEL 2
REMARK VINA RESULT:    -4.549      1.585      5.193
REMARK INTER + INTRA:          -6.632
REMARK INTER:                  -5.913
REMARK INTRA:                  -0.719
REMARK UNBOUND:                -0.487
REMARK SMILES CC(=O)CCC=C(C)CCC=C(C)C
REMARK SMILES IDX 7 1 6 2 8 3 9 4 10 5 11 6 13 7 12 8 14 9 5 10 4 11 2 12 3 13
REMARK SMILES IDX 1 14
REMARK H PARENT
REMARK Flexibility Score: inf
ROOT
ATOM      1  C   UNL     1      12.858  31.374  29.480  1.00  0.00    -0.077 C 
ATOM      2  C   UNL     1      13.304  31.941  28.338  1.00  0.00    -0.028 C 
ATOM      3  C   UNL     1      11.403  31.445  29.877  1.00  0.00     0.039 C 
ENDROOT
BRANCH   1   4
ATOM      4  C   UNL     1      13.838  30.649  30.378  1.00  0.00     0.034 C 
BRANCH   4   5
ATOM      5  C   UNL     1      15.279  30.866  29.901  1.00  0.00     0.032 C 
BRANCH   5   6
ATOM      6  C   UNL     1      15.991  31.887  30.754  1.00  0.00    -0.028 C 
ATOM      7  C   UNL     1      17.508  33.773  31.192  1.00  0.00     0.039 C 
ATOM      8  C   UNL     1      16.850  32.798  30.249  1.00  0.00    -0.080 C 
ATOM      9  C   UNL     1      17.160  32.858  28.773  1.00  0.00     0.039 C 
ENDBRANCH   5   6
ENDBRANCH   4   5
ENDBRANCH   1   4
BRANCH   2  10
ATOM     10  C   UNL     1      12.404  32.690  27.382  1.00  0.00     0.035 C 
BRANCH  10  11
ATOM     11  C   UNL     1      12.817  34.160  27.230  1.00  0.00     0.079 C 
BRANCH  11  12
ATOM     12  C   UNL     1      13.186  34.493  25.808  1.00  0.00     0.130 C 
ATOM     13  O   UNL     1      14.138  33.936  25.283  1.00  0.00    -0.300 OA
ATOM     14  C   UNL     1      12.422  35.526  25.034  1.00  0.00     0.087 C 
ENDBRANCH  11  12
ENDBRANCH  10  11
ENDBRANCH   2  10
TORSDOF 6
ENDMDL
MODEL 3
REMARK VINA RESULT:    -4.411     14.275     16.403
REMARK INTER + INTRA:          -6.445
REMARK INTER:                  -5.794
REMARK INTRA:                  -0.652
REMARK UNBOUND:                -0.487
REMARK SMILES CC(=O)CCC=C(C)CCC=C(C)C
REMARK SMILES IDX 7 1 6 2 8 3 9 4 10 5 11 6 13 7 12 8 14 9 5 10 4 11 2 12 3 13
REMARK SMILES IDX 1 14
REMARK H PARENT
REMARK Flexibility Score: inf
ROOT
ATOM      1  C   UNL     1      28.402  34.154  22.200  1.00  0.00    -0.077 C 
ATOM      2  C   UNL     1      28.087  35.392  21.762  1.00  0.00    -0.028 C 
ATOM      3  C   UNL     1      29.125  33.167  21.315  1.00  0.00     0.039 C 
ENDROOT
BRANCH   1   4
ATOM      4  C   UNL     1      28.028  33.751  23.611  1.00  0.00     0.034 C 
BRANCH   4   5
ATOM      5  C   UNL     1      28.819  32.515  24.054  1.00  0.00     0.032 C 
BRANCH   5   6
ATOM      6  C   UNL     1      27.899  31.411  24.515  1.00  0.00    -0.028 C 
ATOM      7  C   UNL     1      26.901  29.164  24.473  1.00  0.00     0.039 C 
ATOM      8  C   UNL     1      27.859  30.194  23.933  1.00  0.00    -0.080 C 
ATOM      9  C   UNL     1      28.748  29.849  22.762  1.00  0.00     0.039 C 
ENDBRANCH   5   6
ENDBRANCH   4   5
ENDBRANCH   1   4
BRANCH   2  10
ATOM     10  C   UNL     1      28.413  35.883  20.370  1.00  0.00     0.035 C 
BRANCH  10  11
ATOM     11  C   UNL     1      27.227  35.727  19.409  1.00  0.00     0.079 C 
BRANCH  11  12
ATOM     12  C   UNL     1      26.324  36.933  19.434  1.00  0.00     0.130 C 
ATOM     13  O   UNL     1      25.287  36.899  20.079  1.00  0.00    -0.300 OA
ATOM     14  C   UNL     1      26.662  38.167  18.652  1.00  0.00     0.087 C 
ENDBRANCH  11  12
ENDBRANCH  10  11
ENDBRANCH   2  10
TORSDOF 6
ENDMDL
MODEL 4
REMARK VINA RESULT:    -4.289     13.324     15.993
REMARK INTER + INTRA:          -6.281
REMARK INTER:                  -5.463
REMARK INTRA:                  -0.818
REMARK UNBOUND:                -0.487
REMARK SMILES CC(=O)CCC=C(C)CCC=C(C)C
REMARK SMILES IDX 7 1 6 2 8 3 9 4 10 5 11 6 13 7 12 8 14 9 5 10 4 11 2 12 3 13
REMARK SMILES IDX 1 14
REMARK H PARENT
REMARK Flexibility Score: inf
ROOT
ATOM      1  C   UNL     1      26.402  36.062  19.341  1.00  0.00    -0.077 C 
ATOM      2  C   UNL     1      26.790  37.237  19.881  1.00  0.00    -0.028 C 
ATOM      3  C   UNL     1      25.045  35.902  18.697  1.00  0.00     0.039 C 
ENDROOT
BRANCH   1   4
ATOM      4  C   UNL     1      27.351  34.883  19.377  1.00  0.00     0.034 C 
BRANCH   4   5
ATOM      5  C   UNL     1      28.298  34.980  20.578  1.00  0.00     0.032 C 
BRANCH   5   6
ATOM      6  C   UNL     1      28.693  33.612  21.077  1.00  0.00    -0.028 C 
ATOM      7  C   UNL     1      28.999  31.844  22.759  1.00  0.00     0.039 C 
ATOM      8  C   UNL     1      28.574  33.236  22.368  1.00  0.00    -0.080 C 
ATOM      9  C   UNL     1      28.027  34.174  23.417  1.00  0.00     0.039 C 
ENDBRANCH   5   6
ENDBRANCH   4   5
ENDBRANCH   1   4
BRANCH   2  10
ATOM     10  C   UNL     1      25.912  38.468  19.898  1.00  0.00     0.035 C 
BRANCH  10  11
ATOM     11  C   UNL     1      25.419  38.807  21.311  1.00  0.00     0.079 C 
BRANCH  11  12
ATOM     12  C   UNL     1      24.138  38.086  21.645  1.00  0.00     0.130 C 
ATOM     13  O   UNL     1      23.065  38.623  21.416  1.00  0.00    -0.300 OA
ATOM     14  C   UNL     1      24.160  36.731  22.286  1.00  0.00     0.087 C 
ENDBRANCH  11  12
ENDBRANCH  10  11
ENDBRANCH   2  10
TORSDOF 6
ENDMDL
MODEL 5
REMARK VINA RESULT:    -4.249     13.632     15.528
REMARK INTER + INTRA:          -6.226
REMARK INTER:                  -5.643
REMARK INTRA:                  -0.583
REMARK UNBOUND:                -0.487
REMARK SMILES CC(=O)CCC=C(C)CCC=C(C)C
REMARK SMILES IDX 7 1 6 2 8 3 9 4 10 5 11 6 13 7 12 8 14 9 5 10 4 11 2 12 3 13
REMARK SMILES IDX 1 14
REMARK H PARENT
REMARK Flexibility Score: inf
ROOT
ATOM      1  C   UNL     1      28.806  33.335  21.631  1.00  0.00    -0.077 C 
ATOM      2  C   UNL     1      29.070  32.090  22.081  1.00  0.00    -0.028 C 
ATOM      3  C   UNL     1      28.404  34.444  22.574  1.00  0.00     0.039 C 
ENDROOT
BRANCH   1   4
ATOM      4  C   UNL     1      28.923  33.626  20.149  1.00  0.00     0.034 C 
BRANCH   4   5
ATOM      5  C   UNL     1      28.613  35.098  19.855  1.00  0.00     0.032 C 
BRANCH   5   6
ATOM      6  C   UNL     1      27.284  35.249  19.155  1.00  0.00    -0.028 C 
ATOM      7  C   UNL     1      25.067  36.231  18.747  1.00  0.00     0.039 C 
ATOM      8  C   UNL     1      26.362  36.167  19.514  1.00  0.00    -0.080 C 
ATOM      9  C   UNL     1      26.602  37.121  20.660  1.00  0.00     0.039 C 
ENDBRANCH   5   6
ENDBRANCH   4   5
ENDBRANCH   1   4
BRANCH   2  10
ATOM     10  C   UNL     1      28.975  31.702  23.540  1.00  0.00     0.035 C 
BRANCH  10  11
ATOM     11  C   UNL     1      28.382  30.300  23.728  1.00  0.00     0.079 C 
BRANCH  11  12
ATOM     12  C   UNL     1      27.567  30.201  24.991  1.00  0.00     0.130 C 
ATOM     13  O   UNL     1      28.079  30.484  26.065  1.00  0.00    -0.300 OA
ATOM     14  C   UNL     1      26.145  29.728  24.959  1.00  0.00     0.087 C 
ENDBRANCH  11  12
ENDBRANCH  10  11
ENDBRANCH   2  10
TORSDOF 6
ENDMDL
MODEL 6
REMARK VINA RESULT:    -4.221     11.420     13.790
REMARK INTER + INTRA:          -6.189
REMARK INTER:                  -5.818
REMARK INTRA:                  -0.371
REMARK UNBOUND:                -0.487
REMARK SMILES CC(=O)CCC=C(C)CCC=C(C)C
REMARK SMILES IDX 7 1 6 2 8 3 9 4 10 5 11 6 13 7 12 8 14 9 5 10 4 11 2 12 3 13
REMARK SMILES IDX 1 14
REMARK H PARENT
REMARK Flexibility Score: inf
ROOT
ATOM      1  C   UNL     1      27.350  29.383  25.316  1.00  0.00    -0.077 C 
ATOM      2  C   UNL     1      27.062  28.937  26.557  1.00  0.00    -0.028 C 
ATOM      3  C   UNL     1      26.421  29.127  24.153  1.00  0.00     0.039 C 
ENDROOT
BRANCH   1   4
ATOM      4  C   UNL     1      28.629  30.160  25.087  1.00  0.00     0.034 C 
BRANCH   4   5
ATOM      5  C   UNL     1      28.330  31.645  24.851  1.00  0.00     0.032 C 
BRANCH   5   6
ATOM      6  C   UNL     1      28.654  32.051  23.434  1.00  0.00    -0.028 C 
ATOM      7  C   UNL     1      28.755  33.579  21.510  1.00  0.00     0.039 C 
ATOM      8  C   UNL     1      28.391  33.280  22.941  1.00  0.00    -0.080 C 
ATOM      9  C   UNL     1      27.746  34.350  23.790  1.00  0.00     0.039 C 
ENDBRANCH   5   6
ENDBRANCH   4   5
ENDBRANCH   1   4
BRANCH   2  10
ATOM     10  C   UNL     1      25.814  28.147  26.882  1.00  0.00     0.035 C 
BRANCH  10  11
ATOM     11  C   UNL     1      24.602  29.056  27.124  1.00  0.00     0.079 C 
BRANCH  11  12
ATOM     12  C   UNL     1      23.809  28.622  28.330  1.00  0.00     0.130 C 
ATOM     13  O   UNL     1      23.765  29.341  29.316  1.00  0.00    -0.300 OA
ATOM     14  C   UNL     1      23.097  27.302  28.352  1.00  0.00     0.087 C 
ENDBRANCH  11  12
ENDBRANCH  10  11
ENDBRANCH   2  10
TORSDOF 6
ENDMDL
MODEL 7
REMARK VINA RESULT:    -4.182     13.877     15.276
REMARK INTER + INTRA:          -6.136
REMARK INTER:                  -5.532
REMARK INTRA:                  -0.603
REMARK UNBOUND:                -0.487
REMARK SMILES CC(=O)CCC=C(C)CCC=C(C)C
REMARK SMILES IDX 7 1 6 2 8 3 9 4 10 5 11 6 13 7 12 8 14 9 5 10 4 11 2 12 3 13
REMARK SMILES IDX 1 14
REMARK H PARENT
REMARK Flexibility Score: inf
ROOT
ATOM      1  C   UNL     1      28.421  32.537  23.564  1.00  0.00    -0.077 C 
ATOM      2  C   UNL     1      28.012  31.804  24.622  1.00  0.00    -0.028 C 
ATOM      3  C   UNL     1      29.064  31.890  22.360  1.00  0.00     0.039 C 
ENDROOT
BRANCH   1   4
ATOM      4  C   UNL     1      28.226  34.038  23.584  1.00  0.00     0.034 C 
BRANCH   4   5
ATOM      5  C   UNL     1      29.004  34.706  22.444  1.00  0.00     0.032 C 
BRANCH   5   6
ATOM      6  C   UNL     1      28.080  35.448  21.510  1.00  0.00    -0.028 C 
ATOM      7  C   UNL     1      27.096  36.039  19.335  1.00  0.00     0.039 C 
ATOM      8  C   UNL     1      28.059  35.242  20.176  1.00  0.00    -0.080 C 
ATOM      9  C   UNL     1      28.975  34.238  19.518  1.00  0.00     0.039 C 
ENDBRANCH   5   6
ENDBRANCH   4   5
ENDBRANCH   1   4
BRANCH   2  10
ATOM     10  C   UNL     1      28.169  30.302  24.696  1.00  0.00     0.035 C 
BRANCH  10  11
ATOM     11  C   UNL     1      26.817  29.581  24.749  1.00  0.00     0.079 C 
BRANCH  11  12
ATOM     12  C   UNL     1      26.796  28.505  25.804  1.00  0.00     0.130 C 
ATOM     13  O   UNL     1      26.147  28.672  26.825  1.00  0.00    -0.300 OA
ATOM     14  C   UNL     1      27.589  27.243  25.636  1.00  0.00     0.087 C 
ENDBRANCH  11  12
ENDBRANCH  10  11
ENDBRANCH   2  10
TORSDOF 6
ENDMDL
MODEL 8
REMARK VINA RESULT:    -4.125     14.869     17.216
REMARK INTER + INTRA:          -6.060
REMARK INTER:                  -4.973
REMARK INTRA:                  -1.087
REMARK UNBOUND:                -0.487
REMARK SMILES CC(=O)CCC=C(C)CCC=C(C)C
REMARK SMILES IDX 7 1 6 2 8 3 9 4 10 5 11 6 13 7 12 8 14 9 5 10 4 11 2 12 3 13
REMARK SMILES IDX 1 14
REMARK H PARENT
REMARK Flexibility Score: inf
ROOT
ATOM      1  C   UNL     1      27.732  38.453  18.933  1.00  0.00    -0.077 C 
ATOM      2  C   UNL     1      27.878  37.779  20.094  1.00  0.00    -0.028 C 
ATOM      3  C   UNL     1      26.460  38.360  18.124  1.00  0.00     0.039 C 
ENDROOT
BRANCH   1   4
ATOM      4  C   UNL     1      28.865  39.325  18.437  1.00  0.00     0.034 C 
BRANCH   4   5
ATOM      5  C   UNL     1      29.118  40.492  19.399  1.00  0.00     0.032 C 
BRANCH   5   6
ATOM      6  C   UNL     1      28.509  41.772  18.880  1.00  0.00    -0.028 C 
ATOM      7  C   UNL     1      26.839  43.573  18.770  1.00  0.00     0.039 C 
ATOM      8  C   UNL     1      27.360  42.289  19.362  1.00  0.00    -0.080 C 
ATOM      9  C   UNL     1      26.593  41.610  20.472  1.00  0.00     0.039 C 
ENDBRANCH   5   6
ENDBRANCH   4   5
ENDBRANCH   1   4
BRANCH   2  10
ATOM     10  C   UNL     1      26.806  36.880  20.667  1.00  0.00     0.035 C 
BRANCH  10  11
ATOM     11  C   UNL     1      25.911  37.615  21.673  1.00  0.00     0.079 C 
BRANCH  11  12
ATOM     12  C   UNL     1      24.461  37.580  21.263  1.00  0.00     0.130 C 
ATOM     13  O   UNL     1      24.075  36.725  20.480  1.00  0.00    -0.300 OA
ATOM     14  C   UNL     1      23.489  38.601  21.774  1.00  0.00     0.087 C 
ENDBRANCH  11  12
ENDBRANCH  10  11
ENDBRANCH   2  10
TORSDOF 6
ENDMDL
MODEL 9
REMARK VINA RESULT:    -4.044     13.902     15.407
REMARK INTER + INTRA:          -5.950
REMARK INTER:                  -5.325
REMARK INTRA:                  -0.624
REMARK UNBOUND:                -0.487
REMARK SMILES CC(=O)CCC=C(C)CCC=C(C)C
REMARK SMILES IDX 7 1 6 2 8 3 9 4 10 5 11 6 13 7 12 8 14 9 5 10 4 11 2 12 3 13
REMARK SMILES IDX 1 14
REMARK H PARENT
REMARK Flexibility Score: inf
ROOT
ATOM      1  C   UNL     1      27.656  28.424  25.167  1.00  0.00    -0.077 C 
ATOM      2  C   UNL     1      28.620  27.486  25.291  1.00  0.00    -0.028 C 
ATOM      3  C   UNL     1      26.557  28.563  26.193  1.00  0.00     0.039 C 
ENDROOT
BRANCH   1   4
ATOM      4  C   UNL     1      27.682  29.358  23.975  1.00  0.00     0.034 C 
BRANCH   4   5
ATOM      5  C   UNL     1      29.069  29.990  23.807  1.00  0.00     0.032 C 
BRANCH   5   6
ATOM      6  C   UNL     1      29.091  30.965  22.655  1.00  0.00    -0.028 C 
ATOM      7  C   UNL     1      28.804  33.151  21.566  1.00  0.00     0.039 C 
ATOM      8  C   UNL     1      28.746  32.263  22.783  1.00  0.00    -0.080 C 
ATOM      9  C   UNL     1      28.310  32.838  24.109  1.00  0.00     0.039 C 
ENDBRANCH   5   6
ENDBRANCH   4   5
ENDBRANCH   1   4
BRANCH   2  10
ATOM     10  C   UNL     1      28.675  26.506  26.441  1.00  0.00     0.035 C 
BRANCH  10  11
ATOM     11  C   UNL     1      28.460  25.059  25.978  1.00  0.00     0.079 C 
BRANCH  11  12
ATOM     12  C   UNL     1      27.048  24.596  26.226  1.00  0.00     0.130 C 
ATOM     13  O   UNL     1      26.495  23.875  25.408  1.00  0.00    -0.300 OA
ATOM     14  C   UNL     1      26.295  25.034  27.446  1.00  0.00     0.087 C 
ENDBRANCH  11  12
ENDBRANCH  10  11
ENDBRANCH   2  10
TORSDOF 6
ENDMDL
