MODEL 1
REMARK VINA RESULT:    -4.975      0.000      0.000
REMARK INTER + INTRA:          -8.429
REMARK INTER:                  -7.592
REMARK INTRA:                  -0.837
REMARK UNBOUND:                -0.837
REMARK SMILES CCCCCCCCCCC(=O)[O-]
REMARK SMILES IDX 7 1 8 2 9 3 10 4 11 5 12 6 13 7 6 8 5 9 4 10 3 11 2 12 1 13
REMARK H PARENT
REMARK Flexibility Score: inf
ROOT
ATOM      1  C   UNL     1      10.838   4.740 -13.110  1.00  0.00     0.000 C 
ENDROOT
BRANCH   1   2
ATOM      2  C   UNL     1      12.165   4.991 -13.846  1.00  0.00     0.000 C 
BRANCH   2   3
ATOM      3  C   UNL     1      12.390   6.479 -14.168  1.00  0.00     0.006 C 
BRANCH   3   4
ATOM      4  C   UNL     1      12.054   6.812 -15.629  1.00  0.00     0.053 C 
BRANCH   4   5
ATOM      5  C   UNL     1      12.718   8.077 -16.079  1.00  0.00     0.041 C 
ATOM      6  O   UNL     1      13.700   8.539 -15.440  1.00  0.00    -0.550 OA
ATOM      7  O   UNL     1      12.270   8.731 -17.220  1.00  0.00    -0.550 OA
ENDBRANCH   4   5
ENDBRANCH   3   4
ENDBRANCH   2   3
ENDBRANCH   1   2
BRANCH   1   8
ATOM      8  C   UNL     1      10.213   6.034 -12.562  1.00  0.00     0.000 C 
BRANCH   8   9
ATOM      9  C   UNL     1       9.633   5.869 -11.145  1.00  0.00    -0.000 C 
BRANCH   9  10
ATOM     10  C   UNL     1      10.635   6.092  -9.996  1.00  0.00    -0.000 C 
BRANCH  10  11
ATOM     11  C   UNL     1      11.857   6.923 -10.419  1.00  0.00    -0.000 C 
BRANCH  11  12
ATOM     12  C   UNL     1      13.182   6.181 -10.186  1.00  0.00    -0.003 C 
ATOM     13  C   UNL     1      13.292   5.589  -8.781  1.00  0.00     0.004 C 
ENDBRANCH  11  12
ENDBRANCH  10  11
ENDBRANCH   9  10
ENDBRANCH   8   9
ENDBRANCH   1   8
TORSDOF 9
ENDMDL
MODEL 2
REMARK VINA RESULT:    -4.870      1.681      2.750
REMARK INTER + INTRA:          -8.270
REMARK INTER:                  -7.256
REMARK INTRA:                  -1.014
REMARK UNBOUND:                -0.837
REMARK SMILES CCCCCCCCCCC(=O)[O-]
REMARK SMILES IDX 7 1 8 2 9 3 10 4 11 5 12 6 13 7 6 8 5 9 4 10 3 11 2 12 1 13
REMARK H PARENT
REMARK Flexibility Score: inf
ROOT
ATOM      1  C   UNL     1      12.108   5.544 -15.583  1.00  0.00     0.000 C 
ENDROOT
BRANCH   1   2
ATOM      2  C   UNL     1      11.126   6.712 -15.776  1.00  0.00     0.000 C 
BRANCH   2   3
ATOM      3  C   UNL     1      11.831   8.078 -15.814  1.00  0.00     0.006 C 
BRANCH   3   4
ATOM      4  C   UNL     1      13.356   7.940 -15.915  1.00  0.00     0.053 C 
BRANCH   4   5
ATOM      5  C   UNL     1      14.054   8.609 -14.770  1.00  0.00     0.041 C 
ATOM      6  O   UNL     1      13.386   9.103 -13.824  1.00  0.00    -0.550 OA
ATOM      7  O   UNL     1      15.442   8.659 -14.733  1.00  0.00    -0.550 OA
ENDBRANCH   4   5
ENDBRANCH   3   4
ENDBRANCH   2   3
ENDBRANCH   1   2
BRANCH   1   8
ATOM      8  C   UNL     1      11.890   4.805 -14.251  1.00  0.00     0.000 C 
BRANCH   8   9
ATOM      9  C   UNL     1      12.801   5.322 -13.122  1.00  0.00    -0.000 C 
BRANCH   9  10
ATOM     10  C   UNL     1      12.117   6.254 -12.103  1.00  0.00    -0.000 C 
BRANCH  10  11
ATOM     11  C   UNL     1      10.583   6.175 -12.152  1.00  0.00    -0.000 C 
BRANCH  11  12
ATOM     12  C   UNL     1       9.961   5.946 -10.766  1.00  0.00    -0.003 C 
ATOM     13  C   UNL     1      10.960   6.149  -9.627  1.00  0.00     0.004 C 
ENDBRANCH  11  12
ENDBRANCH  10  11
ENDBRANCH   9  10
ENDBRANCH   8   9
ENDBRANCH   1   8
TORSDOF 9
ENDMDL
MODEL 3
REMARK VINA RESULT:    -4.833      3.248      6.126
REMARK INTER + INTRA:          -8.213
REMARK INTER:                  -7.388
REMARK INTRA:                  -0.825
REMARK UNBOUND:                -0.837
REMARK SMILES CCCCCCCCCCC(=O)[O-]
REMARK SMILES IDX 7 1 8 2 9 3 10 4 11 5 12 6 13 7 6 8 5 9 4 10 3 11 2 12 1 13
REMARK H PARENT
REMARK Flexibility Score: inf
ROOT
ATOM      1  C   UNL     1      10.957   5.473 -14.889  1.00  0.00     0.000 C 
ENDROOT
BRANCH   1   2
ATOM      2  C   UNL     1      11.392   4.604 -13.697  1.00  0.00     0.000 C 
BRANCH   2   3
ATOM      3  C   UNL     1      12.029   5.428 -12.565  1.00  0.00     0.006 C 
BRANCH   3   4
ATOM      4  C   UNL     1      11.107   6.557 -12.082  1.00  0.00     0.053 C 
BRANCH   4   5
ATOM      5  C   UNL     1      10.168   6.091 -11.012  1.00  0.00     0.041 C 
ATOM      6  O   UNL     1       9.010   5.698 -11.313  1.00  0.00    -0.550 OA
ATOM      7  O   UNL     1      10.582   6.062  -9.686  1.00  0.00    -0.550 OA
ENDBRANCH   4   5
ENDBRANCH   3   4
ENDBRANCH   2   3
ENDBRANCH   1   2
BRANCH   1   8
ATOM      8  C   UNL     1      12.096   5.706 -15.896  1.00  0.00     0.000 C 
BRANCH   8   9
ATOM      9  C   UNL     1      12.596   7.162 -15.911  1.00  0.00    -0.000 C 
BRANCH   9  10
ATOM     10  C   UNL     1      11.492   8.234 -16.003  1.00  0.00    -0.000 C 
BRANCH  10  11
ATOM     11  C   UNL     1      11.459   8.945 -17.366  1.00  0.00    -0.000 C 
BRANCH  11  12
ATOM     12  C   UNL     1      10.092   8.824 -18.059  1.00  0.00    -0.003 C 
ATOM     13  C   UNL     1       8.986   8.362 -17.112  1.00  0.00     0.004 C 
ENDBRANCH  11  12
ENDBRANCH  10  11
ENDBRANCH   9  10
ENDBRANCH   8   9
ENDBRANCH   1   8
TORSDOF 9
ENDMDL
MODEL 4
REMARK VINA RESULT:    -4.827      3.181      5.214
REMARK INTER + INTRA:          -8.204
REMARK INTER:                  -7.106
REMARK INTRA:                  -1.098
REMARK UNBOUND:                -0.837
REMARK SMILES CCCCCCCCCCC(=O)[O-]
REMARK SMILES IDX 7 1 8 2 9 3 10 4 11 5 12 6 13 7 6 8 5 9 4 10 3 11 2 12 1 13
REMARK H PARENT
REMARK Flexibility Score: inf
ROOT
ATOM      1  C   UNL     1      11.867   5.085 -13.941  1.00  0.00     0.000 C 
ENDROOT
BRANCH   1   2
ATOM      2  C   UNL     1      13.042   5.246 -12.962  1.00  0.00     0.000 C 
BRANCH   2   3
ATOM      3  C   UNL     1      12.644   5.996 -11.679  1.00  0.00     0.006 C 
BRANCH   3   4
ATOM      4  C   UNL     1      11.264   6.658 -11.800  1.00  0.00     0.053 C 
BRANCH   4   5
ATOM      5  C   UNL     1      10.295   6.115 -10.794  1.00  0.00     0.041 C 
ATOM      6  O   UNL     1       9.170   5.689 -11.165  1.00  0.00    -0.550 OA
ATOM      7  O   UNL     1      10.647   6.052  -9.451  1.00  0.00    -0.550 OA
ENDBRANCH   4   5
ENDBRANCH   3   4
ENDBRANCH   2   3
ENDBRANCH   1   2
BRANCH   1   8
ATOM      8  C   UNL     1      12.216   5.556 -15.364  1.00  0.00     0.000 C 
BRANCH   8   9
ATOM      9  C   UNL     1      12.062   7.077 -15.547  1.00  0.00    -0.000 C 
BRANCH   9  10
ATOM     10  C   UNL     1      13.280   7.790 -16.164  1.00  0.00    -0.000 C 
BRANCH  10  11
ATOM     11  C   UNL     1      14.137   8.526 -15.121  1.00  0.00    -0.000 C 
BRANCH  11  12
ATOM     12  C   UNL     1      13.333   8.924 -13.873  1.00  0.00    -0.003 C 
ATOM     13  C   UNL     1      14.123   9.818 -12.918  1.00  0.00     0.004 C 
ENDBRANCH  11  12
ENDBRANCH  10  11
ENDBRANCH   9  10
ENDBRANCH   8   9
ENDBRANCH   1   8
TORSDOF 9
ENDMDL
MODEL 5
REMARK VINA RESULT:    -4.818      3.336      5.033
REMARK INTER + INTRA:          -8.190
REMARK INTER:                  -6.965
REMARK INTRA:                  -1.225
REMARK UNBOUND:                -0.837
REMARK SMILES CCCCCCCCCCC(=O)[O-]
REMARK SMILES IDX 7 1 8 2 9 3 10 4 11 5 12 6 13 7 6 8 5 9 4 10 3 11 2 12 1 13
REMARK H PARENT
REMARK Flexibility Score: inf
ROOT
ATOM      1  C   UNL     1      11.979   6.078 -14.613  1.00  0.00     0.000 C 
ENDROOT
BRANCH   1   2
ATOM      2  C   UNL     1      12.526   6.488 -15.991  1.00  0.00     0.000 C 
BRANCH   2   3
ATOM      3  C   UNL     1      13.171   7.885 -15.979  1.00  0.00     0.006 C 
BRANCH   3   4
ATOM      4  C   UNL     1      13.093   8.547 -14.596  1.00  0.00     0.053 C 
BRANCH   4   5
ATOM      5  C   UNL     1      14.413   9.117 -14.175  1.00  0.00     0.041 C 
ATOM      6  O   UNL     1      15.481   8.676 -14.674  1.00  0.00    -0.550 OA
ATOM      7  O   UNL     1      14.461  10.156 -13.253  1.00  0.00    -0.550 OA
ENDBRANCH   4   5
ENDBRANCH   3   4
ENDBRANCH   2   3
ENDBRANCH   1   2
BRANCH   1   8
ATOM      8  C   UNL     1      10.696   5.235 -14.716  1.00  0.00     0.000 C 
BRANCH   8   9
ATOM      9  C   UNL     1       9.640   5.860 -15.648  1.00  0.00    -0.000 C 
BRANCH   9  10
ATOM     10  C   UNL     1       8.881   7.066 -15.063  1.00  0.00    -0.000 C 
BRANCH  10  11
ATOM     11  C   UNL     1       9.108   8.362 -15.859  1.00  0.00    -0.000 C 
BRANCH  11  12
ATOM     12  C   UNL     1       9.248   8.108 -17.368  1.00  0.00    -0.003 C 
ATOM     13  C   UNL     1      10.269   9.030 -18.033  1.00  0.00     0.004 C 
ENDBRANCH  11  12
ENDBRANCH  10  11
ENDBRANCH   9  10
ENDBRANCH   8   9
ENDBRANCH   1   8
TORSDOF 9
ENDMDL
MODEL 6
REMARK VINA RESULT:    -4.780      2.253      3.806
REMARK INTER + INTRA:          -8.132
REMARK INTER:                  -6.793
REMARK INTRA:                  -1.339
REMARK UNBOUND:                -0.837
REMARK SMILES CCCCCCCCCCC(=O)[O-]
REMARK SMILES IDX 7 1 8 2 9 3 10 4 11 5 12 6 13 7 6 8 5 9 4 10 3 11 2 12 1 13
REMARK H PARENT
REMARK Flexibility Score: inf
ROOT
ATOM      1  C   UNL     1      13.306   6.843 -10.217  1.00  0.00     0.000 C 
ENDROOT
BRANCH   1   2
ATOM      2  C   UNL     1      13.623   6.454 -11.671  1.00  0.00     0.000 C 
BRANCH   2   3
ATOM      3  C   UNL     1      13.489   7.640 -12.642  1.00  0.00     0.006 C 
BRANCH   3   4
ATOM      4  C   UNL     1      12.811   8.851 -11.987  1.00  0.00     0.053 C 
BRANCH   4   5
ATOM      5  C   UNL     1      13.544  10.125 -12.278  1.00  0.00     0.041 C 
ATOM      6  O   UNL     1      14.332  10.193 -13.258  1.00  0.00    -0.550 OA
ATOM      7  O   UNL     1      13.334  11.246 -11.485  1.00  0.00    -0.550 OA
ENDBRANCH   4   5
ENDBRANCH   3   4
ENDBRANCH   2   3
ENDBRANCH   1   2
BRANCH   1   8
ATOM      8  C   UNL     1      12.244   5.930  -9.580  1.00  0.00     0.000 C 
BRANCH   8   9
ATOM      9  C   UNL     1      10.815   6.489  -9.712  1.00  0.00    -0.000 C 
BRANCH   9  10
ATOM     10  C   UNL     1       9.932   5.792 -10.764  1.00  0.00    -0.000 C 
BRANCH  10  11
ATOM     11  C   UNL     1       9.606   6.693 -11.966  1.00  0.00    -0.000 C 
BRANCH  11  12
ATOM     12  C   UNL     1      10.194   6.157 -13.280  1.00  0.00    -0.003 C 
ATOM     13  C   UNL     1      10.789   4.756 -13.136  1.00  0.00     0.004 C 
ENDBRANCH  11  12
ENDBRANCH  10  11
ENDBRANCH   9  10
ENDBRANCH   8   9
ENDBRANCH   1   8
TORSDOF 9
ENDMDL
MODEL 7
REMARK VINA RESULT:    -4.749      4.085      6.100
REMARK INTER + INTRA:          -8.084
REMARK INTER:                  -6.932
REMARK INTRA:                  -1.152
REMARK UNBOUND:                -0.837
REMARK SMILES CCCCCCCCCCC(=O)[O-]
REMARK SMILES IDX 7 1 8 2 9 3 10 4 11 5 12 6 13 7 6 8 5 9 4 10 3 11 2 12 1 13
REMARK H PARENT
REMARK Flexibility Score: inf
ROOT
ATOM      1  C   UNL     1      10.672   5.581 -15.046  1.00  0.00     0.000 C 
ENDROOT
BRANCH   1   2
ATOM      2  C   UNL     1       9.469   5.998 -15.909  1.00  0.00     0.000 C 
BRANCH   2   3
ATOM      3  C   UNL     1       8.525   6.969 -15.180  1.00  0.00     0.006 C 
BRANCH   3   4
ATOM      4  C   UNL     1       8.998   7.272 -13.751  1.00  0.00     0.053 C 
BRANCH   4   5
ATOM      5  C   UNL     1       7.919   7.911 -12.930  1.00  0.00     0.041 C 
ATOM      6  O   UNL     1       7.104   7.197 -12.289  1.00  0.00    -0.550 OA
ATOM      7  O   UNL     1       7.833   9.296 -12.851  1.00  0.00    -0.550 OA
ENDBRANCH   4   5
ENDBRANCH   3   4
ENDBRANCH   2   3
ENDBRANCH   1   2
BRANCH   1   8
ATOM      8  C   UNL     1      12.005   5.674 -15.808  1.00  0.00     0.000 C 
BRANCH   8   9
ATOM      9  C   UNL     1      12.851   6.892 -15.391  1.00  0.00    -0.000 C 
BRANCH   9  10
ATOM     10  C   UNL     1      12.168   8.260 -15.579  1.00  0.00    -0.000 C 
BRANCH  10  11
ATOM     11  C   UNL     1      11.946   8.622 -17.057  1.00  0.00    -0.000 C 
BRANCH  11  12
ATOM     12  C   UNL     1      10.597   9.319 -17.295  1.00  0.00    -0.003 C 
ATOM     13  C   UNL     1       9.783   8.669 -18.413  1.00  0.00     0.004 C 
ENDBRANCH  11  12
ENDBRANCH  10  11
ENDBRANCH   9  10
ENDBRANCH   8   9
ENDBRANCH   1   8
TORSDOF 9
ENDMDL
MODEL 8
REMARK VINA RESULT:    -4.720      1.238      2.532
REMARK INTER + INTRA:          -8.041
REMARK INTER:                  -6.991
REMARK INTRA:                  -1.050
REMARK UNBOUND:                -0.837
REMARK SMILES CCCCCCCCCCC(=O)[O-]
REMARK SMILES IDX 7 1 8 2 9 3 10 4 11 5 12 6 13 7 6 8 5 9 4 10 3 11 2 12 1 13
REMARK H PARENT
REMARK Flexibility Score: inf
ROOT
ATOM      1  C   UNL     1      11.952   4.892 -13.581  1.00  0.00     0.000 C 
ENDROOT
BRANCH   1   2
ATOM      2  C   UNL     1      12.114   4.948 -15.109  1.00  0.00     0.000 C 
BRANCH   2   3
ATOM      3  C   UNL     1      11.163   5.962 -15.768  1.00  0.00     0.006 C 
BRANCH   3   4
ATOM      4  C   UNL     1      11.300   7.364 -15.159  1.00  0.00     0.053 C 
BRANCH   4   5
ATOM      5  C   UNL     1      12.513   8.079 -15.670  1.00  0.00     0.041 C 
ATOM      6  O   UNL     1      13.534   8.194 -14.942  1.00  0.00    -0.550 OA
ATOM      7  O   UNL     1      12.527   8.592 -16.961  1.00  0.00    -0.550 OA
ENDBRANCH   4   5
ENDBRANCH   3   4
ENDBRANCH   2   3
ENDBRANCH   1   2
BRANCH   1   8
ATOM      8  C   UNL     1      13.267   5.185 -12.838  1.00  0.00     0.000 C 
BRANCH   8   9
ATOM      9  C   UNL     1      13.052   5.929 -11.507  1.00  0.00    -0.000 C 
BRANCH   9  10
ATOM     10  C   UNL     1      11.792   6.813 -11.446  1.00  0.00    -0.000 C 
BRANCH  10  11
ATOM     11  C   UNL     1      10.756   6.311 -10.427  1.00  0.00    -0.000 C 
BRANCH  11  12
ATOM     12  C   UNL     1       9.489   5.760 -11.098  1.00  0.00    -0.003 C 
ATOM     13  C   UNL     1       8.832   6.767 -12.043  1.00  0.00     0.004 C 
ENDBRANCH  11  12
ENDBRANCH  10  11
ENDBRANCH   9  10
ENDBRANCH   8   9
ENDBRANCH   1   8
TORSDOF 9
ENDMDL
MODEL 9
REMARK VINA RESULT:    -4.710      2.392      3.831
REMARK INTER + INTRA:          -8.026
REMARK INTER:                  -7.005
REMARK INTRA:                  -1.020
REMARK UNBOUND:                -0.837
REMARK SMILES CCCCCCCCCCC(=O)[O-]
REMARK SMILES IDX 7 1 8 2 9 3 10 4 11 5 12 6 13 7 6 8 5 9 4 10 3 11 2 12 1 13
REMARK H PARENT
REMARK Flexibility Score: inf
ROOT
ATOM      1  C   UNL     1      11.012   5.369 -15.367  1.00  0.00     0.000 C 
ENDROOT
BRANCH   1   2
ATOM      2  C   UNL     1       9.679   6.037 -15.745  1.00  0.00     0.000 C 
BRANCH   2   3
ATOM      3  C   UNL     1       9.702   7.562 -15.540  1.00  0.00     0.006 C 
BRANCH   3   4
ATOM      4  C   UNL     1       8.805   8.295 -16.546  1.00  0.00     0.053 C 
BRANCH   4   5
ATOM      5  C   UNL     1       9.544   8.644 -17.802  1.00  0.00     0.041 C 
ATOM      6  O   UNL     1       8.945   8.649 -18.909  1.00  0.00    -0.550 OA
ATOM      7  O   UNL     1      10.888   8.993 -17.744  1.00  0.00    -0.550 OA
ENDBRANCH   4   5
ENDBRANCH   3   4
ENDBRANCH   2   3
ENDBRANCH   1   2
BRANCH   1   8
ATOM      8  C   UNL     1      10.969   4.712 -13.977  1.00  0.00     0.000 C 
BRANCH   8   9
ATOM      9  C   UNL     1      11.799   5.472 -12.927  1.00  0.00    -0.000 C 
BRANCH   9  10
ATOM     10  C   UNL     1      11.009   5.973 -11.703  1.00  0.00    -0.000 C 
BRANCH  10  11
ATOM     11  C   UNL     1       9.490   5.796 -11.856  1.00  0.00    -0.000 C 
BRANCH  11  12
ATOM     12  C   UNL     1       8.766   7.126 -12.120  1.00  0.00    -0.003 C 
ATOM     13  C   UNL     1       7.312   6.935 -12.549  1.00  0.00     0.004 C 
ENDBRANCH  11  12
ENDBRANCH  10  11
ENDBRANCH   9  10
ENDBRANCH   8   9
ENDBRANCH   1   8
TORSDOF 9
ENDMDL
