MODEL 1
REMARK VINA RESULT:    -6.389      0.000      0.000
REMARK INTER + INTRA:          -9.733
REMARK INTER:                  -8.817
REMARK INTRA:                  -0.916
REMARK UNBOUND:                -0.916
REMARK SMILES C[C@@H]1C(=O)O[C@H](C)[C@H]1C[C@@H](O)[C@@](C)(O)[C@@H]1CC[C@@]2(O)C3=CC(=O)[C@H]4C[C@@H](O)[C@H](O)C[C@]4(C)[C@@H]3CC[C@@]12C
REMARK SMILES IDX 12 1 13 2 10 3 9 4 8 5 1 6 2 7 3 8 6 9 5 10 4 11 7 12 11 13
REMARK SMILES IDX 15 15 16 16 36 17 17 18 18 19 35 20 37 21 20 22 34 23 33 24
REMARK SMILES IDX 21 25 31 26 22 27 24 28 30 29 32 30 23 31 25 32 28 33 26 34
REMARK SMILES IDX 19 35 29 37 27 39 14 41
REMARK H PARENT 11 14 19 36 29 38 27 40 14 42
REMARK Flexibility Score: inf
ROOT
ATOM      1  C   UNL     1      -1.120 -11.841 -39.377  1.00  0.00     0.091 C 
ATOM      2  C   UNL     1      -1.265 -12.818 -38.171  1.00  0.00     0.045 C 
ENDROOT
BRANCH   1   3
ATOM      3  C   UNL     1      -0.252 -12.530 -40.497  1.00  0.00     0.146 C 
BRANCH   3   4
ATOM      4  C   UNL     1       0.958 -11.672 -40.977  1.00  0.00     0.043 C 
BRANCH   4   5
ATOM      5  C   UNL     1       0.853 -11.019 -42.384  1.00  0.00     0.046 C 
ATOM      6  C   UNL     1      -0.905  -9.148 -42.447  1.00  0.00     0.020 C 
ATOM      7  C   UNL     1       0.585  -9.493 -42.364  1.00  0.00     0.103 C 
ATOM      8  C   UNL     1       1.321  -9.047 -43.573  1.00  0.00     0.309 C 
ATOM      9  C   UNL     1       2.075 -11.212 -43.329  1.00  0.00     0.177 C 
ATOM     10  O   UNL     1       2.103 -10.040 -44.123  1.00  0.00    -0.462 OA
ATOM     11  O   UNL     1       1.270  -7.882 -44.048  1.00  0.00    -0.252 OA
ATOM     12  C   UNL     1       1.956 -12.452 -44.215  1.00  0.00     0.053 C 
ENDBRANCH   4   5
ENDBRANCH   3   4
BRANCH   3  13
ATOM     13  O   UNL     1       0.179 -13.792 -40.050  1.00  0.00    -0.390 OA
ATOM     14  H   UNL     1      -0.381 -14.479 -40.498  1.00  0.00     0.211 HD
ENDBRANCH   3  13
ENDBRANCH   1   3
BRANCH   1  15
ATOM     15  C   UNL     1      -2.562 -11.481 -39.944  1.00  0.00     0.032 C 
ATOM     16  C   UNL     1      -3.528 -10.981 -38.862  1.00  0.00     0.010 C 
ATOM     17  C   UNL     1      -3.404 -12.561 -40.734  1.00  0.00     0.006 C 
ATOM     18  C   UNL     1      -4.930 -11.054 -39.441  1.00  0.00     0.041 C 
ATOM     19  C   UNL     1      -4.918 -12.092 -40.592  1.00  0.00     0.092 C 
ATOM     20  C   UNL     1      -3.004 -12.661 -42.245  1.00  0.00     0.011 C 
ATOM     21  C   UNL     1      -3.227 -13.979 -40.116  1.00  0.00     0.015 C 
ATOM     22  C   UNL     1      -5.409 -11.436 -41.897  1.00  0.00    -0.031 C 
ATOM     23  C   UNL     1      -3.208 -11.361 -43.062  1.00  0.00     0.009 C 
ATOM     24  C   UNL     1      -4.418 -10.511 -42.591  1.00  0.00     0.025 C 
ATOM     25  C   UNL     1      -6.554 -11.807 -42.515  1.00  0.00     0.050 C 
ATOM     26  C   UNL     1      -5.089  -9.599 -43.685  1.00  0.00    -0.013 C 
ATOM     27  C   UNL     1      -6.917 -11.312 -43.859  1.00  0.00     0.159 C 
ATOM     28  C   UNL     1      -5.921 -10.498 -44.647  1.00  0.00     0.070 C 
ATOM     29  C   UNL     1      -4.021  -8.823 -44.510  1.00  0.00     0.042 C 
ATOM     30  C   UNL     1      -5.993  -8.565 -42.936  1.00  0.00     0.013 C 
ATOM     31  O   UNL     1      -8.013 -11.664 -44.373  1.00  0.00    -0.295 OA
ATOM     32  C   UNL     1      -6.554  -9.694 -45.802  1.00  0.00     0.047 C 
ATOM     33  C   UNL     1      -4.634  -8.017 -45.672  1.00  0.00     0.143 C 
ATOM     34  C   UNL     1      -5.479  -8.927 -46.593  1.00  0.00     0.143 C 
BRANCH  19  35
ATOM     35  O   UNL     1      -5.746 -13.190 -40.252  1.00  0.00    -0.385 OA
ATOM     36  H   UNL     1      -5.903 -13.183 -39.272  1.00  0.00     0.211 HD
ENDBRANCH  19  35
BRANCH  33  37
ATOM     37  O   UNL     1      -3.587  -7.437 -46.410  1.00  0.00    -0.390 OA
ATOM     38  H   UNL     1      -3.818  -6.482 -46.541  1.00  0.00     0.211 HD
ENDBRANCH  33  37
BRANCH  34  39
ATOM     39  O   UNL     1      -6.090  -8.140 -47.576  1.00  0.00    -0.390 OA
ATOM     40  H   UNL     1      -5.510  -8.184 -48.382  1.00  0.00     0.211 HD
ENDBRANCH  34  39
ENDBRANCH   1  15
BRANCH   1  41
ATOM     41  O   UNL     1      -0.472 -10.650 -38.988  1.00  0.00    -0.387 OA
ATOM     42  H   UNL     1      -0.690 -10.461 -38.037  1.00  0.00     0.211 HD
ENDBRANCH   1  41
TORSDOF 9
ENDMDL
MODEL 2
REMARK VINA RESULT:    -5.753      1.772      3.143
REMARK INTER + INTRA:          -8.855
REMARK INTER:                  -8.460
REMARK INTRA:                  -0.395
REMARK UNBOUND:                -0.916
REMARK SMILES C[C@@H]1C(=O)O[C@H](C)[C@H]1C[C@@H](O)[C@@](C)(O)[C@@H]1CC[C@@]2(O)C3=CC(=O)[C@H]4C[C@@H](O)[C@H](O)C[C@]4(C)[C@@H]3CC[C@@]12C
REMARK SMILES IDX 12 1 13 2 10 3 9 4 8 5 1 6 2 7 3 8 6 9 5 10 4 11 7 12 11 13
REMARK SMILES IDX 15 15 16 16 36 17 17 18 18 19 35 20 37 21 20 22 34 23 33 24
REMARK SMILES IDX 21 25 31 26 22 27 24 28 30 29 32 30 23 31 25 32 28 33 26 34
REMARK SMILES IDX 19 35 29 37 27 39 14 41
REMARK H PARENT 11 14 19 36 29 38 27 40 14 42
REMARK Flexibility Score: inf
ROOT
ATOM      1  C   UNL     1      -4.349 -11.926 -40.102  1.00  0.00     0.091 C 
ATOM      2  C   UNL     1      -5.254 -12.891 -39.277  1.00  0.00     0.045 C 
ENDROOT
BRANCH   1   3
ATOM      3  C   UNL     1      -3.446 -12.773 -41.077  1.00  0.00     0.146 C 
BRANCH   3   4
ATOM      4  C   UNL     1      -2.821 -11.945 -42.241  1.00  0.00     0.043 C 
BRANCH   4   5
ATOM      5  C   UNL     1      -1.812 -10.828 -41.857  1.00  0.00     0.046 C 
ATOM      6  C   UNL     1       0.376 -11.790 -40.915  1.00  0.00     0.020 C 
ATOM      7  C   UNL     1      -0.328 -11.182 -42.132  1.00  0.00     0.103 C 
ATOM      8  C   UNL     1       0.233  -9.853 -42.484  1.00  0.00     0.309 C 
ATOM      9  C   UNL     1      -2.034  -9.436 -42.518  1.00  0.00     0.177 C 
ATOM     10  O   UNL     1      -0.736  -8.885 -42.641  1.00  0.00    -0.462 OA
ATOM     11  O   UNL     1       1.459  -9.621 -42.651  1.00  0.00    -0.252 OA
ATOM     12  C   UNL     1      -2.926  -8.515 -41.687  1.00  0.00     0.053 C 
ENDBRANCH   4   5
ENDBRANCH   3   4
BRANCH   3  13
ATOM     13  O   UNL     1      -2.445 -13.430 -40.341  1.00  0.00    -0.390 OA
ATOM     14  H   UNL     1      -2.201 -12.848 -39.574  1.00  0.00     0.211 HD
ENDBRANCH   3  13
ENDBRANCH   1   3
BRANCH   1  15
ATOM     15  C   UNL     1      -5.261 -10.922 -40.933  1.00  0.00     0.032 C 
ATOM     16  C   UNL     1      -5.967  -9.881 -40.054  1.00  0.00     0.010 C 
ATOM     17  C   UNL     1      -6.412 -11.472 -41.866  1.00  0.00     0.006 C 
ATOM     18  C   UNL     1      -7.077  -9.265 -40.888  1.00  0.00     0.041 C 
ATOM     19  C   UNL     1      -7.440 -10.265 -42.014  1.00  0.00     0.092 C 
ATOM     20  C   UNL     1      -5.893 -11.921 -43.274  1.00  0.00     0.011 C 
ATOM     21  C   UNL     1      -7.124 -12.699 -41.224  1.00  0.00     0.015 C 
ATOM     22  C   UNL     1      -7.287  -9.588 -43.390  1.00  0.00    -0.031 C 
ATOM     23  C   UNL     1      -5.236 -10.801 -44.117  1.00  0.00     0.009 C 
ATOM     24  C   UNL     1      -5.860  -9.398 -43.884  1.00  0.00     0.025 C 
ATOM     25  C   UNL     1      -8.337  -9.363 -44.212  1.00  0.00     0.050 C 
ATOM     26  C   UNL     1      -5.754  -8.388 -45.086  1.00  0.00    -0.013 C 
ATOM     27  C   UNL     1      -8.159  -8.891 -45.601  1.00  0.00     0.159 C 
ATOM     28  C   UNL     1      -6.772  -8.808 -46.188  1.00  0.00     0.070 C 
ATOM     29  C   UNL     1      -4.320  -8.378 -45.696  1.00  0.00     0.042 C 
ATOM     30  C   UNL     1      -6.069  -6.962 -44.524  1.00  0.00     0.013 C 
ATOM     31  O   UNL     1      -9.175  -8.665 -46.314  1.00  0.00    -0.295 OA
ATOM     32  C   UNL     1      -6.682  -7.915 -47.443  1.00  0.00     0.047 C 
ATOM     33  C   UNL     1      -4.212  -7.494 -46.954  1.00  0.00     0.143 C 
ATOM     34  C   UNL     1      -5.254  -7.913 -48.017  1.00  0.00     0.143 C 
BRANCH  19  35
ATOM     35  O   UNL     1      -8.768 -10.723 -41.836  1.00  0.00    -0.385 OA
ATOM     36  H   UNL     1      -8.745 -11.638 -41.450  1.00  0.00     0.211 HD
ENDBRANCH  19  35
BRANCH  33  37
ATOM     37  O   UNL     1      -2.916  -7.630 -47.481  1.00  0.00    -0.390 OA
ATOM     38  H   UNL     1      -2.845  -7.002 -48.244  1.00  0.00     0.211 HD
ENDBRANCH  33  37
BRANCH  34  39
ATOM     39  O   UNL     1      -5.183  -7.028 -49.099  1.00  0.00    -0.390 OA
ATOM     40  H   UNL     1      -4.901  -7.561 -49.889  1.00  0.00     0.211 HD
ENDBRANCH  34  39
ENDBRANCH   1  15
BRANCH   1  41
ATOM     41  O   UNL     1      -3.502 -11.179 -39.256  1.00  0.00    -0.387 OA
ATOM     42  H   UNL     1      -4.034 -10.840 -38.487  1.00  0.00     0.211 HD
ENDBRANCH   1  41
TORSDOF 9
ENDMDL
MODEL 3
REMARK VINA RESULT:    -5.655     10.584     13.461
REMARK INTER + INTRA:          -8.720
REMARK INTER:                  -8.307
REMARK INTRA:                  -0.413
REMARK UNBOUND:                -0.916
REMARK SMILES C[C@@H]1C(=O)O[C@H](C)[C@H]1C[C@@H](O)[C@@](C)(O)[C@@H]1CC[C@@]2(O)C3=CC(=O)[C@H]4C[C@@H](O)[C@H](O)C[C@]4(C)[C@@H]3CC[C@@]12C
REMARK SMILES IDX 12 1 13 2 10 3 9 4 8 5 1 6 2 7 3 8 6 9 5 10 4 11 7 12 11 13
REMARK SMILES IDX 15 15 16 16 36 17 17 18 18 19 35 20 37 21 20 22 34 23 33 24
REMARK SMILES IDX 21 25 31 26 22 27 24 28 30 29 32 30 23 31 25 32 28 33 26 34
REMARK SMILES IDX 19 35 29 37 27 39 14 41
REMARK H PARENT 11 14 19 36 29 38 27 40 14 42
REMARK Flexibility Score: inf
ROOT
ATOM      1  C   UNL     1       2.650 -24.907 -44.870  1.00  0.00     0.091 C 
ATOM      2  C   UNL     1       2.241 -24.267 -46.232  1.00  0.00     0.045 C 
ENDROOT
BRANCH   1   3
ATOM      3  C   UNL     1       4.145 -24.526 -44.549  1.00  0.00     0.146 C 
BRANCH   3   4
ATOM      4  C   UNL     1       4.835 -25.478 -43.526  1.00  0.00     0.043 C 
BRANCH   4   5
ATOM      5  C   UNL     1       5.728 -24.823 -42.435  1.00  0.00     0.046 C 
ATOM      6  C   UNL     1       4.784 -22.567 -41.648  1.00  0.00     0.020 C 
ATOM      7  C   UNL     1       4.943 -24.059 -41.338  1.00  0.00     0.103 C 
ATOM      8  C   UNL     1       5.801 -24.285 -40.148  1.00  0.00     0.309 C 
ATOM      9  C   UNL     1       6.692 -25.773 -41.667  1.00  0.00     0.177 C 
ATOM     10  O   UNL     1       6.802 -25.206 -40.374  1.00  0.00    -0.462 OA
ATOM     11  O   UNL     1       5.633 -23.725 -39.034  1.00  0.00    -0.252 OA
ATOM     12  C   UNL     1       8.070 -25.880 -42.319  1.00  0.00     0.053 C 
ENDBRANCH   4   5
ENDBRANCH   3   4
BRANCH   3  13
ATOM     13  O   UNL     1       4.882 -24.461 -45.744  1.00  0.00    -0.390 OA
ATOM     14  H   UNL     1       5.210 -25.376 -45.948  1.00  0.00     0.211 HD
ENDBRANCH   3  13
ENDBRANCH   1   3
BRANCH   1  15
ATOM     15  C   UNL     1       1.689 -24.373 -43.722  1.00  0.00     0.032 C 
ATOM     16  C   UNL     1       1.694 -25.260 -42.469  1.00  0.00     0.010 C 
ATOM     17  C   UNL     1       0.153 -24.135 -44.010  1.00  0.00     0.006 C 
ATOM     18  C   UNL     1       0.480 -24.878 -41.641  1.00  0.00     0.041 C 
ATOM     19  C   UNL     1      -0.555 -24.217 -42.586  1.00  0.00     0.092 C 
ATOM     20  C   UNL     1      -0.135 -22.750 -44.681  1.00  0.00     0.011 C 
ATOM     21  C   UNL     1      -0.423 -25.232 -44.952  1.00  0.00     0.015 C 
ATOM     22  C   UNL     1      -0.912 -22.808 -42.074  1.00  0.00    -0.031 C 
ATOM     23  C   UNL     1       0.280 -21.517 -43.841  1.00  0.00     0.009 C 
ATOM     24  C   UNL     1       0.137 -21.729 -42.310  1.00  0.00     0.025 C 
ATOM     25  C   UNL     1      -2.149 -22.483 -41.637  1.00  0.00     0.050 C 
ATOM     26  C   UNL     1      -0.112 -20.432 -41.454  1.00  0.00    -0.013 C 
ATOM     27  C   UNL     1      -2.533 -21.089 -41.331  1.00  0.00     0.159 C 
ATOM     28  C   UNL     1      -1.583 -19.965 -41.665  1.00  0.00     0.070 C 
ATOM     29  C   UNL     1       0.851 -19.282 -41.871  1.00  0.00     0.042 C 
ATOM     30  C   UNL     1       0.167 -20.802 -39.959  1.00  0.00     0.013 C 
ATOM     31  O   UNL     1      -3.690 -20.847 -40.894  1.00  0.00    -0.295 OA
ATOM     32  C   UNL     1      -1.895 -18.650 -40.920  1.00  0.00     0.047 C 
ATOM     33  C   UNL     1       0.553 -17.958 -41.141  1.00  0.00     0.143 C 
ATOM     34  C   UNL     1      -0.921 -17.535 -41.342  1.00  0.00     0.143 C 
BRANCH  19  35
ATOM     35  O   UNL     1      -1.717 -25.023 -42.658  1.00  0.00    -0.385 OA
ATOM     36  H   UNL     1      -2.042 -25.202 -41.736  1.00  0.00     0.211 HD
ENDBRANCH  19  35
BRANCH  33  37
ATOM     37  O   UNL     1       1.405 -16.966 -41.656  1.00  0.00    -0.390 OA
ATOM     38  H   UNL     1       0.831 -16.291 -42.100  1.00  0.00     0.211 HD
ENDBRANCH  33  37
BRANCH  34  39
ATOM     39  O   UNL     1      -1.171 -16.382 -40.588  1.00  0.00    -0.390 OA
ATOM     40  H   UNL     1      -1.553 -16.682 -39.721  1.00  0.00     0.211 HD
ENDBRANCH  34  39
ENDBRANCH   1  15
BRANCH   1  41
ATOM     41  O   UNL     1       2.557 -26.314 -44.925  1.00  0.00    -0.387 OA
ATOM     42  H   UNL     1       1.679 -26.594 -44.552  1.00  0.00     0.211 HD
ENDBRANCH   1  41
TORSDOF 9
ENDMDL
MODEL 4
REMARK VINA RESULT:    -5.616     11.167     14.472
REMARK INTER + INTRA:          -8.666
REMARK INTER:                  -8.120
REMARK INTRA:                  -0.546
REMARK UNBOUND:                -0.916
REMARK SMILES C[C@@H]1C(=O)O[C@H](C)[C@H]1C[C@@H](O)[C@@](C)(O)[C@@H]1CC[C@@]2(O)C3=CC(=O)[C@H]4C[C@@H](O)[C@H](O)C[C@]4(C)[C@@H]3CC[C@@]12C
REMARK SMILES IDX 12 1 13 2 10 3 9 4 8 5 1 6 2 7 3 8 6 9 5 10 4 11 7 12 11 13
REMARK SMILES IDX 15 15 16 16 36 17 17 18 18 19 35 20 37 21 20 22 34 23 33 24
REMARK SMILES IDX 21 25 31 26 22 27 24 28 30 29 32 30 23 31 25 32 28 33 26 34
REMARK SMILES IDX 19 35 29 37 27 39 14 41
REMARK H PARENT 11 14 19 36 29 38 27 40 14 42
REMARK Flexibility Score: inf
ROOT
ATOM      1  C   UNL     1       2.856 -25.934 -44.593  1.00  0.00     0.091 C 
ATOM      2  C   UNL     1       1.945 -26.982 -43.885  1.00  0.00     0.045 C 
ENDROOT
BRANCH   1   3
ATOM      3  C   UNL     1       2.124 -25.402 -45.883  1.00  0.00     0.146 C 
BRANCH   3   4
ATOM      4  C   UNL     1       0.789 -24.652 -45.589  1.00  0.00     0.043 C 
BRANCH   4   5
ATOM      5  C   UNL     1      -0.523 -25.480 -45.667  1.00  0.00     0.046 C 
ATOM      6  C   UNL     1      -1.797 -25.475 -43.436  1.00  0.00     0.020 C 
ATOM      7  C   UNL     1      -1.702 -24.892 -44.849  1.00  0.00     0.103 C 
ATOM      8  C   UNL     1      -2.866 -25.282 -45.684  1.00  0.00     0.309 C 
ATOM      9  C   UNL     1      -1.096 -25.738 -47.091  1.00  0.00     0.177 C 
ATOM     10  O   UNL     1      -2.499 -25.800 -46.909  1.00  0.00    -0.462 OA
ATOM     11  O   UNL     1      -4.068 -25.139 -45.340  1.00  0.00    -0.252 OA
ATOM     12  C   UNL     1      -0.583 -27.034 -47.717  1.00  0.00     0.053 C 
ENDBRANCH   4   5
ENDBRANCH   3   4
BRANCH   3  13
ATOM     13  O   UNL     1       3.001 -24.587 -46.620  1.00  0.00    -0.390 OA
ATOM     14  H   UNL     1       2.977 -23.678 -46.221  1.00  0.00     0.211 HD
ENDBRANCH   3  13
ENDBRANCH   1   3
BRANCH   1  15
ATOM     15  C   UNL     1       3.155 -24.731 -43.597  1.00  0.00     0.032 C 
ATOM     16  C   UNL     1       4.636 -24.326 -43.567  1.00  0.00     0.010 C 
ATOM     17  C   UNL     1       2.763 -24.840 -42.070  1.00  0.00     0.006 C 
ATOM     18  C   UNL     1       4.845 -23.473 -42.328  1.00  0.00     0.041 C 
ATOM     19  C   UNL     1       3.717 -23.810 -41.320  1.00  0.00     0.092 C 
ATOM     20  C   UNL     1       1.261 -24.487 -41.799  1.00  0.00     0.011 C 
ATOM     21  C   UNL     1       3.003 -26.279 -41.525  1.00  0.00     0.015 C 
ATOM     22  C   UNL     1       2.947 -22.529 -40.945  1.00  0.00    -0.031 C 
ATOM     23  C   UNL     1       0.849 -23.045 -42.186  1.00  0.00     0.009 C 
ATOM     24  C   UNL     1       1.981 -22.001 -41.997  1.00  0.00     0.025 C 
ATOM     25  C   UNL     1       2.952 -22.015 -39.694  1.00  0.00     0.050 C 
ATOM     26  C   UNL     1       1.518 -20.522 -41.720  1.00  0.00    -0.013 C 
ATOM     27  C   UNL     1       2.062 -20.903 -39.299  1.00  0.00     0.159 C 
ATOM     28  C   UNL     1       0.998 -20.425 -40.255  1.00  0.00     0.070 C 
ATOM     29  C   UNL     1       0.381 -20.091 -42.693  1.00  0.00     0.042 C 
ATOM     30  C   UNL     1       2.756 -19.595 -41.955  1.00  0.00     0.013 C 
ATOM     31  O   UNL     1       2.132 -20.440 -38.128  1.00  0.00    -0.295 OA
ATOM     32  C   UNL     1       0.448 -19.023 -39.919  1.00  0.00     0.047 C 
ATOM     33  C   UNL     1      -0.185 -18.695 -42.370  1.00  0.00     0.143 C 
ATOM     34  C   UNL     1      -0.664 -18.617 -40.902  1.00  0.00     0.143 C 
BRANCH  19  35
ATOM     35  O   UNL     1       4.275 -24.405 -40.162  1.00  0.00    -0.385 OA
ATOM     36  H   UNL     1       3.549 -24.573 -39.505  1.00  0.00     0.211 HD
ENDBRANCH  19  35
BRANCH  33  37
ATOM     37  O   UNL     1      -1.264 -18.442 -43.235  1.00  0.00    -0.390 OA
ATOM     38  H   UNL     1      -1.783 -17.694 -42.843  1.00  0.00     0.211 HD
ENDBRANCH  33  37
BRANCH  34  39
ATOM     39  O   UNL     1      -1.081 -17.309 -40.627  1.00  0.00    -0.390 OA
ATOM     40  H   UNL     1      -1.252 -16.871 -41.503  1.00  0.00     0.211 HD
ENDBRANCH  34  39
ENDBRANCH   1  15
BRANCH   1  41
ATOM     41  O   UNL     1       4.080 -26.514 -44.989  1.00  0.00    -0.387 OA
ATOM     42  H   UNL     1       4.282 -26.234 -45.921  1.00  0.00     0.211 HD
ENDBRANCH   1  41
TORSDOF 9
ENDMDL
MODEL 5
REMARK VINA RESULT:    -5.537      8.323     14.107
REMARK INTER + INTRA:          -8.558
REMARK INTER:                  -8.250
REMARK INTRA:                  -0.307
REMARK UNBOUND:                -0.916
REMARK SMILES C[C@@H]1C(=O)O[C@H](C)[C@H]1C[C@@H](O)[C@@](C)(O)[C@@H]1CC[C@@]2(O)C3=CC(=O)[C@H]4C[C@@H](O)[C@H](O)C[C@]4(C)[C@@H]3CC[C@@]12C
REMARK SMILES IDX 12 1 13 2 10 3 9 4 8 5 1 6 2 7 3 8 6 9 5 10 4 11 7 12 11 13
REMARK SMILES IDX 15 15 16 16 36 17 17 18 18 19 35 20 37 21 20 22 34 23 33 24
REMARK SMILES IDX 21 25 31 26 22 27 24 28 30 29 32 30 23 31 25 32 28 33 26 34
REMARK SMILES IDX 19 35 29 37 27 39 14 41
REMARK H PARENT 11 14 19 36 29 38 27 40 14 42
REMARK Flexibility Score: inf
ROOT
ATOM      1  C   UNL     1       1.049 -14.479 -33.804  1.00  0.00     0.091 C 
ATOM      2  C   UNL     1       1.958 -13.214 -33.732  1.00  0.00     0.045 C 
ENDROOT
BRANCH   1   3
ATOM      3  C   UNL     1      -0.117 -14.219 -34.830  1.00  0.00     0.146 C 
BRANCH   3   4
ATOM      4  C   UNL     1      -1.543 -14.431 -34.235  1.00  0.00     0.043 C 
BRANCH   4   5
ATOM      5  C   UNL     1      -2.649 -13.427 -34.665  1.00  0.00     0.046 C 
ATOM      6  C   UNL     1      -2.953 -13.365 -37.215  1.00  0.00     0.020 C 
ATOM      7  C   UNL     1      -3.495 -13.887 -35.881  1.00  0.00     0.103 C 
ATOM      8  C   UNL     1      -4.820 -13.301 -35.558  1.00  0.00     0.309 C 
ATOM      9  C   UNL     1      -3.682 -13.026 -33.572  1.00  0.00     0.177 C 
ATOM     10  O   UNL     1      -4.881 -12.780 -34.283  1.00  0.00    -0.462 OA
ATOM     11  O   UNL     1      -5.804 -13.294 -36.342  1.00  0.00    -0.252 OA
ATOM     12  C   UNL     1      -3.266 -11.783 -32.785  1.00  0.00     0.053 C 
ENDBRANCH   4   5
ENDBRANCH   3   4
BRANCH   3  13
ATOM     13  O   UNL     1       0.009 -12.926 -35.369  1.00  0.00    -0.390 OA
ATOM     14  H   UNL     1       0.634 -12.979 -36.139  1.00  0.00     0.211 HD
ENDBRANCH   3  13
ENDBRANCH   1   3
BRANCH   1  15
ATOM     15  C   UNL     1       1.916 -15.730 -34.264  1.00  0.00     0.032 C 
ATOM     16  C   UNL     1       1.817 -16.011 -35.770  1.00  0.00     0.010 C 
ATOM     17  C   UNL     1       1.692 -17.147 -33.600  1.00  0.00     0.006 C 
ATOM     18  C   UNL     1       2.347 -17.415 -36.003  1.00  0.00     0.041 C 
ATOM     19  C   UNL     1       2.229 -18.197 -34.670  1.00  0.00     0.092 C 
ATOM     20  C   UNL     1       2.457 -17.312 -32.244  1.00  0.00     0.011 C 
ATOM     21  C   UNL     1       0.184 -17.406 -33.313  1.00  0.00     0.015 C 
ATOM     22  C   UNL     1       3.610 -18.739 -34.254  1.00  0.00    -0.031 C 
ATOM     23  C   UNL     1       3.998 -17.188 -32.342  1.00  0.00     0.009 C 
ATOM     24  C   UNL     1       4.582 -17.716 -33.680  1.00  0.00     0.025 C 
ATOM     25  C   UNL     1       3.887 -20.061 -34.193  1.00  0.00     0.050 C 
ATOM     26  C   UNL     1       6.065 -18.239 -33.627  1.00  0.00    -0.013 C 
ATOM     27  C   UNL     1       5.145 -20.575 -33.612  1.00  0.00     0.159 C 
ATOM     28  C   UNL     1       6.085 -19.624 -32.914  1.00  0.00     0.070 C 
ATOM     29  C   UNL     1       6.988 -17.254 -32.850  1.00  0.00     0.042 C 
ATOM     30  C   UNL     1       6.574 -18.343 -35.103  1.00  0.00     0.013 C 
ATOM     31  O   UNL     1       5.365 -21.816 -33.611  1.00  0.00    -0.295 OA
ATOM     32  C   UNL     1       7.515 -20.178 -32.748  1.00  0.00     0.047 C 
ATOM     33  C   UNL     1       8.420 -17.792 -32.669  1.00  0.00     0.143 C 
ATOM     34  C   UNL     1       8.408 -19.181 -31.988  1.00  0.00     0.143 C 
BRANCH  19  35
ATOM     35  O   UNL     1       1.308 -19.262 -34.822  1.00  0.00    -0.385 OA
ATOM     36  H   UNL     1       1.541 -19.775 -35.640  1.00  0.00     0.211 HD
ENDBRANCH  19  35
BRANCH  33  37
ATOM     37  O   UNL     1       9.139 -16.882 -31.876  1.00  0.00    -0.390 OA
ATOM     38  H   UNL     1       8.695 -16.853 -30.990  1.00  0.00     0.211 HD
ENDBRANCH  33  37
BRANCH  34  39
ATOM     39  O   UNL     1       9.718 -19.672 -31.930  1.00  0.00    -0.390 OA
ATOM     40  H   UNL     1       9.771 -20.256 -31.127  1.00  0.00     0.211 HD
ENDBRANCH  34  39
ENDBRANCH   1  15
BRANCH   1  41
ATOM     41  O   UNL     1       0.474 -14.760 -32.546  1.00  0.00    -0.387 OA
ATOM     42  H   UNL     1      -0.098 -15.569 -32.628  1.00  0.00     0.211 HD
ENDBRANCH   1  41
TORSDOF 9
ENDMDL
MODEL 6
REMARK VINA RESULT:    -5.493      9.386     12.562
REMARK INTER + INTRA:          -8.497
REMARK INTER:                  -7.712
REMARK INTRA:                  -0.784
REMARK UNBOUND:                -0.916
REMARK SMILES C[C@@H]1C(=O)O[C@H](C)[C@H]1C[C@@H](O)[C@@](C)(O)[C@@H]1CC[C@@]2(O)C3=CC(=O)[C@H]4C[C@@H](O)[C@H](O)C[C@]4(C)[C@@H]3CC[C@@]12C
REMARK SMILES IDX 12 1 13 2 10 3 9 4 8 5 1 6 2 7 3 8 6 9 5 10 4 11 7 12 11 13
REMARK SMILES IDX 15 15 16 16 36 17 17 18 18 19 35 20 37 21 20 22 34 23 33 24
REMARK SMILES IDX 21 25 31 26 22 27 24 28 30 29 32 30 23 31 25 32 28 33 26 34
REMARK SMILES IDX 19 35 29 37 27 39 14 41
REMARK H PARENT 11 14 19 36 29 38 27 40 14 42
REMARK Flexibility Score: inf
ROOT
ATOM      1  C   UNL     1      -1.642 -19.386 -41.236  1.00  0.00     0.091 C 
ATOM      2  C   UNL     1      -3.164 -19.726 -41.248  1.00  0.00     0.045 C 
ENDROOT
BRANCH   1   3
ATOM      3  C   UNL     1      -1.254 -18.804 -39.824  1.00  0.00     0.146 C 
BRANCH   3   4
ATOM      4  C   UNL     1      -0.756 -17.327 -39.864  1.00  0.00     0.043 C 
BRANCH   4   5
ATOM      5  C   UNL     1       0.576 -17.006 -39.131  1.00  0.00     0.046 C 
ATOM      6  C   UNL     1       0.947 -18.532 -37.098  1.00  0.00     0.020 C 
ATOM      7  C   UNL     1       1.308 -18.248 -38.559  1.00  0.00     0.103 C 
ATOM      8  C   UNL     1       2.730 -17.847 -38.706  1.00  0.00     0.309 C 
ATOM      9  C   UNL     1       1.650 -16.236 -39.953  1.00  0.00     0.177 C 
ATOM     10  O   UNL     1       2.890 -16.693 -39.443  1.00  0.00    -0.462 OA
ATOM     11  O   UNL     1       3.703 -18.494 -38.238  1.00  0.00    -0.252 OA
ATOM     12  C   UNL     1       1.541 -14.719 -39.806  1.00  0.00     0.053 C 
ENDBRANCH   4   5
ENDBRANCH   3   4
BRANCH   3  13
ATOM     13  O   UNL     1      -2.342 -18.939 -38.944  1.00  0.00    -0.390 OA
ATOM     14  H   UNL     1      -2.233 -19.796 -38.455  1.00  0.00     0.211 HD
ENDBRANCH   3  13
ENDBRANCH   1   3
BRANCH   1  15
ATOM     15  C   UNL     1      -0.801 -20.702 -41.536  1.00  0.00     0.032 C 
ATOM     16  C   UNL     1      -0.416 -21.474 -40.267  1.00  0.00     0.010 C 
ATOM     17  C   UNL     1       0.549 -20.620 -42.354  1.00  0.00     0.006 C 
ATOM     18  C   UNL     1       0.683 -22.450 -40.650  1.00  0.00     0.041 C 
ATOM     19  C   UNL     1       1.369 -21.919 -41.934  1.00  0.00     0.092 C 
ATOM     20  C   UNL     1       0.323 -20.598 -43.904  1.00  0.00     0.011 C 
ATOM     21  C   UNL     1       1.356 -19.341 -41.987  1.00  0.00     0.015 C 
ATOM     22  C   UNL     1       1.306 -22.985 -43.044  1.00  0.00    -0.031 C 
ATOM     23  C   UNL     1      -0.384 -21.849 -44.480  1.00  0.00     0.009 C 
ATOM     24  C   UNL     1      -0.046 -23.161 -43.722  1.00  0.00     0.025 C 
ATOM     25  C   UNL     1       2.410 -23.583 -43.545  1.00  0.00     0.050 C 
ATOM     26  C   UNL     1      -0.146 -24.488 -44.562  1.00  0.00    -0.013 C 
ATOM     27  C   UNL     1       2.359 -24.458 -44.735  1.00  0.00     0.159 C 
ATOM     28  C   UNL     1       1.077 -24.568 -45.523  1.00  0.00     0.070 C 
ATOM     29  C   UNL     1      -1.457 -24.533 -45.402  1.00  0.00     0.042 C 
ATOM     30  C   UNL     1      -0.161 -25.679 -43.548  1.00  0.00     0.013 C 
ATOM     31  O   UNL     1       3.414 -25.017 -45.139  1.00  0.00    -0.295 OA
ATOM     32  C   UNL     1       1.021 -25.804 -46.444  1.00  0.00     0.047 C 
ATOM     33  C   UNL     1      -1.529 -25.759 -46.332  1.00  0.00     0.143 C 
ATOM     34  C   UNL     1      -0.288 -25.830 -47.253  1.00  0.00     0.143 C 
BRANCH  19  35
ATOM     35  O   UNL     1       2.715 -21.582 -41.651  1.00  0.00    -0.385 OA
ATOM     36  H   UNL     1       2.965 -21.966 -40.769  1.00  0.00     0.211 HD
ENDBRANCH  19  35
BRANCH  33  37
ATOM     37  O   UNL     1      -2.693 -25.655 -47.113  1.00  0.00    -0.390 OA
ATOM     38  H   UNL     1      -3.452 -25.527 -46.488  1.00  0.00     0.211 HD
ENDBRANCH  33  37
BRANCH  34  39
ATOM     39  O   UNL     1      -0.350 -27.005 -48.011  1.00  0.00    -0.390 OA
ATOM     40  H   UNL     1      -0.296 -27.764 -47.372  1.00  0.00     0.211 HD
ENDBRANCH  34  39
ENDBRANCH   1  15
BRANCH   1  41
ATOM     41  O   UNL     1      -1.333 -18.415 -42.212  1.00  0.00    -0.387 OA
ATOM     42  H   UNL     1      -0.567 -18.738 -42.757  1.00  0.00     0.211 HD
ENDBRANCH   1  41
TORSDOF 9
ENDMDL
MODEL 7
REMARK VINA RESULT:    -5.491      3.445      6.021
REMARK INTER + INTRA:          -8.494
REMARK INTER:                  -7.654
REMARK INTRA:                  -0.840
REMARK UNBOUND:                -0.916
REMARK SMILES C[C@@H]1C(=O)O[C@H](C)[C@H]1C[C@@H](O)[C@@](C)(O)[C@@H]1CC[C@@]2(O)C3=CC(=O)[C@H]4C[C@@H](O)[C@H](O)C[C@]4(C)[C@@H]3CC[C@@]12C
REMARK SMILES IDX 12 1 13 2 10 3 9 4 8 5 1 6 2 7 3 8 6 9 5 10 4 11 7 12 11 13
REMARK SMILES IDX 15 15 16 16 36 17 17 18 18 19 35 20 37 21 20 22 34 23 33 24
REMARK SMILES IDX 21 25 31 26 22 27 24 28 30 29 32 30 23 31 25 32 28 33 26 34
REMARK SMILES IDX 19 35 29 37 27 39 14 41
REMARK H PARENT 11 14 19 36 29 38 27 40 14 42
REMARK Flexibility Score: inf
ROOT
ATOM      1  C   UNL     1      -1.053 -15.713 -36.619  1.00  0.00     0.091 C 
ATOM      2  C   UNL     1      -2.017 -16.161 -35.479  1.00  0.00     0.045 C 
ENDROOT
BRANCH   1   3
ATOM      3  C   UNL     1      -1.170 -16.726 -37.820  1.00  0.00     0.146 C 
BRANCH   3   4
ATOM      4  C   UNL     1       0.202 -17.133 -38.441  1.00  0.00     0.043 C 
BRANCH   4   5
ATOM      5  C   UNL     1       0.365 -16.961 -39.977  1.00  0.00     0.046 C 
ATOM      6  C   UNL     1       2.449 -15.582 -40.574  1.00  0.00     0.020 C 
ATOM      7  C   UNL     1       1.835 -16.981 -40.472  1.00  0.00     0.103 C 
ATOM      8  C   UNL     1       1.689 -17.617 -41.805  1.00  0.00     0.309 C 
ATOM      9  C   UNL     1      -0.386 -17.989 -40.872  1.00  0.00     0.177 C 
ATOM     10  O   UNL     1       0.426 -18.124 -42.024  1.00  0.00    -0.462 OA
ATOM     11  O   UNL     1       2.617 -17.716 -42.650  1.00  0.00    -0.252 OA
ATOM     12  C   UNL     1      -1.790 -17.528 -41.263  1.00  0.00     0.053 C 
ENDBRANCH   4   5
ENDBRANCH   3   4
BRANCH   3  13
ATOM     13  O   UNL     1      -1.886 -17.864 -37.409  1.00  0.00    -0.390 OA
ATOM     14  H   UNL     1      -2.006 -17.808 -36.425  1.00  0.00     0.211 HD
ENDBRANCH   3  13
ENDBRANCH   1   3
BRANCH   1  15
ATOM     15  C   UNL     1      -1.441 -14.247 -37.098  1.00  0.00     0.032 C 
ATOM     16  C   UNL     1      -1.826 -13.316 -35.940  1.00  0.00     0.010 C 
ATOM     17  C   UNL     1      -2.595 -14.031 -38.157  1.00  0.00     0.006 C 
ATOM     18  C   UNL     1      -2.536 -12.117 -36.543  1.00  0.00     0.041 C 
ATOM     19  C   UNL     1      -3.097 -12.538 -37.925  1.00  0.00     0.092 C 
ATOM     20  C   UNL     1      -2.109 -14.218 -39.635  1.00  0.00     0.011 C 
ATOM     21  C   UNL     1      -3.768 -15.028 -37.928  1.00  0.00     0.015 C 
ATOM     22  C   UNL     1      -2.552 -11.604 -39.022  1.00  0.00    -0.031 C 
ATOM     23  C   UNL     1      -1.001 -13.236 -40.088  1.00  0.00     0.009 C 
ATOM     24  C   UNL     1      -1.104 -11.833 -39.433  1.00  0.00     0.025 C 
ATOM     25  C   UNL     1      -3.348 -10.774 -39.735  1.00  0.00     0.050 C 
ATOM     26  C   UNL     1      -0.503 -10.638 -40.262  1.00  0.00    -0.013 C 
ATOM     27  C   UNL     1      -2.851 -10.027 -40.910  1.00  0.00     0.159 C 
ATOM     28  C   UNL     1      -1.467 -10.309 -41.440  1.00  0.00     0.070 C 
ATOM     29  C   UNL     1       0.900 -10.994 -40.837  1.00  0.00     0.042 C 
ATOM     30  C   UNL     1      -0.351  -9.425 -39.286  1.00  0.00     0.013 C 
ATOM     31  O   UNL     1      -3.628  -9.242 -41.517  1.00  0.00    -0.295 OA
ATOM     32  C   UNL     1      -0.917  -9.196 -42.356  1.00  0.00     0.047 C 
ATOM     33  C   UNL     1       1.464  -9.896 -41.759  1.00  0.00     0.143 C 
ATOM     34  C   UNL     1       0.474  -9.568 -42.900  1.00  0.00     0.143 C 
BRANCH  19  35
ATOM     35  O   UNL     1      -4.513 -12.492 -37.898  1.00  0.00    -0.385 OA
ATOM     36  H   UNL     1      -4.809 -12.223 -36.989  1.00  0.00     0.211 HD
ENDBRANCH  19  35
BRANCH  33  37
ATOM     37  O   UNL     1       2.678 -10.352 -42.302  1.00  0.00    -0.390 OA
ATOM     38  H   UNL     1       2.476 -10.715 -43.202  1.00  0.00     0.211 HD
ENDBRANCH  33  37
BRANCH  34  39
ATOM     39  O   UNL     1       0.983  -8.504 -43.655  1.00  0.00    -0.390 OA
ATOM     40  H   UNL     1       1.940  -8.707 -43.830  1.00  0.00     0.211 HD
ENDBRANCH  34  39
ENDBRANCH   1  15
BRANCH   1  41
ATOM     41  O   UNL     1       0.287 -15.708 -36.176  1.00  0.00    -0.387 OA
ATOM     42  H   UNL     1       0.308 -15.445 -35.218  1.00  0.00     0.211 HD
ENDBRANCH   1  41
TORSDOF 9
ENDMDL
MODEL 8
REMARK VINA RESULT:    -5.418      2.387      8.203
REMARK INTER + INTRA:          -8.393
REMARK INTER:                  -7.089
REMARK INTRA:                  -1.305
REMARK UNBOUND:                -0.916
REMARK SMILES C[C@@H]1C(=O)O[C@H](C)[C@H]1C[C@@H](O)[C@@](C)(O)[C@@H]1CC[C@@]2(O)C3=CC(=O)[C@H]4C[C@@H](O)[C@H](O)C[C@]4(C)[C@@H]3CC[C@@]12C
REMARK SMILES IDX 12 1 13 2 10 3 9 4 8 5 1 6 2 7 3 8 6 9 5 10 4 11 7 12 11 13
REMARK SMILES IDX 15 15 16 16 36 17 17 18 18 19 35 20 37 21 20 22 34 23 33 24
REMARK SMILES IDX 21 25 31 26 22 27 24 28 30 29 32 30 23 31 25 32 28 33 26 34
REMARK SMILES IDX 19 35 29 37 27 39 14 41
REMARK H PARENT 11 14 19 36 29 38 27 40 14 42
REMARK Flexibility Score: inf
ROOT
ATOM      1  C   UNL     1      -7.930  -9.258 -42.871  1.00  0.00     0.091 C 
ATOM      2  C   UNL     1      -8.177 -10.573 -43.671  1.00  0.00     0.045 C 
ENDROOT
BRANCH   1   3
ATOM      3  C   UNL     1      -8.787  -9.290 -41.549  1.00  0.00     0.146 C 
BRANCH   3   4
ATOM      4  C   UNL     1      -7.939  -9.439 -40.248  1.00  0.00     0.043 C 
BRANCH   4   5
ATOM      5  C   UNL     1      -8.166 -10.718 -39.395  1.00  0.00     0.046 C 
ATOM      6  C   UNL     1      -7.780 -12.863 -40.755  1.00  0.00     0.020 C 
ATOM      7  C   UNL     1      -7.203 -11.888 -39.724  1.00  0.00     0.103 C 
ATOM      8  C   UNL     1      -7.046 -12.525 -38.393  1.00  0.00     0.309 C 
ATOM      9  C   UNL     1      -8.090 -10.542 -37.851  1.00  0.00     0.177 C 
ATOM     10  O   UNL     1      -7.595 -11.780 -37.372  1.00  0.00    -0.462 OA
ATOM     11  O   UNL     1      -6.453 -13.617 -38.194  1.00  0.00    -0.252 OA
ATOM     12  C   UNL     1      -9.445 -10.230 -37.217  1.00  0.00     0.053 C 
ENDBRANCH   4   5
ENDBRANCH   3   4
BRANCH   3  13
ATOM     13  O   UNL     1      -9.598  -8.143 -41.485  1.00  0.00    -0.390 OA
ATOM     14  H   UNL     1     -10.016  -8.118 -40.584  1.00  0.00     0.211 HD
ENDBRANCH   3  13
ENDBRANCH   1   3
BRANCH   1  15
ATOM     15  C   UNL     1      -6.384  -9.133 -42.519  1.00  0.00     0.032 C 
ATOM     16  C   UNL     1      -5.949  -7.692 -42.217  1.00  0.00     0.010 C 
ATOM     17  C   UNL     1      -5.289  -9.654 -43.532  1.00  0.00     0.006 C 
ATOM     18  C   UNL     1      -4.432  -7.655 -42.291  1.00  0.00     0.041 C 
ATOM     19  C   UNL     1      -3.967  -8.844 -43.169  1.00  0.00     0.092 C 
ATOM     20  C   UNL     1      -5.032 -11.195 -43.414  1.00  0.00     0.011 C 
ATOM     21  C   UNL     1      -5.698  -9.367 -45.006  1.00  0.00     0.015 C 
ATOM     22  C   UNL     1      -2.986  -9.730 -42.378  1.00  0.00    -0.031 C 
ATOM     23  C   UNL     1      -4.515 -11.667 -42.033  1.00  0.00     0.009 C 
ATOM     24  C   UNL     1      -3.608 -10.630 -41.318  1.00  0.00     0.025 C 
ATOM     25  C   UNL     1      -1.688  -9.874 -42.728  1.00  0.00     0.050 C 
ATOM     26  C   UNL     1      -2.550 -11.216 -40.311  1.00  0.00    -0.013 C 
ATOM     27  C   UNL     1      -0.806 -10.870 -42.083  1.00  0.00     0.159 C 
ATOM     28  C   UNL     1      -1.394 -11.872 -41.122  1.00  0.00     0.070 C 
ATOM     29  C   UNL     1      -3.188 -12.287 -39.377  1.00  0.00     0.042 C 
ATOM     30  C   UNL     1      -2.037 -10.028 -39.432  1.00  0.00     0.013 C 
ATOM     31  O   UNL     1       0.406 -10.937 -42.426  1.00  0.00    -0.295 OA
ATOM     32  C   UNL     1      -0.345 -12.544 -40.211  1.00  0.00     0.047 C 
ATOM     33  C   UNL     1      -2.155 -12.974 -38.462  1.00  0.00     0.143 C 
ATOM     34  C   UNL     1      -1.003 -13.588 -39.291  1.00  0.00     0.143 C 
BRANCH  19  35
ATOM     35  O   UNL     1      -3.348  -8.354 -44.345  1.00  0.00    -0.385 OA
ATOM     36  H   UNL     1      -3.124  -7.395 -44.215  1.00  0.00     0.211 HD
ENDBRANCH  19  35
BRANCH  33  37
ATOM     37  O   UNL     1      -2.808 -13.984 -37.736  1.00  0.00    -0.390 OA
ATOM     38  H   UNL     1      -2.163 -14.730 -37.630  1.00  0.00     0.211 HD
ENDBRANCH  33  37
BRANCH  34  39
ATOM     39  O   UNL     1      -0.044 -14.117 -38.418  1.00  0.00    -0.390 OA
ATOM     40  H   UNL     1      -0.479 -14.868 -37.933  1.00  0.00     0.211 HD
ENDBRANCH  34  39
ENDBRANCH   1  15
BRANCH   1  41
ATOM     41  O   UNL     1      -8.320  -8.128 -43.621  1.00  0.00    -0.387 OA
ATOM     42  H   UNL     1      -8.895  -7.548 -43.053  1.00  0.00     0.211 HD
ENDBRANCH   1  41
TORSDOF 9
ENDMDL
MODEL 9
REMARK VINA RESULT:    -5.377     10.384     13.997
REMARK INTER + INTRA:          -8.336
REMARK INTER:                  -7.166
REMARK INTRA:                  -1.170
REMARK UNBOUND:                -0.916
REMARK SMILES C[C@@H]1C(=O)O[C@H](C)[C@H]1C[C@@H](O)[C@@](C)(O)[C@@H]1CC[C@@]2(O)C3=CC(=O)[C@H]4C[C@@H](O)[C@H](O)C[C@]4(C)[C@@H]3CC[C@@]12C
REMARK SMILES IDX 12 1 13 2 10 3 9 4 8 5 1 6 2 7 3 8 6 9 5 10 4 11 7 12 11 13
REMARK SMILES IDX 15 15 16 16 36 17 17 18 18 19 35 20 37 21 20 22 34 23 33 24
REMARK SMILES IDX 21 25 31 26 22 27 24 28 30 29 32 30 23 31 25 32 28 33 26 34
REMARK SMILES IDX 19 35 29 37 27 39 14 41
REMARK H PARENT 11 14 19 36 29 38 27 40 14 42
REMARK Flexibility Score: inf
ROOT
ATOM      1  C   UNL     1      -1.382 -19.845 -40.578  1.00  0.00     0.091 C 
ATOM      2  C   UNL     1      -1.432 -18.774 -41.710  1.00  0.00     0.045 C 
ENDROOT
BRANCH   1   3
ATOM      3  C   UNL     1      -2.852 -20.276 -40.211  1.00  0.00     0.146 C 
BRANCH   3   4
ATOM      4  C   UNL     1      -3.510 -21.232 -41.252  1.00  0.00     0.043 C 
BRANCH   4   5
ATOM      5  C   UNL     1      -4.050 -22.592 -40.727  1.00  0.00     0.046 C 
ATOM      6  C   UNL     1      -6.009 -22.283 -39.095  1.00  0.00     0.020 C 
ATOM      7  C   UNL     1      -5.586 -22.636 -40.524  1.00  0.00     0.103 C 
ATOM      8  C   UNL     1      -5.887 -24.052 -40.852  1.00  0.00     0.309 C 
ATOM      9  C   UNL     1      -3.709 -23.847 -41.582  1.00  0.00     0.177 C 
ATOM     10  O   UNL     1      -4.808 -24.720 -41.392  1.00  0.00    -0.462 OA
ATOM     11  O   UNL     1      -7.010 -24.597 -40.688  1.00  0.00    -0.252 OA
ATOM     12  C   UNL     1      -2.410 -24.528 -41.153  1.00  0.00     0.053 C 
ENDBRANCH   4   5
ENDBRANCH   3   4
BRANCH   3  13
ATOM     13  O   UNL     1      -2.869 -20.851 -38.928  1.00  0.00    -0.390 OA
ATOM     14  H   UNL     1      -2.840 -20.113 -38.264  1.00  0.00     0.211 HD
ENDBRANCH   3  13
ENDBRANCH   1   3
BRANCH   1  15
ATOM     15  C   UNL     1      -0.548 -21.105 -41.074  1.00  0.00     0.032 C 
ATOM     16  C   UNL     1      -0.037 -21.982 -39.923  1.00  0.00     0.010 C 
ATOM     17  C   UNL     1       0.721 -20.912 -41.996  1.00  0.00     0.006 C 
ATOM     18  C   UNL     1       1.041 -22.889 -40.492  1.00  0.00     0.041 C 
ATOM     19  C   UNL     1       1.598 -22.222 -41.775  1.00  0.00     0.092 C 
ATOM     20  C   UNL     1       0.356 -20.751 -43.511  1.00  0.00     0.011 C 
ATOM     21  C   UNL     1       1.535 -19.652 -41.582  1.00  0.00     0.015 C 
ATOM     22  C   UNL     1       1.454 -23.181 -42.972  1.00  0.00    -0.031 C 
ATOM     23  C   UNL     1      -0.378 -21.961 -44.139  1.00  0.00     0.009 C 
ATOM     24  C   UNL     1       0.050 -23.329 -43.542  1.00  0.00     0.025 C 
ATOM     25  C   UNL     1       2.520 -23.702 -43.623  1.00  0.00     0.050 C 
ATOM     26  C   UNL     1      -0.101 -24.574 -44.493  1.00  0.00    -0.013 C 
ATOM     27  C   UNL     1       2.376 -24.462 -44.882  1.00  0.00     0.159 C 
ATOM     28  C   UNL     1       1.031 -24.532 -45.561  1.00  0.00     0.070 C 
ATOM     29  C   UNL     1      -1.482 -24.574 -45.214  1.00  0.00     0.042 C 
ATOM     30  C   UNL     1      -0.004 -25.855 -43.599  1.00  0.00     0.013 C 
ATOM     31  O   UNL     1       3.401 -24.954 -45.428  1.00  0.00    -0.295 OA
ATOM     32  C   UNL     1       0.915 -25.678 -46.587  1.00  0.00     0.047 C 
ATOM     33  C   UNL     1      -1.616 -25.709 -46.248  1.00  0.00     0.143 C 
ATOM     34  C   UNL     1      -0.462 -25.662 -47.276  1.00  0.00     0.143 C 
BRANCH  19  35
ATOM     35  O   UNL     1       2.959 -21.879 -41.581  1.00  0.00    -0.385 OA
ATOM     36  H   UNL     1       3.033 -21.296 -40.780  1.00  0.00     0.211 HD
ENDBRANCH  19  35
BRANCH  33  37
ATOM     37  O   UNL     1      -2.847 -25.563 -46.910  1.00  0.00    -0.390 OA
ATOM     38  H   UNL     1      -3.022 -24.591 -46.986  1.00  0.00     0.211 HD
ENDBRANCH  33  37
BRANCH  34  39
ATOM     39  O   UNL     1      -0.571 -26.763 -48.135  1.00  0.00    -0.390 OA
ATOM     40  H   UNL     1      -0.797 -26.405 -49.034  1.00  0.00     0.211 HD
ENDBRANCH  34  39
ENDBRANCH   1  15
BRANCH   1  41
ATOM     41  O   UNL     1      -0.773 -19.324 -39.416  1.00  0.00    -0.387 OA
ATOM     42  H   UNL     1      -1.418 -19.382 -38.661  1.00  0.00     0.211 HD
ENDBRANCH   1  41
TORSDOF 9
ENDMDL
