MODEL 1
REMARK VINA RESULT:    -5.099      0.000      0.000
REMARK INTER + INTRA:         -11.179
REMARK INTER:                  -9.571
REMARK INTRA:                  -1.609
REMARK UNBOUND:                -1.609
REMARK SMILES CCCCCCCCC=CCCCCCCCC(=O)[O-]
REMARK SMILES IDX 10 1 9 2 11 3 12 4 13 5 14 6 15 7 16 8 17 9 18 10 19 11
REMARK SMILES IDX 20 12 8 13 7 14 6 15 5 16 4 17 3 18 2 19 1 20
REMARK H PARENT
REMARK Flexibility Score: inf
ROOT
ATOM      1  C   UNL     1      -3.513  11.098 -18.977  1.00  0.00    -0.031 C 
ATOM      2  C   UNL     1      -2.512  11.942 -18.661  1.00  0.00    -0.031 C 
ENDROOT
BRANCH   1   3
ATOM      3  C   UNL     1      -4.718  11.454 -19.815  1.00  0.00     0.027 C 
BRANCH   3   4
ATOM      4  C   UNL     1      -6.006  11.439 -18.982  1.00  0.00     0.004 C 
BRANCH   4   5
ATOM      5  C   UNL     1      -6.019  12.546 -17.914  1.00  0.00     0.000 C 
BRANCH   5   6
ATOM      6  C   UNL     1      -6.384  12.025 -16.513  1.00  0.00     0.000 C 
BRANCH   6   7
ATOM      7  C   UNL     1      -5.637  12.705 -15.351  1.00  0.00     0.000 C 
BRANCH   7   8
ATOM      8  C   UNL     1      -4.160  12.990 -15.672  1.00  0.00     0.006 C 
BRANCH   8   9
ATOM      9  C   UNL     1      -3.215  12.431 -14.601  1.00  0.00     0.053 C 
BRANCH   9  10
ATOM     10  C   UNL     1      -3.179  10.933 -14.620  1.00  0.00     0.041 C 
ATOM     11  O   UNL     1      -3.123  10.315 -15.716  1.00  0.00    -0.550 OA
ATOM     12  O   UNL     1      -3.247  10.220 -13.430  1.00  0.00    -0.550 OA
ENDBRANCH   9  10
ENDBRANCH   8   9
ENDBRANCH   7   8
ENDBRANCH   6   7
ENDBRANCH   5   6
ENDBRANCH   4   5
ENDBRANCH   3   4
ENDBRANCH   1   3
BRANCH   2  13
ATOM     13  C   UNL     1      -2.459  13.397 -19.050  1.00  0.00     0.027 C 
BRANCH  13  14
ATOM     14  C   UNL     1      -1.758  14.232 -17.971  1.00  0.00     0.004 C 
BRANCH  14  15
ATOM     15  C   UNL     1      -1.404  15.626 -18.501  1.00  0.00     0.000 C 
BRANCH  15  16
ATOM     16  C   UNL     1       0.113  15.842 -18.513  1.00  0.00     0.000 C 
BRANCH  16  17
ATOM     17  C   UNL     1       0.467  17.238 -19.039  1.00  0.00    -0.000 C 
BRANCH  17  18
ATOM     18  C   UNL     1      -0.766  18.153 -19.045  1.00  0.00    -0.000 C 
BRANCH  18  19
ATOM     19  C   UNL     1      -0.404  19.633 -19.242  1.00  0.00    -0.003 C 
ATOM     20  C   UNL     1       0.581  19.852 -20.390  1.00  0.00     0.004 C 
ENDBRANCH  18  19
ENDBRANCH  17  18
ENDBRANCH  16  17
ENDBRANCH  15  16
ENDBRANCH  14  15
ENDBRANCH  13  14
ENDBRANCH   2  13
TORSDOF 15
ENDMDL
MODEL 2
REMARK VINA RESULT:    -4.745      3.506      7.583
REMARK INTER + INTRA:         -10.515
REMARK INTER:                  -8.700
REMARK INTRA:                  -1.815
REMARK UNBOUND:                -1.609
REMARK SMILES CCCCCCCCC=CCCCCCCCC(=O)[O-]
REMARK SMILES IDX 10 1 9 2 11 3 12 4 13 5 14 6 15 7 16 8 17 9 18 10 19 11
REMARK SMILES IDX 20 12 8 13 7 14 6 15 5 16 4 17 3 18 2 19 1 20
REMARK H PARENT
REMARK Flexibility Score: inf
ROOT
ATOM      1  C   UNL     1      -2.463  11.976 -18.538  1.00  0.00    -0.031 C 
ATOM      2  C   UNL     1      -3.422  11.077 -18.831  1.00  0.00    -0.031 C 
ENDROOT
BRANCH   1   3
ATOM      3  C   UNL     1      -2.369  13.367 -19.119  1.00  0.00     0.027 C 
BRANCH   3   4
ATOM      4  C   UNL     1      -1.882  14.381 -18.075  1.00  0.00     0.004 C 
BRANCH   4   5
ATOM      5  C   UNL     1      -1.207  15.601 -18.724  1.00  0.00     0.000 C 
BRANCH   5   6
ATOM      6  C   UNL     1       0.278  15.738 -18.345  1.00  0.00     0.000 C 
BRANCH   6   7
ATOM      7  C   UNL     1       1.227  16.023 -19.524  1.00  0.00     0.000 C 
BRANCH   7   8
ATOM      8  C   UNL     1       1.724  17.478 -19.556  1.00  0.00     0.006 C 
BRANCH   8   9
ATOM      9  C   UNL     1       0.667  18.440 -20.113  1.00  0.00     0.053 C 
BRANCH   9  10
ATOM     10  C   UNL     1       0.171  19.387 -19.064  1.00  0.00     0.041 C 
ATOM     11  O   UNL     1      -0.984  19.883 -19.153  1.00  0.00    -0.550 OA
ATOM     12  O   UNL     1       0.997  19.753 -18.009  1.00  0.00    -0.550 OA
ENDBRANCH   9  10
ENDBRANCH   8   9
ENDBRANCH   7   8
ENDBRANCH   6   7
ENDBRANCH   5   6
ENDBRANCH   4   5
ENDBRANCH   3   4
ENDBRANCH   1   3
BRANCH   2  13
ATOM     13  C   UNL     1      -4.531  11.296 -19.828  1.00  0.00     0.027 C 
BRANCH  13  14
ATOM     14  C   UNL     1      -5.883  11.461 -19.123  1.00  0.00     0.004 C 
BRANCH  14  15
ATOM     15  C   UNL     1      -5.785  12.477 -17.981  1.00  0.00     0.000 C 
BRANCH  15  16
ATOM     16  C   UNL     1      -6.552  11.993 -16.745  1.00  0.00     0.000 C 
BRANCH  16  17
ATOM     17  C   UNL     1      -5.779  12.306 -15.458  1.00  0.00    -0.000 C 
BRANCH  17  18
ATOM     18  C   UNL     1      -4.553  13.183 -15.753  1.00  0.00    -0.000 C 
BRANCH  18  19
ATOM     19  C   UNL     1      -3.287  12.690 -15.034  1.00  0.00    -0.003 C 
ATOM     20  C   UNL     1      -3.267  11.174 -14.845  1.00  0.00     0.004 C 
ENDBRANCH  18  19
ENDBRANCH  17  18
ENDBRANCH  16  17
ENDBRANCH  15  16
ENDBRANCH  14  15
ENDBRANCH  13  14
ENDBRANCH   2  13
TORSDOF 15
ENDMDL
MODEL 3
REMARK VINA RESULT:    -4.665      3.193      6.854
REMARK INTER + INTRA:         -10.365
REMARK INTER:                  -8.911
REMARK INTRA:                  -1.454
REMARK UNBOUND:                -1.609
REMARK SMILES CCCCCCCCC=CCCCCCCCC(=O)[O-]
REMARK SMILES IDX 10 1 9 2 11 3 12 4 13 5 14 6 15 7 16 8 17 9 18 10 19 11
REMARK SMILES IDX 20 12 8 13 7 14 6 15 5 16 4 17 3 18 2 19 1 20
REMARK H PARENT
REMARK Flexibility Score: inf
ROOT
ATOM      1  C   UNL     1      -4.420  11.147 -20.109  1.00  0.00    -0.031 C 
ATOM      2  C   UNL     1      -5.747  11.375 -20.111  1.00  0.00    -0.031 C 
ENDROOT
BRANCH   1   3
ATOM      3  C   UNL     1      -3.600  10.794 -18.891  1.00  0.00     0.027 C 
BRANCH   3   4
ATOM      4  C   UNL     1      -2.376  11.709 -18.752  1.00  0.00     0.004 C 
BRANCH   4   5
ATOM      5  C   UNL     1      -2.772  13.186 -18.592  1.00  0.00     0.000 C 
BRANCH   5   6
ATOM      6  C   UNL     1      -1.714  14.155 -19.149  1.00  0.00     0.000 C 
BRANCH   6   7
ATOM      7  C   UNL     1      -1.006  15.023 -18.093  1.00  0.00     0.000 C 
BRANCH   7   8
ATOM      8  C   UNL     1      -0.286  16.239 -18.701  1.00  0.00     0.006 C 
BRANCH   8   9
ATOM      9  C   UNL     1       1.236  16.051 -18.742  1.00  0.00     0.053 C 
BRANCH   9  10
ATOM     10  C   UNL     1       1.735  15.868 -20.143  1.00  0.00     0.041 C 
ATOM     11  O   UNL     1       2.038  16.870 -20.843  1.00  0.00    -0.550 OA
ATOM     12  O   UNL     1       1.829  14.594 -20.688  1.00  0.00    -0.550 OA
ENDBRANCH   9  10
ENDBRANCH   8   9
ENDBRANCH   7   8
ENDBRANCH   6   7
ENDBRANCH   5   6
ENDBRANCH   4   5
ENDBRANCH   3   4
ENDBRANCH   1   3
BRANCH   2  13
ATOM     13  C   UNL     1      -6.623  11.365 -18.884  1.00  0.00     0.027 C 
BRANCH  13  14
ATOM     14  C   UNL     1      -6.115  12.362 -17.835  1.00  0.00     0.004 C 
BRANCH  14  15
ATOM     15  C   UNL     1      -6.535  11.935 -16.425  1.00  0.00     0.000 C 
BRANCH  15  16
ATOM     16  C   UNL     1      -5.833  12.785 -15.359  1.00  0.00     0.000 C 
BRANCH  16  17
ATOM     17  C   UNL     1      -4.502  13.338 -15.883  1.00  0.00    -0.000 C 
BRANCH  17  18
ATOM     18  C   UNL     1      -3.324  12.823 -15.043  1.00  0.00    -0.000 C 
BRANCH  18  19
ATOM     19  C   UNL     1      -3.561  11.406 -14.498  1.00  0.00    -0.003 C 
ATOM     20  C   UNL     1      -3.064  10.317 -15.448  1.00  0.00     0.004 C 
ENDBRANCH  18  19
ENDBRANCH  17  18
ENDBRANCH  16  17
ENDBRANCH  15  16
ENDBRANCH  14  15
ENDBRANCH  13  14
ENDBRANCH   2  13
TORSDOF 15
ENDMDL
MODEL 4
REMARK VINA RESULT:    -4.624      3.404      7.811
REMARK INTER + INTRA:         -10.287
REMARK INTER:                  -8.976
REMARK INTRA:                  -1.311
REMARK UNBOUND:                -1.609
REMARK SMILES CCCCCCCCC=CCCCCCCCC(=O)[O-]
REMARK SMILES IDX 10 1 9 2 11 3 12 4 13 5 14 6 15 7 16 8 17 9 18 10 19 11
REMARK SMILES IDX 20 12 8 13 7 14 6 15 5 16 4 17 3 18 2 19 1 20
REMARK H PARENT
REMARK Flexibility Score: inf
ROOT
ATOM      1  C   UNL     1      -1.950  14.223 -16.344  1.00  0.00    -0.031 C 
ATOM      2  C   UNL     1      -2.333  13.590 -15.219  1.00  0.00    -0.031 C 
ENDROOT
BRANCH   1   3
ATOM      3  C   UNL     1      -2.350  13.824 -17.745  1.00  0.00     0.027 C 
BRANCH   3   4
ATOM      4  C   UNL     1      -1.613  14.660 -18.799  1.00  0.00     0.004 C 
BRANCH   4   5
ATOM      5  C   UNL     1      -0.494  15.516 -18.182  1.00  0.00     0.000 C 
BRANCH   5   6
ATOM      6  C   UNL     1       0.744  15.630 -19.088  1.00  0.00     0.000 C 
BRANCH   6   7
ATOM      7  C   UNL     1       1.779  16.681 -18.648  1.00  0.00     0.000 C 
BRANCH   7   8
ATOM      8  C   UNL     1       2.043  17.750 -19.722  1.00  0.00     0.006 C 
BRANCH   8   9
ATOM      9  C   UNL     1       0.755  18.454 -20.167  1.00  0.00     0.053 C 
BRANCH   9  10
ATOM     10  C   UNL     1       0.119  19.211 -19.041  1.00  0.00     0.041 C 
ATOM     11  O   UNL     1      -1.134  19.212 -18.906  1.00  0.00    -0.550 OA
ATOM     12  O   UNL     1       0.906  19.946 -18.164  1.00  0.00    -0.550 OA
ENDBRANCH   9  10
ENDBRANCH   8   9
ENDBRANCH   7   8
ENDBRANCH   6   7
ENDBRANCH   5   6
ENDBRANCH   4   5
ENDBRANCH   3   4
ENDBRANCH   1   3
BRANCH   2  13
ATOM     13  C   UNL     1      -3.184  12.346 -15.179  1.00  0.00     0.027 C 
BRANCH  13  14
ATOM     14  C   UNL     1      -4.603  12.664 -14.690  1.00  0.00     0.004 C 
BRANCH  14  15
ATOM     15  C   UNL     1      -5.481  13.161 -15.843  1.00  0.00     0.000 C 
BRANCH  15  16
ATOM     16  C   UNL     1      -6.248  12.003 -16.491  1.00  0.00     0.000 C 
BRANCH  16  17
ATOM     17  C   UNL     1      -6.114  12.038 -18.018  1.00  0.00    -0.000 C 
BRANCH  17  18
ATOM     18  C   UNL     1      -4.683  11.690 -18.453  1.00  0.00    -0.000 C 
BRANCH  18  19
ATOM     19  C   UNL     1      -4.613  11.173 -19.898  1.00  0.00    -0.003 C 
ATOM     20  C   UNL     1      -5.963  11.233 -20.613  1.00  0.00     0.004 C 
ENDBRANCH  18  19
ENDBRANCH  17  18
ENDBRANCH  16  17
ENDBRANCH  15  16
ENDBRANCH  14  15
ENDBRANCH  13  14
ENDBRANCH   2  13
TORSDOF 15
ENDMDL
MODEL 5
REMARK VINA RESULT:    -4.595      1.810      2.944
REMARK INTER + INTRA:         -10.234
REMARK INTER:                  -8.427
REMARK INTRA:                  -1.807
REMARK UNBOUND:                -1.609
REMARK SMILES CCCCCCCCC=CCCCCCCCC(=O)[O-]
REMARK SMILES IDX 10 1 9 2 11 3 12 4 13 5 14 6 15 7 16 8 17 9 18 10 19 11
REMARK SMILES IDX 20 12 8 13 7 14 6 15 5 16 4 17 3 18 2 19 1 20
REMARK H PARENT
REMARK Flexibility Score: inf
ROOT
ATOM      1  C   UNL     1      -2.779  11.084 -18.364  1.00  0.00    -0.031 C 
ATOM      2  C   UNL     1      -2.876  12.358 -18.788  1.00  0.00    -0.031 C 
ENDROOT
BRANCH   1   3
ATOM      3  C   UNL     1      -2.162  10.647 -17.056  1.00  0.00     0.027 C 
BRANCH   3   4
ATOM      4  C   UNL     1      -3.181   9.919 -16.170  1.00  0.00     0.004 C 
BRANCH   4   5
ATOM      5  C   UNL     1      -3.217  10.487 -14.741  1.00  0.00     0.000 C 
BRANCH   5   6
ATOM      6  C   UNL     1      -2.452  11.815 -14.604  1.00  0.00     0.000 C 
BRANCH   6   7
ATOM      7  C   UNL     1      -3.332  13.079 -14.633  1.00  0.00     0.000 C 
BRANCH   7   8
ATOM      8  C   UNL     1      -4.825  12.766 -14.832  1.00  0.00     0.006 C 
BRANCH   8   9
ATOM      9  C   UNL     1      -5.329  13.201 -16.214  1.00  0.00     0.053 C 
BRANCH   9  10
ATOM     10  C   UNL     1      -6.325  12.230 -16.772  1.00  0.00     0.041 C 
ATOM     11  O   UNL     1      -7.231  11.759 -16.034  1.00  0.00    -0.550 OA
ATOM     12  O   UNL     1      -6.229  11.816 -18.094  1.00  0.00    -0.550 OA
ENDBRANCH   9  10
ENDBRANCH   8   9
ENDBRANCH   7   8
ENDBRANCH   6   7
ENDBRANCH   5   6
ENDBRANCH   4   5
ENDBRANCH   3   4
ENDBRANCH   1   3
BRANCH   2  13
ATOM     13  C   UNL     1      -2.336  13.554 -18.046  1.00  0.00     0.027 C 
BRANCH  13  14
ATOM     14  C   UNL     1      -1.560  14.483 -18.988  1.00  0.00     0.004 C 
BRANCH  14  15
ATOM     15  C   UNL     1      -0.938  15.651 -18.215  1.00  0.00     0.000 C 
BRANCH  15  16
ATOM     16  C   UNL     1       0.474  15.960 -18.726  1.00  0.00     0.000 C 
BRANCH  16  17
ATOM     17  C   UNL     1       0.648  17.460 -18.994  1.00  0.00    -0.000 C 
BRANCH  17  18
ATOM     18  C   UNL     1      -0.711  18.140 -19.214  1.00  0.00    -0.000 C 
BRANCH  18  19
ATOM     19  C   UNL     1      -0.673  19.647 -18.918  1.00  0.00    -0.003 C 
ATOM     20  C   UNL     1      -1.709  20.071 -17.878  1.00  0.00     0.004 C 
ENDBRANCH  18  19
ENDBRANCH  17  18
ENDBRANCH  16  17
ENDBRANCH  15  16
ENDBRANCH  14  15
ENDBRANCH  13  14
ENDBRANCH   2  13
TORSDOF 15
ENDMDL
MODEL 6
REMARK VINA RESULT:    -4.571      2.351      4.148
REMARK INTER + INTRA:         -10.188
REMARK INTER:                  -8.536
REMARK INTRA:                  -1.652
REMARK UNBOUND:                -1.609
REMARK SMILES CCCCCCCCC=CCCCCCCCC(=O)[O-]
REMARK SMILES IDX 10 1 9 2 11 3 12 4 13 5 14 6 15 7 16 8 17 9 18 10 19 11
REMARK SMILES IDX 20 12 8 13 7 14 6 15 5 16 4 17 3 18 2 19 1 20
REMARK H PARENT
REMARK Flexibility Score: inf
ROOT
ATOM      1  C   UNL     1      -1.994  14.471 -17.794  1.00  0.00    -0.031 C 
ATOM      2  C   UNL     1      -1.244  15.128 -18.698  1.00  0.00    -0.031 C 
ENDROOT
BRANCH   1   3
ATOM      3  C   UNL     1      -1.780  14.501 -16.299  1.00  0.00     0.027 C 
BRANCH   3   4
ATOM      4  C   UNL     1      -2.507  13.344 -15.603  1.00  0.00     0.004 C 
BRANCH   4   5
ATOM      5  C   UNL     1      -3.985  13.255 -16.018  1.00  0.00     0.000 C 
BRANCH   5   6
ATOM      6  C   UNL     1      -4.357  11.891 -16.627  1.00  0.00     0.000 C 
BRANCH   6   7
ATOM      7  C   UNL     1      -3.175  11.093 -17.207  1.00  0.00     0.000 C 
BRANCH   7   8
ATOM      8  C   UNL     1      -3.159  11.078 -18.745  1.00  0.00     0.006 C 
BRANCH   8   9
ATOM      9  C   UNL     1      -4.217  12.013 -19.345  1.00  0.00     0.053 C 
BRANCH   9  10
ATOM     10  C   UNL     1      -5.257  11.254 -20.112  1.00  0.00     0.041 C 
ATOM     11  O   UNL     1      -6.406  11.085 -19.624  1.00  0.00    -0.550 OA
ATOM     12  O   UNL     1      -4.946  10.701 -21.347  1.00  0.00    -0.550 OA
ENDBRANCH   9  10
ENDBRANCH   8   9
ENDBRANCH   7   8
ENDBRANCH   6   7
ENDBRANCH   5   6
ENDBRANCH   4   5
ENDBRANCH   3   4
ENDBRANCH   1   3
BRANCH   2  13
ATOM     13  C   UNL     1      -0.033  15.963 -18.367  1.00  0.00     0.027 C 
BRANCH  13  14
ATOM     14  C   UNL     1       1.145  15.615 -19.286  1.00  0.00     0.004 C 
BRANCH  14  15
ATOM     15  C   UNL     1       2.059  16.828 -19.488  1.00  0.00     0.000 C 
BRANCH  15  16
ATOM     16  C   UNL     1       1.738  17.547 -20.803  1.00  0.00     0.000 C 
BRANCH  16  17
ATOM     17  C   UNL     1       1.624  19.061 -20.591  1.00  0.00    -0.000 C 
BRANCH  17  18
ATOM     18  C   UNL     1       0.180  19.462 -20.253  1.00  0.00    -0.000 C 
BRANCH  18  19
ATOM     19  C   UNL     1       0.037  20.012 -18.826  1.00  0.00    -0.003 C 
ATOM     20  C   UNL     1      -1.274  19.596 -18.160  1.00  0.00     0.004 C 
ENDBRANCH  18  19
ENDBRANCH  17  18
ENDBRANCH  16  17
ENDBRANCH  15  16
ENDBRANCH  14  15
ENDBRANCH  13  14
ENDBRANCH   2  13
TORSDOF 15
ENDMDL
MODEL 7
REMARK VINA RESULT:    -4.542      1.977      3.820
REMARK INTER + INTRA:         -10.133
REMARK INTER:                  -8.462
REMARK INTRA:                  -1.671
REMARK UNBOUND:                -1.609
REMARK SMILES CCCCCCCCC=CCCCCCCCC(=O)[O-]
REMARK SMILES IDX 10 1 9 2 11 3 12 4 13 5 14 6 15 7 16 8 17 9 18 10 19 11
REMARK SMILES IDX 20 12 8 13 7 14 6 15 5 16 4 17 3 18 2 19 1 20
REMARK H PARENT
REMARK Flexibility Score: inf
ROOT
ATOM      1  C   UNL     1      -2.569  13.357 -15.003  1.00  0.00    -0.031 C 
ATOM      2  C   UNL     1      -1.894  13.943 -16.010  1.00  0.00    -0.031 C 
ENDROOT
BRANCH   1   3
ATOM      3  C   UNL     1      -4.042  13.021 -15.023  1.00  0.00     0.027 C 
BRANCH   3   4
ATOM      4  C   UNL     1      -4.293  11.633 -15.625  1.00  0.00     0.004 C 
BRANCH   4   5
ATOM      5  C   UNL     1      -3.071  10.710 -15.485  1.00  0.00     0.000 C 
BRANCH   5   6
ATOM      6  C   UNL     1      -2.684  10.021 -16.805  1.00  0.00     0.000 C 
BRANCH   6   7
ATOM      7  C   UNL     1      -2.482  10.970 -18.001  1.00  0.00     0.000 C 
BRANCH   7   8
ATOM      8  C   UNL     1      -3.527  10.766 -19.112  1.00  0.00     0.006 C 
BRANCH   8   9
ATOM      9  C   UNL     1      -4.415  12.001 -19.306  1.00  0.00     0.053 C 
BRANCH   9  10
ATOM     10  C   UNL     1      -5.868  11.669 -19.151  1.00  0.00     0.041 C 
ATOM     11  O   UNL     1      -6.451  11.877 -18.053  1.00  0.00    -0.550 OA
ATOM     12  O   UNL     1      -6.568  11.095 -20.204  1.00  0.00    -0.550 OA
ENDBRANCH   9  10
ENDBRANCH   8   9
ENDBRANCH   7   8
ENDBRANCH   6   7
ENDBRANCH   5   6
ENDBRANCH   4   5
ENDBRANCH   3   4
ENDBRANCH   1   3
BRANCH   2  13
ATOM     13  C   UNL     1      -2.512  14.405 -17.305  1.00  0.00     0.027 C 
BRANCH  13  14
ATOM     14  C   UNL     1      -1.439  14.632 -18.378  1.00  0.00     0.004 C 
BRANCH  14  15
ATOM     15  C   UNL     1      -0.743  15.982 -18.180  1.00  0.00     0.000 C 
BRANCH  15  16
ATOM     16  C   UNL     1       0.679  15.958 -18.755  1.00  0.00     0.000 C 
BRANCH  16  17
ATOM     17  C   UNL     1       1.060  17.324 -19.338  1.00  0.00    -0.000 C 
BRANCH  17  18
ATOM     18  C   UNL     1      -0.172  18.231 -19.467  1.00  0.00    -0.000 C 
BRANCH  18  19
ATOM     19  C   UNL     1      -0.064  19.501 -18.609  1.00  0.00    -0.003 C 
ATOM     20  C   UNL     1      -1.391  19.891 -17.959  1.00  0.00     0.004 C 
ENDBRANCH  18  19
ENDBRANCH  17  18
ENDBRANCH  16  17
ENDBRANCH  15  16
ENDBRANCH  14  15
ENDBRANCH  13  14
ENDBRANCH   2  13
TORSDOF 15
ENDMDL
MODEL 8
REMARK VINA RESULT:    -4.487      1.028      2.596
REMARK INTER + INTRA:         -10.030
REMARK INTER:                  -8.356
REMARK INTRA:                  -1.675
REMARK UNBOUND:                -1.609
REMARK SMILES CCCCCCCCC=CCCCCCCCC(=O)[O-]
REMARK SMILES IDX 10 1 9 2 11 3 12 4 13 5 14 6 15 7 16 8 17 9 18 10 19 11
REMARK SMILES IDX 20 12 8 13 7 14 6 15 5 16 4 17 3 18 2 19 1 20
REMARK H PARENT
REMARK Flexibility Score: inf
ROOT
ATOM      1  C   UNL     1      -2.020  14.126 -17.705  1.00  0.00    -0.031 C 
ATOM      2  C   UNL     1      -1.242  15.221 -17.603  1.00  0.00    -0.031 C 
ENDROOT
BRANCH   1   3
ATOM      3  C   UNL     1      -2.376  13.430 -18.998  1.00  0.00     0.027 C 
BRANCH   3   4
ATOM      4  C   UNL     1      -3.028  12.066 -18.741  1.00  0.00     0.004 C 
BRANCH   4   5
ATOM      5  C   UNL     1      -4.348  11.900 -19.511  1.00  0.00     0.000 C 
BRANCH   5   6
ATOM      6  C   UNL     1      -5.560  11.683 -18.588  1.00  0.00     0.000 C 
BRANCH   6   7
ATOM      7  C   UNL     1      -5.685  12.691 -17.431  1.00  0.00     0.000 C 
BRANCH   7   8
ATOM      8  C   UNL     1      -5.485  12.046 -16.049  1.00  0.00     0.006 C 
BRANCH   8   9
ATOM      9  C   UNL     1      -4.356  12.716 -15.255  1.00  0.00     0.053 C 
BRANCH   9  10
ATOM     10  C   UNL     1      -3.212  11.778 -15.018  1.00  0.00     0.041 C 
ATOM     11  O   UNL     1      -3.230  10.619 -15.512  1.00  0.00    -0.550 OA
ATOM     12  O   UNL     1      -2.145  12.169 -14.219  1.00  0.00    -0.550 OA
ENDBRANCH   9  10
ENDBRANCH   8   9
ENDBRANCH   7   8
ENDBRANCH   6   7
ENDBRANCH   5   6
ENDBRANCH   4   5
ENDBRANCH   3   4
ENDBRANCH   1   3
BRANCH   2  13
ATOM     13  C   UNL     1      -0.641  15.960 -18.771  1.00  0.00     0.027 C 
BRANCH  13  14
ATOM     14  C   UNL     1       0.891  15.879 -18.745  1.00  0.00     0.004 C 
BRANCH  14  15
ATOM     15  C   UNL     1       1.516  17.255 -18.994  1.00  0.00     0.000 C 
BRANCH  15  16
ATOM     16  C   UNL     1       1.412  17.649 -20.473  1.00  0.00     0.000 C 
BRANCH  16  17
ATOM     17  C   UNL     1       1.154  19.153 -20.626  1.00  0.00    -0.000 C 
BRANCH  17  18
ATOM     18  C   UNL     1       0.686  19.769 -19.299  1.00  0.00    -0.000 C 
BRANCH  18  19
ATOM     19  C   UNL     1      -0.809  20.124 -19.307  1.00  0.00    -0.003 C 
ATOM     20  C   UNL     1      -1.485  19.862 -17.962  1.00  0.00     0.004 C 
ENDBRANCH  18  19
ENDBRANCH  17  18
ENDBRANCH  16  17
ENDBRANCH  15  16
ENDBRANCH  14  15
ENDBRANCH  13  14
ENDBRANCH   2  13
TORSDOF 15
ENDMDL
MODEL 9
REMARK VINA RESULT:    -4.293      2.337      3.669
REMARK INTER + INTRA:          -9.665
REMARK INTER:                  -8.092
REMARK INTRA:                  -1.574
REMARK UNBOUND:                -1.609
REMARK SMILES CCCCCCCCC=CCCCCCCCC(=O)[O-]
REMARK SMILES IDX 10 1 9 2 11 3 12 4 13 5 14 6 15 7 16 8 17 9 18 10 19 11
REMARK SMILES IDX 20 12 8 13 7 14 6 15 5 16 4 17 3 18 2 19 1 20
REMARK H PARENT
REMARK Flexibility Score: inf
ROOT
ATOM      1  C   UNL     1      -2.416  13.463 -15.208  1.00  0.00    -0.031 C 
ATOM      2  C   UNL     1      -2.365  14.126 -16.379  1.00  0.00    -0.031 C 
ENDROOT
BRANCH   1   3
ATOM      3  C   UNL     1      -2.439  11.960 -15.061  1.00  0.00     0.027 C 
BRANCH   3   4
ATOM      4  C   UNL     1      -3.874  11.424 -14.986  1.00  0.00     0.004 C 
BRANCH   4   5
ATOM      5  C   UNL     1      -4.867  12.493 -14.498  1.00  0.00     0.000 C 
BRANCH   5   6
ATOM      6  C   UNL     1      -5.828  12.968 -15.601  1.00  0.00     0.000 C 
BRANCH   6   7
ATOM      7  C   UNL     1      -6.284  11.873 -16.583  1.00  0.00     0.000 C 
BRANCH   7   8
ATOM      8  C   UNL     1      -6.152  12.297 -18.057  1.00  0.00     0.006 C 
BRANCH   8   9
ATOM      9  C   UNL     1      -5.068  11.499 -18.793  1.00  0.00     0.053 C 
BRANCH   9  10
ATOM     10  C   UNL     1      -5.467  11.194 -20.205  1.00  0.00     0.041 C 
ATOM     11  O   UNL     1      -4.617  10.748 -21.021  1.00  0.00    -0.550 OA
ATOM     12  O   UNL     1      -6.766  11.440 -20.630  1.00  0.00    -0.550 OA
ENDBRANCH   9  10
ENDBRANCH   8   9
ENDBRANCH   7   8
ENDBRANCH   6   7
ENDBRANCH   5   6
ENDBRANCH   4   5
ENDBRANCH   3   4
ENDBRANCH   1   3
BRANCH   2  13
ATOM     13  C   UNL     1      -2.375  13.474 -17.738  1.00  0.00     0.027 C 
BRANCH  13  14
ATOM     14  C   UNL     1      -1.746  14.392 -18.794  1.00  0.00     0.004 C 
BRANCH  14  15
ATOM     15  C   UNL     1      -1.071  15.601 -18.138  1.00  0.00     0.000 C 
BRANCH  15  16
ATOM     16  C   UNL     1       0.307  15.865 -18.756  1.00  0.00     0.000 C 
BRANCH  16  17
ATOM     17  C   UNL     1       0.482  17.348 -19.102  1.00  0.00    -0.000 C 
BRANCH  17  18
ATOM     18  C   UNL     1      -0.872  18.074 -19.111  1.00  0.00    -0.000 C 
BRANCH  18  19
ATOM     19  C   UNL     1      -0.740  19.574 -18.805  1.00  0.00    -0.003 C 
ATOM     20  C   UNL     1       0.672  19.968 -18.373  1.00  0.00     0.004 C 
ENDBRANCH  18  19
ENDBRANCH  17  18
ENDBRANCH  16  17
ENDBRANCH  15  16
ENDBRANCH  14  15
ENDBRANCH  13  14
ENDBRANCH   2  13
TORSDOF 15
ENDMDL
