MODEL 1
REMARK VINA RESULT:    -4.271      0.000      0.000
REMARK INTER + INTRA:          -6.844
REMARK INTER:                  -5.770
REMARK INTRA:                  -1.074
REMARK UNBOUND:                -1.074
REMARK SMILES CC(=O)CCC=C(C)CCC=C(C)C
REMARK SMILES IDX 7 1 6 2 8 3 9 4 10 5 11 6 13 7 12 8 14 9 5 10 4 11 2 12 3 13
REMARK SMILES IDX 1 14
REMARK H PARENT
REMARK Flexibility Score: inf
ROOT
ATOM      1  C   UNL     1     129.456 122.492  99.228  1.00  0.00    -0.077 C 
ATOM      2  C   UNL     1     129.048 121.263  98.836  1.00  0.00    -0.028 C 
ATOM      3  C   UNL     1     130.591 122.683 100.206  1.00  0.00     0.039 C 
ENDROOT
BRANCH   1   4
ATOM      4  C   UNL     1     128.759 123.710  98.660  1.00  0.00     0.034 C 
BRANCH   4   5
ATOM      5  C   UNL     1     129.502 124.239  97.427  1.00  0.00     0.032 C 
BRANCH   5   6
ATOM      6  C   UNL     1     130.392 125.398  97.794  1.00  0.00    -0.028 C 
ATOM      7  C   UNL     1     132.502 124.138  97.308  1.00  0.00     0.039 C 
ATOM      8  C   UNL     1     131.741 125.376  97.723  1.00  0.00    -0.080 C 
ATOM      9  C   UNL     1     132.501 126.626  98.087  1.00  0.00     0.039 C 
ENDBRANCH   5   6
ENDBRANCH   4   5
ENDBRANCH   1   4
BRANCH   2  10
ATOM     10  C   UNL     1     129.623 119.968  99.352  1.00  0.00     0.035 C 
BRANCH  10  11
ATOM     11  C   UNL     1     130.364 119.221  98.232  1.00  0.00     0.079 C 
BRANCH  11  12
ATOM     12  C   UNL     1     131.870 119.216  98.373  1.00  0.00     0.130 C 
ATOM     13  O   UNL     1     132.416 118.181  98.724  1.00  0.00    -0.300 OA
ATOM     14  C   UNL     1     132.722 120.427  98.107  1.00  0.00     0.087 C 
ENDBRANCH  11  12
ENDBRANCH  10  11
ENDBRANCH   2  10
TORSDOF 6
ENDMDL
MODEL 2
REMARK VINA RESULT:    -4.217      1.481      2.488
REMARK INTER + INTRA:          -6.770
REMARK INTER:                  -5.784
REMARK INTRA:                  -0.986
REMARK UNBOUND:                -1.074
REMARK SMILES CC(=O)CCC=C(C)CCC=C(C)C
REMARK SMILES IDX 7 1 6 2 8 3 9 4 10 5 11 6 13 7 12 8 14 9 5 10 4 11 2 12 3 13
REMARK SMILES IDX 1 14
REMARK H PARENT
REMARK Flexibility Score: inf
ROOT
ATOM      1  C   UNL     1     128.848 120.342  99.683  1.00  0.00    -0.077 C 
ATOM      2  C   UNL     1     129.564 120.131  98.556  1.00  0.00    -0.028 C 
ATOM      3  C   UNL     1     128.887 119.379 100.847  1.00  0.00     0.039 C 
ENDROOT
BRANCH   1   4
ATOM      4  C   UNL     1     127.990 121.585  99.784  1.00  0.00     0.034 C 
BRANCH   4   5
ATOM      5  C   UNL     1     128.837 122.802 100.177  1.00  0.00     0.032 C 
BRANCH   5   6
ATOM      6  C   UNL     1     128.933 123.779  99.033  1.00  0.00    -0.028 C 
ATOM      7  C   UNL     1     131.361 123.316  98.632  1.00  0.00     0.039 C 
ATOM      8  C   UNL     1     130.054 124.003  98.313  1.00  0.00    -0.080 C 
ATOM      9  C   UNL     1     129.990 124.984  97.170  1.00  0.00     0.039 C 
ENDBRANCH   5   6
ENDBRANCH   4   5
ENDBRANCH   1   4
BRANCH   2  10
ATOM     10  C   UNL     1     130.425 118.918  98.304  1.00  0.00     0.035 C 
BRANCH  10  11
ATOM     11  C   UNL     1     131.913 119.298  98.318  1.00  0.00     0.079 C 
BRANCH  11  12
ATOM     12  C   UNL     1     132.768 118.447  99.230  1.00  0.00     0.130 C 
ATOM     13  O   UNL     1     133.950 118.730  99.347  1.00  0.00    -0.300 OA
ATOM     14  C   UNL     1     132.229 117.266  99.992  1.00  0.00     0.087 C 
ENDBRANCH  11  12
ENDBRANCH  10  11
ENDBRANCH   2  10
TORSDOF 6
ENDMDL
MODEL 3
REMARK VINA RESULT:    -4.200      2.289      5.182
REMARK INTER + INTRA:          -6.748
REMARK INTER:                  -5.656
REMARK INTRA:                  -1.092
REMARK UNBOUND:                -1.074
REMARK SMILES CC(=O)CCC=C(C)CCC=C(C)C
REMARK SMILES IDX 7 1 6 2 8 3 9 4 10 5 11 6 13 7 12 8 14 9 5 10 4 11 2 12 3 13
REMARK SMILES IDX 1 14
REMARK H PARENT
REMARK Flexibility Score: inf
ROOT
ATOM      1  C   UNL     1     129.536 122.235  99.455  1.00  0.00    -0.077 C 
ATOM      2  C   UNL     1     128.887 123.136  98.683  1.00  0.00    -0.028 C 
ATOM      3  C   UNL     1     130.718 122.623 100.313  1.00  0.00     0.039 C 
ENDROOT
BRANCH   1   4
ATOM      4  C   UNL     1     129.058 120.799  99.465  1.00  0.00     0.034 C 
BRANCH   4   5
ATOM      5  C   UNL     1     129.619 120.028  98.264  1.00  0.00     0.032 C 
BRANCH   5   6
ATOM      6  C   UNL     1     130.574 118.953  98.717  1.00  0.00    -0.028 C 
ATOM      7  C   UNL     1     132.609 120.274  98.094  1.00  0.00     0.039 C 
ATOM      8  C   UNL     1     131.920 119.058  98.669  1.00  0.00    -0.080 C 
ATOM      9  C   UNL     1     132.750 117.915  99.193  1.00  0.00     0.039 C 
ENDBRANCH   5   6
ENDBRANCH   4   5
ENDBRANCH   1   4
BRANCH   2  10
ATOM     10  C   UNL     1     129.280 124.585  98.546  1.00  0.00     0.035 C 
BRANCH  10  11
ATOM     11  C   UNL     1     130.103 124.805  97.267  1.00  0.00     0.079 C 
BRANCH  11  12
ATOM     12  C   UNL     1     131.570 125.083  97.507  1.00  0.00     0.130 C 
ATOM     13  O   UNL     1     131.899 126.208  97.847  1.00  0.00    -0.300 OA
ATOM     14  C   UNL     1     132.640 124.037  97.339  1.00  0.00     0.087 C 
ENDBRANCH  11  12
ENDBRANCH  10  11
ENDBRANCH   2  10
TORSDOF 6
ENDMDL
MODEL 4
REMARK VINA RESULT:    -4.081      2.267      4.582
REMARK INTER + INTRA:          -6.586
REMARK INTER:                  -5.267
REMARK INTRA:                  -1.319
REMARK UNBOUND:                -1.074
REMARK SMILES CC(=O)CCC=C(C)CCC=C(C)C
REMARK SMILES IDX 7 1 6 2 8 3 9 4 10 5 11 6 13 7 12 8 14 9 5 10 4 11 2 12 3 13
REMARK SMILES IDX 1 14
REMARK H PARENT
REMARK Flexibility Score: inf
ROOT
ATOM      1  C   UNL     1     129.602 120.097  99.165  1.00  0.00    -0.077 C 
ATOM      2  C   UNL     1     129.204 121.206  98.502  1.00  0.00    -0.028 C 
ATOM      3  C   UNL     1     129.277 119.879 100.624  1.00  0.00     0.039 C 
ENDROOT
BRANCH   1   4
ATOM      4  C   UNL     1     130.388 119.040  98.419  1.00  0.00     0.034 C 
BRANCH   4   5
ATOM      5  C   UNL     1     131.886 119.154  98.728  1.00  0.00     0.032 C 
BRANCH   5   6
ATOM      6  C   UNL     1     132.558 120.105  97.772  1.00  0.00    -0.028 C 
ATOM      7  C   UNL     1     132.751 121.932  99.475  1.00  0.00     0.039 C 
ATOM      8  C   UNL     1     132.975 121.348  98.099  1.00  0.00    -0.080 C 
ATOM      9  C   UNL     1     133.668 122.175  97.046  1.00  0.00     0.039 C 
ENDBRANCH   5   6
ENDBRANCH   4   5
ENDBRANCH   1   4
BRANCH   2  10
ATOM     10  C   UNL     1     128.453 122.354  99.129  1.00  0.00     0.035 C 
BRANCH  10  11
ATOM     11  C   UNL     1     129.393 123.543  99.380  1.00  0.00     0.079 C 
BRANCH  11  12
ATOM     12  C   UNL     1     129.710 124.362  98.149  1.00  0.00     0.130 C 
ATOM     13  O   UNL     1     128.804 124.610  97.369  1.00  0.00    -0.300 OA
ATOM     14  C   UNL     1     131.090 124.876  97.839  1.00  0.00     0.087 C 
ENDBRANCH  11  12
ENDBRANCH  10  11
ENDBRANCH   2  10
TORSDOF 6
ENDMDL
MODEL 5
REMARK VINA RESULT:    -4.048      2.378      4.549
REMARK INTER + INTRA:          -6.542
REMARK INTER:                  -5.608
REMARK INTRA:                  -0.934
REMARK UNBOUND:                -1.074
REMARK SMILES CC(=O)CCC=C(C)CCC=C(C)C
REMARK SMILES IDX 7 1 6 2 8 3 9 4 10 5 11 6 13 7 12 8 14 9 5 10 4 11 2 12 3 13
REMARK SMILES IDX 1 14
REMARK H PARENT
REMARK Flexibility Score: inf
ROOT
ATOM      1  C   UNL     1     129.863 121.712  98.857  1.00  0.00    -0.077 C 
ATOM      2  C   UNL     1     129.388 120.477  98.575  1.00  0.00    -0.028 C 
ATOM      3  C   UNL     1     131.343 122.013  98.879  1.00  0.00     0.039 C 
ENDROOT
BRANCH   1   4
ATOM      4  C   UNL     1     128.880 122.825  99.151  1.00  0.00     0.034 C 
BRANCH   4   5
ATOM      5  C   UNL     1     128.170 122.588 100.490  1.00  0.00     0.032 C 
BRANCH   5   6
ATOM      6  C   UNL     1     126.735 122.182 100.270  1.00  0.00    -0.028 C 
ATOM      7  C   UNL     1     127.067 119.898 101.243  1.00  0.00     0.039 C 
ATOM      8  C   UNL     1     126.218 120.985 100.626  1.00  0.00    -0.080 C 
ATOM      9  C   UNL     1     124.754 120.733 100.377  1.00  0.00     0.039 C 
ENDBRANCH   5   6
ENDBRANCH   4   5
ENDBRANCH   1   4
BRANCH   2  10
ATOM     10  C   UNL     1     130.251 119.270  98.306  1.00  0.00     0.035 C 
BRANCH  10  11
ATOM     11  C   UNL     1     130.390 118.410  99.572  1.00  0.00     0.079 C 
BRANCH  11  12
ATOM     12  C   UNL     1     131.737 117.739  99.727  1.00  0.00     0.130 C 
ATOM     13  O   UNL     1     131.769 116.599 100.164  1.00  0.00    -0.300 OA
ATOM     14  C   UNL     1     133.035 118.413  99.373  1.00  0.00     0.087 C 
ENDBRANCH  11  12
ENDBRANCH  10  11
ENDBRANCH   2  10
TORSDOF 6
ENDMDL
MODEL 6
REMARK VINA RESULT:    -4.032      1.569      3.183
REMARK INTER + INTRA:          -6.520
REMARK INTER:                  -5.245
REMARK INTRA:                  -1.275
REMARK UNBOUND:                -1.074
REMARK SMILES CC(=O)CCC=C(C)CCC=C(C)C
REMARK SMILES IDX 7 1 6 2 8 3 9 4 10 5 11 6 13 7 12 8 14 9 5 10 4 11 2 12 3 13
REMARK SMILES IDX 1 14
REMARK H PARENT
REMARK Flexibility Score: inf
ROOT
ATOM      1  C   UNL     1     132.801 121.391  98.690  1.00  0.00    -0.077 C 
ATOM      2  C   UNL     1     132.495 120.241  98.047  1.00  0.00    -0.028 C 
ATOM      3  C   UNL     1     132.606 121.550 100.179  1.00  0.00     0.039 C 
ENDROOT
BRANCH   1   4
ATOM      4  C   UNL     1     133.365 122.547  97.893  1.00  0.00     0.034 C 
BRANCH   4   5
ATOM      5  C   UNL     1     132.812 123.884  98.403  1.00  0.00     0.032 C 
BRANCH   5   6
ATOM      6  C   UNL     1     131.506 124.215  97.728  1.00  0.00    -0.028 C 
ATOM      7  C   UNL     1     130.256 124.417  99.889  1.00  0.00     0.039 C 
ATOM      8  C   UNL     1     130.354 124.481  98.382  1.00  0.00    -0.080 C 
ATOM      9  C   UNL     1     129.133 124.834  97.574  1.00  0.00     0.039 C 
ENDBRANCH   5   6
ENDBRANCH   4   5
ENDBRANCH   1   4
BRANCH   2  10
ATOM     10  C   UNL     1     131.889 119.028  98.708  1.00  0.00     0.035 C 
BRANCH  10  11
ATOM     11  C   UNL     1     130.404 118.893  98.335  1.00  0.00     0.079 C 
BRANCH  11  12
ATOM     12  C   UNL     1     129.465 119.700  99.204  1.00  0.00     0.130 C 
ATOM     13  O   UNL     1     129.065 119.201 100.244  1.00  0.00    -0.300 OA
ATOM     14  C   UNL     1     129.000 121.085  98.841  1.00  0.00     0.087 C 
ENDBRANCH  11  12
ENDBRANCH  10  11
ENDBRANCH   2  10
TORSDOF 6
ENDMDL
MODEL 7
REMARK VINA RESULT:    -3.997      3.173      6.506
REMARK INTER + INTRA:          -6.473
REMARK INTER:                  -5.626
REMARK INTRA:                  -0.847
REMARK UNBOUND:                -1.074
REMARK SMILES CC(=O)CCC=C(C)CCC=C(C)C
REMARK SMILES IDX 7 1 6 2 8 3 9 4 10 5 11 6 13 7 12 8 14 9 5 10 4 11 2 12 3 13
REMARK SMILES IDX 1 14
REMARK H PARENT
REMARK Flexibility Score: inf
ROOT
ATOM      1  C   UNL     1     131.488 125.089  97.650  1.00  0.00    -0.077 C 
ATOM      2  C   UNL     1     131.788 126.039  98.564  1.00  0.00    -0.028 C 
ATOM      3  C   UNL     1     132.560 124.278  96.960  1.00  0.00     0.039 C 
ENDROOT
BRANCH   1   4
ATOM      4  C   UNL     1     130.036 124.826  97.316  1.00  0.00     0.034 C 
BRANCH   4   5
ATOM      5  C   UNL     1     129.297 124.232  98.522  1.00  0.00     0.032 C 
BRANCH   5   6
ATOM      6  C   UNL     1     129.093 122.748  98.346  1.00  0.00    -0.028 C 
ATOM      7  C   UNL     1     131.077 122.147  99.752  1.00  0.00     0.039 C 
ATOM      8  C   UNL     1     129.869 121.799  98.913  1.00  0.00    -0.080 C 
ATOM      9  C   UNL     1     129.521 120.351  98.678  1.00  0.00     0.039 C 
ENDBRANCH   5   6
ENDBRANCH   4   5
ENDBRANCH   1   4
BRANCH   2  10
ATOM     10  C   UNL     1     133.189 126.433  98.960  1.00  0.00     0.035 C 
BRANCH  10  11
ATOM     11  C   UNL     1     133.367 127.957  98.877  1.00  0.00     0.079 C 
BRANCH  11  12
ATOM     12  C   UNL     1     133.325 128.665 100.213  1.00  0.00     0.130 C 
ATOM     13  O   UNL     1     133.349 127.988 101.229  1.00  0.00    -0.300 OA
ATOM     14  C   UNL     1     133.248 130.162 100.345  1.00  0.00     0.087 C 
ENDBRANCH  11  12
ENDBRANCH  10  11
ENDBRANCH   2  10
TORSDOF 6
ENDMDL
MODEL 8
REMARK VINA RESULT:    -3.992      5.260      6.521
REMARK INTER + INTRA:          -6.467
REMARK INTER:                  -5.998
REMARK INTRA:                  -0.469
REMARK UNBOUND:                -1.074
REMARK SMILES CC(=O)CCC=C(C)CCC=C(C)C
REMARK SMILES IDX 7 1 6 2 8 3 9 4 10 5 11 6 13 7 12 8 14 9 5 10 4 11 2 12 3 13
REMARK SMILES IDX 1 14
REMARK H PARENT
REMARK Flexibility Score: inf
ROOT
ATOM      1  C   UNL     1     126.384 121.126 100.503  1.00  0.00    -0.077 C 
ATOM      2  C   UNL     1     125.041 121.225 100.371  1.00  0.00    -0.028 C 
ATOM      3  C   UNL     1     127.064 119.806 100.781  1.00  0.00     0.039 C 
ENDROOT
BRANCH   1   4
ATOM      4  C   UNL     1     127.228 122.374 100.359  1.00  0.00     0.034 C 
BRANCH   4   5
ATOM      5  C   UNL     1     128.253 122.212  99.230  1.00  0.00     0.032 C 
BRANCH   5   6
ATOM      6  C   UNL     1     129.476 123.055  99.492  1.00  0.00    -0.028 C 
ATOM      7  C   UNL     1     129.008 124.611  97.586  1.00  0.00     0.039 C 
ATOM      8  C   UNL     1     129.815 124.150  98.778  1.00  0.00    -0.080 C 
ATOM      9  C   UNL     1     131.048 124.917  99.180  1.00  0.00     0.039 C 
ENDBRANCH   5   6
ENDBRANCH   4   5
ENDBRANCH   1   4
BRANCH   2  10
ATOM     10  C   UNL     1     124.080 120.075 100.531  1.00  0.00     0.035 C 
BRANCH  10  11
ATOM     11  C   UNL     1     123.374 120.144 101.893  1.00  0.00     0.079 C 
BRANCH  11  12
ATOM     12  C   UNL     1     122.122 120.992 101.907  1.00  0.00     0.130 C 
ATOM     13  O   UNL     1     122.209 122.148 102.291  1.00  0.00    -0.300 OA
ATOM     14  C   UNL     1     120.776 120.474 101.476  1.00  0.00     0.087 C 
ENDBRANCH  11  12
ENDBRANCH  10  11
ENDBRANCH   2  10
TORSDOF 6
ENDMDL
MODEL 9
REMARK VINA RESULT:    -3.988      1.491      3.648
REMARK INTER + INTRA:          -6.461
REMARK INTER:                  -5.178
REMARK INTRA:                  -1.283
REMARK UNBOUND:                -1.074
REMARK SMILES CC(=O)CCC=C(C)CCC=C(C)C
REMARK SMILES IDX 7 1 6 2 8 3 9 4 10 5 11 6 13 7 12 8 14 9 5 10 4 11 2 12 3 13
REMARK SMILES IDX 1 14
REMARK H PARENT
REMARK Flexibility Score: inf
ROOT
ATOM      1  C   UNL     1     131.678 124.817  98.288  1.00  0.00    -0.077 C 
ATOM      2  C   UNL     1     132.402 124.029  97.461  1.00  0.00    -0.028 C 
ATOM      3  C   UNL     1     132.029 124.978  99.748  1.00  0.00     0.039 C 
ENDROOT
BRANCH   1   4
ATOM      4  C   UNL     1     130.487 125.566  97.729  1.00  0.00     0.034 C 
BRANCH   4   5
ATOM      5  C   UNL     1     129.354 124.598  97.366  1.00  0.00     0.032 C 
BRANCH   5   6
ATOM      6  C   UNL     1     128.595 124.176  98.598  1.00  0.00    -0.028 C 
ATOM      7  C   UNL     1     129.177 121.756  98.323  1.00  0.00     0.039 C 
ATOM      8  C   UNL     1     128.526 122.906  99.055  1.00  0.00    -0.080 C 
ATOM      9  C   UNL     1     127.760 122.640 100.325  1.00  0.00     0.039 C 
ENDBRANCH   5   6
ENDBRANCH   4   5
ENDBRANCH   1   4
BRANCH   2  10
ATOM     10  C   UNL     1     133.583 123.196  97.891  1.00  0.00     0.035 C 
BRANCH  10  11
ATOM     11  C   UNL     1     133.433 121.748  97.402  1.00  0.00     0.079 C 
BRANCH  11  12
ATOM     12  C   UNL     1     132.775 120.816  98.396  1.00  0.00     0.130 C 
ATOM     13  O   UNL     1     132.408 119.719  98.006  1.00  0.00    -0.300 OA
ATOM     14  C   UNL     1     132.549 121.184  99.838  1.00  0.00     0.087 C 
ENDBRANCH  11  12
ENDBRANCH  10  11
ENDBRANCH   2  10
TORSDOF 6
ENDMDL
