MODEL 1
REMARK VINA RESULT:    -7.324      0.000      0.000
REMARK INTER + INTRA:          -8.861
REMARK INTER:                  -8.609
REMARK INTRA:                  -0.252
REMARK UNBOUND:                -0.252
REMARK SMILES O=c1c(O)c(-c2ccc(O)cc2)oc2cc(O)cc(O)c12
REMARK SMILES IDX 5 1 3 2 2 3 1 4 21 5 19 6 18 7 16 8 15 9 14 10 13 11 6 12
REMARK SMILES IDX 7 13 8 14 9 15 12 16 11 17 10 18 4 20 20 22 17 24
REMARK H PARENT 10 19 4 21 20 23 17 25
REMARK Flexibility Score: inf
ROOT
ATOM      1  C   UNL     1       2.796  -2.239  16.270  1.00  0.00     0.180 A 
ATOM      2  C   UNL     1       2.731  -2.516  17.649  1.00  0.00     0.208 A 
ATOM      3  C   UNL     1       3.926  -2.677  18.366  1.00  0.00     0.238 A 
ATOM      4  O   UNL     1       3.880  -2.916  19.604  1.00  0.00    -0.285 OA
ATOM      5  C   UNL     1       5.162  -2.580  17.692  1.00  0.00     0.111 A 
ATOM      6  C   UNL     1       6.412  -2.732  18.340  1.00  0.00     0.134 A 
ATOM      7  C   UNL     1       7.597  -2.629  17.598  1.00  0.00     0.093 A 
ATOM      8  C   UNL     1       7.558  -2.379  16.224  1.00  0.00     0.123 A 
ATOM      9  C   UNL     1       6.327  -2.225  15.578  1.00  0.00     0.094 A 
ATOM     10  C   UNL     1       5.134  -2.323  16.301  1.00  0.00     0.146 A 
ATOM     11  O   UNL     1       3.979  -2.168  15.666  1.00  0.00    -0.452 OA
ENDROOT
BRANCH   1  12
ATOM     12  C   UNL     1       1.580  -2.037  15.449  1.00  0.00     0.021 A 
ATOM     13  C   UNL     1       0.847  -0.837  15.507  1.00  0.00     0.016 A 
ATOM     14  C   UNL     1      -0.284  -0.661  14.705  1.00  0.00     0.047 A 
ATOM     15  C   UNL     1      -0.688  -1.674  13.825  1.00  0.00     0.115 A 
ATOM     16  C   UNL     1       1.179  -3.039  14.549  1.00  0.00     0.016 A 
ATOM     17  C   UNL     1       0.047  -2.860  13.749  1.00  0.00     0.047 A 
BRANCH  15  18
ATOM     18  O   UNL     1      -1.815  -1.509  13.022  1.00  0.00    -0.508 OA
ATOM     19  H   UNL     1      -2.687  -1.980  13.230  1.00  0.00     0.293 HD
ENDBRANCH  15  18
ENDBRANCH   1  12
BRANCH   2  20
ATOM     20  O   UNL     1       1.494  -2.658  18.282  1.00  0.00    -0.502 OA
ATOM     21  H   UNL     1       0.860  -3.419  18.070  1.00  0.00     0.293 HD
ENDBRANCH   2  20
BRANCH   6  22
ATOM     22  O   UNL     1       6.484  -2.986  19.711  1.00  0.00    -0.507 OA
ATOM     23  H   UNL     1       5.651  -3.126  20.271  1.00  0.00     0.293 HD
ENDBRANCH   6  22
BRANCH   8  24
ATOM     24  O   UNL     1       8.751  -2.282  15.510  1.00  0.00    -0.508 OA
ATOM     25  H   UNL     1       9.091  -3.048  14.941  1.00  0.00     0.293 HD
ENDBRANCH   8  24
TORSDOF 5
ENDMDL
MODEL 2
REMARK VINA RESULT:    -7.102      1.862      7.081
REMARK INTER + INTRA:          -8.599
REMARK INTER:                  -8.313
REMARK INTRA:                  -0.287
REMARK UNBOUND:                -0.252
REMARK SMILES O=c1c(O)c(-c2ccc(O)cc2)oc2cc(O)cc(O)c12
REMARK SMILES IDX 5 1 3 2 2 3 1 4 21 5 19 6 18 7 16 8 15 9 14 10 13 11 6 12
REMARK SMILES IDX 7 13 8 14 9 15 12 16 11 17 10 18 4 20 20 22 17 24
REMARK H PARENT 10 19 4 21 20 23 17 25
REMARK Flexibility Score: inf
ROOT
ATOM      1  C   UNL     1       2.588  -2.219  14.993  1.00  0.00     0.180 A 
ATOM      2  C   UNL     1       1.829  -1.033  14.983  1.00  0.00     0.208 A 
ATOM      3  C   UNL     1       0.561  -1.044  14.383  1.00  0.00     0.238 A 
ATOM      4  O   UNL     1      -0.132   0.010  14.377  1.00  0.00    -0.285 OA
ATOM      5  C   UNL     1       0.082  -2.229  13.787  1.00  0.00     0.111 A 
ATOM      6  C   UNL     1      -1.184  -2.324  13.159  1.00  0.00     0.134 A 
ATOM      7  C   UNL     1      -1.584  -3.537  12.581  1.00  0.00     0.093 A 
ATOM      8  C   UNL     1      -0.747  -4.655  12.618  1.00  0.00     0.123 A 
ATOM      9  C   UNL     1       0.503  -4.569  13.239  1.00  0.00     0.094 A 
ATOM     10  C   UNL     1       0.920  -3.369  13.822  1.00  0.00     0.146 A 
ATOM     11  O   UNL     1       2.110  -3.314  14.409  1.00  0.00    -0.452 OA
ENDROOT
BRANCH   1  12
ATOM     12  C   UNL     1       3.926  -2.293  15.623  1.00  0.00     0.021 A 
ATOM     13  C   UNL     1       5.099  -2.061  14.882  1.00  0.00     0.016 A 
ATOM     14  C   UNL     1       6.350  -2.113  15.505  1.00  0.00     0.047 A 
ATOM     15  C   UNL     1       6.444  -2.382  16.876  1.00  0.00     0.115 A 
ATOM     16  C   UNL     1       4.028  -2.542  17.002  1.00  0.00     0.016 A 
ATOM     17  C   UNL     1       5.280  -2.594  17.622  1.00  0.00     0.047 A 
BRANCH  15  18
ATOM     18  O   UNL     1       7.685  -2.438  17.507  1.00  0.00    -0.508 OA
ATOM     19  H   UNL     1       8.428  -3.034  17.163  1.00  0.00     0.293 HD
ENDBRANCH  15  18
ENDBRANCH   1  12
BRANCH   2  20
ATOM     20  O   UNL     1       2.348   0.141  15.536  1.00  0.00    -0.502 OA
ATOM     21  H   UNL     1       1.755   0.886  15.880  1.00  0.00     0.293 HD
ENDBRANCH   2  20
BRANCH   6  22
ATOM     22  O   UNL     1      -2.042  -1.225  13.104  1.00  0.00    -0.507 OA
ATOM     23  H   UNL     1      -2.842  -1.204  12.482  1.00  0.00     0.293 HD
ENDBRANCH   6  22
BRANCH   8  24
ATOM     24  O   UNL     1      -1.170  -5.848  12.037  1.00  0.00    -0.508 OA
ATOM     25  H   UNL     1      -1.492  -6.627  12.600  1.00  0.00     0.293 HD
ENDBRANCH   8  24
TORSDOF 5
ENDMDL
MODEL 3
REMARK VINA RESULT:    -7.036      1.228      3.168
REMARK INTER + INTRA:          -8.522
REMARK INTER:                  -8.268
REMARK INTRA:                  -0.254
REMARK UNBOUND:                -0.252
REMARK SMILES O=c1c(O)c(-c2ccc(O)cc2)oc2cc(O)cc(O)c12
REMARK SMILES IDX 5 1 3 2 2 3 1 4 21 5 19 6 18 7 16 8 15 9 14 10 13 11 6 12
REMARK SMILES IDX 7 13 8 14 9 15 12 16 11 17 10 18 4 20 20 22 17 24
REMARK H PARENT 10 19 4 21 20 23 17 25
REMARK Flexibility Score: inf
ROOT
ATOM      1  C   UNL     1       2.985  -2.225  15.832  1.00  0.00     0.180 A 
ATOM      2  C   UNL     1       4.257  -2.086  15.243  1.00  0.00     0.208 A 
ATOM      3  C   UNL     1       5.397  -2.275  16.038  1.00  0.00     0.238 A 
ATOM      4  O   UNL     1       6.541  -2.163  15.519  1.00  0.00    -0.285 OA
ATOM      5  C   UNL     1       5.249  -2.577  17.408  1.00  0.00     0.111 A 
ATOM      6  C   UNL     1       6.348  -2.778  18.280  1.00  0.00     0.134 A 
ATOM      7  C   UNL     1       6.117  -3.067  19.633  1.00  0.00     0.093 A 
ATOM      8  C   UNL     1       4.816  -3.157  20.131  1.00  0.00     0.123 A 
ATOM      9  C   UNL     1       3.727  -2.960  19.275  1.00  0.00     0.094 A 
ATOM     10  C   UNL     1       3.935  -2.673  17.923  1.00  0.00     0.146 A 
ATOM     11  O   UNL     1       2.885  -2.496  17.130  1.00  0.00    -0.452 OA
ENDROOT
BRANCH   1  12
ATOM     12  C   UNL     1       1.735  -2.061  15.055  1.00  0.00     0.021 A 
ATOM     13  C   UNL     1       1.276  -3.066  14.184  1.00  0.00     0.016 A 
ATOM     14  C   UNL     1       0.081  -2.897  13.479  1.00  0.00     0.047 A 
ATOM     15  C   UNL     1      -0.677  -1.732  13.646  1.00  0.00     0.115 A 
ATOM     16  C   UNL     1       0.958  -0.903  15.232  1.00  0.00     0.016 A 
ATOM     17  C   UNL     1      -0.237  -0.738  14.525  1.00  0.00     0.047 A 
BRANCH  15  18
ATOM     18  O   UNL     1      -1.870  -1.553  12.947  1.00  0.00    -0.508 OA
ATOM     19  H   UNL     1      -2.124  -2.152  12.171  1.00  0.00     0.293 HD
ENDBRANCH  15  18
ENDBRANCH   1  12
BRANCH   2  20
ATOM     20  O   UNL     1       4.375  -1.737  13.895  1.00  0.00    -0.502 OA
ATOM     21  H   UNL     1       4.786  -2.358  13.209  1.00  0.00     0.293 HD
ENDBRANCH   2  20
BRANCH   6  22
ATOM     22  O   UNL     1       7.660  -2.693  17.813  1.00  0.00    -0.507 OA
ATOM     23  H   UNL     1       8.304  -3.472  17.888  1.00  0.00     0.293 HD
ENDBRANCH   6  22
BRANCH   8  24
ATOM     24  O   UNL     1       4.615  -3.444  21.479  1.00  0.00    -0.508 OA
ATOM     25  H   UNL     1       4.076  -2.829  22.078  1.00  0.00     0.293 HD
ENDBRANCH   8  24
TORSDOF 5
ENDMDL
MODEL 4
REMARK VINA RESULT:    -6.857      2.331      6.094
REMARK INTER + INTRA:          -8.312
REMARK INTER:                  -8.045
REMARK INTRA:                  -0.267
REMARK UNBOUND:                -0.252
REMARK SMILES O=c1c(O)c(-c2ccc(O)cc2)oc2cc(O)cc(O)c12
REMARK SMILES IDX 5 1 3 2 2 3 1 4 21 5 19 6 18 7 16 8 15 9 14 10 13 11 6 12
REMARK SMILES IDX 7 13 8 14 9 15 12 16 11 17 10 18 4 20 20 22 17 24
REMARK H PARENT 10 19 4 21 20 23 17 25
REMARK Flexibility Score: inf
ROOT
ATOM      1  C   UNL     1       3.243  -2.466  17.251  1.00  0.00     0.180 A 
ATOM      2  C   UNL     1       1.930  -1.961  17.330  1.00  0.00     0.208 A 
ATOM      3  C   UNL     1       1.347  -1.404  16.182  1.00  0.00     0.238 A 
ATOM      4  O   UNL     1       0.169  -0.958  16.239  1.00  0.00    -0.285 OA
ATOM      5  C   UNL     1       2.088  -1.342  14.984  1.00  0.00     0.111 A 
ATOM      6  C   UNL     1       1.575  -0.793  13.783  1.00  0.00     0.134 A 
ATOM      7  C   UNL     1       2.379  -0.761  12.635  1.00  0.00     0.093 A 
ATOM      8  C   UNL     1       3.682  -1.263  12.662  1.00  0.00     0.123 A 
ATOM      9  C   UNL     1       4.194  -1.808  13.844  1.00  0.00     0.094 A 
ATOM     10  C   UNL     1       3.408  -1.851  14.999  1.00  0.00     0.146 A 
ATOM     11  O   UNL     1       3.916  -2.378  16.107  1.00  0.00    -0.452 OA
ENDROOT
BRANCH   1  12
ATOM     12  C   UNL     1       3.919  -3.087  18.413  1.00  0.00     0.021 A 
ATOM     13  C   UNL     1       3.637  -4.408  18.806  1.00  0.00     0.016 A 
ATOM     14  C   UNL     1       4.307  -4.979  19.893  1.00  0.00     0.047 A 
ATOM     15  C   UNL     1       5.274  -4.245  20.589  1.00  0.00     0.115 A 
ATOM     16  C   UNL     1       4.906  -2.364  19.105  1.00  0.00     0.016 A 
ATOM     17  C   UNL     1       5.573  -2.939  20.191  1.00  0.00     0.047 A 
BRANCH  15  18
ATOM     18  O   UNL     1       5.947  -4.804  21.674  1.00  0.00    -0.508 OA
ATOM     19  H   UNL     1       6.317  -4.230  22.421  1.00  0.00     0.293 HD
ENDBRANCH  15  18
ENDBRANCH   1  12
BRANCH   2  20
ATOM     20  O   UNL     1       1.236  -1.989  18.543  1.00  0.00    -0.502 OA
ATOM     21  H   UNL     1       1.683  -1.783  19.428  1.00  0.00     0.293 HD
ENDBRANCH   2  20
BRANCH   6  22
ATOM     22  O   UNL     1       0.278  -0.281  13.724  1.00  0.00    -0.507 OA
ATOM     23  H   UNL     1      -0.043   0.267  12.934  1.00  0.00     0.293 HD
ENDBRANCH   6  22
BRANCH   8  24
ATOM     24  O   UNL     1       4.460  -1.218  11.507  1.00  0.00    -0.508 OA
ATOM     25  H   UNL     1       5.175  -1.912  11.323  1.00  0.00     0.293 HD
ENDBRANCH   8  24
TORSDOF 5
ENDMDL
MODEL 5
REMARK VINA RESULT:    -6.845      2.077      6.665
REMARK INTER + INTRA:          -8.298
REMARK INTER:                  -8.054
REMARK INTRA:                  -0.244
REMARK UNBOUND:                -0.252
REMARK SMILES O=c1c(O)c(-c2ccc(O)cc2)oc2cc(O)cc(O)c12
REMARK SMILES IDX 5 1 3 2 2 3 1 4 21 5 19 6 18 7 16 8 15 9 14 10 13 11 6 12
REMARK SMILES IDX 7 13 8 14 9 15 12 16 11 17 10 18 4 20 20 22 17 24
REMARK H PARENT 10 19 4 21 20 23 17 25
REMARK Flexibility Score: inf
ROOT
ATOM      1  C   UNL     1       4.578  -2.364  17.187  1.00  0.00     0.180 A 
ATOM      2  C   UNL     1       5.501  -2.272  16.126  1.00  0.00     0.208 A 
ATOM      3  C   UNL     1       5.055  -1.816  14.877  1.00  0.00     0.238 A 
ATOM      4  O   UNL     1       5.874  -1.720  13.923  1.00  0.00    -0.285 OA
ATOM      5  C   UNL     1       3.696  -1.479  14.702  1.00  0.00     0.111 A 
ATOM      6  C   UNL     1       3.166  -1.014  13.474  1.00  0.00     0.134 A 
ATOM      7  C   UNL     1       1.800  -0.707  13.379  1.00  0.00     0.093 A 
ATOM      8  C   UNL     1       0.957  -0.857  14.482  1.00  0.00     0.123 A 
ATOM      9  C   UNL     1       1.476  -1.314  15.698  1.00  0.00     0.094 A 
ATOM     10  C   UNL     1       2.834  -1.623  15.814  1.00  0.00     0.146 A 
ATOM     11  O   UNL     1       3.302  -2.050  16.981  1.00  0.00    -0.452 OA
ENDROOT
BRANCH   1  12
ATOM     12  C   UNL     1       4.976  -2.818  18.540  1.00  0.00     0.021 A 
ATOM     13  C   UNL     1       5.707  -1.986  19.406  1.00  0.00     0.016 A 
ATOM     14  C   UNL     1       6.050  -2.429  20.688  1.00  0.00     0.047 A 
ATOM     15  C   UNL     1       5.655  -3.700  21.123  1.00  0.00     0.115 A 
ATOM     16  C   UNL     1       4.566  -4.084  18.991  1.00  0.00     0.016 A 
ATOM     17  C   UNL     1       4.911  -4.524  20.273  1.00  0.00     0.047 A 
BRANCH  15  18
ATOM     18  O   UNL     1       5.993  -4.152  22.397  1.00  0.00    -0.508 OA
ATOM     19  H   UNL     1       5.286  -4.450  23.058  1.00  0.00     0.293 HD
ENDBRANCH  15  18
ENDBRANCH   1  12
BRANCH   2  20
ATOM     20  O   UNL     1       6.830  -2.660  16.313  1.00  0.00    -0.502 OA
ATOM     21  H   UNL     1       7.511  -2.063  16.766  1.00  0.00     0.293 HD
ENDBRANCH   2  20
BRANCH   6  22
ATOM     22  O   UNL     1       3.981  -0.856  12.353  1.00  0.00    -0.507 OA
ATOM     23  H   UNL     1       3.596  -0.801  11.417  1.00  0.00     0.293 HD
ENDBRANCH   6  22
BRANCH   8  24
ATOM     24  O   UNL     1      -0.395  -0.545  14.360  1.00  0.00    -0.508 OA
ATOM     25  H   UNL     1      -1.116  -1.184  14.675  1.00  0.00     0.293 HD
ENDBRANCH   8  24
TORSDOF 5
ENDMDL
MODEL 6
REMARK VINA RESULT:    -6.703      2.686      4.834
REMARK INTER + INTRA:          -8.131
REMARK INTER:                  -8.140
REMARK INTRA:                   0.009
REMARK UNBOUND:                -0.252
REMARK SMILES O=c1c(O)c(-c2ccc(O)cc2)oc2cc(O)cc(O)c12
REMARK SMILES IDX 5 1 3 2 2 3 1 4 21 5 19 6 18 7 16 8 15 9 14 10 13 11 6 12
REMARK SMILES IDX 7 13 8 14 9 15 12 16 11 17 10 18 4 20 20 22 17 24
REMARK H PARENT 10 19 4 21 20 23 17 25
REMARK Flexibility Score: inf
ROOT
ATOM      1  C   UNL     1       3.794  -3.194  18.259  1.00  0.00     0.180 A 
ATOM      2  C   UNL     1       3.283  -3.036  16.956  1.00  0.00     0.208 A 
ATOM      3  C   UNL     1       4.151  -2.633  15.931  1.00  0.00     0.238 A 
ATOM      4  O   UNL     1       3.707  -2.499  14.758  1.00  0.00    -0.285 OA
ATOM      5  C   UNL     1       5.506  -2.374  16.226  1.00  0.00     0.111 A 
ATOM      6  C   UNL     1       6.446  -1.960  15.251  1.00  0.00     0.134 A 
ATOM      7  C   UNL     1       7.775  -1.714  15.627  1.00  0.00     0.093 A 
ATOM      8  C   UNL     1       8.181  -1.872  16.954  1.00  0.00     0.123 A 
ATOM      9  C   UNL     1       7.258  -2.282  17.922  1.00  0.00     0.094 A 
ATOM     10  C   UNL     1       5.929  -2.534  17.567  1.00  0.00     0.146 A 
ATOM     11  O   UNL     1       5.074  -2.927  18.503  1.00  0.00    -0.452 OA
ENDROOT
BRANCH   1  12
ATOM     12  C   UNL     1       2.945  -3.636  19.390  1.00  0.00     0.021 A 
ATOM     13  C   UNL     1       1.736  -2.986  19.696  1.00  0.00     0.016 A 
ATOM     14  C   UNL     1       0.940  -3.436  20.754  1.00  0.00     0.047 A 
ATOM     15  C   UNL     1       1.335  -4.548  21.509  1.00  0.00     0.115 A 
ATOM     16  C   UNL     1       3.324  -4.762  20.139  1.00  0.00     0.016 A 
ATOM     17  C   UNL     1       2.527  -5.210  21.197  1.00  0.00     0.047 A 
BRANCH  15  18
ATOM     18  O   UNL     1       0.551  -5.004  22.566  1.00  0.00    -0.508 OA
ATOM     19  H   UNL     1      -0.107  -5.765  22.448  1.00  0.00     0.293 HD
ENDBRANCH  15  18
ENDBRANCH   1  12
BRANCH   2  20
ATOM     20  O   UNL     1       1.926  -3.251  16.700  1.00  0.00    -0.502 OA
ATOM     21  H   UNL     1       1.576  -4.126  16.329  1.00  0.00     0.293 HD
ENDBRANCH   2  20
BRANCH   6  22
ATOM     22  O   UNL     1       6.071  -1.791  13.918  1.00  0.00    -0.507 OA
ATOM     23  H   UNL     1       5.626  -2.534  13.391  1.00  0.00     0.293 HD
ENDBRANCH   6  22
BRANCH   8  24
ATOM     24  O   UNL     1       9.507  -1.621  17.300  1.00  0.00    -0.508 OA
ATOM     25  H   UNL     1       9.745  -1.060  18.110  1.00  0.00     0.293 HD
ENDBRANCH   8  24
TORSDOF 5
ENDMDL
MODEL 7
REMARK VINA RESULT:    -6.574      2.111      3.715
REMARK INTER + INTRA:          -7.979
REMARK INTER:                  -7.824
REMARK INTRA:                  -0.155
REMARK UNBOUND:                -0.252
REMARK SMILES O=c1c(O)c(-c2ccc(O)cc2)oc2cc(O)cc(O)c12
REMARK SMILES IDX 5 1 3 2 2 3 1 4 21 5 19 6 18 7 16 8 15 9 14 10 13 11 6 12
REMARK SMILES IDX 7 13 8 14 9 15 12 16 11 17 10 18 4 20 20 22 17 24
REMARK H PARENT 10 19 4 21 20 23 17 25
REMARK Flexibility Score: inf
ROOT
ATOM      1  C   UNL     1       3.674  -2.231  15.177  1.00  0.00     0.180 A 
ATOM      2  C   UNL     1       5.074  -2.126  15.291  1.00  0.00     0.208 A 
ATOM      3  C   UNL     1       5.673  -2.362  16.537  1.00  0.00     0.238 A 
ATOM      4  O   UNL     1       6.926  -2.281  16.649  1.00  0.00    -0.285 OA
ATOM      5  C   UNL     1       4.865  -2.678  17.650  1.00  0.00     0.111 A 
ATOM      6  C   UNL     1       5.390  -2.927  18.942  1.00  0.00     0.134 A 
ATOM      7  C   UNL     1       4.519  -3.226  20.000  1.00  0.00     0.093 A 
ATOM      8  C   UNL     1       3.138  -3.280  19.793  1.00  0.00     0.123 A 
ATOM      9  C   UNL     1       2.614  -3.037  18.519  1.00  0.00     0.094 A 
ATOM     10  C   UNL     1       3.466  -2.738  17.451  1.00  0.00     0.146 A 
ATOM     11  O   UNL     1       2.944  -2.517  16.251  1.00  0.00    -0.452 OA
ENDROOT
BRANCH   1  12
ATOM     12  C   UNL     1       2.970  -2.016  13.892  1.00  0.00     0.021 A 
ATOM     13  C   UNL     1       2.937  -0.751  13.277  1.00  0.00     0.016 A 
ATOM     14  C   UNL     1       2.286  -0.578  12.052  1.00  0.00     0.047 A 
ATOM     15  C   UNL     1       1.673  -1.667  11.420  1.00  0.00     0.115 A 
ATOM     16  C   UNL     1       2.370  -3.107  13.241  1.00  0.00     0.016 A 
ATOM     17  C   UNL     1       1.719  -2.931  12.016  1.00  0.00     0.047 A 
BRANCH  15  18
ATOM     18  O   UNL     1       1.020  -1.506  10.199  1.00  0.00    -0.508 OA
ATOM     19  H   UNL     1       0.480  -2.255   9.784  1.00  0.00     0.293 HD
ENDBRANCH  15  18
ENDBRANCH   1  12
BRANCH   2  20
ATOM     20  O   UNL     1       5.846  -1.762  14.184  1.00  0.00    -0.502 OA
ATOM     21  H   UNL     1       5.499  -1.831  13.235  1.00  0.00     0.293 HD
ENDBRANCH   2  20
BRANCH   6  22
ATOM     22  O   UNL     1       6.763  -2.878  19.181  1.00  0.00    -0.507 OA
ATOM     23  H   UNL     1       7.147  -2.999  20.111  1.00  0.00     0.293 HD
ENDBRANCH   6  22
BRANCH   8  24
ATOM     24  O   UNL     1       2.296  -3.579  20.862  1.00  0.00    -0.508 OA
ATOM     25  H   UNL     1       2.025  -4.533  21.071  1.00  0.00     0.293 HD
ENDBRANCH   8  24
TORSDOF 5
ENDMDL
MODEL 8
REMARK VINA RESULT:    -6.558      2.122      2.316
REMARK INTER + INTRA:          -7.960
REMARK INTER:                  -7.770
REMARK INTRA:                  -0.190
REMARK UNBOUND:                -0.252
REMARK SMILES O=c1c(O)c(-c2ccc(O)cc2)oc2cc(O)cc(O)c12
REMARK SMILES IDX 5 1 3 2 2 3 1 4 21 5 19 6 18 7 16 8 15 9 14 10 13 11 6 12
REMARK SMILES IDX 7 13 8 14 9 15 12 16 11 17 10 18 4 20 20 22 17 24
REMARK H PARENT 10 19 4 21 20 23 17 25
REMARK Flexibility Score: inf
ROOT
ATOM      1  C   UNL     1       3.420  -2.161  14.768  1.00  0.00     0.180 A 
ATOM      2  C   UNL     1       2.626  -2.316  15.921  1.00  0.00     0.208 A 
ATOM      3  C   UNL     1       3.258  -2.450  17.167  1.00  0.00     0.238 A 
ATOM      4  O   UNL     1       2.557  -2.578  18.207  1.00  0.00    -0.285 OA
ATOM      5  C   UNL     1       4.667  -2.448  17.237  1.00  0.00     0.111 A 
ATOM      6  C   UNL     1       5.382  -2.581  18.453  1.00  0.00     0.134 A 
ATOM      7  C   UNL     1       6.784  -2.579  18.438  1.00  0.00     0.093 A 
ATOM      8  C   UNL     1       7.484  -2.447  17.237  1.00  0.00     0.123 A 
ATOM      9  C   UNL     1       6.784  -2.314  16.033  1.00  0.00     0.094 A 
ATOM     10  C   UNL     1       5.387  -2.312  16.027  1.00  0.00     0.146 A 
ATOM     11  O   UNL     1       4.746  -2.179  14.872  1.00  0.00    -0.452 OA
ENDROOT
BRANCH   1  12
ATOM     12  C   UNL     1       2.828  -1.995  13.421  1.00  0.00     0.021 A 
ATOM     13  C   UNL     1       2.906  -0.770  12.732  1.00  0.00     0.016 A 
ATOM     14  C   UNL     1       2.359  -0.645  11.451  1.00  0.00     0.047 A 
ATOM     15  C   UNL     1       1.742  -1.742  10.838  1.00  0.00     0.115 A 
ATOM     16  C   UNL     1       2.224  -3.096  12.790  1.00  0.00     0.016 A 
ATOM     17  C   UNL     1       1.678  -2.967  11.509  1.00  0.00     0.047 A 
BRANCH  15  18
ATOM     18  O   UNL     1       1.193  -1.627   9.562  1.00  0.00    -0.508 OA
ATOM     19  H   UNL     1       1.649  -2.027   8.751  1.00  0.00     0.293 HD
ENDBRANCH  15  18
ENDBRANCH   1  12
BRANCH   2  20
ATOM     20  O   UNL     1       1.234  -2.364  15.818  1.00  0.00    -0.502 OA
ATOM     21  H   UNL     1       0.624  -1.946  16.510  1.00  0.00     0.293 HD
ENDBRANCH   2  20
BRANCH   6  22
ATOM     22  O   UNL     1       4.711  -2.717  19.669  1.00  0.00    -0.507 OA
ATOM     23  H   UNL     1       3.721  -2.929  19.711  1.00  0.00     0.293 HD
ENDBRANCH   6  22
BRANCH   8  24
ATOM     24  O   UNL     1       8.878  -2.448  17.251  1.00  0.00    -0.508 OA
ATOM     25  H   UNL     1       9.406  -1.606  17.449  1.00  0.00     0.293 HD
ENDBRANCH   8  24
TORSDOF 5
ENDMDL
MODEL 9
REMARK VINA RESULT:    -6.539      1.590      3.301
REMARK INTER + INTRA:          -7.938
REMARK INTER:                  -7.654
REMARK INTRA:                  -0.284
REMARK UNBOUND:                -0.252
REMARK SMILES O=c1c(O)c(-c2ccc(O)cc2)oc2cc(O)cc(O)c12
REMARK SMILES IDX 5 1 3 2 2 3 1 4 21 5 19 6 18 7 16 8 15 9 14 10 13 11 6 12
REMARK SMILES IDX 7 13 8 14 9 15 12 16 11 17 10 18 4 20 20 22 17 24
REMARK H PARENT 10 19 4 21 20 23 17 25
REMARK Flexibility Score: inf
ROOT
ATOM      1  C   UNL     1       2.261  -2.584  16.338  1.00  0.00     0.180 A 
ATOM      2  C   UNL     1       3.575  -2.152  16.073  1.00  0.00     0.208 A 
ATOM      3  C   UNL     1       4.601  -2.518  16.958  1.00  0.00     0.238 A 
ATOM      4  O   UNL     1       5.783  -2.145  16.725  1.00  0.00    -0.285 OA
ATOM      5  C   UNL     1       4.295  -3.289  18.099  1.00  0.00     0.111 A 
ATOM      6  C   UNL     1       5.271  -3.697  19.041  1.00  0.00     0.134 A 
ATOM      7  C   UNL     1       4.885  -4.457  20.155  1.00  0.00     0.093 A 
ATOM      8  C   UNL     1       3.549  -4.814  20.346  1.00  0.00     0.123 A 
ATOM      9  C   UNL     1       2.581  -4.416  19.418  1.00  0.00     0.094 A 
ATOM     10  C   UNL     1       2.945  -3.660  18.300  1.00  0.00     0.146 A 
ATOM     11  O   UNL     1       2.009  -3.298  17.431  1.00  0.00    -0.452 OA
ENDROOT
BRANCH   1  12
ATOM     12  C   UNL     1       1.128  -2.256  15.443  1.00  0.00     0.021 A 
ATOM     13  C   UNL     1       0.430  -1.040  15.559  1.00  0.00     0.016 A 
ATOM     14  C   UNL     1      -0.621  -0.742  14.686  1.00  0.00     0.047 A 
ATOM     15  C   UNL     1      -0.978  -1.648  13.679  1.00  0.00     0.115 A 
ATOM     16  C   UNL     1       0.777  -3.149  14.417  1.00  0.00     0.016 A 
ATOM     17  C   UNL     1      -0.276  -2.849  13.546  1.00  0.00     0.047 A 
BRANCH  15  18
ATOM     18  O   UNL     1      -2.025  -1.362  12.805  1.00  0.00    -0.508 OA
ATOM     19  H   UNL     1      -2.380  -2.056  12.159  1.00  0.00     0.293 HD
ENDBRANCH  15  18
ENDBRANCH   1  12
BRANCH   2  20
ATOM     20  O   UNL     1       3.842  -1.346  14.963  1.00  0.00    -0.502 OA
ATOM     21  H   UNL     1       4.701  -0.817  14.872  1.00  0.00     0.293 HD
ENDBRANCH   2  20
BRANCH   6  22
ATOM     22  O   UNL     1       6.613  -3.354  18.880  1.00  0.00    -0.507 OA
ATOM     23  H   UNL     1       7.217  -3.174  19.674  1.00  0.00     0.293 HD
ENDBRANCH   6  22
BRANCH   8  24
ATOM     24  O   UNL     1       3.193  -5.569  21.462  1.00  0.00    -0.508 OA
ATOM     25  H   UNL     1       2.227  -5.653  21.759  1.00  0.00     0.293 HD
ENDBRANCH   8  24
TORSDOF 5
ENDMDL
