MODEL 1
REMARK VINA RESULT:    -5.088      0.000      0.000
REMARK INTER + INTRA:          -7.905
REMARK INTER:                  -6.873
REMARK INTRA:                  -1.032
REMARK UNBOUND:                -1.032
REMARK SMILES CC(=O)CCC=C(C)CCC=C(C)C
REMARK SMILES IDX 7 1 6 2 8 3 9 4 10 5 11 6 13 7 12 8 14 9 5 10 4 11 2 12 3 13
REMARK SMILES IDX 1 14
REMARK H PARENT
REMARK Flexibility Score: inf
ROOT
ATOM      1  C   UNL     1     -23.515 -53.899  25.814  1.00  0.00    -0.077 C 
ATOM      2  C   UNL     1     -24.256 -55.017  25.648  1.00  0.00    -0.028 C 
ATOM      3  C   UNL     1     -23.960 -52.569  25.253  1.00  0.00     0.039 C 
ENDROOT
BRANCH   1   4
ATOM      4  C   UNL     1     -22.209 -53.982  26.578  1.00  0.00     0.034 C 
BRANCH   4   5
ATOM      5  C   UNL     1     -21.092 -54.617  25.739  1.00  0.00     0.032 C 
BRANCH   5   6
ATOM      6  C   UNL     1     -20.343 -53.585  24.930  1.00  0.00    -0.028 C 
ATOM      7  C   UNL     1     -19.760 -52.236  22.962  1.00  0.00     0.039 C 
ATOM      8  C   UNL     1     -20.554 -53.336  23.620  1.00  0.00    -0.080 C 
ATOM      9  C   UNL     1     -21.539 -54.135  22.800  1.00  0.00     0.039 C 
ENDBRANCH   5   6
ENDBRANCH   4   5
ENDBRANCH   1   4
BRANCH   2  10
ATOM     10  C   UNL     1     -25.572 -55.029  24.909  1.00  0.00     0.035 C 
BRANCH  10  11
ATOM     11  C   UNL     1     -26.744 -54.761  25.859  1.00  0.00     0.079 C 
BRANCH  11  12
ATOM     12  C   UNL     1     -27.760 -53.858  25.210  1.00  0.00     0.130 C 
ATOM     13  O   UNL     1     -28.861 -53.725  25.722  1.00  0.00    -0.300 OA
ATOM     14  C   UNL     1     -27.453 -53.122  23.939  1.00  0.00     0.087 C 
ENDBRANCH  11  12
ENDBRANCH  10  11
ENDBRANCH   2  10
TORSDOF 6
ENDMDL
MODEL 2
REMARK VINA RESULT:    -5.050      1.452      2.022
REMARK INTER + INTRA:          -7.854
REMARK INTER:                  -6.878
REMARK INTRA:                  -0.976
REMARK UNBOUND:                -1.032
REMARK SMILES CC(=O)CCC=C(C)CCC=C(C)C
REMARK SMILES IDX 7 1 6 2 8 3 9 4 10 5 11 6 13 7 12 8 14 9 5 10 4 11 2 12 3 13
REMARK SMILES IDX 1 14
REMARK H PARENT
REMARK Flexibility Score: inf
ROOT
ATOM      1  C   UNL     1     -22.840 -55.558  25.457  1.00  0.00    -0.077 C 
ATOM      2  C   UNL     1     -23.879 -54.803  25.875  1.00  0.00    -0.028 C 
ATOM      3  C   UNL     1     -22.997 -56.564  24.341  1.00  0.00     0.039 C 
ENDROOT
BRANCH   1   4
ATOM      4  C   UNL     1     -21.488 -55.392  26.121  1.00  0.00     0.034 C 
BRANCH   4   5
ATOM      5  C   UNL     1     -21.179 -53.921  26.434  1.00  0.00     0.032 C 
BRANCH   5   6
ATOM      6  C   UNL     1     -20.442 -53.251  25.299  1.00  0.00    -0.028 C 
ATOM      7  C   UNL     1     -20.049 -51.627  23.499  1.00  0.00     0.039 C 
ATOM      8  C   UNL     1     -20.927 -52.225  24.568  1.00  0.00    -0.080 C 
ATOM      9  C   UNL     1     -22.320 -51.679  24.778  1.00  0.00     0.039 C 
ENDBRANCH   5   6
ENDBRANCH   4   5
ENDBRANCH   1   4
BRANCH   2  10
ATOM     10  C   UNL     1     -25.259 -54.892  25.268  1.00  0.00     0.035 C 
BRANCH  10  11
ATOM     11  C   UNL     1     -25.537 -53.701  24.347  1.00  0.00     0.079 C 
BRANCH  11  12
ATOM     12  C   UNL     1     -27.020 -53.473  24.203  1.00  0.00     0.130 C 
ATOM     13  O   UNL     1     -27.442 -52.849  23.242  1.00  0.00    -0.300 OA
ATOM     14  C   UNL     1     -27.992 -53.990  25.222  1.00  0.00     0.087 C 
ENDBRANCH  11  12
ENDBRANCH  10  11
ENDBRANCH   2  10
TORSDOF 6
ENDMDL
MODEL 3
REMARK VINA RESULT:    -5.034      2.157      3.782
REMARK INTER + INTRA:          -7.831
REMARK INTER:                  -6.963
REMARK INTRA:                  -0.868
REMARK UNBOUND:                -1.032
REMARK SMILES CC(=O)CCC=C(C)CCC=C(C)C
REMARK SMILES IDX 7 1 6 2 8 3 9 4 10 5 11 6 13 7 12 8 14 9 5 10 4 11 2 12 3 13
REMARK SMILES IDX 1 14
REMARK H PARENT
REMARK Flexibility Score: inf
ROOT
ATOM      1  C   UNL     1     -27.201 -54.155  24.962  1.00  0.00    -0.077 C 
ATOM      2  C   UNL     1     -28.001 -53.965  26.033  1.00  0.00    -0.028 C 
ATOM      3  C   UNL     1     -27.198 -53.187  23.801  1.00  0.00     0.039 C 
ENDROOT
BRANCH   1   4
ATOM      4  C   UNL     1     -26.287 -55.362  24.923  1.00  0.00     0.034 C 
BRANCH   4   5
ATOM      5  C   UNL     1     -24.944 -55.087  25.614  1.00  0.00     0.032 C 
BRANCH   5   6
ATOM      6  C   UNL     1     -23.796 -55.100  24.633  1.00  0.00    -0.028 C 
ATOM      7  C   UNL     1     -21.992 -54.177  23.245  1.00  0.00     0.039 C 
ATOM      8  C   UNL     1     -23.155 -53.999  24.187  1.00  0.00    -0.080 C 
ATOM      9  C   UNL     1     -23.581 -52.606  24.586  1.00  0.00     0.039 C 
ENDBRANCH   5   6
ENDBRANCH   4   5
ENDBRANCH   1   4
BRANCH   2  10
ATOM     10  C   UNL     1     -28.937 -52.788  26.164  1.00  0.00     0.035 C 
BRANCH  10  11
ATOM     11  C   UNL     1     -29.162 -52.419  27.634  1.00  0.00     0.079 C 
BRANCH  11  12
ATOM     12  C   UNL     1     -27.859 -52.062  28.300  1.00  0.00     0.130 C 
ATOM     13  O   UNL     1     -27.461 -52.730  29.241  1.00  0.00    -0.300 OA
ATOM     14  C   UNL     1     -27.040 -50.892  27.838  1.00  0.00     0.087 C 
ENDBRANCH  11  12
ENDBRANCH  10  11
ENDBRANCH   2  10
TORSDOF 6
ENDMDL
MODEL 4
REMARK VINA RESULT:    -4.947      5.474      7.690
REMARK INTER + INTRA:          -7.714
REMARK INTER:                  -6.712
REMARK INTRA:                  -1.002
REMARK UNBOUND:                -1.032
REMARK SMILES CC(=O)CCC=C(C)CCC=C(C)C
REMARK SMILES IDX 7 1 6 2 8 3 9 4 10 5 11 6 13 7 12 8 14 9 5 10 4 11 2 12 3 13
REMARK SMILES IDX 1 14
REMARK H PARENT
REMARK Flexibility Score: inf
ROOT
ATOM      1  C   UNL     1     -20.518 -49.448  26.896  1.00  0.00    -0.077 C 
ATOM      2  C   UNL     1     -20.429 -50.212  28.006  1.00  0.00    -0.028 C 
ATOM      3  C   UNL     1     -19.433 -48.463  26.529  1.00  0.00     0.039 C 
ENDROOT
BRANCH   1   4
ATOM      4  C   UNL     1     -21.731 -49.583  25.997  1.00  0.00     0.034 C 
BRANCH   4   5
ATOM      5  C   UNL     1     -22.242 -51.029  25.938  1.00  0.00     0.032 C 
BRANCH   5   6
ATOM      6  C   UNL     1     -21.771 -51.739  24.690  1.00  0.00    -0.028 C 
ATOM      7  C   UNL     1     -20.522 -53.375  23.351  1.00  0.00     0.039 C 
ATOM      8  C   UNL     1     -20.853 -52.729  24.671  1.00  0.00    -0.080 C 
ATOM      9  C   UNL     1     -20.142 -53.188  25.923  1.00  0.00     0.039 C 
ENDBRANCH   5   6
ENDBRANCH   4   5
ENDBRANCH   1   4
BRANCH   2  10
ATOM     10  C   UNL     1     -19.256 -50.153  28.955  1.00  0.00     0.035 C 
BRANCH  10  11
ATOM     11  C   UNL     1     -18.263 -51.287  28.679  1.00  0.00     0.079 C 
BRANCH  11  12
ATOM     12  C   UNL     1     -16.892 -50.930  29.191  1.00  0.00     0.130 C 
ATOM     13  O   UNL     1     -15.996 -51.759  29.140  1.00  0.00    -0.300 OA
ATOM     14  C   UNL     1     -16.602 -49.578  29.773  1.00  0.00     0.087 C 
ENDBRANCH  11  12
ENDBRANCH  10  11
ENDBRANCH   2  10
TORSDOF 6
ENDMDL
MODEL 5
REMARK VINA RESULT:    -4.924      3.762      6.562
REMARK INTER + INTRA:          -7.683
REMARK INTER:                  -7.121
REMARK INTRA:                  -0.562
REMARK UNBOUND:                -1.032
REMARK SMILES CC(=O)CCC=C(C)CCC=C(C)C
REMARK SMILES IDX 7 1 6 2 8 3 9 4 10 5 11 6 13 7 12 8 14 9 5 10 4 11 2 12 3 13
REMARK SMILES IDX 1 14
REMARK H PARENT
REMARK Flexibility Score: inf
ROOT
ATOM      1  C   UNL     1     -20.008 -52.328  24.581  1.00  0.00    -0.077 C 
ATOM      2  C   UNL     1     -19.632 -51.668  25.698  1.00  0.00    -0.028 C 
ATOM      3  C   UNL     1     -19.837 -51.716  23.210  1.00  0.00     0.039 C 
ENDROOT
BRANCH   1   4
ATOM      4  C   UNL     1     -20.613 -53.711  24.705  1.00  0.00     0.034 C 
BRANCH   4   5
ATOM      5  C   UNL     1     -21.711 -53.953  23.658  1.00  0.00     0.032 C 
BRANCH   5   6
ATOM      6  C   UNL     1     -23.082 -54.016  24.289  1.00  0.00    -0.028 C 
ATOM      7  C   UNL     1     -25.008 -55.033  25.422  1.00  0.00     0.039 C 
ATOM      8  C   UNL     1     -23.652 -55.140  24.774  1.00  0.00    -0.080 C 
ATOM      9  C   UNL     1     -22.981 -56.489  24.670  1.00  0.00     0.039 C 
ENDBRANCH   5   6
ENDBRANCH   4   5
ENDBRANCH   1   4
BRANCH   2  10
ATOM     10  C   UNL     1     -19.013 -50.291  25.672  1.00  0.00     0.035 C 
BRANCH  10  11
ATOM     11  C   UNL     1     -19.743 -49.337  26.622  1.00  0.00     0.079 C 
BRANCH  11  12
ATOM     12  C   UNL     1     -19.583 -49.782  28.052  1.00  0.00     0.130 C 
ATOM     13  O   UNL     1     -20.569 -50.102  28.697  1.00  0.00    -0.300 OA
ATOM     14  C   UNL     1     -18.234 -49.834  28.708  1.00  0.00     0.087 C 
ENDBRANCH  11  12
ENDBRANCH  10  11
ENDBRANCH   2  10
TORSDOF 6
ENDMDL
MODEL 6
REMARK VINA RESULT:    -4.896      1.404      2.501
REMARK INTER + INTRA:          -7.646
REMARK INTER:                  -6.694
REMARK INTRA:                  -0.951
REMARK UNBOUND:                -1.032
REMARK SMILES CC(=O)CCC=C(C)CCC=C(C)C
REMARK SMILES IDX 7 1 6 2 8 3 9 4 10 5 11 6 13 7 12 8 14 9 5 10 4 11 2 12 3 13
REMARK SMILES IDX 1 14
REMARK H PARENT
REMARK Flexibility Score: inf
ROOT
ATOM      1  C   UNL     1     -23.149 -54.958  24.255  1.00  0.00    -0.077 C 
ATOM      2  C   UNL     1     -24.233 -54.308  24.731  1.00  0.00    -0.028 C 
ATOM      3  C   UNL     1     -22.896 -56.411  24.582  1.00  0.00     0.039 C 
ENDROOT
BRANCH   1   4
ATOM      4  C   UNL     1     -22.167 -54.215  23.372  1.00  0.00     0.034 C 
BRANCH   4   5
ATOM      5  C   UNL     1     -20.894 -53.822  24.135  1.00  0.00     0.032 C 
BRANCH   5   6
ATOM      6  C   UNL     1     -21.125 -52.627  25.031  1.00  0.00    -0.028 C 
ATOM      7  C   UNL     1     -21.329 -51.383  27.138  1.00  0.00     0.039 C 
ATOM      8  C   UNL     1     -21.136 -52.671  26.380  1.00  0.00    -0.080 C 
ATOM      9  C   UNL     1     -20.981 -53.966  27.142  1.00  0.00     0.039 C 
ENDBRANCH   5   6
ENDBRANCH   4   5
ENDBRANCH   1   4
BRANCH   2  10
ATOM     10  C   UNL     1     -25.269 -54.967  25.609  1.00  0.00     0.035 C 
BRANCH  10  11
ATOM     11  C   UNL     1     -26.581 -55.186  24.850  1.00  0.00     0.079 C 
BRANCH  11  12
ATOM     12  C   UNL     1     -27.400 -53.922  24.825  1.00  0.00     0.130 C 
ATOM     13  O   UNL     1     -28.064 -53.616  25.803  1.00  0.00    -0.300 OA
ATOM     14  C   UNL     1     -27.428 -53.032  23.617  1.00  0.00     0.087 C 
ENDBRANCH  11  12
ENDBRANCH  10  11
ENDBRANCH   2  10
TORSDOF 6
ENDMDL
MODEL 7
REMARK VINA RESULT:    -4.878      2.662      6.049
REMARK INTER + INTRA:          -7.621
REMARK INTER:                  -6.860
REMARK INTRA:                  -0.761
REMARK UNBOUND:                -1.032
REMARK SMILES CC(=O)CCC=C(C)CCC=C(C)C
REMARK SMILES IDX 7 1 6 2 8 3 9 4 10 5 11 6 13 7 12 8 14 9 5 10 4 11 2 12 3 13
REMARK SMILES IDX 1 14
REMARK H PARENT
REMARK Flexibility Score: inf
ROOT
ATOM      1  C   UNL     1     -23.570 -55.170  24.798  1.00  0.00    -0.077 C 
ATOM      2  C   UNL     1     -23.171 -54.143  24.017  1.00  0.00    -0.028 C 
ATOM      3  C   UNL     1     -22.860 -56.504  24.769  1.00  0.00     0.039 C 
ENDROOT
BRANCH   1   4
ATOM      4  C   UNL     1     -24.753 -54.980  25.726  1.00  0.00     0.034 C 
BRANCH   4   5
ATOM      5  C   UNL     1     -25.159 -53.504  25.842  1.00  0.00     0.032 C 
BRANCH   5   6
ATOM      6  C   UNL     1     -26.615 -53.352  26.215  1.00  0.00    -0.028 C 
ATOM      7  C   UNL     1     -29.033 -53.123  25.853  1.00  0.00     0.039 C 
ATOM      8  C   UNL     1     -27.623 -53.214  25.328  1.00  0.00    -0.080 C 
ATOM      9  C   UNL     1     -27.377 -53.131  23.840  1.00  0.00     0.039 C 
ENDBRANCH   5   6
ENDBRANCH   4   5
ENDBRANCH   1   4
BRANCH   2  10
ATOM     10  C   UNL     1     -21.999 -54.237  23.070  1.00  0.00     0.035 C 
BRANCH  10  11
ATOM     11  C   UNL     1     -20.929 -53.194  23.407  1.00  0.00     0.079 C 
BRANCH  11  12
ATOM     12  C   UNL     1     -20.579 -53.244  24.872  1.00  0.00     0.130 C 
ATOM     13  O   UNL     1     -20.080 -54.257  25.337  1.00  0.00    -0.300 OA
ATOM     14  C   UNL     1     -20.839 -52.076  25.778  1.00  0.00     0.087 C 
ENDBRANCH  11  12
ENDBRANCH  10  11
ENDBRANCH   2  10
TORSDOF 6
ENDMDL
MODEL 8
REMARK VINA RESULT:    -4.855      2.004      3.369
REMARK INTER + INTRA:          -7.590
REMARK INTER:                  -6.111
REMARK INTRA:                  -1.479
REMARK UNBOUND:                -1.032
REMARK SMILES CC(=O)CCC=C(C)CCC=C(C)C
REMARK SMILES IDX 7 1 6 2 8 3 9 4 10 5 11 6 13 7 12 8 14 9 5 10 4 11 2 12 3 13
REMARK SMILES IDX 1 14
REMARK H PARENT
REMARK Flexibility Score: inf
ROOT
ATOM      1  C   UNL     1     -22.908 -54.448  23.783  1.00  0.00    -0.077 C 
ATOM      2  C   UNL     1     -23.825 -53.466  23.916  1.00  0.00    -0.028 C 
ATOM      3  C   UNL     1     -23.021 -55.741  24.557  1.00  0.00     0.039 C 
ENDROOT
BRANCH   1   4
ATOM      4  C   UNL     1     -21.741 -54.251  22.837  1.00  0.00     0.034 C 
BRANCH   4   5
ATOM      5  C   UNL     1     -20.804 -53.129  23.308  1.00  0.00     0.032 C 
BRANCH   5   6
ATOM      6  C   UNL     1     -20.211 -53.428  24.665  1.00  0.00    -0.028 C 
ATOM      7  C   UNL     1     -19.819 -53.159  27.074  1.00  0.00     0.039 C 
ATOM      8  C   UNL     1     -20.444 -52.704  25.781  1.00  0.00    -0.080 C 
ATOM      9  C   UNL     1     -21.291 -51.453  25.763  1.00  0.00     0.039 C 
ENDBRANCH   5   6
ENDBRANCH   4   5
ENDBRANCH   1   4
BRANCH   2  10
ATOM     10  C   UNL     1     -25.024 -53.577  24.827  1.00  0.00     0.035 C 
BRANCH  10  11
ATOM     11  C   UNL     1     -24.813 -52.783  26.120  1.00  0.00     0.079 C 
BRANCH  11  12
ATOM     12  C   UNL     1     -24.568 -53.711  27.281  1.00  0.00     0.130 C 
ATOM     13  O   UNL     1     -25.366 -54.606  27.515  1.00  0.00    -0.300 OA
ATOM     14  C   UNL     1     -23.367 -53.555  28.167  1.00  0.00     0.087 C 
ENDBRANCH  11  12
ENDBRANCH  10  11
ENDBRANCH   2  10
TORSDOF 6
ENDMDL
MODEL 9
REMARK VINA RESULT:    -4.795      2.195      3.403
REMARK INTER + INTRA:          -7.508
REMARK INTER:                  -6.406
REMARK INTRA:                  -1.103
REMARK UNBOUND:                -1.032
REMARK SMILES CC(=O)CCC=C(C)CCC=C(C)C
REMARK SMILES IDX 7 1 6 2 8 3 9 4 10 5 11 6 13 7 12 8 14 9 5 10 4 11 2 12 3 13
REMARK SMILES IDX 1 14
REMARK H PARENT
REMARK Flexibility Score: inf
ROOT
ATOM      1  C   UNL     1     -21.411 -54.011  24.075  1.00  0.00    -0.077 C 
ATOM      2  C   UNL     1     -21.791 -54.642  25.208  1.00  0.00    -0.028 C 
ATOM      3  C   UNL     1     -22.117 -54.257  22.762  1.00  0.00     0.039 C 
ENDROOT
BRANCH   1   4
ATOM      4  C   UNL     1     -20.254 -53.034  24.123  1.00  0.00     0.034 C 
BRANCH   4   5
ATOM      5  C   UNL     1     -20.735 -51.576  24.157  1.00  0.00     0.032 C 
BRANCH   5   6
ATOM      6  C   UNL     1     -20.318 -50.878  25.430  1.00  0.00    -0.028 C 
ATOM      7  C   UNL     1     -20.549 -50.001  27.712  1.00  0.00     0.039 C 
ATOM      8  C   UNL     1     -21.127 -50.668  26.491  1.00  0.00    -0.080 C 
ATOM      9  C   UNL     1     -22.585 -51.063  26.478  1.00  0.00     0.039 C 
ENDBRANCH   5   6
ENDBRANCH   4   5
ENDBRANCH   1   4
BRANCH   2  10
ATOM     10  C   UNL     1     -22.937 -55.623  25.258  1.00  0.00     0.035 C 
BRANCH  10  11
ATOM     11  C   UNL     1     -24.129 -55.045  26.027  1.00  0.00     0.079 C 
BRANCH  11  12
ATOM     12  C   UNL     1     -25.241 -54.668  25.082  1.00  0.00     0.130 C 
ATOM     13  O   UNL     1     -26.128 -55.473  24.844  1.00  0.00    -0.300 OA
ATOM     14  C   UNL     1     -25.278 -53.324  24.415  1.00  0.00     0.087 C 
ENDBRANCH  11  12
ENDBRANCH  10  11
ENDBRANCH   2  10
TORSDOF 6
ENDMDL
