MODEL 1
REMARK VINA RESULT:    -4.098      0.000      0.000
REMARK INTER + INTRA:          -6.436
REMARK INTER:                  -6.015
REMARK INTRA:                  -0.421
REMARK UNBOUND:                -0.421
REMARK SMILES O=C([O-])CCCCCCCC(=O)[O-]
REMARK SMILES IDX 7 1 6 2 5 3 4 4 2 5 1 6 3 7 8 8 9 9 10 10 11 11 12 12 13 13
REMARK H PARENT
REMARK Flexibility Score: inf
ROOT
ATOM      1  C   UNL     1       9.774   4.308   3.167  1.00  0.00     0.000 C 
ENDROOT
BRANCH   1   2
ATOM      2  C   UNL     1      10.124   3.130   2.245  1.00  0.00     0.000 C 
BRANCH   2   3
ATOM      3  C   UNL     1      10.102   1.775   2.976  1.00  0.00     0.006 C 
BRANCH   3   4
ATOM      4  C   UNL     1      10.124   1.941   4.501  1.00  0.00     0.053 C 
BRANCH   4   5
ATOM      5  C   UNL     1       9.224   0.954   5.178  1.00  0.00     0.041 C 
ATOM      6  O   UNL     1       8.954   1.077   6.402  1.00  0.00    -0.550 OA
ATOM      7  O   UNL     1       8.708  -0.121   4.464  1.00  0.00    -0.550 OA
ENDBRANCH   4   5
ENDBRANCH   3   4
ENDBRANCH   2   3
ENDBRANCH   1   2
BRANCH   1   8
ATOM      8  C   UNL     1       9.837   5.663   2.443  1.00  0.00     0.000 C 
BRANCH   8   9
ATOM      9  C   UNL     1       9.581   6.849   3.388  1.00  0.00     0.006 C 
BRANCH   9  10
ATOM     10  C   UNL     1       8.746   6.460   4.614  1.00  0.00     0.053 C 
BRANCH  10  11
ATOM     11  C   UNL     1       7.334   6.927   4.453  1.00  0.00     0.041 C 
ATOM     12  O   UNL     1       6.962   8.012   4.971  1.00  0.00    -0.550 OA
ATOM     13  O   UNL     1       6.415   6.138   3.771  1.00  0.00    -0.550 OA
ENDBRANCH  10  11
ENDBRANCH   9  10
ENDBRANCH   8   9
ENDBRANCH   1   8
TORSDOF 8
ENDMDL
MODEL 2
REMARK VINA RESULT:    -3.621      0.333      5.484
REMARK INTER + INTRA:          -5.735
REMARK INTER:                  -5.355
REMARK INTRA:                  -0.380
REMARK UNBOUND:                -0.421
REMARK SMILES O=C([O-])CCCCCCCC(=O)[O-]
REMARK SMILES IDX 7 1 6 2 5 3 4 4 2 5 1 6 3 7 8 8 9 9 10 10 11 11 12 12 13 13
REMARK H PARENT
REMARK Flexibility Score: inf
ROOT
ATOM      1  C   UNL     1       9.736   4.576   3.351  1.00  0.00     0.000 C 
ENDROOT
BRANCH   1   2
ATOM      2  C   UNL     1       9.866   5.910   2.598  1.00  0.00     0.000 C 
BRANCH   2   3
ATOM      3  C   UNL     1       9.763   7.131   3.529  1.00  0.00     0.006 C 
BRANCH   3   4
ATOM      4  C   UNL     1       8.985   6.814   4.813  1.00  0.00     0.053 C 
BRANCH   4   5
ATOM      5  C   UNL     1       7.530   7.139   4.674  1.00  0.00     0.041 C 
ATOM      6  O   UNL     1       7.045   8.146   5.255  1.00  0.00    -0.550 OA
ATOM      7  O   UNL     1       6.701   6.311   3.926  1.00  0.00    -0.550 OA
ENDBRANCH   4   5
ENDBRANCH   3   4
ENDBRANCH   2   3
ENDBRANCH   1   2
BRANCH   1   8
ATOM      8  C   UNL     1       9.923   3.359   2.430  1.00  0.00     0.000 C 
BRANCH   8   9
ATOM      9  C   UNL     1      10.125   2.052   3.215  1.00  0.00     0.006 C 
BRANCH   9  10
ATOM     10  C   UNL     1       9.867   2.217   4.718  1.00  0.00     0.053 C 
BRANCH  10  11
ATOM     11  C   UNL     1       9.145   1.022   5.257  1.00  0.00     0.041 C 
ATOM     12  O   UNL     1       8.891   0.937   6.486  1.00  0.00    -0.550 OA
ATOM     13  O   UNL     1       8.795  -0.020   4.408  1.00  0.00    -0.550 OA
ENDBRANCH  10  11
ENDBRANCH   9  10
ENDBRANCH   8   9
ENDBRANCH   1   8
TORSDOF 8
ENDMDL
MODEL 3
REMARK VINA RESULT:    -3.513      1.331      6.392
REMARK INTER + INTRA:          -5.577
REMARK INTER:                  -5.585
REMARK INTRA:                   0.008
REMARK UNBOUND:                -0.421
REMARK SMILES O=C([O-])CCCCCCCC(=O)[O-]
REMARK SMILES IDX 7 1 6 2 5 3 4 4 2 5 1 6 3 7 8 8 9 9 10 10 11 11 12 12 13 13
REMARK H PARENT
REMARK Flexibility Score: inf
ROOT
ATOM      1  C   UNL     1       9.411   4.995   4.433  1.00  0.00     0.000 C 
ENDROOT
BRANCH   1   2
ATOM      2  C   UNL     1       9.860   6.446   4.197  1.00  0.00     0.000 C 
BRANCH   2   3
ATOM      3  C   UNL     1       9.438   7.392   5.336  1.00  0.00     0.006 C 
BRANCH   3   4
ATOM      4  C   UNL     1       8.582   8.561   4.829  1.00  0.00     0.053 C 
BRANCH   4   5
ATOM      5  C   UNL     1       7.129   8.203   4.783  1.00  0.00     0.041 C 
ATOM      6  O   UNL     1       6.774   7.010   4.592  1.00  0.00    -0.550 OA
ATOM      7  O   UNL     1       6.164   9.195   4.917  1.00  0.00    -0.550 OA
ENDBRANCH   4   5
ENDBRANCH   3   4
ENDBRANCH   2   3
ENDBRANCH   1   2
BRANCH   1   8
ATOM      8  C   UNL     1       9.970   4.026   3.378  1.00  0.00     0.000 C 
BRANCH   8   9
ATOM      9  C   UNL     1      10.125   2.594   3.917  1.00  0.00     0.006 C 
BRANCH   9  10
ATOM     10  C   UNL     1      10.102   1.536   2.807  1.00  0.00     0.053 C 
BRANCH  10  11
ATOM     11  C   UNL     1       9.593   0.233   3.338  1.00  0.00     0.041 C 
ATOM     12  O   UNL     1       9.483  -0.762   2.576  1.00  0.00    -0.550 OA
ATOM     13  O   UNL     1       9.194   0.132   4.665  1.00  0.00    -0.550 OA
ENDBRANCH  10  11
ENDBRANCH   9  10
ENDBRANCH   8   9
ENDBRANCH   1   8
TORSDOF 8
ENDMDL
MODEL 4
REMARK VINA RESULT:    -3.380      3.582      6.033
REMARK INTER + INTRA:          -5.382
REMARK INTER:                  -4.981
REMARK INTRA:                  -0.401
REMARK UNBOUND:                -0.421
REMARK SMILES O=C([O-])CCCCCCCC(=O)[O-]
REMARK SMILES IDX 7 1 6 2 5 3 4 4 2 5 1 6 3 7 8 8 9 9 10 10 11 11 12 12 13 13
REMARK H PARENT
REMARK Flexibility Score: inf
ROOT
ATOM      1  C   UNL     1       9.971   6.710   4.719  1.00  0.00     0.000 C 
ENDROOT
BRANCH   1   2
ATOM      2  C   UNL     1       8.803   7.073   5.650  1.00  0.00     0.000 C 
BRANCH   2   3
ATOM      3  C   UNL     1       7.490   7.323   4.887  1.00  0.00     0.006 C 
BRANCH   3   4
ATOM      4  C   UNL     1       7.097   8.806   4.884  1.00  0.00     0.053 C 
BRANCH   4   5
ATOM      5  C   UNL     1       5.646   8.993   4.561  1.00  0.00     0.041 C 
ATOM      6  O   UNL     1       5.016   9.983   5.019  1.00  0.00    -0.550 OA
ATOM      7  O   UNL     1       4.982   8.056   3.779  1.00  0.00    -0.550 OA
ENDBRANCH   4   5
ENDBRANCH   3   4
ENDBRANCH   2   3
ENDBRANCH   1   2
BRANCH   1   8
ATOM      8  C   UNL     1      10.124   7.699   3.552  1.00  0.00     0.000 C 
BRANCH   8   9
ATOM      9  C   UNL     1       9.960   7.023   2.181  1.00  0.00     0.006 C 
BRANCH   9  10
ATOM     10  C   UNL     1       9.584   5.540   2.293  1.00  0.00     0.053 C 
BRANCH  10  11
ATOM     11  C   UNL     1       8.804   5.108   1.091  1.00  0.00     0.041 C 
ATOM     12  O   UNL     1       9.232   4.178   0.359  1.00  0.00    -0.550 OA
ATOM     13  O   UNL     1       7.628   5.765   0.752  1.00  0.00    -0.550 OA
ENDBRANCH  10  11
ENDBRANCH   9  10
ENDBRANCH   8   9
ENDBRANCH   1   8
TORSDOF 8
ENDMDL
MODEL 5
REMARK VINA RESULT:    -3.302      3.193      4.018
REMARK INTER + INTRA:          -5.267
REMARK INTER:                  -4.945
REMARK INTRA:                  -0.322
REMARK UNBOUND:                -0.421
REMARK SMILES O=C([O-])CCCCCCCC(=O)[O-]
REMARK SMILES IDX 7 1 6 2 5 3 4 4 2 5 1 6 3 7 8 8 9 9 10 10 11 11 12 12 13 13
REMARK H PARENT
REMARK Flexibility Score: inf
ROOT
ATOM      1  C   UNL     1      10.027   6.633   4.777  1.00  0.00     0.000 C 
ENDROOT
BRANCH   1   2
ATOM      2  C   UNL     1       9.447   5.242   4.478  1.00  0.00     0.000 C 
BRANCH   2   3
ATOM      3  C   UNL     1      10.117   4.566   3.268  1.00  0.00     0.006 C 
BRANCH   3   4
ATOM      4  C   UNL     1      10.113   5.467   2.027  1.00  0.00     0.053 C 
BRANCH   4   5
ATOM      5  C   UNL     1       8.981   5.133   1.104  1.00  0.00     0.041 C 
ATOM      6  O   UNL     1       7.936   5.837   1.101  1.00  0.00    -0.550 OA
ATOM      7  O   UNL     1       9.067   4.025   0.270  1.00  0.00    -0.550 OA
ENDBRANCH   4   5
ENDBRANCH   3   4
ENDBRANCH   2   3
ENDBRANCH   1   2
BRANCH   1   8
ATOM      8  C   UNL     1       9.108   7.770   4.301  1.00  0.00     0.000 C 
BRANCH   8   9
ATOM      9  C   UNL     1       7.662   7.607   4.799  1.00  0.00     0.006 C 
BRANCH   9  10
ATOM     10  C   UNL     1       7.001   8.946   5.148  1.00  0.00     0.053 C 
BRANCH  10  11
ATOM     11  C   UNL     1       5.609   8.999   4.601  1.00  0.00     0.041 C 
ATOM     12  O   UNL     1       4.843   9.949   4.908  1.00  0.00    -0.550 OA
ATOM     13  O   UNL     1       5.142   7.972   3.790  1.00  0.00    -0.550 OA
ENDBRANCH  10  11
ENDBRANCH   9  10
ENDBRANCH   8   9
ENDBRANCH   1   8
TORSDOF 8
ENDMDL
MODEL 6
REMARK VINA RESULT:    -3.192      3.329      4.237
REMARK INTER + INTRA:          -5.106
REMARK INTER:                  -4.948
REMARK INTRA:                  -0.158
REMARK UNBOUND:                -0.421
REMARK SMILES O=C([O-])CCCCCCCC(=O)[O-]
REMARK SMILES IDX 7 1 6 2 5 3 4 4 2 5 1 6 3 7 8 8 9 9 10 10 11 11 12 12 13 13
REMARK H PARENT
REMARK Flexibility Score: inf
ROOT
ATOM      1  C   UNL     1       7.172   6.378   3.925  1.00  0.00     0.000 C 
ENDROOT
BRANCH   1   2
ATOM      2  C   UNL     1       8.367   5.660   3.278  1.00  0.00     0.000 C 
BRANCH   2   3
ATOM      3  C   UNL     1       8.571   6.053   1.804  1.00  0.00     0.006 C 
BRANCH   3   4
ATOM      4  C   UNL     1       9.906   5.541   1.248  1.00  0.00     0.053 C 
BRANCH   4   5
ATOM      5  C   UNL     1       9.831   4.092   0.875  1.00  0.00     0.041 C 
ATOM      6  O   UNL     1       9.475   3.752  -0.283  1.00  0.00    -0.550 OA
ATOM      7  O   UNL     1      10.124   3.115   1.820  1.00  0.00    -0.550 OA
ENDBRANCH   4   5
ENDBRANCH   3   4
ENDBRANCH   2   3
ENDBRANCH   1   2
BRANCH   1   8
ATOM      8  C   UNL     1       7.605   7.506   4.876  1.00  0.00     0.000 C 
BRANCH   8   9
ATOM      9  C   UNL     1       8.841   7.130   5.711  1.00  0.00     0.006 C 
BRANCH   9  10
ATOM     10  C   UNL     1      10.125   7.798   5.204  1.00  0.00     0.053 C 
BRANCH  10  11
ATOM     11  C   UNL     1       9.796   9.012   4.393  1.00  0.00     0.041 C 
ATOM     12  O   UNL     1       9.462  10.083   4.963  1.00  0.00    -0.550 OA
ATOM     13  O   UNL     1       9.813   8.945   3.005  1.00  0.00    -0.550 OA
ENDBRANCH  10  11
ENDBRANCH   9  10
ENDBRANCH   8   9
ENDBRANCH   1   8
TORSDOF 8
ENDMDL
MODEL 7
REMARK VINA RESULT:    -3.160     21.439     22.798
REMARK INTER + INTRA:          -5.058
REMARK INTER:                  -4.455
REMARK INTRA:                  -0.603
REMARK UNBOUND:                -0.421
REMARK SMILES O=C([O-])CCCCCCCC(=O)[O-]
REMARK SMILES IDX 7 1 6 2 5 3 4 4 2 5 1 6 3 7 8 8 9 9 10 10 11 11 12 12 13 13
REMARK H PARENT
REMARK Flexibility Score: inf
ROOT
ATOM      1  C   UNL     1      -5.570  -5.792  -9.277  1.00  0.00     0.000 C 
ENDROOT
BRANCH   1   2
ATOM      2  C   UNL     1      -6.848  -6.644  -9.325  1.00  0.00     0.000 C 
BRANCH   2   3
ATOM      3  C   UNL     1      -7.483  -6.844  -7.937  1.00  0.00     0.006 C 
BRANCH   3   4
ATOM      4  C   UNL     1      -8.810  -6.087  -7.794  1.00  0.00     0.053 C 
BRANCH   4   5
ATOM      5  C   UNL     1      -8.690  -4.934  -6.845  1.00  0.00     0.041 C 
ATOM      6  O   UNL     1      -9.704  -4.251  -6.545  1.00  0.00    -0.550 OA
ATOM      7  O   UNL     1      -7.450  -4.595  -6.316  1.00  0.00    -0.550 OA
ENDBRANCH   4   5
ENDBRANCH   3   4
ENDBRANCH   2   3
ENDBRANCH   1   2
BRANCH   1   8
ATOM      8  C   UNL     1      -4.291  -6.646  -9.304  1.00  0.00     0.000 C 
BRANCH   8   9
ATOM      9  C   UNL     1      -4.540  -8.062  -9.849  1.00  0.00     0.006 C 
BRANCH   9  10
ATOM     10  C   UNL     1      -3.728  -9.133  -9.108  1.00  0.00     0.053 C 
BRANCH  10  11
ATOM     11  C   UNL     1      -4.050  -9.113  -7.647  1.00  0.00     0.041 C 
ATOM     12  O   UNL     1      -5.200  -9.429  -7.247  1.00  0.00    -0.550 OA
ATOM     13  O   UNL     1      -3.091  -8.698  -6.731  1.00  0.00    -0.550 OA
ENDBRANCH  10  11
ENDBRANCH   9  10
ENDBRANCH   8   9
ENDBRANCH   1   8
TORSDOF 8
ENDMDL
MODEL 8
REMARK VINA RESULT:    -3.124     21.599     22.383
REMARK INTER + INTRA:          -5.007
REMARK INTER:                  -4.415
REMARK INTRA:                  -0.591
REMARK UNBOUND:                -0.421
REMARK SMILES O=C([O-])CCCCCCCC(=O)[O-]
REMARK SMILES IDX 7 1 6 2 5 3 4 4 2 5 1 6 3 7 8 8 9 9 10 10 11 11 12 12 13 13
REMARK H PARENT
REMARK Flexibility Score: inf
ROOT
ATOM      1  C   UNL     1      -5.703  -5.610  -9.078  1.00  0.00     0.000 C 
ENDROOT
BRANCH   1   2
ATOM      2  C   UNL     1      -4.471  -6.289  -9.697  1.00  0.00     0.000 C 
BRANCH   2   3
ATOM      3  C   UNL     1      -4.492  -7.820  -9.534  1.00  0.00     0.006 C 
BRANCH   3   4
ATOM      4  C   UNL     1      -3.917  -8.265  -8.183  1.00  0.00     0.053 C 
BRANCH   4   5
ATOM      5  C   UNL     1      -4.718  -9.379  -7.581  1.00  0.00     0.041 C 
ATOM      6  O   UNL     1      -5.716  -9.845  -8.191  1.00  0.00    -0.550 OA
ATOM      7  O   UNL     1      -4.380  -9.880  -6.330  1.00  0.00    -0.550 OA
ENDBRANCH   4   5
ENDBRANCH   3   4
ENDBRANCH   2   3
ENDBRANCH   1   2
BRANCH   1   8
ATOM      8  C   UNL     1      -6.965  -6.482  -9.167  1.00  0.00     0.000 C 
BRANCH   8   9
ATOM      9  C   UNL     1      -7.543  -6.826  -7.784  1.00  0.00     0.006 C 
BRANCH   9  10
ATOM     10  C   UNL     1      -8.866  -6.104  -7.498  1.00  0.00     0.053 C 
BRANCH  10  11
ATOM     11  C   UNL     1      -8.616  -4.838  -6.740  1.00  0.00     0.041 C 
ATOM     12  O   UNL     1      -7.553  -4.692  -6.084  1.00  0.00    -0.550 OA
ATOM     13  O   UNL     1      -9.581  -3.839  -6.720  1.00  0.00    -0.550 OA
ENDBRANCH  10  11
ENDBRANCH   9  10
ENDBRANCH   8   9
ENDBRANCH   1   8
TORSDOF 8
ENDMDL
MODEL 9
REMARK VINA RESULT:    -2.751     21.799     23.258
REMARK INTER + INTRA:          -4.459
REMARK INTER:                  -3.797
REMARK INTRA:                  -0.662
REMARK UNBOUND:                -0.421
REMARK SMILES O=C([O-])CCCCCCCC(=O)[O-]
REMARK SMILES IDX 7 1 6 2 5 3 4 4 2 5 1 6 3 7 8 8 9 9 10 10 11 11 12 12 13 13
REMARK H PARENT
REMARK Flexibility Score: inf
ROOT
ATOM      1  C   UNL     1      -4.111  -7.877  -8.338  1.00  0.00     0.000 C 
ENDROOT
BRANCH   1   2
ATOM      2  C   UNL     1      -4.830  -7.498  -9.643  1.00  0.00     0.000 C 
BRANCH   2   3
ATOM      3  C   UNL     1      -6.250  -6.953  -9.402  1.00  0.00     0.006 C 
BRANCH   3   4
ATOM      4  C   UNL     1      -6.292  -5.942  -8.248  1.00  0.00     0.053 C 
BRANCH   4   5
ATOM      5  C   UNL     1      -7.619  -5.951  -7.553  1.00  0.00     0.041 C 
ATOM      6  O   UNL     1      -8.585  -6.596  -8.038  1.00  0.00    -0.550 OA
ATOM      7  O   UNL     1      -7.796  -5.220  -6.384  1.00  0.00    -0.550 OA
ENDBRANCH   4   5
ENDBRANCH   3   4
ENDBRANCH   2   3
ENDBRANCH   1   2
BRANCH   1   8
ATOM      8  C   UNL     1      -4.092  -9.395  -8.095  1.00  0.00     0.000 C 
BRANCH   8   9
ATOM      9  C   UNL     1      -5.046  -9.822  -6.966  1.00  0.00     0.006 C 
BRANCH   9  10
ATOM     10  C   UNL     1      -6.469 -10.101  -7.466  1.00  0.00     0.053 C 
BRANCH  10  11
ATOM     11  C   UNL     1      -7.467  -9.796  -6.394  1.00  0.00     0.041 C 
ATOM     12  O   UNL     1      -7.092  -9.651  -5.201  1.00  0.00    -0.550 OA
ATOM     13  O   UNL     1      -8.819  -9.719  -6.705  1.00  0.00    -0.550 OA
ENDBRANCH  10  11
ENDBRANCH   9  10
ENDBRANCH   8   9
ENDBRANCH   1   8
TORSDOF 8
ENDMDL
