MODEL 1
REMARK VINA RESULT:    -4.265      0.000      0.000
REMARK INTER + INTRA:          -5.064
REMARK INTER:                  -4.889
REMARK INTRA:                  -0.175
REMARK UNBOUND:                -0.175
REMARK SMILES CC=Cc1ccc(O)c(OC)c1
REMARK SMILES IDX 4 1 12 2 9 3 7 4 6 5 5 6 3 7 1 8 2 9 10 10 11 11 8 12
REMARK H PARENT 8 13
REMARK Flexibility Score: inf
ROOT
ATOM      1  C   UNL     1     167.210 165.576 168.387  1.00  0.00    -0.022 A 
ATOM      2  C   UNL     1     168.262 166.319 168.949  1.00  0.00     0.058 A 
ATOM      3  C   UNL     1     169.388 166.670 168.179  1.00  0.00     0.161 A 
ATOM      4  C   UNL     1     169.450 166.283 166.835  1.00  0.00     0.157 A 
ATOM      5  C   UNL     1     168.398 165.557 166.265  1.00  0.00     0.051 A 
ATOM      6  C   UNL     1     167.283 165.208 167.031  1.00  0.00     0.012 A 
ENDROOT
BRANCH   1   7
ATOM      7  C   UNL     1     166.042 165.241 169.241  1.00  0.00     0.003 C 
ATOM      8  C   UNL     1     163.652 165.153 169.833  1.00  0.00     0.035 C 
ATOM      9  C   UNL     1     164.776 165.539 168.926  1.00  0.00    -0.030 C 
ENDBRANCH   1   7
BRANCH   3  10
ATOM     10  O   UNL     1     170.461 167.403 168.713  1.00  0.00    -0.493 OA
ATOM     11  C   UNL     1     170.465 168.816 168.888  1.00  0.00     0.278 C 
ENDBRANCH   3  10
BRANCH   4  12
ATOM     12  O   UNL     1     170.563 166.627 166.068  1.00  0.00    -0.504 OA
ATOM     13  H   UNL     1     170.927 166.007 165.354  1.00  0.00     0.293 HD
ENDBRANCH   4  12
TORSDOF 3
ENDMDL
MODEL 2
REMARK VINA RESULT:    -4.263      4.725      6.892
REMARK INTER + INTRA:          -5.061
REMARK INTER:                  -4.886
REMARK INTRA:                  -0.175
REMARK UNBOUND:                -0.175
REMARK SMILES CC=Cc1ccc(O)c(OC)c1
REMARK SMILES IDX 4 1 12 2 9 3 7 4 6 5 5 6 3 7 1 8 2 9 10 10 11 11 8 12
REMARK H PARENT 8 13
REMARK Flexibility Score: inf
ROOT
ATOM      1  C   UNL     1     164.002 165.636 168.399  1.00  0.00    -0.022 A 
ATOM      2  C   UNL     1     162.935 164.898 168.941  1.00  0.00     0.058 A 
ATOM      3  C   UNL     1     161.817 164.561 168.152  1.00  0.00     0.161 A 
ATOM      4  C   UNL     1     161.778 164.959 166.809  1.00  0.00     0.157 A 
ATOM      5  C   UNL     1     162.844 165.681 166.261  1.00  0.00     0.051 A 
ATOM      6  C   UNL     1     163.950 166.014 167.045  1.00  0.00     0.012 A 
ENDROOT
BRANCH   1   7
ATOM      7  C   UNL     1     165.160 165.955 169.272  1.00  0.00     0.003 C 
ATOM      8  C   UNL     1     167.537 165.984 169.918  1.00  0.00     0.035 C 
ATOM      9  C   UNL     1     166.423 165.611 168.993  1.00  0.00    -0.030 C 
ENDBRANCH   1   7
BRANCH   3  10
ATOM     10  O   UNL     1     160.731 163.834 168.665  1.00  0.00    -0.493 OA
ATOM     11  C   UNL     1     160.745 162.432 168.913  1.00  0.00     0.278 C 
ENDBRANCH   3  10
BRANCH   4  12
ATOM     12  O   UNL     1     160.674 164.630 166.024  1.00  0.00    -0.504 OA
ATOM     13  H   UNL     1     159.824 164.261 166.434  1.00  0.00     0.293 HD
ENDBRANCH   4  12
TORSDOF 3
ENDMDL
MODEL 3
REMARK VINA RESULT:    -3.903      4.366      6.597
REMARK INTER + INTRA:          -4.649
REMARK INTER:                  -4.498
REMARK INTRA:                  -0.151
REMARK UNBOUND:                -0.175
REMARK SMILES CC=Cc1ccc(O)c(OC)c1
REMARK SMILES IDX 4 1 12 2 9 3 7 4 6 5 5 6 3 7 1 8 2 9 10 10 11 11 8 12
REMARK H PARENT 8 13
REMARK Flexibility Score: inf
ROOT
ATOM      1  C   UNL     1     164.290 165.653 168.961  1.00  0.00    -0.022 A 
ATOM      2  C   UNL     1     163.745 165.853 167.681  1.00  0.00     0.058 A 
ATOM      3  C   UNL     1     162.501 165.291 167.331  1.00  0.00     0.161 A 
ATOM      4  C   UNL     1     161.799 164.533 168.276  1.00  0.00     0.157 A 
ATOM      5  C   UNL     1     162.330 164.343 169.557  1.00  0.00     0.051 A 
ATOM      6  C   UNL     1     163.563 164.900 169.901  1.00  0.00     0.012 A 
ENDROOT
BRANCH   1   7
ATOM      7  C   UNL     1     165.599 166.277 169.280  1.00  0.00     0.003 C 
ATOM      8  C   UNL     1     168.031 166.304 169.673  1.00  0.00     0.035 C 
ATOM      9  C   UNL     1     166.750 165.599 169.361  1.00  0.00    -0.030 C 
ENDBRANCH   1   7
BRANCH   3  10
ATOM     10  O   UNL     1     161.934 165.464 166.058  1.00  0.00    -0.493 OA
ATOM     11  C   UNL     1     162.676 165.743 164.875  1.00  0.00     0.278 C 
ENDBRANCH   3  10
BRANCH   4  12
ATOM     12  O   UNL     1     160.568 163.973 167.935  1.00  0.00    -0.504 OA
ATOM     13  H   UNL     1     160.065 164.265 167.105  1.00  0.00     0.293 HD
ENDBRANCH   4  12
TORSDOF 3
ENDMDL
MODEL 4
REMARK VINA RESULT:    -3.853      4.896      7.350
REMARK INTER + INTRA:          -4.592
REMARK INTER:                  -4.421
REMARK INTRA:                  -0.171
REMARK UNBOUND:                -0.175
REMARK SMILES CC=Cc1ccc(O)c(OC)c1
REMARK SMILES IDX 4 1 12 2 9 3 7 4 6 5 5 6 3 7 1 8 2 9 10 10 11 11 8 12
REMARK H PARENT 8 13
REMARK Flexibility Score: inf
ROOT
ATOM      1  C   UNL     1     163.516 165.299 168.578  1.00  0.00    -0.022 A 
ATOM      2  C   UNL     1     163.007 164.635 169.707  1.00  0.00     0.058 A 
ATOM      3  C   UNL     1     161.741 164.017 169.672  1.00  0.00     0.161 A 
ATOM      4  C   UNL     1     160.989 164.060 168.491  1.00  0.00     0.157 A 
ATOM      5  C   UNL     1     161.497 164.707 167.359  1.00  0.00     0.051 A 
ATOM      6  C   UNL     1     162.751 165.319 167.397  1.00  0.00     0.012 A 
ENDROOT
BRANCH   1   7
ATOM      7  C   UNL     1     164.860 165.924 168.668  1.00  0.00     0.003 C 
ATOM      8  C   UNL     1     167.288 165.964 169.078  1.00  0.00     0.035 C 
ATOM      9  C   UNL     1     165.968 165.265 169.028  1.00  0.00    -0.030 C 
ENDBRANCH   1   7
BRANCH   3  10
ATOM     10  O   UNL     1     161.200 163.354 170.785  1.00  0.00    -0.493 OA
ATOM     11  C   UNL     1     160.648 164.008 171.923  1.00  0.00     0.278 C 
ENDBRANCH   3  10
BRANCH   4  12
ATOM     12  O   UNL     1     159.735 163.452 168.450  1.00  0.00    -0.504 OA
ATOM     13  H   UNL     1     158.980 163.831 167.890  1.00  0.00     0.293 HD
ENDBRANCH   4  12
TORSDOF 3
ENDMDL
MODEL 5
REMARK VINA RESULT:    -3.821      1.432      1.731
REMARK INTER + INTRA:          -4.555
REMARK INTER:                  -4.402
REMARK INTRA:                  -0.153
REMARK UNBOUND:                -0.175
REMARK SMILES CC=Cc1ccc(O)c(OC)c1
REMARK SMILES IDX 4 1 12 2 9 3 7 4 6 5 5 6 3 7 1 8 2 9 10 10 11 11 8 12
REMARK H PARENT 8 13
REMARK Flexibility Score: inf
ROOT
ATOM      1  C   UNL     1     167.539 166.000 168.955  1.00  0.00    -0.022 A 
ATOM      2  C   UNL     1     168.200 166.726 169.959  1.00  0.00     0.058 A 
ATOM      3  C   UNL     1     169.480 167.272 169.731  1.00  0.00     0.161 A 
ATOM      4  C   UNL     1     170.090 167.094 168.483  1.00  0.00     0.157 A 
ATOM      5  C   UNL     1     169.429 166.384 167.474  1.00  0.00     0.051 A 
ATOM      6  C   UNL     1     168.162 165.844 167.703  1.00  0.00     0.012 A 
ENDROOT
BRANCH   1   7
ATOM      7  C   UNL     1     166.188 165.456 169.245  1.00  0.00     0.003 C 
ATOM      8  C   UNL     1     163.748 165.256 168.974  1.00  0.00     0.035 C 
ATOM      9  C   UNL     1     165.070 165.867 168.636  1.00  0.00    -0.030 C 
ENDBRANCH   1   7
BRANCH   3  10
ATOM     10  O   UNL     1     170.172 167.994 170.717  1.00  0.00    -0.493 OA
ATOM     11  C   UNL     1     169.675 168.252 172.026  1.00  0.00     0.278 C 
ENDBRANCH   3  10
BRANCH   4  12
ATOM     12  O   UNL     1     171.356 167.630 168.252  1.00  0.00    -0.504 OA
ATOM     13  H   UNL     1     171.497 168.627 168.137  1.00  0.00     0.293 HD
ENDBRANCH   4  12
TORSDOF 3
ENDMDL
MODEL 6
REMARK VINA RESULT:    -3.787      8.842      9.664
REMARK INTER + INTRA:          -4.515
REMARK INTER:                  -4.352
REMARK INTRA:                  -0.163
REMARK UNBOUND:                -0.175
REMARK SMILES CC=Cc1ccc(O)c(OC)c1
REMARK SMILES IDX 4 1 12 2 9 3 7 4 6 5 5 6 3 7 1 8 2 9 10 10 11 11 8 12
REMARK H PARENT 8 13
REMARK Flexibility Score: inf
ROOT
ATOM      1  C   UNL     1     161.391 172.984 168.954  1.00  0.00    -0.022 A 
ATOM      2  C   UNL     1     161.453 174.070 168.065  1.00  0.00     0.058 A 
ATOM      3  C   UNL     1     162.504 174.180 167.133  1.00  0.00     0.161 A 
ATOM      4  C   UNL     1     163.490 173.186 167.088  1.00  0.00     0.157 A 
ATOM      5  C   UNL     1     163.425 172.094 167.961  1.00  0.00     0.051 A 
ATOM      6  C   UNL     1     162.383 171.989 168.885  1.00  0.00     0.012 A 
ENDROOT
BRANCH   1   7
ATOM      7  C   UNL     1     160.256 172.913 169.910  1.00  0.00     0.003 C 
ATOM      8  C   UNL     1     158.181 171.983 170.857  1.00  0.00     0.035 C 
ATOM      9  C   UNL     1     159.282 171.997 169.846  1.00  0.00    -0.030 C 
ENDBRANCH   1   7
BRANCH   3  10
ATOM     10  O   UNL     1     162.600 175.258 166.237  1.00  0.00    -0.493 OA
ATOM     11  C   UNL     1     161.555 175.679 165.367  1.00  0.00     0.278 C 
ENDBRANCH   3  10
BRANCH   4  12
ATOM     12  O   UNL     1     164.533 173.290 166.169  1.00  0.00    -0.504 OA
ATOM     13  H   UNL     1     165.337 173.882 166.343  1.00  0.00     0.293 HD
ENDBRANCH   4  12
TORSDOF 3
ENDMDL
MODEL 7
REMARK VINA RESULT:    -3.781     10.303     10.894
REMARK INTER + INTRA:          -4.509
REMARK INTER:                  -4.335
REMARK INTRA:                  -0.174
REMARK UNBOUND:                -0.175
REMARK SMILES CC=Cc1ccc(O)c(OC)c1
REMARK SMILES IDX 4 1 12 2 9 3 7 4 6 5 5 6 3 7 1 8 2 9 10 10 11 11 8 12
REMARK H PARENT 8 13
REMARK Flexibility Score: inf
ROOT
ATOM      1  C   UNL     1     161.106 175.406 165.943  1.00  0.00    -0.022 A 
ATOM      2  C   UNL     1     161.585 174.644 167.022  1.00  0.00     0.058 A 
ATOM      3  C   UNL     1     162.929 174.224 167.068  1.00  0.00     0.161 A 
ATOM      4  C   UNL     1     163.797 174.582 166.028  1.00  0.00     0.157 A 
ATOM      5  C   UNL     1     163.329 175.354 164.958  1.00  0.00     0.051 A 
ATOM      6  C   UNL     1     161.996 175.768 164.915  1.00  0.00     0.012 A 
ENDROOT
BRANCH   1   7
ATOM      7  C   UNL     1     159.683 175.831 165.951  1.00  0.00     0.003 C 
ATOM      8  C   UNL     1     157.323 175.743 166.651  1.00  0.00     0.035 C 
ATOM      9  C   UNL     1     158.732 175.245 166.687  1.00  0.00    -0.030 C 
ENDBRANCH   1   7
BRANCH   3  10
ATOM     10  O   UNL     1     163.437 173.453 168.126  1.00  0.00    -0.493 OA
ATOM     11  C   UNL     1     163.200 172.059 168.294  1.00  0.00     0.278 C 
ENDBRANCH   3  10
BRANCH   4  12
ATOM     12  O   UNL     1     165.128 174.168 166.067  1.00  0.00    -0.504 OA
ATOM     13  H   UNL     1     165.626 173.905 165.225  1.00  0.00     0.293 HD
ENDBRANCH   4  12
TORSDOF 3
ENDMDL
MODEL 8
REMARK VINA RESULT:    -3.704      9.278     10.025
REMARK INTER + INTRA:          -4.420
REMARK INTER:                  -4.259
REMARK INTRA:                  -0.161
REMARK UNBOUND:                -0.175
REMARK SMILES CC=Cc1ccc(O)c(OC)c1
REMARK SMILES IDX 4 1 12 2 9 3 7 4 6 5 5 6 3 7 1 8 2 9 10 10 11 11 8 12
REMARK H PARENT 8 13
REMARK Flexibility Score: inf
ROOT
ATOM      1  C   UNL     1     162.481 173.286 168.341  1.00  0.00    -0.022 A 
ATOM      2  C   UNL     1     163.214 173.792 167.254  1.00  0.00     0.058 A 
ATOM      3  C   UNL     1     162.641 174.729 166.371  1.00  0.00     0.161 A 
ATOM      4  C   UNL     1     161.328 175.166 166.590  1.00  0.00     0.157 A 
ATOM      5  C   UNL     1     160.599 174.677 167.680  1.00  0.00     0.051 A 
ATOM      6  C   UNL     1     161.169 173.748 168.552  1.00  0.00     0.012 A 
ENDROOT
BRANCH   1   7
ATOM      7  C   UNL     1     163.137 172.308 169.246  1.00  0.00     0.003 C 
ATOM      8  C   UNL     1     163.225 170.367 170.760  1.00  0.00     0.035 C 
ATOM      9  C   UNL     1     162.488 171.322 169.876  1.00  0.00    -0.030 C 
ENDBRANCH   1   7
BRANCH   3  10
ATOM     10  O   UNL     1     163.343 175.247 165.270  1.00  0.00    -0.493 OA
ATOM     11  C   UNL     1     164.724 175.016 165.014  1.00  0.00     0.278 C 
ENDBRANCH   3  10
BRANCH   4  12
ATOM     12  O   UNL     1     160.756 176.092 165.719  1.00  0.00    -0.504 OA
ATOM     13  H   UNL     1     160.101 175.809 164.999  1.00  0.00     0.293 HD
ENDBRANCH   4  12
TORSDOF 3
ENDMDL
MODEL 9
REMARK VINA RESULT:    -3.533      8.440      9.534
REMARK INTER + INTRA:          -4.224
REMARK INTER:                  -4.052
REMARK INTRA:                  -0.172
REMARK UNBOUND:                -0.175
REMARK SMILES CC=Cc1ccc(O)c(OC)c1
REMARK SMILES IDX 4 1 12 2 9 3 7 4 6 5 5 6 3 7 1 8 2 9 10 10 11 11 8 12
REMARK H PARENT 8 13
REMARK Flexibility Score: inf
ROOT
ATOM      1  C   UNL     1     170.315 158.961 169.492  1.00  0.00    -0.022 A 
ATOM      2  C   UNL     1     170.439 157.748 168.793  1.00  0.00     0.058 A 
ATOM      3  C   UNL     1     169.373 157.252 168.016  1.00  0.00     0.161 A 
ATOM      4  C   UNL     1     168.184 157.986 167.932  1.00  0.00     0.157 A 
ATOM      5  C   UNL     1     168.061 159.203 168.612  1.00  0.00     0.051 A 
ATOM      6  C   UNL     1     169.117 159.692 169.383  1.00  0.00     0.012 A 
ENDROOT
BRANCH   1   7
ATOM      7  C   UNL     1     171.472 159.443 170.288  1.00  0.00     0.003 C 
ATOM      8  C   UNL     1     173.478 159.198 171.697  1.00  0.00     0.035 C 
ATOM      9  C   UNL     1     172.327 158.635 170.928  1.00  0.00    -0.030 C 
ENDBRANCH   1   7
BRANCH   3  10
ATOM     10  O   UNL     1     169.461 156.038 167.314  1.00  0.00    -0.493 OA
ATOM     11  C   UNL     1     170.113 155.878 166.058  1.00  0.00     0.278 C 
ENDBRANCH   3  10
BRANCH   4  12
ATOM     12  O   UNL     1     167.126 157.500 167.164  1.00  0.00    -0.504 OA
ATOM     13  H   UNL     1     166.833 156.532 167.219  1.00  0.00     0.293 HD
ENDBRANCH   4  12
TORSDOF 3
ENDMDL
