MODEL 1
REMARK VINA RESULT:    -4.959      0.000      0.000
REMARK INTER + INTRA:          -9.947
REMARK INTER:                  -7.858
REMARK INTRA:                  -2.089
REMARK UNBOUND:                -2.089
REMARK SMILES C[C@@H]1O[C@H](O[C@H]2CC[C@]3(C)[C@H](CC[C@]4(C)[C@H]3C=C[C@@]35OC[C@]6(CCC(C)(C)C[C@H]63)[C@H](O)C[C@@]45C)[C@]2(C)CO)[C@@H](O)[C@H](O[C@@H]2O[C@@H](CO)[C@@H](O)[C@@H](O)[C@H]2O)[C@@H]1O
REMARK SMILES IDX 1 1 2 2 54 3 41 4 39 5 4 6 3 7 55 8 42 10 43 11 52 12 44 13
REMARK SMILES IDX 50 14 45 15 48 16 53 17 51 19 46 21 47 22 49 24 5 26 6 27
REMARK SMILES IDX 7 28 35 29 8 30 11 31 36 32 9 33 12 34 10 35 16 36 13 37
REMARK SMILES IDX 14 38 17 39 15 40 33 41 18 42 19 43 32 44 34 45 29 46 20 47
REMARK SMILES IDX 30 48 22 49 28 50 21 51 23 52 25 53 24 54 26 55 27 56 37 57
REMARK SMILES IDX 38 58 31 60 40 62
REMARK H PARENT 55 9 53 18 51 20 47 23 49 25 38 59 31 61 40 63
REMARK Flexibility Score: inf
ROOT
ATOM      1  C   UNL     1     -23.985  55.904  42.157  1.00  0.00     0.041 C 
ATOM      2  C   UNL     1     -22.815  55.538  43.056  1.00  0.00     0.150 C 
ATOM      3  C   UNL     1     -22.819  56.323  44.408  1.00  0.00     0.175 C 
ATOM      4  C   UNL     1     -23.732  55.674  45.469  1.00  0.00     0.186 C 
ATOM      5  C   UNL     1     -23.521  54.132  45.509  1.00  0.00     0.202 C 
ATOM      6  C   UNL     1     -22.458  53.666  44.480  1.00  0.00     0.282 C 
ATOM      7  O   UNL     1     -22.814  54.113  43.186  1.00  0.00    -0.344 OA
ENDROOT
BRANCH   3   8
ATOM      8  O   UNL     1     -23.098  57.684  44.227  1.00  0.00    -0.388 OA
ATOM      9  H   UNL     1     -22.933  57.890  43.266  1.00  0.00     0.211 HD
ENDBRANCH   3   8
BRANCH   4  10
ATOM     10  O   UNL     1     -25.111  55.919  45.210  1.00  0.00    -0.341 OA
BRANCH  10  11
ATOM     11  C   UNL     1     -25.845  56.587  46.242  1.00  0.00     0.282 C 
ATOM     12  C   UNL     1     -26.386  55.685  47.405  1.00  0.00     0.202 C 
ATOM     13  O   UNL     1     -25.214  57.818  46.560  1.00  0.00    -0.341 OA
ATOM     14  C   UNL     1     -25.606  55.891  48.699  1.00  0.00     0.179 C 
ATOM     15  C   UNL     1     -25.014  58.237  47.911  1.00  0.00     0.178 C 
ATOM     16  C   UNL     1     -25.585  57.368  49.069  1.00  0.00     0.177 C 
BRANCH  12  17
ATOM     17  O   UNL     1     -27.768  55.892  47.637  1.00  0.00    -0.385 OA
ATOM     18  H   UNL     1     -28.285  55.369  46.961  1.00  0.00     0.211 HD
ENDBRANCH  12  17
BRANCH  14  19
ATOM     19  O   UNL     1     -26.185  55.113  49.711  1.00  0.00    -0.387 OA
ATOM     20  H   UNL     1     -25.514  54.997  50.444  1.00  0.00     0.211 HD
ENDBRANCH  14  19
BRANCH  15  21
ATOM     21  C   UNL     1     -25.397  59.729  48.006  1.00  0.00     0.191 C 
BRANCH  21  22
ATOM     22  O   UNL     1     -26.728  59.977  47.595  1.00  0.00    -0.394 OA
ATOM     23  H   UNL     1     -26.725  60.236  46.632  1.00  0.00     0.210 HD
ENDBRANCH  21  22
ENDBRANCH  15  21
BRANCH  16  24
ATOM     24  O   UNL     1     -26.851  57.810  49.520  1.00  0.00    -0.387 OA
ATOM     25  H   UNL     1     -26.717  58.717  49.907  1.00  0.00     0.211 HD
ENDBRANCH  16  24
ENDBRANCH  10  11
ENDBRANCH   4  10
BRANCH   6  26
ATOM     26  O   UNL     1     -22.435  52.242  44.479  1.00  0.00    -0.346 OA
BRANCH  26  27
ATOM     27  C   UNL     1     -23.528  51.673  43.764  1.00  0.00     0.130 C 
ATOM     28  C   UNL     1     -23.068  51.204  42.373  1.00  0.00     0.033 C 
ATOM     29  C   UNL     1     -24.144  50.467  44.564  1.00  0.00     0.020 C 
ATOM     30  C   UNL     1     -24.280  50.871  41.493  1.00  0.00     0.010 C 
ATOM     31  C   UNL     1     -24.854  49.434  43.572  1.00  0.00     0.006 C 
ATOM     32  C   UNL     1     -22.990  49.717  45.300  1.00  0.00     0.017 C 
ATOM     33  C   UNL     1     -25.375  49.982  42.199  1.00  0.00    -0.022 C 
ATOM     34  C   UNL     1     -25.857  48.455  44.252  1.00  0.00     0.005 C 
ATOM     35  C   UNL     1     -26.622  50.895  42.406  1.00  0.00     0.012 C 
ATOM     36  C   UNL     1     -25.676  48.732  41.252  1.00  0.00     0.024 C 
ATOM     37  C   UNL     1     -26.845  47.740  43.294  1.00  0.00     0.008 C 
ATOM     38  C   UNL     1     -26.311  47.375  41.864  1.00  0.00    -0.017 C 
ATOM     39  C   UNL     1     -26.375  49.215  40.021  1.00  0.00    -0.024 C 
ATOM     40  C   UNL     1     -25.149  46.369  42.123  1.00  0.00     0.013 C 
ATOM     41  C   UNL     1     -27.494  46.650  40.899  1.00  0.00     0.009 C 
ATOM     42  C   UNL     1     -27.678  49.001  39.972  1.00  0.00     0.005 C 
ATOM     43  C   UNL     1     -28.035  47.587  39.674  1.00  0.00     0.096 C 
ATOM     44  C   UNL     1     -27.011  45.288  40.262  1.00  0.00     0.043 C 
ATOM     45  C   UNL     1     -28.716  46.238  41.804  1.00  0.00     0.015 C 
ATOM     46  C   UNL     1     -27.510  47.129  38.286  1.00  0.00     0.037 C 
ATOM     47  O   UNL     1     -29.446  47.493  39.580  1.00  0.00    -0.369 OA
ATOM     48  C   UNL     1     -27.860  44.751  39.066  1.00  0.00     0.124 C 
ATOM     49  C   UNL     1     -28.397  45.899  38.115  1.00  0.00     0.026 C 
ATOM     50  C   UNL     1     -27.713  48.171  37.153  1.00  0.00     0.014 C 
ATOM     51  C   UNL     1     -29.732  46.483  38.628  1.00  0.00     0.171 C 
ATOM     52  C   UNL     1     -28.509  45.355  36.655  1.00  0.00     0.013 C 
ATOM     53  C   UNL     1     -27.543  47.561  35.742  1.00  0.00    -0.035 C 
ATOM     54  C   UNL     1     -28.604  46.445  35.576  1.00  0.00     0.007 C 
ATOM     55  C   UNL     1     -27.798  48.661  34.681  1.00  0.00     0.011 C 
ATOM     56  C   UNL     1     -26.110  47.014  35.535  1.00  0.00     0.011 C 
BRANCH  29  57
ATOM     57  C   UNL     1     -25.053  51.027  45.709  1.00  0.00     0.165 C 
BRANCH  57  58
ATOM     58  O   UNL     1     -24.389  51.169  46.942  1.00  0.00    -0.396 OA
ATOM     59  H   UNL     1     -23.647  50.511  46.967  1.00  0.00     0.210 HD
ENDBRANCH  57  58
ENDBRANCH  29  57
BRANCH  48  60
ATOM     60  O   UNL     1     -28.894  43.925  39.552  1.00  0.00    -0.392 OA
ATOM     61  H   UNL     1     -29.144  43.320  38.810  1.00  0.00     0.210 HD
ENDBRANCH  48  60
ENDBRANCH  26  27
ENDBRANCH   6  26
BRANCH   5  62
ATOM     62  O   UNL     1     -23.130  53.723  46.795  1.00  0.00    -0.385 OA
ATOM     63  H   UNL     1     -22.852  52.775  46.742  1.00  0.00     0.211 HD
ENDBRANCH   5  62
TORSDOF 14
ENDMDL
MODEL 2
REMARK VINA RESULT:    -4.645      1.577      2.305
REMARK INTER + INTRA:          -9.450
REMARK INTER:                  -6.650
REMARK INTRA:                  -2.800
REMARK UNBOUND:                -2.089
REMARK SMILES C[C@@H]1O[C@H](O[C@H]2CC[C@]3(C)[C@H](CC[C@]4(C)[C@H]3C=C[C@@]35OC[C@]6(CCC(C)(C)C[C@H]63)[C@H](O)C[C@@]45C)[C@]2(C)CO)[C@@H](O)[C@H](O[C@@H]2O[C@@H](CO)[C@@H](O)[C@@H](O)[C@H]2O)[C@@H]1O
REMARK SMILES IDX 1 1 2 2 54 3 41 4 39 5 4 6 3 7 55 8 42 10 43 11 52 12 44 13
REMARK SMILES IDX 50 14 45 15 48 16 53 17 51 19 46 21 47 22 49 24 5 26 6 27
REMARK SMILES IDX 7 28 35 29 8 30 11 31 36 32 9 33 12 34 10 35 16 36 13 37
REMARK SMILES IDX 14 38 17 39 15 40 33 41 18 42 19 43 32 44 34 45 29 46 20 47
REMARK SMILES IDX 30 48 22 49 28 50 21 51 23 52 25 53 24 54 26 55 27 56 37 57
REMARK SMILES IDX 38 58 31 60 40 62
REMARK H PARENT 55 9 53 18 51 20 47 23 49 25 38 59 31 61 40 63
REMARK Flexibility Score: inf
ROOT
ATOM      1  C   UNL     1     -24.456  56.013  41.312  1.00  0.00     0.041 C 
ATOM      2  C   UNL     1     -23.034  55.491  41.171  1.00  0.00     0.150 C 
ATOM      3  C   UNL     1     -21.978  56.412  41.864  1.00  0.00     0.175 C 
ATOM      4  C   UNL     1     -21.844  56.132  43.375  1.00  0.00     0.186 C 
ATOM      5  C   UNL     1     -21.783  54.600  43.647  1.00  0.00     0.202 C 
ATOM      6  C   UNL     1     -21.871  53.774  42.337  1.00  0.00     0.282 C 
ATOM      7  O   UNL     1     -23.037  54.133  41.621  1.00  0.00    -0.344 OA
ENDROOT
BRANCH   3   8
ATOM      8  O   UNL     1     -22.202  57.769  41.592  1.00  0.00    -0.388 OA
ATOM      9  H   UNL     1     -21.396  58.108  41.115  1.00  0.00     0.211 HD
ENDBRANCH   3   8
BRANCH   4  10
ATOM     10  O   UNL     1     -22.938  56.663  44.117  1.00  0.00    -0.341 OA
BRANCH  10  11
ATOM     11  C   UNL     1     -23.331  55.934  45.284  1.00  0.00     0.282 C 
ATOM     12  C   UNL     1     -22.730  56.425  46.646  1.00  0.00     0.202 C 
ATOM     13  O   UNL     1     -24.715  55.624  45.212  1.00  0.00    -0.341 OA
ATOM     14  C   UNL     1     -23.769  57.134  47.509  1.00  0.00     0.179 C 
ATOM     15  C   UNL     1     -25.586  55.794  46.333  1.00  0.00     0.178 C 
ATOM     16  C   UNL     1     -24.989  56.241  47.699  1.00  0.00     0.177 C 
BRANCH  12  17
ATOM     17  O   UNL     1     -22.138  55.366  47.376  1.00  0.00    -0.385 OA
ATOM     18  H   UNL     1     -21.340  55.040  46.872  1.00  0.00     0.211 HD
ENDBRANCH  12  17
BRANCH  14  19
ATOM     19  O   UNL     1     -23.186  57.480  48.735  1.00  0.00    -0.387 OA
ATOM     20  H   UNL     1     -23.643  58.301  49.081  1.00  0.00     0.211 HD
ENDBRANCH  14  19
BRANCH  15  21
ATOM     21  C   UNL     1     -26.485  54.544  46.426  1.00  0.00     0.191 C 
BRANCH  21  22
ATOM     22  O   UNL     1     -27.191  54.290  45.225  1.00  0.00    -0.394 OA
ATOM     23  H   UNL     1     -28.143  54.560  45.348  1.00  0.00     0.210 HD
ENDBRANCH  21  22
ENDBRANCH  15  21
BRANCH  16  24
ATOM     24  O   UNL     1     -24.710  55.156  48.562  1.00  0.00    -0.387 OA
ATOM     25  H   UNL     1     -25.269  54.392  48.254  1.00  0.00     0.211 HD
ENDBRANCH  16  24
ENDBRANCH  10  11
ENDBRANCH   4  10
BRANCH   6  26
ATOM     26  O   UNL     1     -21.956  52.396  42.685  1.00  0.00    -0.346 OA
BRANCH  26  27
ATOM     27  C   UNL     1     -23.134  51.772  42.182  1.00  0.00     0.130 C 
ATOM     28  C   UNL     1     -22.799  50.914  40.951  1.00  0.00     0.033 C 
ATOM     29  C   UNL     1     -23.806  50.884  43.293  1.00  0.00     0.020 C 
ATOM     30  C   UNL     1     -24.084  50.486  40.231  1.00  0.00     0.010 C 
ATOM     31  C   UNL     1     -24.659  49.704  42.634  1.00  0.00     0.006 C 
ATOM     32  C   UNL     1     -22.681  50.241  44.162  1.00  0.00     0.017 C 
ATOM     33  C   UNL     1     -25.209  49.925  41.183  1.00  0.00    -0.022 C 
ATOM     34  C   UNL     1     -25.702  49.040  43.581  1.00  0.00     0.005 C 
ATOM     35  C   UNL     1     -26.358  50.979  41.181  1.00  0.00     0.012 C 
ATOM     36  C   UNL     1     -25.672  48.508  40.611  1.00  0.00     0.024 C 
ATOM     37  C   UNL     1     -26.804  48.202  42.880  1.00  0.00     0.008 C 
ATOM     38  C   UNL     1     -26.387  47.427  41.581  1.00  0.00    -0.017 C 
ATOM     39  C   UNL     1     -26.397  48.720  39.319  1.00  0.00    -0.024 C 
ATOM     40  C   UNL     1     -25.304  46.412  42.058  1.00  0.00     0.013 C 
ATOM     41  C   UNL     1     -27.683  46.597  40.882  1.00  0.00     0.009 C 
ATOM     42  C   UNL     1     -27.714  48.631  39.372  1.00  0.00     0.005 C 
ATOM     43  C   UNL     1     -28.210  47.231  39.471  1.00  0.00     0.096 C 
ATOM     44  C   UNL     1     -27.358  45.074  40.613  1.00  0.00     0.043 C 
ATOM     45  C   UNL     1     -28.882  46.558  41.903  1.00  0.00     0.015 C 
ATOM     46  C   UNL     1     -27.808  46.378  38.237  1.00  0.00     0.037 C 
ATOM     47  O   UNL     1     -29.627  47.256  39.451  1.00  0.00    -0.369 OA
ATOM     48  C   UNL     1     -28.319  44.332  39.630  1.00  0.00     0.124 C 
ATOM     49  C   UNL     1     -28.807  45.240  38.427  1.00  0.00     0.026 C 
ATOM     50  C   UNL     1     -27.985  47.103  36.876  1.00  0.00     0.014 C 
ATOM     51  C   UNL     1     -30.055  46.068  38.811  1.00  0.00     0.171 C 
ATOM     52  C   UNL     1     -29.051  44.349  37.168  1.00  0.00     0.013 C 
ATOM     53  C   UNL     1     -27.951  46.133  35.672  1.00  0.00    -0.035 C 
ATOM     54  C   UNL     1     -29.113  45.124  35.843  1.00  0.00     0.007 C 
ATOM     55  C   UNL     1     -28.170  46.938  34.367  1.00  0.00     0.011 C 
ATOM     56  C   UNL     1     -26.585  45.412  35.570  1.00  0.00     0.011 C 
BRANCH  29  57
ATOM     57  C   UNL     1     -24.595  51.810  44.278  1.00  0.00     0.165 C 
BRANCH  57  58
ATOM     58  O   UNL     1     -24.927  53.065  43.732  1.00  0.00    -0.396 OA
ATOM     59  H   UNL     1     -25.337  53.612  44.451  1.00  0.00     0.210 HD
ENDBRANCH  57  58
ENDBRANCH  29  57
BRANCH  48  60
ATOM     60  O   UNL     1     -29.391  43.768  40.351  1.00  0.00    -0.392 OA
ATOM     61  H   UNL     1     -29.176  43.883  41.311  1.00  0.00     0.210 HD
ENDBRANCH  48  60
ENDBRANCH  26  27
ENDBRANCH   6  26
BRANCH   5  62
ATOM     62  O   UNL     1     -20.596  54.268  44.323  1.00  0.00    -0.385 OA
ATOM     63  H   UNL     1     -20.723  53.383  44.745  1.00  0.00     0.211 HD
ENDBRANCH   5  62
TORSDOF 14
ENDMDL
MODEL 3
REMARK VINA RESULT:    -4.635      2.633      3.944
REMARK INTER + INTRA:          -9.434
REMARK INTER:                  -6.781
REMARK INTRA:                  -2.652
REMARK UNBOUND:                -2.089
REMARK SMILES C[C@@H]1O[C@H](O[C@H]2CC[C@]3(C)[C@H](CC[C@]4(C)[C@H]3C=C[C@@]35OC[C@]6(CCC(C)(C)C[C@H]63)[C@H](O)C[C@@]45C)[C@]2(C)CO)[C@@H](O)[C@H](O[C@@H]2O[C@@H](CO)[C@@H](O)[C@@H](O)[C@H]2O)[C@@H]1O
REMARK SMILES IDX 1 1 2 2 54 3 41 4 39 5 4 6 3 7 55 8 42 10 43 11 52 12 44 13
REMARK SMILES IDX 50 14 45 15 48 16 53 17 51 19 46 21 47 22 49 24 5 26 6 27
REMARK SMILES IDX 7 28 35 29 8 30 11 31 36 32 9 33 12 34 10 35 16 36 13 37
REMARK SMILES IDX 14 38 17 39 15 40 33 41 18 42 19 43 32 44 34 45 29 46 20 47
REMARK SMILES IDX 30 48 22 49 28 50 21 51 23 52 25 53 24 54 26 55 27 56 37 57
REMARK SMILES IDX 38 58 31 60 40 62
REMARK H PARENT 55 9 53 18 51 20 47 23 49 25 38 59 31 61 40 63
REMARK Flexibility Score: inf
ROOT
ATOM      1  C   UNL     1     -19.816  51.835  43.357  1.00  0.00     0.041 C 
ATOM      2  C   UNL     1     -19.760  51.495  44.839  1.00  0.00     0.150 C 
ATOM      3  C   UNL     1     -20.128  52.708  45.754  1.00  0.00     0.175 C 
ATOM      4  C   UNL     1     -21.651  52.877  45.933  1.00  0.00     0.186 C 
ATOM      5  C   UNL     1     -22.329  51.504  46.216  1.00  0.00     0.202 C 
ATOM      6  C   UNL     1     -21.299  50.344  46.242  1.00  0.00     0.282 C 
ATOM      7  O   UNL     1     -20.564  50.327  45.033  1.00  0.00    -0.344 OA
ENDROOT
BRANCH   3   8
ATOM      8  O   UNL     1     -19.507  53.892  45.336  1.00  0.00    -0.388 OA
ATOM      9  H   UNL     1     -19.533  54.523  46.106  1.00  0.00     0.211 HD
ENDBRANCH   3   8
BRANCH   4  10
ATOM     10  O   UNL     1     -22.267  53.437  44.777  1.00  0.00    -0.341 OA
BRANCH  10  11
ATOM     11  C   UNL     1     -23.538  52.896  44.406  1.00  0.00     0.282 C 
ATOM     12  C   UNL     1     -24.795  53.542  45.085  1.00  0.00     0.202 C 
ATOM     13  O   UNL     1     -23.562  52.644  43.009  1.00  0.00    -0.341 OA
ATOM     14  C   UNL     1     -25.588  54.410  44.114  1.00  0.00     0.179 C 
ATOM     15  C   UNL     1     -24.680  53.006  42.195  1.00  0.00     0.178 C 
ATOM     16  C   UNL     1     -25.947  53.610  42.869  1.00  0.00     0.177 C 
BRANCH  12  17
ATOM     17  O   UNL     1     -25.644  52.568  45.664  1.00  0.00    -0.385 OA
ATOM     18  H   UNL     1     -25.822  52.826  46.613  1.00  0.00     0.211 HD
ENDBRANCH  12  17
BRANCH  14  19
ATOM     19  O   UNL     1     -26.731  54.895  44.763  1.00  0.00    -0.387 OA
ATOM     20  H   UNL     1     -27.468  54.227  44.647  1.00  0.00     0.211 HD
ENDBRANCH  14  19
BRANCH  15  21
ATOM     21  C   UNL     1     -24.981  51.825  41.250  1.00  0.00     0.191 C 
BRANCH  21  22
ATOM     22  O   UNL     1     -26.243  51.939  40.619  1.00  0.00    -0.394 OA
ATOM     23  H   UNL     1     -26.956  51.895  41.315  1.00  0.00     0.210 HD
ENDBRANCH  21  22
ENDBRANCH  15  21
BRANCH  16  24
ATOM     24  O   UNL     1     -26.943  52.643  43.140  1.00  0.00    -0.387 OA
ATOM     25  H   UNL     1     -26.710  51.834  42.609  1.00  0.00     0.211 HD
ENDBRANCH  16  24
ENDBRANCH  10  11
ENDBRANCH   4  10
BRANCH   6  26
ATOM     26  O   UNL     1     -22.014  49.118  46.357  1.00  0.00    -0.346 OA
BRANCH  26  27
ATOM     27  C   UNL     1     -23.109  49.031  45.450  1.00  0.00     0.130 C 
ATOM     28  C   UNL     1     -22.617  48.585  44.063  1.00  0.00     0.033 C 
ATOM     29  C   UNL     1     -24.192  48.025  45.988  1.00  0.00     0.020 C 
ATOM     30  C   UNL     1     -23.722  48.776  43.016  1.00  0.00     0.010 C 
ATOM     31  C   UNL     1     -25.035  47.404  44.780  1.00  0.00     0.006 C 
ATOM     32  C   UNL     1     -23.465  46.857  46.723  1.00  0.00     0.017 C 
ATOM     33  C   UNL     1     -25.138  48.238  43.457  1.00  0.00    -0.022 C 
ATOM     34  C   UNL     1     -26.390  46.754  45.191  1.00  0.00     0.005 C 
ATOM     35  C   UNL     1     -26.043  49.491  43.662  1.00  0.00     0.012 C 
ATOM     36  C   UNL     1     -25.675  47.271  42.305  1.00  0.00     0.024 C 
ATOM     37  C   UNL     1     -27.397  46.520  44.034  1.00  0.00     0.008 C 
ATOM     38  C   UNL     1     -26.796  46.151  42.633  1.00  0.00    -0.017 C 
ATOM     39  C   UNL     1     -25.986  48.089  41.092  1.00  0.00    -0.024 C 
ATOM     40  C   UNL     1     -26.070  44.790  42.861  1.00  0.00     0.013 C 
ATOM     41  C   UNL     1     -27.987  45.974  41.446  1.00  0.00     0.009 C 
ATOM     42  C   UNL     1     -27.266  48.334  40.870  1.00  0.00     0.005 C 
ATOM     43  C   UNL     1     -28.007  47.163  40.326  1.00  0.00     0.096 C 
ATOM     44  C   UNL     1     -27.874  44.604  40.668  1.00  0.00     0.043 C 
ATOM     45  C   UNL     1     -29.400  45.904  42.141  1.00  0.00     0.015 C 
ATOM     46  C   UNL     1     -27.450  46.705  38.950  1.00  0.00     0.037 C 
ATOM     47  O   UNL     1     -29.342  47.561  40.065  1.00  0.00    -0.369 OA
ATOM     48  C   UNL     1     -28.657  44.516  39.319  1.00  0.00     0.124 C 
ATOM     49  C   UNL     1     -28.647  45.872  38.499  1.00  0.00     0.026 C 
ATOM     50  C   UNL     1     -27.134  47.869  37.971  1.00  0.00     0.014 C 
ATOM     51  C   UNL     1     -29.787  46.814  38.947  1.00  0.00     0.171 C 
ATOM     52  C   UNL     1     -28.703  45.557  36.971  1.00  0.00     0.013 C 
ATOM     53  C   UNL     1     -26.955  47.391  36.511  1.00  0.00    -0.035 C 
ATOM     54  C   UNL     1     -28.279  46.722  36.065  1.00  0.00     0.007 C 
ATOM     55  C   UNL     1     -26.680  48.618  35.607  1.00  0.00     0.011 C 
ATOM     56  C   UNL     1     -25.758  46.418  36.381  1.00  0.00     0.011 C 
BRANCH  29  57
ATOM     57  C   UNL     1     -25.038  48.734  47.097  1.00  0.00     0.165 C 
BRANCH  57  58
ATOM     58  O   UNL     1     -25.347  50.076  46.804  1.00  0.00    -0.396 OA
ATOM     59  H   UNL     1     -25.667  50.505  47.639  1.00  0.00     0.210 HD
ENDBRANCH  57  58
ENDBRANCH  29  57
BRANCH  48  60
ATOM     60  O   UNL     1     -29.963  44.041  39.560  1.00  0.00    -0.392 OA
ATOM     61  H   UNL     1     -30.560  44.830  39.528  1.00  0.00     0.210 HD
ENDBRANCH  48  60
ENDBRANCH  26  27
ENDBRANCH   6  26
BRANCH   5  62
ATOM     62  O   UNL     1     -23.016  51.538  47.441  1.00  0.00    -0.385 OA
ATOM     63  H   UNL     1     -22.701  50.778  47.989  1.00  0.00     0.211 HD
ENDBRANCH   5  62
TORSDOF 14
ENDMDL
MODEL 4
REMARK VINA RESULT:    -4.486      1.752      2.812
REMARK INTER + INTRA:          -9.196
REMARK INTER:                  -6.915
REMARK INTRA:                  -2.281
REMARK UNBOUND:                -2.089
REMARK SMILES C[C@@H]1O[C@H](O[C@H]2CC[C@]3(C)[C@H](CC[C@]4(C)[C@H]3C=C[C@@]35OC[C@]6(CCC(C)(C)C[C@H]63)[C@H](O)C[C@@]45C)[C@]2(C)CO)[C@@H](O)[C@H](O[C@@H]2O[C@@H](CO)[C@@H](O)[C@@H](O)[C@H]2O)[C@@H]1O
REMARK SMILES IDX 1 1 2 2 54 3 41 4 39 5 4 6 3 7 55 8 42 10 43 11 52 12 44 13
REMARK SMILES IDX 50 14 45 15 48 16 53 17 51 19 46 21 47 22 49 24 5 26 6 27
REMARK SMILES IDX 7 28 35 29 8 30 11 31 36 32 9 33 12 34 10 35 16 36 13 37
REMARK SMILES IDX 14 38 17 39 15 40 33 41 18 42 19 43 32 44 34 45 29 46 20 47
REMARK SMILES IDX 30 48 22 49 28 50 21 51 23 52 25 53 24 54 26 55 27 56 37 57
REMARK SMILES IDX 38 58 31 60 40 62
REMARK H PARENT 55 9 53 18 51 20 47 23 49 25 38 59 31 61 40 63
REMARK Flexibility Score: inf
ROOT
ATOM      1  C   UNL     1     -20.063  52.266  43.055  1.00  0.00     0.041 C 
ATOM      2  C   UNL     1     -20.020  51.963  44.544  1.00  0.00     0.150 C 
ATOM      3  C   UNL     1     -20.497  53.165  45.422  1.00  0.00     0.175 C 
ATOM      4  C   UNL     1     -22.032  53.225  45.563  1.00  0.00     0.186 C 
ATOM      5  C   UNL     1     -22.614  51.812  45.862  1.00  0.00     0.202 C 
ATOM      6  C   UNL     1     -21.503  50.732  45.939  1.00  0.00     0.282 C 
ATOM      7  O   UNL     1     -20.740  50.744  44.748  1.00  0.00    -0.344 OA
ENDROOT
BRANCH   3   8
ATOM      8  O   UNL     1     -19.954  54.382  44.991  1.00  0.00    -0.388 OA
ATOM      9  H   UNL     1     -20.212  54.494  44.034  1.00  0.00     0.211 HD
ENDBRANCH   3   8
BRANCH   4  10
ATOM     10  O   UNL     1     -22.659  53.713  44.381  1.00  0.00    -0.341 OA
BRANCH  10  11
ATOM     11  C   UNL     1     -23.882  54.436  44.558  1.00  0.00     0.282 C 
ATOM     12  C   UNL     1     -25.189  53.722  44.071  1.00  0.00     0.202 C 
ATOM     13  O   UNL     1     -23.878  55.081  45.823  1.00  0.00    -0.341 OA
ATOM     14  C   UNL     1     -26.044  53.235  45.236  1.00  0.00     0.179 C 
ATOM     15  C   UNL     1     -25.017  55.056  46.687  1.00  0.00     0.178 C 
ATOM     16  C   UNL     1     -26.331  54.385  46.193  1.00  0.00     0.177 C 
BRANCH  12  17
ATOM     17  O   UNL     1     -25.961  54.552  43.221  1.00  0.00    -0.385 OA
ATOM     18  H   UNL     1     -25.848  54.235  42.281  1.00  0.00     0.211 HD
ENDBRANCH  12  17
BRANCH  14  19
ATOM     19  O   UNL     1     -27.226  52.675  44.733  1.00  0.00    -0.387 OA
ATOM     20  H   UNL     1     -27.114  52.533  43.749  1.00  0.00     0.211 HD
ENDBRANCH  14  19
BRANCH  15  21
ATOM     21  C   UNL     1     -25.217  56.479  47.247  1.00  0.00     0.191 C 
BRANCH  21  22
ATOM     22  O   UNL     1     -25.572  57.414  46.246  1.00  0.00    -0.394 OA
ATOM     23  H   UNL     1     -25.883  58.254  46.685  1.00  0.00     0.210 HD
ENDBRANCH  21  22
ENDBRANCH  15  21
BRANCH  16  24
ATOM     24  O   UNL     1     -27.248  55.308  45.637  1.00  0.00    -0.387 OA
ATOM     25  H   UNL     1     -27.127  56.164  46.130  1.00  0.00     0.211 HD
ENDBRANCH  16  24
ENDBRANCH  10  11
ENDBRANCH   4  10
BRANCH   6  26
ATOM     26  O   UNL     1     -22.128  49.459  46.067  1.00  0.00    -0.346 OA
BRANCH  26  27
ATOM     27  C   UNL     1     -23.232  49.296  45.181  1.00  0.00     0.130 C 
ATOM     28  C   UNL     1     -22.749  48.768  43.819  1.00  0.00     0.033 C 
ATOM     29  C   UNL     1     -24.293  48.311  45.796  1.00  0.00     0.020 C 
ATOM     30  C   UNL     1     -23.870  48.874  42.777  1.00  0.00     0.010 C 
ATOM     31  C   UNL     1     -25.140  47.599  44.642  1.00  0.00     0.006 C 
ATOM     32  C   UNL     1     -23.538  47.204  46.596  1.00  0.00     0.017 C 
ATOM     33  C   UNL     1     -25.271  48.344  43.269  1.00  0.00    -0.022 C 
ATOM     34  C   UNL     1     -26.478  46.956  45.112  1.00  0.00     0.005 C 
ATOM     35  C   UNL     1     -26.195  49.593  43.404  1.00  0.00     0.012 C 
ATOM     36  C   UNL     1     -25.805  47.296  42.189  1.00  0.00     0.024 C 
ATOM     37  C   UNL     1     -27.495  46.632  43.985  1.00  0.00     0.008 C 
ATOM     38  C   UNL     1     -26.904  46.181  42.603  1.00  0.00    -0.017 C 
ATOM     39  C   UNL     1     -26.144  48.028  40.930  1.00  0.00    -0.024 C 
ATOM     40  C   UNL     1     -26.153  44.850  42.910  1.00  0.00     0.013 C 
ATOM     41  C   UNL     1     -28.105  45.909  41.446  1.00  0.00     0.009 C 
ATOM     42  C   UNL     1     -27.430  48.237  40.708  1.00  0.00     0.005 C 
ATOM     43  C   UNL     1     -28.158  47.023  40.251  1.00  0.00     0.096 C 
ATOM     44  C   UNL     1     -27.979  44.494  40.756  1.00  0.00     0.043 C 
ATOM     45  C   UNL     1     -29.509  45.863  42.161  1.00  0.00     0.015 C 
ATOM     46  C   UNL     1     -27.609  46.485  38.900  1.00  0.00     0.037 C 
ATOM     47  O   UNL     1     -29.502  47.381  39.982  1.00  0.00    -0.369 OA
ATOM     48  C   UNL     1     -28.776  44.305  39.426  1.00  0.00     0.124 C 
ATOM     49  C   UNL     1     -28.797  45.605  38.520  1.00  0.00     0.026 C 
ATOM     50  C   UNL     1     -27.324  47.587  37.845  1.00  0.00     0.014 C 
ATOM     51  C   UNL     1     -29.947  46.557  38.920  1.00  0.00     0.171 C 
ATOM     52  C   UNL     1     -28.866  45.190  37.016  1.00  0.00     0.013 C 
ATOM     53  C   UNL     1     -27.154  47.018  36.417  1.00  0.00    -0.035 C 
ATOM     54  C   UNL     1     -28.472  46.301  36.031  1.00  0.00     0.007 C 
ATOM     55  C   UNL     1     -26.909  48.188  35.431  1.00  0.00     0.011 C 
ATOM     56  C   UNL     1     -25.943  46.057  36.335  1.00  0.00     0.011 C 
BRANCH  29  57
ATOM     57  C   UNL     1     -25.138  49.077  46.868  1.00  0.00     0.165 C 
BRANCH  57  58
ATOM     58  O   UNL     1     -24.418  49.393  48.036  1.00  0.00    -0.396 OA
ATOM     59  H   UNL     1     -24.149  48.542  48.470  1.00  0.00     0.210 HD
ENDBRANCH  57  58
ENDBRANCH  29  57
BRANCH  48  60
ATOM     60  O   UNL     1     -30.070  43.826  39.714  1.00  0.00    -0.392 OA
ATOM     61  H   UNL     1     -30.249  43.094  39.072  1.00  0.00     0.210 HD
ENDBRANCH  48  60
ENDBRANCH  26  27
ENDBRANCH   6  26
BRANCH   5  62
ATOM     62  O   UNL     1     -23.332  51.822  47.070  1.00  0.00    -0.385 OA
ATOM     63  H   UNL     1     -23.483  52.765  47.328  1.00  0.00     0.211 HD
ENDBRANCH   5  62
TORSDOF 14
ENDMDL
MODEL 5
REMARK VINA RESULT:    -4.475      3.640     11.789
REMARK INTER + INTRA:          -9.180
REMARK INTER:                  -8.229
REMARK INTRA:                  -0.951
REMARK UNBOUND:                -2.089
REMARK SMILES C[C@@H]1O[C@H](O[C@H]2CC[C@]3(C)[C@H](CC[C@]4(C)[C@H]3C=C[C@@]35OC[C@]6(CCC(C)(C)C[C@H]63)[C@H](O)C[C@@]45C)[C@]2(C)CO)[C@@H](O)[C@H](O[C@@H]2O[C@@H](CO)[C@@H](O)[C@@H](O)[C@H]2O)[C@@H]1O
REMARK SMILES IDX 1 1 2 2 54 3 41 4 39 5 4 6 3 7 55 8 42 10 43 11 52 12 44 13
REMARK SMILES IDX 50 14 45 15 48 16 53 17 51 19 46 21 47 22 49 24 5 26 6 27
REMARK SMILES IDX 7 28 35 29 8 30 11 31 36 32 9 33 12 34 10 35 16 36 13 37
REMARK SMILES IDX 14 38 17 39 15 40 33 41 18 42 19 43 32 44 34 45 29 46 20 47
REMARK SMILES IDX 30 48 22 49 28 50 21 51 23 52 25 53 24 54 26 55 27 56 37 57
REMARK SMILES IDX 38 58 31 60 40 62
REMARK H PARENT 55 9 53 18 51 20 47 23 49 25 38 59 31 61 40 63
REMARK Flexibility Score: inf
ROOT
ATOM      1  C   UNL     1     -29.756  45.202  33.396  1.00  0.00     0.041 C 
ATOM      2  C   UNL     1     -28.512  45.353  34.257  1.00  0.00     0.150 C 
ATOM      3  C   UNL     1     -27.494  46.387  33.677  1.00  0.00     0.175 C 
ATOM      4  C   UNL     1     -27.837  47.840  34.064  1.00  0.00     0.186 C 
ATOM      5  C   UNL     1     -28.211  47.936  35.572  1.00  0.00     0.202 C 
ATOM      6  C   UNL     1     -28.138  46.555  36.276  1.00  0.00     0.282 C 
ATOM      7  O   UNL     1     -28.954  45.624  35.591  1.00  0.00    -0.344 OA
ENDROOT
BRANCH   3   8
ATOM      8  O   UNL     1     -27.313  46.232  32.297  1.00  0.00    -0.388 OA
ATOM      9  H   UNL     1     -27.558  45.292  32.074  1.00  0.00     0.211 HD
ENDBRANCH   3   8
BRANCH   4  10
ATOM     10  O   UNL     1     -28.932  48.350  33.309  1.00  0.00    -0.341 OA
BRANCH  10  11
ATOM     11  C   UNL     1     -28.675  49.512  32.515  1.00  0.00     0.282 C 
ATOM     12  C   UNL     1     -29.062  50.891  33.153  1.00  0.00     0.202 C 
ATOM     13  O   UNL     1     -27.418  49.381  31.867  1.00  0.00    -0.341 OA
ATOM     14  C   UNL     1     -27.836  51.688  33.585  1.00  0.00     0.179 C 
ATOM     15  C   UNL     1     -26.476  50.455  31.822  1.00  0.00     0.178 C 
ATOM     16  C   UNL     1     -26.871  51.838  32.416  1.00  0.00     0.177 C 
BRANCH  12  17
ATOM     17  O   UNL     1     -29.863  51.671  32.283  1.00  0.00    -0.385 OA
ATOM     18  H   UNL     1     -29.699  52.636  32.482  1.00  0.00     0.211 HD
ENDBRANCH  12  17
BRANCH  14  19
ATOM     19  O   UNL     1     -28.250  52.933  34.077  1.00  0.00    -0.387 OA
ATOM     20  H   UNL     1     -29.082  53.204  33.590  1.00  0.00     0.211 HD
ENDBRANCH  14  19
BRANCH  15  21
ATOM     21  C   UNL     1     -25.915  50.532  30.387  1.00  0.00     0.191 C 
BRANCH  21  22
ATOM     22  O   UNL     1     -25.016  51.612  30.211  1.00  0.00    -0.394 OA
ATOM     23  H   UNL     1     -25.174  52.018  29.314  1.00  0.00     0.210 HD
ENDBRANCH  21  22
ENDBRANCH  15  21
BRANCH  16  24
ATOM     24  O   UNL     1     -27.368  52.737  31.444  1.00  0.00    -0.387 OA
ATOM     25  H   UNL     1     -26.589  53.027  30.896  1.00  0.00     0.211 HD
ENDBRANCH  16  24
ENDBRANCH  10  11
ENDBRANCH   4  10
BRANCH   6  26
ATOM     26  O   UNL     1     -28.634  46.705  37.602  1.00  0.00    -0.346 OA
BRANCH  26  27
ATOM     27  C   UNL     1     -27.711  47.364  38.464  1.00  0.00     0.130 C 
ATOM     28  C   UNL     1     -28.416  48.490  39.240  1.00  0.00     0.033 C 
ATOM     29  C   UNL     1     -27.066  46.339  39.468  1.00  0.00     0.020 C 
ATOM     30  C   UNL     1     -27.385  49.388  39.935  1.00  0.00     0.010 C 
ATOM     31  C   UNL     1     -26.597  47.078  40.807  1.00  0.00     0.006 C 
ATOM     32  C   UNL     1     -28.141  45.276  39.853  1.00  0.00     0.017 C 
ATOM     33  C   UNL     1     -26.260  48.606  40.716  1.00  0.00    -0.022 C 
ATOM     34  C   UNL     1     -25.574  46.283  41.671  1.00  0.00     0.005 C 
ATOM     35  C   UNL     1     -24.933  48.834  39.929  1.00  0.00     0.012 C 
ATOM     36  C   UNL     1     -26.203  49.186  42.203  1.00  0.00     0.024 C 
ATOM     37  C   UNL     1     -24.802  47.117  42.727  1.00  0.00     0.008 C 
ATOM     38  C   UNL     1     -25.579  48.299  43.405  1.00  0.00    -0.017 C 
ATOM     39  C   UNL     1     -25.673  50.585  42.157  1.00  0.00    -0.024 C 
ATOM     40  C   UNL     1     -26.756  47.614  44.163  1.00  0.00     0.013 C 
ATOM     41  C   UNL     1     -24.618  49.162  44.495  1.00  0.00     0.009 C 
ATOM     42  C   UNL     1     -24.413  50.740  42.523  1.00  0.00     0.005 C 
ATOM     43  C   UNL     1     -24.209  50.664  43.995  1.00  0.00     0.096 C 
ATOM     44  C   UNL     1     -25.292  49.314  45.915  1.00  0.00     0.043 C 
ATOM     45  C   UNL     1     -23.302  48.345  44.781  1.00  0.00     0.015 C 
ATOM     46  C   UNL     1     -24.978  51.782  44.752  1.00  0.00     0.037 C 
ATOM     47  O   UNL     1     -22.842  50.910  44.271  1.00  0.00    -0.369 OA
ATOM     48  C   UNL     1     -24.682  50.406  46.851  1.00  0.00     0.124 C 
ATOM     49  C   UNL     1     -24.220  51.708  46.074  1.00  0.00     0.026 C 
ATOM     50  C   UNL     1     -24.881  53.182  44.088  1.00  0.00     0.014 C 
ATOM     51  C   UNL     1     -22.782  51.562  45.527  1.00  0.00     0.171 C 
ATOM     52  C   UNL     1     -24.378  52.953  47.004  1.00  0.00     0.013 C 
ATOM     53  C   UNL     1     -25.313  54.324  45.036  1.00  0.00    -0.035 C 
ATOM     54  C   UNL     1     -24.375  54.301  46.268  1.00  0.00     0.007 C 
ATOM     55  C   UNL     1     -25.150  55.680  44.304  1.00  0.00     0.011 C 
ATOM     56  C   UNL     1     -26.798  54.178  45.452  1.00  0.00     0.011 C 
BRANCH  29  57
ATOM     57  C   UNL     1     -25.950  45.532  38.725  1.00  0.00     0.165 C 
BRANCH  57  58
ATOM     58  O   UNL     1     -26.413  44.343  38.130  1.00  0.00    -0.396 OA
ATOM     59  H   UNL     1     -25.774  43.619  38.358  1.00  0.00     0.210 HD
ENDBRANCH  57  58
ENDBRANCH  29  57
BRANCH  48  60
ATOM     60  O   UNL     1     -23.647  49.843  47.624  1.00  0.00    -0.392 OA
ATOM     61  H   UNL     1     -23.357  49.022  47.152  1.00  0.00     0.210 HD
ENDBRANCH  48  60
ENDBRANCH  26  27
ENDBRANCH   6  26
BRANCH   5  62
ATOM     62  O   UNL     1     -27.360  48.837  36.234  1.00  0.00    -0.385 OA
ATOM     63  H   UNL     1     -27.334  49.674  35.708  1.00  0.00     0.211 HD
ENDBRANCH   5  62
TORSDOF 14
ENDMDL
MODEL 6
REMARK VINA RESULT:    -4.298      3.479     12.142
REMARK INTER + INTRA:          -8.900
REMARK INTER:                  -6.895
REMARK INTRA:                  -2.005
REMARK UNBOUND:                -2.089
REMARK SMILES C[C@@H]1O[C@H](O[C@H]2CC[C@]3(C)[C@H](CC[C@]4(C)[C@H]3C=C[C@@]35OC[C@]6(CCC(C)(C)C[C@H]63)[C@H](O)C[C@@]45C)[C@]2(C)CO)[C@@H](O)[C@H](O[C@@H]2O[C@@H](CO)[C@@H](O)[C@@H](O)[C@H]2O)[C@@H]1O
REMARK SMILES IDX 1 1 2 2 54 3 41 4 39 5 4 6 3 7 55 8 42 10 43 11 52 12 44 13
REMARK SMILES IDX 50 14 45 15 48 16 53 17 51 19 46 21 47 22 49 24 5 26 6 27
REMARK SMILES IDX 7 28 35 29 8 30 11 31 36 32 9 33 12 34 10 35 16 36 13 37
REMARK SMILES IDX 14 38 17 39 15 40 33 41 18 42 19 43 32 44 34 45 29 46 20 47
REMARK SMILES IDX 30 48 22 49 28 50 21 51 23 52 25 53 24 54 26 55 27 56 37 57
REMARK SMILES IDX 38 58 31 60 40 62
REMARK H PARENT 55 9 53 18 51 20 47 23 49 25 38 59 31 61 40 63
REMARK Flexibility Score: inf
ROOT
ATOM      1  C   UNL     1     -23.295  47.413  34.920  1.00  0.00     0.041 C 
ATOM      2  C   UNL     1     -23.762  48.571  35.789  1.00  0.00     0.150 C 
ATOM      3  C   UNL     1     -24.940  49.373  35.148  1.00  0.00     0.175 C 
ATOM      4  C   UNL     1     -26.315  48.726  35.414  1.00  0.00     0.186 C 
ATOM      5  C   UNL     1     -26.439  48.290  36.904  1.00  0.00     0.202 C 
ATOM      6  C   UNL     1     -25.158  48.622  37.714  1.00  0.00     0.282 C 
ATOM      7  O   UNL     1     -24.031  48.038  37.089  1.00  0.00    -0.344 OA
ENDROOT
BRANCH   3   8
ATOM      8  O   UNL     1     -24.727  49.628  33.787  1.00  0.00    -0.388 OA
ATOM      9  H   UNL     1     -24.631  48.745  33.336  1.00  0.00     0.211 HD
ENDBRANCH   3   8
BRANCH   4  10
ATOM     10  O   UNL     1     -26.530  47.574  34.604  1.00  0.00    -0.341 OA
BRANCH  10  11
ATOM     11  C   UNL     1     -27.492  47.705  33.552  1.00  0.00     0.282 C 
ATOM     12  C   UNL     1     -28.816  48.463  33.911  1.00  0.00     0.202 C 
ATOM     13  O   UNL     1     -26.831  48.010  32.333  1.00  0.00    -0.341 OA
ATOM     14  C   UNL     1     -28.872  49.850  33.279  1.00  0.00     0.179 C 
ATOM     15  C   UNL     1     -27.312  49.023  31.446  1.00  0.00     0.178 C 
ATOM     16  C   UNL     1     -28.648  49.750  31.776  1.00  0.00     0.177 C 
BRANCH  12  17
ATOM     17  O   UNL     1     -29.966  47.721  33.548  1.00  0.00    -0.385 OA
ATOM     18  H   UNL     1     -30.712  48.361  33.364  1.00  0.00     0.211 HD
ENDBRANCH  12  17
BRANCH  14  19
ATOM     19  O   UNL     1     -30.107  50.440  33.579  1.00  0.00    -0.387 OA
ATOM     20  H   UNL     1     -30.650  50.480  32.739  1.00  0.00     0.211 HD
ENDBRANCH  14  19
BRANCH  15  21
ATOM     21  C   UNL     1     -27.245  48.465  30.010  1.00  0.00     0.191 C 
BRANCH  21  22
ATOM     22  O   UNL     1     -27.910  47.222  29.876  1.00  0.00    -0.394 OA
ATOM     23  H   UNL     1     -27.333  46.505  30.259  1.00  0.00     0.210 HD
ENDBRANCH  21  22
ENDBRANCH  15  21
BRANCH  16  24
ATOM     24  O   UNL     1     -29.764  49.180  31.120  1.00  0.00    -0.387 OA
ATOM     25  H   UNL     1     -30.439  48.980  31.824  1.00  0.00     0.211 HD
ENDBRANCH  16  24
ENDBRANCH  10  11
ENDBRANCH   4  10
BRANCH   6  26
ATOM     26  O   UNL     1     -25.298  48.061  39.016  1.00  0.00    -0.346 OA
BRANCH  26  27
ATOM     27  C   UNL     1     -24.810  48.921  40.041  1.00  0.00     0.130 C 
ATOM     28  C   UNL     1     -24.859  50.387  39.577  1.00  0.00     0.033 C 
ATOM     29  C   UNL     1     -25.652  48.744  41.358  1.00  0.00     0.020 C 
ATOM     30  C   UNL     1     -24.067  51.280  40.540  1.00  0.00     0.010 C 
ATOM     31  C   UNL     1     -25.606  50.076  42.242  1.00  0.00     0.006 C 
ATOM     32  C   UNL     1     -27.138  48.474  40.965  1.00  0.00     0.017 C 
ATOM     33  C   UNL     1     -24.372  51.025  42.066  1.00  0.00    -0.022 C 
ATOM     34  C   UNL     1     -26.019  49.889  43.732  1.00  0.00     0.005 C 
ATOM     35  C   UNL     1     -23.088  50.381  42.673  1.00  0.00     0.012 C 
ATOM     36  C   UNL     1     -24.732  52.430  42.734  1.00  0.00     0.024 C 
ATOM     37  C   UNL     1     -25.598  51.035  44.690  1.00  0.00     0.008 C 
ATOM     38  C   UNL     1     -25.599  52.489  44.101  1.00  0.00    -0.017 C 
ATOM     39  C   UNL     1     -23.500  53.278  42.773  1.00  0.00    -0.024 C 
ATOM     40  C   UNL     1     -27.086  52.760  43.721  1.00  0.00     0.013 C 
ATOM     41  C   UNL     1     -25.073  53.639  45.222  1.00  0.00     0.009 C 
ATOM     42  C   UNL     1     -22.900  53.377  43.946  1.00  0.00     0.005 C 
ATOM     43  C   UNL     1     -23.604  54.278  44.898  1.00  0.00     0.096 C 
ATOM     44  C   UNL     1     -26.081  54.847  45.375  1.00  0.00     0.043 C 
ATOM     45  C   UNL     1     -25.040  52.985  46.655  1.00  0.00     0.015 C 
ATOM     46  C   UNL     1     -23.683  55.738  44.374  1.00  0.00     0.037 C 
ATOM     47  O   UNL     1     -22.838  54.358  46.088  1.00  0.00    -0.369 OA
ATOM     48  C   UNL     1     -25.516  56.127  46.070  1.00  0.00     0.124 C 
ATOM     49  C   UNL     1     -24.005  56.426  45.698  1.00  0.00     0.026 C 
ATOM     50  C   UNL     1     -22.366  56.259  43.739  1.00  0.00     0.014 C 
ATOM     51  C   UNL     1     -23.031  55.657  46.619  1.00  0.00     0.171 C 
ATOM     52  C   UNL     1     -23.757  57.968  45.727  1.00  0.00     0.013 C 
ATOM     53  C   UNL     1     -22.344  57.797  43.581  1.00  0.00    -0.035 C 
ATOM     54  C   UNL     1     -22.488  58.421  44.991  1.00  0.00     0.007 C 
ATOM     55  C   UNL     1     -20.984  58.225  42.975  1.00  0.00     0.011 C 
ATOM     56  C   UNL     1     -23.468  58.280  42.631  1.00  0.00     0.011 C 
BRANCH  29  57
ATOM     57  C   UNL     1     -25.186  47.441  42.089  1.00  0.00     0.165 C 
BRANCH  57  58
ATOM     58  O   UNL     1     -24.575  46.501  41.237  1.00  0.00    -0.396 OA
ATOM     59  H   UNL     1     -25.247  45.805  41.019  1.00  0.00     0.210 HD
ENDBRANCH  57  58
ENDBRANCH  29  57
BRANCH  48  60
ATOM     60  O   UNL     1     -25.723  56.040  47.462  1.00  0.00    -0.392 OA
ATOM     61  H   UNL     1     -25.369  55.159  47.744  1.00  0.00     0.210 HD
ENDBRANCH  48  60
ENDBRANCH  26  27
ENDBRANCH   6  26
BRANCH   5  62
ATOM     62  O   UNL     1     -27.543  48.915  37.509  1.00  0.00    -0.385 OA
ATOM     63  H   UNL     1     -27.436  49.892  37.401  1.00  0.00     0.211 HD
ENDBRANCH   5  62
TORSDOF 14
ENDMDL
MODEL 7
REMARK VINA RESULT:    -4.233      2.929      6.450
REMARK INTER + INTRA:          -8.796
REMARK INTER:                  -7.120
REMARK INTRA:                  -1.676
REMARK UNBOUND:                -2.089
REMARK SMILES C[C@@H]1O[C@H](O[C@H]2CC[C@]3(C)[C@H](CC[C@]4(C)[C@H]3C=C[C@@]35OC[C@]6(CCC(C)(C)C[C@H]63)[C@H](O)C[C@@]45C)[C@]2(C)CO)[C@@H](O)[C@H](O[C@@H]2O[C@@H](CO)[C@@H](O)[C@@H](O)[C@H]2O)[C@@H]1O
REMARK SMILES IDX 1 1 2 2 54 3 41 4 39 5 4 6 3 7 55 8 42 10 43 11 52 12 44 13
REMARK SMILES IDX 50 14 45 15 48 16 53 17 51 19 46 21 47 22 49 24 5 26 6 27
REMARK SMILES IDX 7 28 35 29 8 30 11 31 36 32 9 33 12 34 10 35 16 36 13 37
REMARK SMILES IDX 14 38 17 39 15 40 33 41 18 42 19 43 32 44 34 45 29 46 20 47
REMARK SMILES IDX 30 48 22 49 28 50 21 51 23 52 25 53 24 54 26 55 27 56 37 57
REMARK SMILES IDX 38 58 31 60 40 62
REMARK H PARENT 55 9 53 18 51 20 47 23 49 25 38 59 31 61 40 63
REMARK Flexibility Score: inf
ROOT
ATOM      1  C   UNL     1     -21.865  48.614  41.799  1.00  0.00     0.041 C 
ATOM      2  C   UNL     1     -22.635  47.906  42.903  1.00  0.00     0.150 C 
ATOM      3  C   UNL     1     -23.233  48.894  43.956  1.00  0.00     0.175 C 
ATOM      4  C   UNL     1     -24.583  49.492  43.510  1.00  0.00     0.186 C 
ATOM      5  C   UNL     1     -25.509  48.386  42.923  1.00  0.00     0.202 C 
ATOM      6  C   UNL     1     -24.830  46.991  42.945  1.00  0.00     0.282 C 
ATOM      7  O   UNL     1     -23.590  47.050  42.268  1.00  0.00    -0.344 OA
ENDROOT
BRANCH   3   8
ATOM      8  O   UNL     1     -22.313  49.880  44.335  1.00  0.00    -0.388 OA
ATOM      9  H   UNL     1     -22.458  50.662  43.734  1.00  0.00     0.211 HD
ENDBRANCH   3   8
BRANCH   4  10
ATOM     10  O   UNL     1     -24.420  50.498  42.514  1.00  0.00    -0.341 OA
BRANCH  10  11
ATOM     11  C   UNL     1     -24.795  51.829  42.885  1.00  0.00     0.282 C 
ATOM     12  C   UNL     1     -26.330  52.100  43.047  1.00  0.00     0.202 C 
ATOM     13  O   UNL     1     -23.900  52.322  43.870  1.00  0.00    -0.341 OA
ATOM     14  C   UNL     1     -26.734  52.255  44.509  1.00  0.00     0.179 C 
ATOM     15  C   UNL     1     -24.362  53.017  45.031  1.00  0.00     0.178 C 
ATOM     16  C   UNL     1     -25.880  53.325  45.177  1.00  0.00     0.177 C 
BRANCH  12  17
ATOM     17  O   UNL     1     -26.749  53.233  42.308  1.00  0.00    -0.385 OA
ATOM     18  H   UNL     1     -27.213  52.919  41.481  1.00  0.00     0.211 HD
ENDBRANCH  12  17
BRANCH  14  19
ATOM     19  O   UNL     1     -28.098  52.566  44.576  1.00  0.00    -0.387 OA
ATOM     20  H   UNL     1     -28.598  51.928  43.988  1.00  0.00     0.211 HD
ENDBRANCH  14  19
BRANCH  15  21
ATOM     21  C   UNL     1     -23.454  54.246  45.239  1.00  0.00     0.191 C 
BRANCH  21  22
ATOM     22  O   UNL     1     -23.409  55.089  44.103  1.00  0.00    -0.394 OA
ATOM     23  H   UNL     1     -23.531  54.533  43.285  1.00  0.00     0.210 HD
ENDBRANCH  21  22
ENDBRANCH  15  21
BRANCH  16  24
ATOM     24  O   UNL     1     -26.227  54.621  44.729  1.00  0.00    -0.387 OA
ATOM     25  H   UNL     1     -26.548  54.525  43.792  1.00  0.00     0.211 HD
ENDBRANCH  16  24
ENDBRANCH  10  11
ENDBRANCH   4  10
BRANCH   6  26
ATOM     26  O   UNL     1     -25.679  46.074  42.261  1.00  0.00    -0.346 OA
BRANCH  26  27
ATOM     27  C   UNL     1     -26.230  46.618  41.066  1.00  0.00     0.130 C 
ATOM     28  C   UNL     1     -25.128  46.808  40.010  1.00  0.00     0.033 C 
ATOM     29  C   UNL     1     -27.361  45.682  40.503  1.00  0.00     0.020 C 
ATOM     30  C   UNL     1     -25.645  47.661  38.844  1.00  0.00     0.010 C 
ATOM     31  C   UNL     1     -27.512  45.865  38.922  1.00  0.00     0.006 C 
ATOM     32  C   UNL     1     -26.965  44.199  40.783  1.00  0.00     0.017 C 
ATOM     33  C   UNL     1     -27.062  47.231  38.300  1.00  0.00    -0.022 C 
ATOM     34  C   UNL     1     -28.853  45.342  38.326  1.00  0.00     0.005 C 
ATOM     35  C   UNL     1     -28.051  48.371  38.692  1.00  0.00     0.012 C 
ATOM     36  C   UNL     1     -26.941  47.037  36.719  1.00  0.00     0.024 C 
ATOM     37  C   UNL     1     -29.201  45.864  36.907  1.00  0.00     0.008 C 
ATOM     38  C   UNL     1     -28.002  46.108  35.925  1.00  0.00    -0.017 C 
ATOM     39  C   UNL     1     -26.724  48.373  36.082  1.00  0.00    -0.024 C 
ATOM     40  C   UNL     1     -27.362  44.700  35.728  1.00  0.00     0.013 C 
ATOM     41  C   UNL     1     -28.504  46.725  34.434  1.00  0.00     0.009 C 
ATOM     42  C   UNL     1     -27.776  48.910  35.489  1.00  0.00     0.005 C 
ATOM     43  C   UNL     1     -28.099  48.287  34.176  1.00  0.00     0.096 C 
ATOM     44  C   UNL     1     -27.947  45.893  33.211  1.00  0.00     0.043 C 
ATOM     45  C   UNL     1     -30.069  46.578  34.315  1.00  0.00     0.015 C 
ATOM     46  C   UNL     1     -26.943  48.449  33.151  1.00  0.00     0.037 C 
ATOM     47  O   UNL     1     -29.193  48.983  33.607  1.00  0.00    -0.369 OA
ATOM     48  C   UNL     1     -28.020  46.593  31.816  1.00  0.00     0.124 C 
ATOM     49  C   UNL     1     -27.738  48.150  31.882  1.00  0.00     0.026 C 
ATOM     50  C   UNL     1     -26.303  49.864  33.132  1.00  0.00     0.014 C 
ATOM     51  C   UNL     1     -29.023  48.947  32.202  1.00  0.00     0.171 C 
ATOM     52  C   UNL     1     -27.067  48.615  30.550  1.00  0.00     0.013 C 
ATOM     53  C   UNL     1     -25.444  50.115  31.871  1.00  0.00    -0.035 C 
ATOM     54  C   UNL     1     -26.365  49.978  30.634  1.00  0.00     0.007 C 
ATOM     55  C   UNL     1     -24.878  51.556  31.923  1.00  0.00     0.011 C 
ATOM     56  C   UNL     1     -24.251  49.131  31.800  1.00  0.00     0.011 C 
BRANCH  29  57
ATOM     57  C   UNL     1     -28.670  45.911  41.330  1.00  0.00     0.165 C 
BRANCH  57  58
ATOM     58  O   UNL     1     -28.600  47.011  42.207  1.00  0.00    -0.396 OA
ATOM     59  H   UNL     1     -28.918  46.711  43.098  1.00  0.00     0.210 HD
ENDBRANCH  57  58
ENDBRANCH  29  57
BRANCH  48  60
ATOM     60  O   UNL     1     -29.253  46.293  31.200  1.00  0.00    -0.392 OA
ATOM     61  H   UNL     1     -29.209  45.342  30.930  1.00  0.00     0.210 HD
ENDBRANCH  48  60
ENDBRANCH  26  27
ENDBRANCH   6  26
BRANCH   5  62
ATOM     62  O   UNL     1     -26.716  48.323  43.640  1.00  0.00    -0.385 OA
ATOM     63  H   UNL     1     -26.572  48.758  44.517  1.00  0.00     0.211 HD
ENDBRANCH   5  62
TORSDOF 14
ENDMDL
MODEL 8
REMARK VINA RESULT:    -4.203      6.477     10.309
REMARK INTER + INTRA:          -8.749
REMARK INTER:                  -5.832
REMARK INTRA:                  -2.917
REMARK UNBOUND:                -2.089
REMARK SMILES C[C@@H]1O[C@H](O[C@H]2CC[C@]3(C)[C@H](CC[C@]4(C)[C@H]3C=C[C@@]35OC[C@]6(CCC(C)(C)C[C@H]63)[C@H](O)C[C@@]45C)[C@]2(C)CO)[C@@H](O)[C@H](O[C@@H]2O[C@@H](CO)[C@@H](O)[C@@H](O)[C@H]2O)[C@@H]1O
REMARK SMILES IDX 1 1 2 2 54 3 41 4 39 5 4 6 3 7 55 8 42 10 43 11 52 12 44 13
REMARK SMILES IDX 50 14 45 15 48 16 53 17 51 19 46 21 47 22 49 24 5 26 6 27
REMARK SMILES IDX 7 28 35 29 8 30 11 31 36 32 9 33 12 34 10 35 16 36 13 37
REMARK SMILES IDX 14 38 17 39 15 40 33 41 18 42 19 43 32 44 34 45 29 46 20 47
REMARK SMILES IDX 30 48 22 49 28 50 21 51 23 52 25 53 24 54 26 55 27 56 37 57
REMARK SMILES IDX 38 58 31 60 40 62
REMARK H PARENT 55 9 53 18 51 20 47 23 49 25 38 59 31 61 40 63
REMARK Flexibility Score: inf
ROOT
ATOM      1  C   UNL     1     -24.496  49.441  42.370  1.00  0.00     0.041 C 
ATOM      2  C   UNL     1     -24.336  50.265  41.102  1.00  0.00     0.150 C 
ATOM      3  C   UNL     1     -25.609  51.104  40.758  1.00  0.00     0.175 C 
ATOM      4  C   UNL     1     -25.664  52.442  41.523  1.00  0.00     0.186 C 
ATOM      5  C   UNL     1     -24.279  53.153  41.491  1.00  0.00     0.202 C 
ATOM      6  C   UNL     1     -23.225  52.331  40.704  1.00  0.00     0.282 C 
ATOM      7  O   UNL     1     -23.133  51.026  41.244  1.00  0.00    -0.344 OA
ENDROOT
BRANCH   3   8
ATOM      8  O   UNL     1     -26.787  50.359  40.905  1.00  0.00    -0.388 OA
ATOM      9  H   UNL     1     -26.813  50.036  41.847  1.00  0.00     0.211 HD
ENDBRANCH   3   8
BRANCH   4  10
ATOM     10  O   UNL     1     -26.031  52.264  42.888  1.00  0.00    -0.341 OA
BRANCH  10  11
ATOM     11  C   UNL     1     -25.358  53.090  43.843  1.00  0.00     0.282 C 
ATOM     12  C   UNL     1     -26.091  54.412  44.259  1.00  0.00     0.202 C 
ATOM     13  O   UNL     1     -24.773  52.280  44.851  1.00  0.00    -0.341 OA
ATOM     14  C   UNL     1     -26.660  54.332  45.671  1.00  0.00     0.179 C 
ATOM     15  C   UNL     1     -24.876  52.608  46.239  1.00  0.00     0.178 C 
ATOM     16  C   UNL     1     -25.566  53.940  46.655  1.00  0.00     0.177 C 
BRANCH  12  17
ATOM     17  O   UNL     1     -25.248  55.545  44.142  1.00  0.00    -0.385 OA
ATOM     18  H   UNL     1     -25.623  56.279  44.706  1.00  0.00     0.211 HD
ENDBRANCH  12  17
BRANCH  14  19
ATOM     19  O   UNL     1     -27.235  55.566  46.003  1.00  0.00    -0.387 OA
ATOM     20  H   UNL     1     -27.449  55.562  46.981  1.00  0.00     0.211 HD
ENDBRANCH  14  19
BRANCH  15  21
ATOM     21  C   UNL     1     -23.488  52.400  46.878  1.00  0.00     0.191 C 
BRANCH  21  22
ATOM     22  O   UNL     1     -22.933  51.133  46.575  1.00  0.00    -0.394 OA
ATOM     23  H   UNL     1     -22.833  51.054  45.586  1.00  0.00     0.210 HD
ENDBRANCH  21  22
ENDBRANCH  15  21
BRANCH  16  24
ATOM     24  O   UNL     1     -24.649  54.997  46.863  1.00  0.00    -0.387 OA
ATOM     25  H   UNL     1     -23.737  54.608  46.768  1.00  0.00     0.211 HD
ENDBRANCH  16  24
ENDBRANCH  10  11
ENDBRANCH   4  10
BRANCH   6  26
ATOM     26  O   UNL     1     -21.962  52.974  40.848  1.00  0.00    -0.346 OA
BRANCH  26  27
ATOM     27  C   UNL     1     -20.962  52.110  41.381  1.00  0.00     0.130 C 
ATOM     28  C   UNL     1     -19.933  51.753  40.294  1.00  0.00     0.033 C 
ATOM     29  C   UNL     1     -20.242  52.788  42.604  1.00  0.00     0.020 C 
ATOM     30  C   UNL     1     -19.035  50.602  40.766  1.00  0.00     0.010 C 
ATOM     31  C   UNL     1     -18.761  52.211  42.779  1.00  0.00     0.006 C 
ATOM     32  C   UNL     1     -20.134  54.321  42.331  1.00  0.00     0.017 C 
ATOM     33  C   UNL     1     -18.470  50.773  42.228  1.00  0.00    -0.022 C 
ATOM     34  C   UNL     1     -18.119  52.465  44.175  1.00  0.00     0.005 C 
ATOM     35  C   UNL     1     -19.173  49.691  43.104  1.00  0.00     0.012 C 
ATOM     36  C   UNL     1     -16.886  50.581  42.166  1.00  0.00     0.024 C 
ATOM     37  C   UNL     1     -16.887  51.584  44.514  1.00  0.00     0.008 C 
ATOM     38  C   UNL     1     -15.940  51.201  43.324  1.00  0.00    -0.017 C 
ATOM     39  C   UNL     1     -16.583  49.150  41.851  1.00  0.00    -0.024 C 
ATOM     40  C   UNL     1     -15.376  52.562  42.814  1.00  0.00     0.013 C 
ATOM     41  C   UNL     1     -14.668  50.198  43.809  1.00  0.00     0.009 C 
ATOM     42  C   UNL     1     -16.188  48.403  42.867  1.00  0.00     0.005 C 
ATOM     43  C   UNL     1     -14.779  48.658  43.276  1.00  0.00     0.096 C 
ATOM     44  C   UNL     1     -13.255  50.744  43.359  1.00  0.00     0.043 C 
ATOM     45  C   UNL     1     -14.590  50.189  45.383  1.00  0.00     0.015 C 
ATOM     46  C   UNL     1     -13.771  48.338  42.138  1.00  0.00     0.037 C 
ATOM     47  O   UNL     1     -14.448  47.759  44.321  1.00  0.00    -0.369 OA
ATOM     48  C   UNL     1     -12.077  49.719  43.407  1.00  0.00     0.124 C 
ATOM     49  C   UNL     1     -12.506  48.253  42.988  1.00  0.00     0.026 C 
ATOM     50  C   UNL     1     -14.067  47.017  41.378  1.00  0.00     0.014 C 
ATOM     51  C   UNL     1     -13.069  47.461  44.190  1.00  0.00     0.171 C 
ATOM     52  C   UNL     1     -11.297  47.528  42.315  1.00  0.00     0.013 C 
ATOM     53  C   UNL     1     -12.866  46.531  40.534  1.00  0.00    -0.035 C 
ATOM     54  C   UNL     1     -11.677  46.287  41.494  1.00  0.00     0.007 C 
ATOM     55  C   UNL     1     -13.240  45.195  39.844  1.00  0.00     0.011 C 
ATOM     56  C   UNL     1     -12.503  47.557  39.432  1.00  0.00     0.011 C 
BRANCH  29  57
ATOM     57  C   UNL     1     -21.159  52.668  43.866  1.00  0.00     0.165 C 
BRANCH  57  58
ATOM     58  O   UNL     1     -22.062  51.589  43.809  1.00  0.00    -0.396 OA
ATOM     59  H   UNL     1     -22.866  51.835  44.336  1.00  0.00     0.210 HD
ENDBRANCH  57  58
ENDBRANCH  29  57
BRANCH  48  60
ATOM     60  O   UNL     1     -11.465  49.761  44.676  1.00  0.00    -0.392 OA
ATOM     61  H   UNL     1     -10.621  49.250  44.599  1.00  0.00     0.210 HD
ENDBRANCH  48  60
ENDBRANCH  26  27
ENDBRANCH   6  26
BRANCH   5  62
ATOM     62  O   UNL     1     -24.395  54.429  40.913  1.00  0.00    -0.385 OA
ATOM     63  H   UNL     1     -23.483  54.796  40.802  1.00  0.00     0.211 HD
ENDBRANCH   5  62
TORSDOF 14
ENDMDL
MODEL 9
REMARK VINA RESULT:    -4.136      2.590      4.409
REMARK INTER + INTRA:          -8.643
REMARK INTER:                  -5.895
REMARK INTRA:                  -2.748
REMARK UNBOUND:                -2.089
REMARK SMILES C[C@@H]1O[C@H](O[C@H]2CC[C@]3(C)[C@H](CC[C@]4(C)[C@H]3C=C[C@@]35OC[C@]6(CCC(C)(C)C[C@H]63)[C@H](O)C[C@@]45C)[C@]2(C)CO)[C@@H](O)[C@H](O[C@@H]2O[C@@H](CO)[C@@H](O)[C@@H](O)[C@H]2O)[C@@H]1O
REMARK SMILES IDX 1 1 2 2 54 3 41 4 39 5 4 6 3 7 55 8 42 10 43 11 52 12 44 13
REMARK SMILES IDX 50 14 45 15 48 16 53 17 51 19 46 21 47 22 49 24 5 26 6 27
REMARK SMILES IDX 7 28 35 29 8 30 11 31 36 32 9 33 12 34 10 35 16 36 13 37
REMARK SMILES IDX 14 38 17 39 15 40 33 41 18 42 19 43 32 44 34 45 29 46 20 47
REMARK SMILES IDX 30 48 22 49 28 50 21 51 23 52 25 53 24 54 26 55 27 56 37 57
REMARK SMILES IDX 38 58 31 60 40 62
REMARK H PARENT 55 9 53 18 51 20 47 23 49 25 38 59 31 61 40 63
REMARK Flexibility Score: inf
ROOT
ATOM      1  C   UNL     1     -27.389  52.780  44.491  1.00  0.00     0.041 C 
ATOM      2  C   UNL     1     -26.275  53.424  43.681  1.00  0.00     0.150 C 
ATOM      3  C   UNL     1     -25.422  54.433  44.517  1.00  0.00     0.175 C 
ATOM      4  C   UNL     1     -24.314  53.739  45.336  1.00  0.00     0.186 C 
ATOM      5  C   UNL     1     -23.570  52.680  44.470  1.00  0.00     0.202 C 
ATOM      6  C   UNL     1     -24.138  52.608  43.028  1.00  0.00     0.282 C 
ATOM      7  O   UNL     1     -25.531  52.365  43.072  1.00  0.00    -0.344 OA
ENDROOT
BRANCH   3   8
ATOM      8  O   UNL     1     -26.220  55.272  45.305  1.00  0.00    -0.388 OA
ATOM      9  H   UNL     1     -26.440  54.769  46.137  1.00  0.00     0.211 HD
ENDBRANCH   3   8
BRANCH   4  10
ATOM     10  O   UNL     1     -24.834  53.076  46.485  1.00  0.00    -0.341 OA
BRANCH  10  11
ATOM     11  C   UNL     1     -24.236  51.820  46.821  1.00  0.00     0.282 C 
ATOM     12  C   UNL     1     -23.044  51.867  47.838  1.00  0.00     0.202 C 
ATOM     13  O   UNL     1     -25.248  50.837  46.989  1.00  0.00    -0.341 OA
ATOM     14  C   UNL     1     -23.439  51.331  49.210  1.00  0.00     0.179 C 
ATOM     15  C   UNL     1     -25.236  49.921  48.086  1.00  0.00     0.178 C 
ATOM     16  C   UNL     1     -24.034  49.935  49.075  1.00  0.00     0.177 C 
BRANCH  12  17
ATOM     17  O   UNL     1     -21.909  51.169  47.356  1.00  0.00    -0.385 OA
ATOM     18  H   UNL     1     -21.551  51.657  46.561  1.00  0.00     0.211 HD
ENDBRANCH  12  17
BRANCH  14  19
ATOM     19  O   UNL     1     -22.313  51.334  50.043  1.00  0.00    -0.387 OA
ATOM     20  H   UNL     1     -21.522  51.035  49.507  1.00  0.00     0.211 HD
ENDBRANCH  14  19
BRANCH  15  21
ATOM     21  C   UNL     1     -25.573  48.520  47.537  1.00  0.00     0.191 C 
BRANCH  21  22
ATOM     22  O   UNL     1     -26.750  48.513  46.750  1.00  0.00    -0.394 OA
ATOM     23  H   UNL     1     -27.252  47.670  46.930  1.00  0.00     0.210 HD
ENDBRANCH  21  22
ENDBRANCH  15  21
BRANCH  16  24
ATOM     24  O   UNL     1     -23.045  48.976  48.757  1.00  0.00    -0.387 OA
ATOM     25  H   UNL     1     -22.205  49.270  49.205  1.00  0.00     0.211 HD
ENDBRANCH  16  24
ENDBRANCH  10  11
ENDBRANCH   4  10
BRANCH   6  26
ATOM     26  O   UNL     1     -23.507  51.523  42.356  1.00  0.00    -0.346 OA
BRANCH  26  27
ATOM     27  C   UNL     1     -24.437  50.553  41.881  1.00  0.00     0.130 C 
ATOM     28  C   UNL     1     -24.389  50.476  40.346  1.00  0.00     0.033 C 
ATOM     29  C   UNL     1     -24.128  49.141  42.503  1.00  0.00     0.020 C 
ATOM     30  C   UNL     1     -25.579  49.667  39.814  1.00  0.00     0.010 C 
ATOM     31  C   UNL     1     -24.651  47.975  41.543  1.00  0.00     0.006 C 
ATOM     32  C   UNL     1     -22.582  48.990  42.650  1.00  0.00     0.017 C 
ATOM     33  C   UNL     1     -25.833  48.307  40.570  1.00  0.00    -0.022 C 
ATOM     34  C   UNL     1     -24.802  46.582  42.225  1.00  0.00     0.005 C 
ATOM     35  C   UNL     1     -27.167  48.481  41.359  1.00  0.00     0.012 C 
ATOM     36  C   UNL     1     -25.912  47.146  39.475  1.00  0.00     0.024 C 
ATOM     37  C   UNL     1     -25.676  45.555  41.459  1.00  0.00     0.008 C 
ATOM     38  C   UNL     1     -25.626  45.608  39.892  1.00  0.00    -0.017 C 
ATOM     39  C   UNL     1     -27.159  47.323  38.669  1.00  0.00    -0.024 C 
ATOM     40  C   UNL     1     -24.146  45.275  39.533  1.00  0.00     0.013 C 
ATOM     41  C   UNL     1     -26.659  44.478  39.174  1.00  0.00     0.009 C 
ATOM     42  C   UNL     1     -28.158  46.509  38.959  1.00  0.00     0.005 C 
ATOM     43  C   UNL     1     -27.966  45.127  38.440  1.00  0.00     0.096 C 
ATOM     44  C   UNL     1     -25.926  43.575  38.105  1.00  0.00     0.043 C 
ATOM     45  C   UNL     1     -27.145  43.455  40.270  1.00  0.00     0.015 C 
ATOM     46  C   UNL     1     -27.868  45.091  36.890  1.00  0.00     0.037 C 
ATOM     47  O   UNL     1     -29.122  44.368  38.750  1.00  0.00    -0.369 OA
ATOM     48  C   UNL     1     -26.852  42.789  37.122  1.00  0.00     0.124 C 
ATOM     49  C   UNL     1     -28.141  43.603  36.691  1.00  0.00     0.026 C 
ATOM     50  C   UNL     1     -28.907  45.989  36.166  1.00  0.00     0.014 C 
ATOM     51  C   UNL     1     -29.291  43.425  37.708  1.00  0.00     0.171 C 
ATOM     52  C   UNL     1     -28.559  43.189  35.244  1.00  0.00     0.013 C 
ATOM     53  C   UNL     1     -29.046  45.650  34.663  1.00  0.00    -0.035 C 
ATOM     54  C   UNL     1     -29.509  44.177  34.549  1.00  0.00     0.007 C 
ATOM     55  C   UNL     1     -30.125  46.567  34.035  1.00  0.00     0.011 C 
ATOM     56  C   UNL     1     -27.715  45.885  33.909  1.00  0.00     0.011 C 
BRANCH  29  57
ATOM     57  C   UNL     1     -24.677  49.098  43.967  1.00  0.00     0.165 C 
BRANCH  57  58
ATOM     58  O   UNL     1     -25.919  49.744  44.125  1.00  0.00    -0.396 OA
ATOM     59  H   UNL     1     -25.778  50.538  44.703  1.00  0.00     0.210 HD
ENDBRANCH  57  58
ENDBRANCH  29  57
BRANCH  48  60
ATOM     60  O   UNL     1     -27.167  41.531  37.673  1.00  0.00    -0.392 OA
ATOM     61  H   UNL     1     -26.397  41.269  38.238  1.00  0.00     0.210 HD
ENDBRANCH  48  60
ENDBRANCH  26  27
ENDBRANCH   6  26
BRANCH   5  62
ATOM     62  O   UNL     1     -22.196  52.970  44.412  1.00  0.00    -0.385 OA
ATOM     63  H   UNL     1     -21.993  53.300  43.502  1.00  0.00     0.211 HD
ENDBRANCH   5  62
TORSDOF 14
ENDMDL
