MODEL 1
REMARK VINA RESULT:    -3.120      0.000      0.000
REMARK INTER + INTRA:          -3.120
REMARK INTER:                  -3.120
REMARK INTRA:                   0.000
REMARK UNBOUND:                 0.000
REMARK SMILES C=C1CCC[C@]2(C)CC(=O)C(=C(C)C)C[C@@H]12
REMARK SMILES IDX 13 1 12 2 11 3 15 4 16 5 2 6 1 7 3 8 4 9 5 10 6 11 8 12 9 13
REMARK SMILES IDX 10 14 7 15 14 16
REMARK H PARENT
REMARK Flexibility Score: inf
ROOT
ATOM      1  C   UNL     1      31.458  61.994  13.863  1.00  0.00     0.039 C 
ATOM      2  C   UNL     1      30.980  60.589  13.577  1.00  0.00    -0.070 C 
ATOM      3  C   UNL     1      30.994  60.068  12.314  1.00  0.00    -0.006 C 
ATOM      4  C   UNL     1      30.567  58.629  12.052  1.00  0.00     0.047 C 
ATOM      5  C   UNL     1      31.304  57.995  10.845  1.00  0.00     0.025 C 
ATOM      6  C   UNL     1      30.885  56.565  10.508  1.00  0.00    -0.073 C 
ATOM      7  C   UNL     1      29.942  55.875  11.179  1.00  0.00     0.008 C 
ATOM      8  C   UNL     1      31.629  55.901   9.373  1.00  0.00     0.031 C 
ATOM      9  C   UNL     1      31.584  56.781   8.120  1.00  0.00     0.005 C 
ATOM     10  C   UNL     1      32.043  58.219   8.420  1.00  0.00     0.008 C 
ATOM     11  C   UNL     1      31.233  58.892   9.569  1.00  0.00    -0.018 C 
ATOM     12  C   UNL     1      31.890  60.258   9.887  1.00  0.00     0.088 C 
ATOM     13  C   UNL     1      31.306  60.896  11.114  1.00  0.00     0.159 C 
ATOM     14  O   UNL     1      31.075  62.135  11.096  1.00  0.00    -0.295 OA
ATOM     15  C   UNL     1      29.767  59.123   9.105  1.00  0.00     0.012 C 
ATOM     16  C   UNL     1      30.518  59.769  14.760  1.00  0.00     0.039 C 
ENDROOT
TORSDOF 0
ENDMDL
MODEL 2
REMARK VINA RESULT:    -2.949      2.475      5.317
REMARK INTER + INTRA:          -2.949
REMARK INTER:                  -2.949
REMARK INTRA:                   0.000
REMARK UNBOUND:                 0.000
REMARK SMILES C=C1CCC[C@]2(C)CC(=O)C(=C(C)C)C[C@@H]12
REMARK SMILES IDX 13 1 12 2 11 3 15 4 16 5 2 6 1 7 3 8 4 9 5 10 6 11 8 12 9 13
REMARK SMILES IDX 10 14 7 15 14 16
REMARK H PARENT
REMARK Flexibility Score: inf
ROOT
ATOM      1  C   UNL     1      31.691  58.182   8.721  1.00  0.00     0.039 C 
ATOM      2  C   UNL     1      31.253  58.853  10.003  1.00  0.00    -0.070 C 
ATOM      3  C   UNL     1      31.035  58.141  11.149  1.00  0.00    -0.006 C 
ATOM      4  C   UNL     1      30.654  58.839  12.448  1.00  0.00     0.047 C 
ATOM      5  C   UNL     1      31.160  58.086  13.704  1.00  0.00     0.025 C 
ATOM      6  C   UNL     1      30.771  58.718  15.040  1.00  0.00    -0.073 C 
ATOM      7  C   UNL     1      30.035  59.841  15.159  1.00  0.00     0.008 C 
ATOM      8  C   UNL     1      31.302  58.038  16.280  1.00  0.00     0.031 C 
ATOM      9  C   UNL     1      30.940  56.550  16.267  1.00  0.00     0.005 C 
ATOM     10  C   UNL     1      31.360  55.875  14.950  1.00  0.00     0.008 C 
ATOM     11  C   UNL     1      30.767  56.575  13.689  1.00  0.00    -0.018 C 
ATOM     12  C   UNL     1      31.389  55.915  12.434  1.00  0.00     0.088 C 
ATOM     13  C   UNL     1      31.036  56.650  11.173  1.00  0.00     0.159 C 
ATOM     14  O   UNL     1      30.729  55.980  10.151  1.00  0.00    -0.295 OA
ATOM     15  C   UNL     1      29.226  56.379  13.662  1.00  0.00     0.012 C 
ATOM     16  C   UNL     1      31.101  60.357   9.972  1.00  0.00     0.039 C 
ENDROOT
TORSDOF 0
ENDMDL
MODEL 3
REMARK VINA RESULT:    -2.867      1.912      4.628
REMARK INTER + INTRA:          -2.867
REMARK INTER:                  -2.867
REMARK INTRA:                   0.000
REMARK UNBOUND:                 0.000
REMARK SMILES C=C1CCC[C@]2(C)CC(=O)C(=C(C)C)C[C@@H]12
REMARK SMILES IDX 13 1 12 2 11 3 15 4 16 5 2 6 1 7 3 8 4 9 5 10 6 11 8 12 9 13
REMARK SMILES IDX 10 14 7 15 14 16
REMARK H PARENT
REMARK Flexibility Score: inf
ROOT
ATOM      1  C   UNL     1      31.112  55.875  13.050  1.00  0.00     0.039 C 
ATOM      2  C   UNL     1      31.012  56.666  11.766  1.00  0.00    -0.070 C 
ATOM      3  C   UNL     1      30.911  58.028  11.766  1.00  0.00    -0.006 C 
ATOM      4  C   UNL     1      30.872  58.815  10.461  1.00  0.00     0.047 C 
ATOM      5  C   UNL     1      31.490  60.229  10.596  1.00  0.00     0.025 C 
ATOM      6  C   UNL     1      31.442  61.081   9.328  1.00  0.00    -0.073 C 
ATOM      7  C   UNL     1      30.902  60.672   8.163  1.00  0.00     0.008 C 
ATOM      8  C   UNL     1      32.090  62.443   9.414  1.00  0.00     0.031 C 
ATOM      9  C   UNL     1      31.530  63.226  10.606  1.00  0.00     0.005 C 
ATOM     10  C   UNL     1      31.606  62.408  11.907  1.00  0.00     0.008 C 
ATOM     11  C   UNL     1      30.896  61.024  11.801  1.00  0.00    -0.018 C 
ATOM     12  C   UNL     1      31.182  60.235  13.103  1.00  0.00     0.088 C 
ATOM     13  C   UNL     1      30.710  58.812  13.018  1.00  0.00     0.159 C 
ATOM     14  O   UNL     1      30.132  58.309  14.019  1.00  0.00    -0.295 OA
ATOM     15  C   UNL     1      29.363  61.236  11.655  1.00  0.00     0.012 C 
ATOM     16  C   UNL     1      31.067  55.882  10.473  1.00  0.00     0.039 C 
ENDROOT
TORSDOF 0
ENDMDL
MODEL 4
REMARK VINA RESULT:    -2.843      1.361      1.835
REMARK INTER + INTRA:          -2.843
REMARK INTER:                  -2.843
REMARK INTRA:                   0.000
REMARK UNBOUND:                 0.000
REMARK SMILES C=C1CCC[C@]2(C)CC(=O)C(=C(C)C)C[C@@H]12
REMARK SMILES IDX 13 1 12 2 11 3 15 4 16 5 2 6 1 7 3 8 4 9 5 10 6 11 8 12 9 13
REMARK SMILES IDX 10 14 7 15 14 16
REMARK H PARENT
REMARK Flexibility Score: inf
ROOT
ATOM      1  C   UNL     1      31.504  59.855  15.544  1.00  0.00     0.039 C 
ATOM      2  C   UNL     1      31.366  58.724  14.550  1.00  0.00    -0.070 C 
ATOM      3  C   UNL     1      31.089  58.954  13.233  1.00  0.00    -0.006 C 
ATOM      4  C   UNL     1      31.013  57.807  12.233  1.00  0.00     0.047 C 
ATOM      5  C   UNL     1      31.435  58.229  10.803  1.00  0.00     0.025 C 
ATOM      6  C   UNL     1      31.339  57.129   9.747  1.00  0.00    -0.073 C 
ATOM      7  C   UNL     1      30.914  55.875   9.999  1.00  0.00     0.008 C 
ATOM      8  C   UNL     1      31.801  57.496   8.356  1.00  0.00     0.031 C 
ATOM      9  C   UNL     1      31.087  58.763   7.875  1.00  0.00     0.005 C 
ATOM     10  C   UNL     1      31.204  59.904   8.901  1.00  0.00     0.008 C 
ATOM     11  C   UNL     1      30.686  59.509  10.316  1.00  0.00    -0.018 C 
ATOM     12  C   UNL     1      31.007  60.670  11.289  1.00  0.00     0.088 C 
ATOM     13  C   UNL     1      30.727  60.306  12.719  1.00  0.00     0.159 C 
ATOM     14  O   UNL     1      30.172  61.161  13.460  1.00  0.00    -0.295 OA
ATOM     15  C   UNL     1      29.147  59.294  10.265  1.00  0.00     0.012 C 
ATOM     16  C   UNL     1      31.584  57.322  15.075  1.00  0.00     0.039 C 
ENDROOT
TORSDOF 0
ENDMDL
MODEL 5
REMARK VINA RESULT:    -2.722      1.218      1.308
REMARK INTER + INTRA:          -2.722
REMARK INTER:                  -2.722
REMARK INTRA:                   0.000
REMARK UNBOUND:                 0.000
REMARK SMILES C=C1CCC[C@]2(C)CC(=O)C(=C(C)C)C[C@@H]12
REMARK SMILES IDX 13 1 12 2 11 3 15 4 16 5 2 6 1 7 3 8 4 9 5 10 6 11 8 12 9 13
REMARK SMILES IDX 10 14 7 15 14 16
REMARK H PARENT
REMARK Flexibility Score: inf
ROOT
ATOM      1  C   UNL     1      31.356  62.611  13.442  1.00  0.00     0.039 C 
ATOM      2  C   UNL     1      31.334  61.101  13.517  1.00  0.00    -0.070 C 
ATOM      3  C   UNL     1      30.837  60.338  12.499  1.00  0.00    -0.006 C 
ATOM      4  C   UNL     1      30.877  58.816  12.564  1.00  0.00     0.047 C 
ATOM      5  C   UNL     1      30.999  58.159  11.166  1.00  0.00     0.025 C 
ATOM      6  C   UNL     1      31.002  56.631  11.165  1.00  0.00    -0.073 C 
ATOM      7  C   UNL     1      30.900  55.875  12.276  1.00  0.00     0.008 C 
ATOM      8  C   UNL     1      31.179  55.964   9.821  1.00  0.00     0.031 C 
ATOM      9  C   UNL     1      30.148  56.497   8.822  1.00  0.00     0.005 C 
ATOM     10  C   UNL     1      30.151  58.035   8.769  1.00  0.00     0.008 C 
ATOM     11  C   UNL     1      29.929  58.695  10.163  1.00  0.00    -0.018 C 
ATOM     12  C   UNL     1      30.118  60.224  10.009  1.00  0.00     0.088 C 
ATOM     13  C   UNL     1      30.122  60.932  11.333  1.00  0.00     0.159 C 
ATOM     14  O   UNL     1      29.499  62.023  11.434  1.00  0.00    -0.295 OA
ATOM     15  C   UNL     1      28.482  58.404  10.651  1.00  0.00     0.012 C 
ATOM     16  C   UNL     1      31.922  60.469  14.758  1.00  0.00     0.039 C 
ENDROOT
TORSDOF 0
ENDMDL
MODEL 6
REMARK VINA RESULT:    -2.692      2.240      3.632
REMARK INTER + INTRA:          -2.692
REMARK INTER:                  -2.692
REMARK INTRA:                   0.000
REMARK UNBOUND:                 0.000
REMARK SMILES C=C1CCC[C@]2(C)CC(=O)C(=C(C)C)C[C@@H]12
REMARK SMILES IDX 13 1 12 2 11 3 15 4 16 5 2 6 1 7 3 8 4 9 5 10 6 11 8 12 9 13
REMARK SMILES IDX 10 14 7 15 14 16
REMARK H PARENT
REMARK Flexibility Score: inf
ROOT
ATOM      1  C   UNL     1      31.764  57.795  15.418  1.00  0.00     0.039 C 
ATOM      2  C   UNL     1      31.381  58.621  14.211  1.00  0.00    -0.070 C 
ATOM      3  C   UNL     1      31.064  58.042  13.015  1.00  0.00    -0.006 C 
ATOM      4  C   UNL     1      30.621  58.886  11.826  1.00  0.00     0.047 C 
ATOM      5  C   UNL     1      29.641  58.134  10.890  1.00  0.00     0.025 C 
ATOM      6  C   UNL     1      29.195  58.917   9.656  1.00  0.00    -0.073 C 
ATOM      7  C   UNL     1      29.607  60.165   9.363  1.00  0.00     0.008 C 
ATOM      8  C   UNL     1      28.193  58.231   8.757  1.00  0.00     0.031 C 
ATOM      9  C   UNL     1      28.701  56.842   8.355  1.00  0.00     0.005 C 
ATOM     10  C   UNL     1      29.118  56.014   9.582  1.00  0.00     0.008 C 
ATOM     11  C   UNL     1      30.180  56.730  10.471  1.00  0.00    -0.018 C 
ATOM     12  C   UNL     1      30.392  55.880  11.748  1.00  0.00     0.088 C 
ATOM     13  C   UNL     1      31.248  56.584  12.762  1.00  0.00     0.159 C 
ATOM     14  O   UNL     1      32.125  55.919  13.375  1.00  0.00    -0.295 OA
ATOM     15  C   UNL     1      31.522  56.834   9.695  1.00  0.00     0.012 C 
ATOM     16  C   UNL     1      31.327  60.121  14.398  1.00  0.00     0.039 C 
ENDROOT
TORSDOF 0
ENDMDL
MODEL 7
REMARK VINA RESULT:    -2.652      1.327      1.826
REMARK INTER + INTRA:          -2.652
REMARK INTER:                  -2.652
REMARK INTRA:                   0.000
REMARK UNBOUND:                 0.000
REMARK SMILES C=C1CCC[C@]2(C)CC(=O)C(=C(C)C)C[C@@H]12
REMARK SMILES IDX 13 1 12 2 11 3 15 4 16 5 2 6 1 7 3 8 4 9 5 10 6 11 8 12 9 13
REMARK SMILES IDX 10 14 7 15 14 16
REMARK H PARENT
REMARK Flexibility Score: inf
ROOT
ATOM      1  C   UNL     1      32.041  62.556  14.701  1.00  0.00     0.039 C 
ATOM      2  C   UNL     1      31.641  61.102  14.797  1.00  0.00    -0.070 C 
ATOM      3  C   UNL     1      31.217  60.398  13.706  1.00  0.00    -0.006 C 
ATOM      4  C   UNL     1      30.876  58.917  13.807  1.00  0.00     0.047 C 
ATOM      5  C   UNL     1      31.147  58.148  12.490  1.00  0.00     0.025 C 
ATOM      6  C   UNL     1      30.785  56.663  12.519  1.00  0.00    -0.073 C 
ATOM      7  C   UNL     1      30.257  56.036  13.588  1.00  0.00     0.008 C 
ATOM      8  C   UNL     1      31.094  55.876  11.267  1.00  0.00     0.031 C 
ATOM      9  C   UNL     1      30.471  56.555  10.043  1.00  0.00     0.005 C 
ATOM     10  C   UNL     1      30.855  58.043   9.963  1.00  0.00     0.008 C 
ATOM     11  C   UNL     1      30.490  58.838  11.253  1.00  0.00    -0.018 C 
ATOM     12  C   UNL     1      31.070  60.267  11.119  1.00  0.00     0.088 C 
ATOM     13  C   UNL     1      30.947  61.052  12.393  1.00  0.00     0.159 C 
ATOM     14  O   UNL     1      30.597  62.261  12.324  1.00  0.00    -0.295 OA
ATOM     15  C   UNL     1      28.945  58.923  11.392  1.00  0.00     0.012 C 
ATOM     16  C   UNL     1      31.766  60.446  16.154  1.00  0.00     0.039 C 
ENDROOT
TORSDOF 0
ENDMDL
MODEL 8
REMARK VINA RESULT:    -2.591      1.992      5.812
REMARK INTER + INTRA:          -2.591
REMARK INTER:                  -2.591
REMARK INTRA:                   0.000
REMARK UNBOUND:                 0.000
REMARK SMILES C=C1CCC[C@]2(C)CC(=O)C(=C(C)C)C[C@@H]12
REMARK SMILES IDX 13 1 12 2 11 3 15 4 16 5 2 6 1 7 3 8 4 9 5 10 6 11 8 12 9 13
REMARK SMILES IDX 10 14 7 15 14 16
REMARK H PARENT
REMARK Flexibility Score: inf
ROOT
ATOM      1  C   UNL     1      30.890  55.875  10.479  1.00  0.00     0.039 C 
ATOM      2  C   UNL     1      31.081  57.368  10.622  1.00  0.00    -0.070 C 
ATOM      3  C   UNL     1      30.693  58.039  11.746  1.00  0.00    -0.006 C 
ATOM      4  C   UNL     1      30.947  59.533  11.899  1.00  0.00     0.047 C 
ATOM      5  C   UNL     1      31.154  59.958  13.374  1.00  0.00     0.025 C 
ATOM      6  C   UNL     1      31.373  61.455  13.593  1.00  0.00    -0.073 C 
ATOM      7  C   UNL     1      31.382  62.369  12.604  1.00  0.00     0.008 C 
ATOM      8  C   UNL     1      31.636  61.890  15.016  1.00  0.00     0.031 C 
ATOM      9  C   UNL     1      30.535  61.368  15.945  1.00  0.00     0.005 C 
ATOM     10  C   UNL     1      30.322  59.854  15.778  1.00  0.00     0.008 C 
ATOM     11  C   UNL     1      30.015  59.439  14.307  1.00  0.00    -0.018 C 
ATOM     12  C   UNL     1      29.986  57.892  14.238  1.00  0.00     0.088 C 
ATOM     13  C   UNL     1      29.896  57.388  12.826  1.00  0.00     0.159 C 
ATOM     14  O   UNL     1      29.126  56.421  12.580  1.00  0.00    -0.295 OA
ATOM     15  C   UNL     1      28.626  59.997  13.889  1.00  0.00     0.012 C 
ATOM     16  C   UNL     1      31.758  58.083   9.474  1.00  0.00     0.039 C 
ENDROOT
TORSDOF 0
ENDMDL
