MODEL 1
REMARK VINA RESULT:    -4.245      0.000      0.000
REMARK INTER + INTRA:          -5.342
REMARK INTER:                  -5.238
REMARK INTRA:                  -0.104
REMARK UNBOUND:                -0.104
REMARK SMILES CCCCCC(=O)[O-]
REMARK SMILES IDX 4 1 5 2 6 3 7 4 8 5 3 6 2 7 1 8
REMARK H PARENT
REMARK Flexibility Score: inf
ROOT
ATOM      1  C   UNL     1      88.141 326.105 193.555  1.00  0.00     0.006 C 
ENDROOT
BRANCH   1   2
ATOM      2  C   UNL     1      88.534 326.467 194.996  1.00  0.00     0.053 C 
BRANCH   2   3
ATOM      3  C   UNL     1      87.536 325.968 195.995  1.00  0.00     0.041 C 
ATOM      4  O   UNL     1      87.870 325.098 196.842  1.00  0.00    -0.550 OA
ATOM      5  O   UNL     1      86.249 326.488 196.013  1.00  0.00    -0.550 OA
ENDBRANCH   2   3
ENDBRANCH   1   2
BRANCH   1   6
ATOM      6  C   UNL     1      88.115 324.593 193.268  1.00  0.00     0.000 C 
BRANCH   6   7
ATOM      7  C   UNL     1      87.788 324.272 191.802  1.00  0.00    -0.003 C 
ATOM      8  C   UNL     1      86.458 323.532 191.685  1.00  0.00     0.004 C 
ENDBRANCH   6   7
ENDBRANCH   1   6
TORSDOF 4
ENDMDL
MODEL 2
REMARK VINA RESULT:    -4.190      0.354      1.130
REMARK INTER + INTRA:          -5.274
REMARK INTER:                  -5.194
REMARK INTRA:                  -0.080
REMARK UNBOUND:                -0.104
REMARK SMILES CCCCCC(=O)[O-]
REMARK SMILES IDX 4 1 5 2 6 3 7 4 8 5 3 6 2 7 1 8
REMARK H PARENT
REMARK Flexibility Score: inf
ROOT
ATOM      1  C   UNL     1      88.005 325.980 193.599  1.00  0.00     0.006 C 
ENDROOT
BRANCH   1   2
ATOM      2  C   UNL     1      88.582 326.364 194.972  1.00  0.00     0.053 C 
BRANCH   2   3
ATOM      3  C   UNL     1      87.587 326.173 196.074  1.00  0.00     0.041 C 
ATOM      4  O   UNL     1      86.355 326.298 195.844  1.00  0.00    -0.550 OA
ATOM      5  O   UNL     1      88.017 325.821 197.346  1.00  0.00    -0.550 OA
ENDBRANCH   2   3
ENDBRANCH   1   2
BRANCH   1   6
ATOM      6  C   UNL     1      88.200 324.499 193.225  1.00  0.00     0.000 C 
BRANCH   6   7
ATOM      7  C   UNL     1      87.842 324.205 191.760  1.00  0.00    -0.003 C 
ATOM      8  C   UNL     1      86.461 323.564 191.651  1.00  0.00     0.004 C 
ENDBRANCH   6   7
ENDBRANCH   1   6
TORSDOF 4
ENDMDL
MODEL 3
REMARK VINA RESULT:    -4.161      2.402      4.031
REMARK INTER + INTRA:          -5.238
REMARK INTER:                  -5.035
REMARK INTRA:                  -0.203
REMARK UNBOUND:                -0.104
REMARK SMILES CCCCCC(=O)[O-]
REMARK SMILES IDX 4 1 5 2 6 3 7 4 8 5 3 6 2 7 1 8
REMARK H PARENT
REMARK Flexibility Score: inf
ROOT
ATOM      1  C   UNL     1      88.157 325.664 193.768  1.00  0.00     0.006 C 
ENDROOT
BRANCH   1   2
ATOM      2  C   UNL     1      87.884 324.840 192.499  1.00  0.00     0.053 C 
BRANCH   2   3
ATOM      3  C   UNL     1      86.737 323.895 192.677  1.00  0.00     0.041 C 
ATOM      4  O   UNL     1      85.928 323.697 191.732  1.00  0.00    -0.550 OA
ATOM      5  O   UNL     1      86.580 323.206 193.872  1.00  0.00    -0.550 OA
ENDBRANCH   2   3
ENDBRANCH   1   2
BRANCH   1   6
ATOM      6  C   UNL     1      87.030 326.645 194.139  1.00  0.00     0.000 C 
BRANCH   6   7
ATOM      7  C   UNL     1      86.445 326.378 195.533  1.00  0.00    -0.003 C 
ATOM      8  C   UNL     1      87.543 326.024 196.532  1.00  0.00     0.004 C 
ENDBRANCH   6   7
ENDBRANCH   1   6
TORSDOF 4
ENDMDL
MODEL 4
REMARK VINA RESULT:    -4.153      2.267      4.192
REMARK INTER + INTRA:          -5.228
REMARK INTER:                  -5.096
REMARK INTRA:                  -0.132
REMARK UNBOUND:                -0.104
REMARK SMILES CCCCCC(=O)[O-]
REMARK SMILES IDX 4 1 5 2 6 3 7 4 8 5 3 6 2 7 1 8
REMARK H PARENT
REMARK Flexibility Score: inf
ROOT
ATOM      1  C   UNL     1      88.000 326.527 194.022  1.00  0.00     0.006 C 
ENDROOT
BRANCH   1   2
ATOM      2  C   UNL     1      88.090 325.326 193.067  1.00  0.00     0.053 C 
BRANCH   2   3
ATOM      3  C   UNL     1      86.776 324.623 192.918  1.00  0.00     0.041 C 
ATOM      4  O   UNL     1      85.875 324.777 193.785  1.00  0.00    -0.550 OA
ATOM      5  O   UNL     1      86.533 323.828 191.807  1.00  0.00    -0.550 OA
ENDBRANCH   2   3
ENDBRANCH   1   2
BRANCH   1   6
ATOM      6  C   UNL     1      88.764 326.341 195.345  1.00  0.00     0.000 C 
BRANCH   6   7
ATOM      7  C   UNL     1      87.831 326.129 196.546  1.00  0.00    -0.003 C 
ATOM      8  C   UNL     1      88.530 326.487 197.855  1.00  0.00     0.004 C 
ENDBRANCH   6   7
ENDBRANCH   1   6
TORSDOF 4
ENDMDL
MODEL 5
REMARK VINA RESULT:    -4.148     20.542     21.314
REMARK INTER + INTRA:          -5.222
REMARK INTER:                  -5.149
REMARK INTRA:                  -0.073
REMARK UNBOUND:                -0.104
REMARK SMILES CCCCCC(=O)[O-]
REMARK SMILES IDX 4 1 5 2 6 3 7 4 8 5 3 6 2 7 1 8
REMARK H PARENT
REMARK Flexibility Score: inf
ROOT
ATOM      1  C   UNL     1     104.000 311.510 193.118  1.00  0.00     0.006 C 
ENDROOT
BRANCH   1   2
ATOM      2  C   UNL     1     103.514 311.744 194.557  1.00  0.00     0.053 C 
BRANCH   2   3
ATOM      3  C   UNL     1     104.626 312.164 195.466  1.00  0.00     0.041 C 
ATOM      4  O   UNL     1     104.467 313.133 196.255  1.00  0.00    -0.550 OA
ATOM      5  O   UNL     1     105.826 311.465 195.468  1.00  0.00    -0.550 OA
ENDBRANCH   2   3
ENDBRANCH   1   2
BRANCH   1   6
ATOM      6  C   UNL     1     104.744 312.708 192.499  1.00  0.00     0.000 C 
BRANCH   6   7
ATOM      7  C   UNL     1     103.927 313.416 191.409  1.00  0.00    -0.003 C 
ATOM      8  C   UNL     1     104.788 314.416 190.641  1.00  0.00     0.004 C 
ENDBRANCH   6   7
ENDBRANCH   1   6
TORSDOF 4
ENDMDL
MODEL 6
REMARK VINA RESULT:    -4.131     20.978     21.808
REMARK INTER + INTRA:          -5.201
REMARK INTER:                  -5.004
REMARK INTRA:                  -0.197
REMARK UNBOUND:                -0.104
REMARK SMILES CCCCCC(=O)[O-]
REMARK SMILES IDX 4 1 5 2 6 3 7 4 8 5 3 6 2 7 1 8
REMARK H PARENT
REMARK Flexibility Score: inf
ROOT
ATOM      1  C   UNL     1     104.041 312.464 192.953  1.00  0.00     0.006 C 
ENDROOT
BRANCH   1   2
ATOM      2  C   UNL     1     104.188 313.243 191.636  1.00  0.00     0.053 C 
BRANCH   2   3
ATOM      3  C   UNL     1     105.372 314.160 191.654  1.00  0.00     0.041 C 
ATOM      4  O   UNL     1     106.056 314.332 190.610  1.00  0.00    -0.550 OA
ATOM      5  O   UNL     1     105.700 314.852 192.812  1.00  0.00    -0.550 OA
ENDBRANCH   2   3
ENDBRANCH   1   2
BRANCH   1   6
ATOM      6  C   UNL     1     105.128 311.398 193.182  1.00  0.00     0.000 C 
BRANCH   6   7
ATOM      7  C   UNL     1     105.870 311.583 194.513  1.00  0.00    -0.003 C 
ATOM      8  C   UNL     1     104.906 311.978 195.629  1.00  0.00     0.004 C 
ENDBRANCH   6   7
ENDBRANCH   1   6
TORSDOF 4
ENDMDL
MODEL 7
REMARK VINA RESULT:    -4.096     20.589     21.201
REMARK INTER + INTRA:          -5.158
REMARK INTER:                  -5.068
REMARK INTRA:                  -0.090
REMARK UNBOUND:                -0.104
REMARK SMILES CCCCCC(=O)[O-]
REMARK SMILES IDX 4 1 5 2 6 3 7 4 8 5 3 6 2 7 1 8
REMARK H PARENT
REMARK Flexibility Score: inf
ROOT
ATOM      1  C   UNL     1     103.468 311.856 194.591  1.00  0.00     0.006 C 
ENDROOT
BRANCH   1   2
ATOM      2  C   UNL     1     104.543 312.143 195.651  1.00  0.00     0.053 C 
BRANCH   2   3
ATOM      3  C   UNL     1     104.016 311.987 197.044  1.00  0.00     0.041 C 
ATOM      4  O   UNL     1     103.609 310.865 197.444  1.00  0.00    -0.550 OA
ATOM      5  O   UNL     1     104.008 313.071 197.911  1.00  0.00    -0.550 OA
ENDBRANCH   2   3
ENDBRANCH   1   2
BRANCH   1   6
ATOM      6  C   UNL     1     104.028 311.391 193.234  1.00  0.00     0.000 C 
BRANCH   6   7
ATOM      7  C   UNL     1     104.926 312.444 192.569  1.00  0.00    -0.003 C 
ATOM      8  C   UNL     1     104.116 313.355 191.650  1.00  0.00     0.004 C 
ENDBRANCH   6   7
ENDBRANCH   1   6
TORSDOF 4
ENDMDL
MODEL 8
REMARK VINA RESULT:    -4.089      1.001      1.283
REMARK INTER + INTRA:          -5.150
REMARK INTER:                  -5.025
REMARK INTRA:                  -0.125
REMARK UNBOUND:                -0.104
REMARK SMILES CCCCCC(=O)[O-]
REMARK SMILES IDX 4 1 5 2 6 3 7 4 8 5 3 6 2 7 1 8
REMARK H PARENT
REMARK Flexibility Score: inf
ROOT
ATOM      1  C   UNL     1      88.085 325.210 193.098  1.00  0.00     0.006 C 
ENDROOT
BRANCH   1   2
ATOM      2  C   UNL     1      88.037 326.482 193.959  1.00  0.00     0.053 C 
BRANCH   2   3
ATOM      3  C   UNL     1      88.053 326.173 195.424  1.00  0.00     0.041 C 
ATOM      4  O   UNL     1      89.136 325.886 195.999  1.00  0.00    -0.550 OA
ATOM      5  O   UNL     1      86.878 326.236 196.161  1.00  0.00    -0.550 OA
ENDBRANCH   2   3
ENDBRANCH   1   2
BRANCH   1   6
ATOM      6  C   UNL     1      86.718 324.529 192.900  1.00  0.00     0.000 C 
BRANCH   6   7
ATOM      7  C   UNL     1      86.699 323.575 191.697  1.00  0.00    -0.003 C 
ATOM      8  C   UNL     1      88.001 323.664 190.905  1.00  0.00     0.004 C 
ENDBRANCH   6   7
ENDBRANCH   1   6
TORSDOF 4
ENDMDL
MODEL 9
REMARK VINA RESULT:    -4.019      1.464      2.160
REMARK INTER + INTRA:          -5.063
REMARK INTER:                  -4.962
REMARK INTRA:                  -0.101
REMARK UNBOUND:                -0.104
REMARK SMILES CCCCCC(=O)[O-]
REMARK SMILES IDX 4 1 5 2 6 3 7 4 8 5 3 6 2 7 1 8
REMARK H PARENT
REMARK Flexibility Score: inf
ROOT
ATOM      1  C   UNL     1      88.527 326.468 195.191  1.00  0.00     0.006 C 
ENDROOT
BRANCH   1   2
ATOM      2  C   UNL     1      88.894 325.232 196.026  1.00  0.00     0.053 C 
BRANCH   2   3
ATOM      3  C   UNL     1      88.673 325.455 197.490  1.00  0.00     0.041 C 
ATOM      4  O   UNL     1      88.527 326.623 197.937  1.00  0.00    -0.550 OA
ATOM      5  O   UNL     1      88.592 324.372 198.355  1.00  0.00    -0.550 OA
ENDBRANCH   2   3
ENDBRANCH   1   2
BRANCH   1   6
ATOM      6  C   UNL     1      88.150 326.155 193.731  1.00  0.00     0.000 C 
BRANCH   6   7
ATOM      7  C   UNL     1      88.199 324.654 193.413  1.00  0.00    -0.003 C 
ATOM      8  C   UNL     1      87.897 324.394 191.940  1.00  0.00     0.004 C 
ENDBRANCH   6   7
ENDBRANCH   1   6
TORSDOF 4
ENDMDL
