MODEL 1
REMARK VINA RESULT:    -5.742      0.000      0.000
REMARK INTER + INTRA:          -7.253
REMARK INTER:                  -7.085
REMARK INTRA:                  -0.168
REMARK UNBOUND:                -0.168
REMARK SMILES [NH3+][C@H](Cc1ccc(O)cc1)C(=O)[O-]
REMARK SMILES IDX 3 1 2 2 1 3 11 7 12 8 13 9 4 10 5 11 10 12 6 13 9 14 7 15
REMARK SMILES IDX 8 16
REMARK H PARENT 1 4 1 5 1 6 8 17
REMARK Flexibility Score: inf
ROOT
ATOM      1  C   UNL     1      -5.922   6.281  -1.250  1.00  0.00     0.107 C 
ENDROOT
BRANCH   1   2
ATOM      2  C   UNL     1      -5.046   6.129  -2.514  1.00  0.00     0.232 C 
BRANCH   2   3
ATOM      3  N   UNL     1      -3.717   6.730  -2.334  1.00  0.00    -0.350 N 
ATOM      4  H   UNL     1      -3.789   7.746  -2.097  1.00  0.00     0.345 HD
ATOM      5  H   UNL     1      -3.156   6.620  -3.210  1.00  0.00     0.345 HD
ATOM      6  H   UNL     1      -3.214   6.238  -1.559  1.00  0.00     0.345 HD
ENDBRANCH   2   3
BRANCH   2   7
ATOM      7  C   UNL     1      -4.939   4.687  -2.943  1.00  0.00     0.099 C 
ATOM      8  O   UNL     1      -5.956   3.946  -2.906  1.00  0.00    -0.544 OA
ATOM      9  O   UNL     1      -3.717   4.150  -3.330  1.00  0.00    -0.544 OA
ENDBRANCH   2   7
ENDBRANCH   1   2
BRANCH   1  10
ATOM     10  C   UNL     1      -7.358   6.647  -1.548  1.00  0.00    -0.041 A 
ATOM     11  C   UNL     1      -7.659   7.814  -2.269  1.00  0.00     0.008 A 
ATOM     12  C   UNL     1      -8.406   5.817  -1.118  1.00  0.00     0.008 A 
ATOM     13  C   UNL     1      -8.987   8.143  -2.556  1.00  0.00     0.046 A 
ATOM     14  C   UNL     1      -9.733   6.148  -1.407  1.00  0.00     0.046 A 
ATOM     15  C   UNL     1     -10.026   7.313  -2.129  1.00  0.00     0.115 A 
BRANCH  15  16
ATOM     16  O   UNL     1     -11.345   7.653  -2.423  1.00  0.00    -0.508 OA
ATOM     17  H   UNL     1     -12.118   7.304  -1.868  1.00  0.00     0.293 HD
ENDBRANCH  15  16
ENDBRANCH   1  10
TORSDOF 5
ENDMDL
MODEL 2
REMARK VINA RESULT:    -5.698      0.078      1.346
REMARK INTER + INTRA:          -7.199
REMARK INTER:                  -7.018
REMARK INTRA:                  -0.182
REMARK UNBOUND:                -0.168
REMARK SMILES [NH3+][C@H](Cc1ccc(O)cc1)C(=O)[O-]
REMARK SMILES IDX 3 1 2 2 1 3 11 7 12 8 13 9 4 10 5 11 10 12 6 13 9 14 7 15
REMARK SMILES IDX 8 16
REMARK H PARENT 1 4 1 5 1 6 8 17
REMARK Flexibility Score: inf
ROOT
ATOM      1  C   UNL     1      -5.941   6.279  -1.282  1.00  0.00     0.107 C 
ENDROOT
BRANCH   1   2
ATOM      2  C   UNL     1      -5.039   6.126  -2.528  1.00  0.00     0.232 C 
BRANCH   2   3
ATOM      3  N   UNL     1      -3.721   6.743  -2.328  1.00  0.00    -0.350 N 
ATOM      4  H   UNL     1      -3.276   6.408  -1.442  1.00  0.00     0.345 HD
ATOM      5  H   UNL     1      -3.817   7.783  -2.292  1.00  0.00     0.345 HD
ATOM      6  H   UNL     1      -3.096   6.499  -3.132  1.00  0.00     0.345 HD
ENDBRANCH   2   3
BRANCH   2   7
ATOM      7  C   UNL     1      -4.909   4.682  -2.942  1.00  0.00     0.099 C 
ATOM      8  O   UNL     1      -5.917   3.927  -2.908  1.00  0.00    -0.544 OA
ATOM      9  O   UNL     1      -3.677   4.158  -3.313  1.00  0.00    -0.544 OA
ENDBRANCH   2   7
ENDBRANCH   1   2
BRANCH   1  10
ATOM     10  C   UNL     1      -7.363   6.671  -1.607  1.00  0.00    -0.041 A 
ATOM     11  C   UNL     1      -8.435   5.858  -1.202  1.00  0.00     0.008 A 
ATOM     12  C   UNL     1      -7.630   7.860  -2.306  1.00  0.00     0.008 A 
ATOM     13  C   UNL     1      -9.751   6.230  -1.491  1.00  0.00     0.046 A 
ATOM     14  C   UNL     1      -8.947   8.230  -2.594  1.00  0.00     0.046 A 
ATOM     15  C   UNL     1     -10.012   7.415  -2.185  1.00  0.00     0.115 A 
BRANCH  15  16
ATOM     16  O   UNL     1     -11.328   7.774  -2.466  1.00  0.00    -0.508 OA
ATOM     17  H   UNL     1     -11.655   7.886  -3.418  1.00  0.00     0.293 HD
ENDBRANCH  15  16
ENDBRANCH   1  10
TORSDOF 5
ENDMDL
MODEL 3
REMARK VINA RESULT:    -5.281      1.431      1.722
REMARK INTER + INTRA:          -6.684
REMARK INTER:                  -6.500
REMARK INTRA:                  -0.184
REMARK UNBOUND:                -0.168
REMARK SMILES [NH3+][C@H](Cc1ccc(O)cc1)C(=O)[O-]
REMARK SMILES IDX 3 1 2 2 1 3 11 7 12 8 13 9 4 10 5 11 10 12 6 13 9 14 7 15
REMARK SMILES IDX 8 16
REMARK H PARENT 1 4 1 5 1 6 8 17
REMARK Flexibility Score: inf
ROOT
ATOM      1  C   UNL     1      -7.656   5.611  -1.650  1.00  0.00     0.107 C 
ENDROOT
BRANCH   1   2
ATOM      2  C   UNL     1      -6.235   6.194  -1.478  1.00  0.00     0.232 C 
BRANCH   2   3
ATOM      3  N   UNL     1      -5.761   6.080  -0.092  1.00  0.00    -0.350 N 
ATOM      4  H   UNL     1      -6.530   5.773   0.547  1.00  0.00     0.345 HD
ATOM      5  H   UNL     1      -5.391   7.002   0.234  1.00  0.00     0.345 HD
ATOM      6  H   UNL     1      -4.984   5.381  -0.045  1.00  0.00     0.345 HD
ENDBRANCH   2   3
BRANCH   2   7
ATOM      7  C   UNL     1      -5.259   5.567  -2.441  1.00  0.00     0.099 C 
ATOM      8  O   UNL     1      -5.344   4.339  -2.710  1.00  0.00    -0.544 OA
ATOM      9  O   UNL     1      -4.231   6.317  -3.000  1.00  0.00    -0.544 OA
ENDBRANCH   2   7
ENDBRANCH   1   2
BRANCH   1  10
ATOM     10  C   UNL     1      -8.708   6.655  -1.946  1.00  0.00    -0.041 A 
ATOM     11  C   UNL     1      -8.344   7.895  -2.497  1.00  0.00     0.008 A 
ATOM     12  C   UNL     1     -10.063   6.392  -1.683  1.00  0.00     0.008 A 
ATOM     13  C   UNL     1      -9.320   8.853  -2.783  1.00  0.00     0.046 A 
ATOM     14  C   UNL     1     -11.037   7.352  -1.970  1.00  0.00     0.046 A 
ATOM     15  C   UNL     1     -10.668   8.586  -2.523  1.00  0.00     0.115 A 
BRANCH  15  16
ATOM     16  O   UNL     1     -11.630   9.550  -2.814  1.00  0.00    -0.508 OA
ATOM     17  H   UNL     1     -11.466  10.268  -3.509  1.00  0.00     0.293 HD
ENDBRANCH  15  16
ENDBRANCH   1  10
TORSDOF 5
ENDMDL
MODEL 4
REMARK VINA RESULT:    -5.118      3.005      5.642
REMARK INTER + INTRA:          -6.483
REMARK INTER:                  -6.301
REMARK INTRA:                  -0.182
REMARK UNBOUND:                -0.168
REMARK SMILES [NH3+][C@H](Cc1ccc(O)cc1)C(=O)[O-]
REMARK SMILES IDX 3 1 2 2 1 3 11 7 12 8 13 9 4 10 5 11 10 12 6 13 9 14 7 15
REMARK SMILES IDX 8 16
REMARK H PARENT 1 4 1 5 1 6 8 17
REMARK Flexibility Score: inf
ROOT
ATOM      1  C   UNL     1      -9.858   5.191  -1.734  1.00  0.00     0.107 C 
ENDROOT
BRANCH   1   2
ATOM      2  C   UNL     1     -10.850   6.223  -1.149  1.00  0.00     0.232 C 
BRANCH   2   3
ATOM      3  N   UNL     1     -11.485   7.028  -2.201  1.00  0.00    -0.350 N 
ATOM      4  H   UNL     1     -11.328   6.608  -3.147  1.00  0.00     0.345 HD
ATOM      5  H   UNL     1     -11.097   7.999  -2.188  1.00  0.00     0.345 HD
ATOM      6  H   UNL     1     -12.515   7.084  -2.024  1.00  0.00     0.345 HD
ENDBRANCH   2   3
BRANCH   2   7
ATOM      7  C   UNL     1     -11.882   5.561  -0.271  1.00  0.00     0.099 C 
ATOM      8  O   UNL     1     -12.315   6.160   0.749  1.00  0.00    -0.544 OA
ATOM      9  O   UNL     1     -12.326   4.273  -0.544  1.00  0.00    -0.544 OA
ENDBRANCH   2   7
ENDBRANCH   1   2
BRANCH   1  10
ATOM     10  C   UNL     1      -8.412   5.620  -1.641  1.00  0.00    -0.041 A 
ATOM     11  C   UNL     1      -8.032   6.656  -0.771  1.00  0.00     0.008 A 
ATOM     12  C   UNL     1      -7.430   4.980  -2.415  1.00  0.00     0.008 A 
ATOM     13  C   UNL     1      -6.692   7.042  -0.676  1.00  0.00     0.046 A 
ATOM     14  C   UNL     1      -6.091   5.367  -2.318  1.00  0.00     0.046 A 
ATOM     15  C   UNL     1      -5.718   6.400  -1.446  1.00  0.00     0.115 A 
BRANCH  15  16
ATOM     16  O   UNL     1      -4.386   6.794  -1.341  1.00  0.00    -0.508 OA
ATOM     17  H   UNL     1      -3.935   6.899  -0.440  1.00  0.00     0.293 HD
ENDBRANCH  15  16
ENDBRANCH   1  10
TORSDOF 5
ENDMDL
MODEL 5
REMARK VINA RESULT:    -5.107      2.426      3.392
REMARK INTER + INTRA:          -6.469
REMARK INTER:                  -6.251
REMARK INTRA:                  -0.218
REMARK UNBOUND:                -0.168
REMARK SMILES [NH3+][C@H](Cc1ccc(O)cc1)C(=O)[O-]
REMARK SMILES IDX 3 1 2 2 1 3 11 7 12 8 13 9 4 10 5 11 10 12 6 13 9 14 7 15
REMARK SMILES IDX 8 16
REMARK H PARENT 1 4 1 5 1 6 8 17
REMARK Flexibility Score: inf
ROOT
ATOM      1  C   UNL     1      -7.653   8.171  -1.665  1.00  0.00     0.107 C 
ENDROOT
BRANCH   1   2
ATOM      2  C   UNL     1      -6.963   6.817  -1.945  1.00  0.00     0.232 C 
BRANCH   2   3
ATOM      3  N   UNL     1      -5.691   6.690  -1.221  1.00  0.00    -0.350 N 
ATOM      4  H   UNL     1      -5.090   7.535  -1.360  1.00  0.00     0.345 HD
ATOM      5  H   UNL     1      -5.176   5.843  -1.554  1.00  0.00     0.345 HD
ATOM      6  H   UNL     1      -5.881   6.576  -0.199  1.00  0.00     0.345 HD
ENDBRANCH   2   3
BRANCH   2   7
ATOM      7  C   UNL     1      -7.880   5.657  -1.646  1.00  0.00     0.099 C 
ATOM      8  O   UNL     1      -8.021   4.735  -2.492  1.00  0.00    -0.544 OA
ATOM      9  O   UNL     1      -8.612   5.618  -0.466  1.00  0.00    -0.544 OA
ENDBRANCH   2   7
ENDBRANCH   1   2
BRANCH   1  10
ATOM     10  C   UNL     1      -8.462   8.692  -2.829  1.00  0.00    -0.041 A 
ATOM     11  C   UNL     1      -7.822   9.274  -3.936  1.00  0.00     0.008 A 
ATOM     12  C   UNL     1      -9.863   8.589  -2.823  1.00  0.00     0.008 A 
ATOM     13  C   UNL     1      -8.572   9.742  -5.019  1.00  0.00     0.046 A 
ATOM     14  C   UNL     1     -10.611   9.058  -3.907  1.00  0.00     0.046 A 
ATOM     15  C   UNL     1      -9.966   9.635  -5.009  1.00  0.00     0.115 A 
BRANCH  15  16
ATOM     16  O   UNL     1     -10.700  10.105  -6.096  1.00  0.00    -0.508 OA
ATOM     17  H   UNL     1     -10.255  10.332  -6.977  1.00  0.00     0.293 HD
ENDBRANCH  15  16
ENDBRANCH   1  10
TORSDOF 5
ENDMDL
MODEL 6
REMARK VINA RESULT:    -5.042      2.974      5.855
REMARK INTER + INTRA:          -6.389
REMARK INTER:                  -6.246
REMARK INTRA:                  -0.143
REMARK UNBOUND:                -0.168
REMARK SMILES [NH3+][C@H](Cc1ccc(O)cc1)C(=O)[O-]
REMARK SMILES IDX 3 1 2 2 1 3 11 7 12 8 13 9 4 10 5 11 10 12 6 13 9 14 7 15
REMARK SMILES IDX 8 16
REMARK H PARENT 1 4 1 5 1 6 8 17
REMARK Flexibility Score: inf
ROOT
ATOM      1  C   UNL     1     -10.216   5.816  -0.319  1.00  0.00     0.107 C 
ENDROOT
BRANCH   1   2
ATOM      2  C   UNL     1     -11.093   6.011  -1.577  1.00  0.00     0.232 C 
BRANCH   2   3
ATOM      3  N   UNL     1     -11.557   4.730  -2.125  1.00  0.00    -0.350 N 
ATOM      4  H   UNL     1     -11.175   3.923  -1.579  1.00  0.00     0.345 HD
ATOM      5  H   UNL     1     -11.259   4.642  -3.123  1.00  0.00     0.345 HD
ATOM      6  H   UNL     1     -12.603   4.694  -2.091  1.00  0.00     0.345 HD
ENDBRANCH   2   3
BRANCH   2   7
ATOM      7  C   UNL     1     -12.250   6.940  -1.305  1.00  0.00     0.099 C 
ATOM      8  O   UNL     1     -12.401   7.975  -2.006  1.00  0.00    -0.544 OA
ATOM      9  O   UNL     1     -13.125   6.694  -0.254  1.00  0.00    -0.544 OA
ENDBRANCH   2   7
ENDBRANCH   1   2
BRANCH   1  10
ATOM     10  C   UNL     1      -8.739   6.011  -0.574  1.00  0.00    -0.041 A 
ATOM     11  C   UNL     1      -8.206   5.810  -1.858  1.00  0.00     0.008 A 
ATOM     12  C   UNL     1      -7.885   6.408   0.469  1.00  0.00     0.008 A 
ATOM     13  C   UNL     1      -6.843   6.005  -2.095  1.00  0.00     0.046 A 
ATOM     14  C   UNL     1      -6.522   6.604   0.230  1.00  0.00     0.046 A 
ATOM     15  C   UNL     1      -5.997   6.403  -1.055  1.00  0.00     0.115 A 
BRANCH  15  16
ATOM     16  O   UNL     1      -4.640   6.595  -1.305  1.00  0.00    -0.508 OA
ATOM     17  H   UNL     1      -4.270   6.590  -2.248  1.00  0.00     0.293 HD
ENDBRANCH  15  16
ENDBRANCH   1  10
TORSDOF 5
ENDMDL
MODEL 7
REMARK VINA RESULT:    -5.023      2.657      3.764
REMARK INTER + INTRA:          -6.366
REMARK INTER:                  -6.169
REMARK INTRA:                  -0.196
REMARK UNBOUND:                -0.168
REMARK SMILES [NH3+][C@H](Cc1ccc(O)cc1)C(=O)[O-]
REMARK SMILES IDX 3 1 2 2 1 3 11 7 12 8 13 9 4 10 5 11 10 12 6 13 9 14 7 15
REMARK SMILES IDX 8 16
REMARK H PARENT 1 4 1 5 1 6 8 17
REMARK Flexibility Score: inf
ROOT
ATOM      1  C   UNL     1      -7.547   8.451  -1.655  1.00  0.00     0.107 C 
ENDROOT
BRANCH   1   2
ATOM      2  C   UNL     1      -7.100   6.972  -1.606  1.00  0.00     0.232 C 
BRANCH   2   3
ATOM      3  N   UNL     1      -5.662   6.845  -1.333  1.00  0.00    -0.350 N 
ATOM      4  H   UNL     1      -5.107   7.530  -1.897  1.00  0.00     0.345 HD
ATOM      5  H   UNL     1      -5.342   5.875  -1.560  1.00  0.00     0.345 HD
ATOM      6  H   UNL     1      -5.482   7.020  -0.318  1.00  0.00     0.345 HD
ENDBRANCH   2   3
BRANCH   2   7
ATOM      7  C   UNL     1      -7.915   6.180  -0.615  1.00  0.00     0.099 C 
ATOM      8  O   UNL     1      -8.720   5.303  -1.026  1.00  0.00    -0.544 OA
ATOM      9  O   UNL     1      -7.828   6.443   0.746  1.00  0.00    -0.544 OA
ENDBRANCH   2   7
ENDBRANCH   1   2
BRANCH   1  10
ATOM     10  C   UNL     1      -8.405   8.786  -2.853  1.00  0.00    -0.041 A 
ATOM     11  C   UNL     1      -9.796   8.600  -2.805  1.00  0.00     0.008 A 
ATOM     12  C   UNL     1      -7.821   9.299  -4.024  1.00  0.00     0.008 A 
ATOM     13  C   UNL     1     -10.590   8.924  -3.909  1.00  0.00     0.046 A 
ATOM     14  C   UNL     1      -8.616   9.622  -5.126  1.00  0.00     0.046 A 
ATOM     15  C   UNL     1     -10.005   9.436  -5.071  1.00  0.00     0.115 A 
BRANCH  15  16
ATOM     16  O   UNL     1     -10.808   9.756  -6.164  1.00  0.00    -0.508 OA
ATOM     17  H   UNL     1     -10.433   9.787  -7.104  1.00  0.00     0.293 HD
ENDBRANCH  15  16
ENDBRANCH   1  10
TORSDOF 5
ENDMDL
MODEL 8
REMARK VINA RESULT:    -5.007      3.041      5.731
REMARK INTER + INTRA:          -6.346
REMARK INTER:                  -6.166
REMARK INTRA:                  -0.180
REMARK UNBOUND:                -0.168
REMARK SMILES [NH3+][C@H](Cc1ccc(O)cc1)C(=O)[O-]
REMARK SMILES IDX 3 1 2 2 1 3 11 7 12 8 13 9 4 10 5 11 10 12 6 13 9 14 7 15
REMARK SMILES IDX 8 16
REMARK H PARENT 1 4 1 5 1 6 8 17
REMARK Flexibility Score: inf
ROOT
ATOM      1  C   UNL     1      -9.988   5.228  -1.530  1.00  0.00     0.107 C 
ENDROOT
BRANCH   1   2
ATOM      2  C   UNL     1     -10.982   6.363  -1.194  1.00  0.00     0.232 C 
BRANCH   2   3
ATOM      3  N   UNL     1     -11.374   7.118  -2.392  1.00  0.00    -0.350 N 
ATOM      4  H   UNL     1     -12.404   7.305  -2.402  1.00  0.00     0.345 HD
ATOM      5  H   UNL     1     -11.114   6.582  -3.251  1.00  0.00     0.345 HD
ATOM      6  H   UNL     1     -10.866   8.033  -2.410  1.00  0.00     0.345 HD
ENDBRANCH   2   3
BRANCH   2   7
ATOM      7  C   UNL     1     -12.191   5.839  -0.460  1.00  0.00     0.099 C 
ATOM      8  O   UNL     1     -13.039   6.645   0.006  1.00  0.00    -0.544 OA
ATOM      9  O   UNL     1     -12.355   4.477  -0.244  1.00  0.00    -0.544 OA
ENDBRANCH   2   7
ENDBRANCH   1   2
BRANCH   1  10
ATOM     10  C   UNL     1      -8.539   5.630  -1.386  1.00  0.00    -0.041 A 
ATOM     11  C   UNL     1      -7.599   5.264  -2.365  1.00  0.00     0.008 A 
ATOM     12  C   UNL     1      -8.117   6.385  -0.279  1.00  0.00     0.008 A 
ATOM     13  C   UNL     1      -6.262   5.649  -2.238  1.00  0.00     0.046 A 
ATOM     14  C   UNL     1      -6.779   6.769  -0.154  1.00  0.00     0.046 A 
ATOM     15  C   UNL     1      -5.847   6.402  -1.135  1.00  0.00     0.115 A 
BRANCH  15  16
ATOM     16  O   UNL     1      -4.511   6.780  -1.022  1.00  0.00    -0.508 OA
ATOM     17  H   UNL     1      -4.079   7.405  -1.692  1.00  0.00     0.293 HD
ENDBRANCH  15  16
ENDBRANCH   1  10
TORSDOF 5
ENDMDL
MODEL 9
REMARK VINA RESULT:    -4.943      3.144      4.773
REMARK INTER + INTRA:          -6.268
REMARK INTER:                  -6.832
REMARK INTRA:                   0.564
REMARK UNBOUND:                -0.168
REMARK SMILES [NH3+][C@H](Cc1ccc(O)cc1)C(=O)[O-]
REMARK SMILES IDX 3 1 2 2 1 3 11 7 12 8 13 9 4 10 5 11 10 12 6 13 9 14 7 15
REMARK SMILES IDX 8 16
REMARK H PARENT 1 4 1 5 1 6 8 17
REMARK Flexibility Score: inf
ROOT
ATOM      1  C   UNL     1      -9.189   8.586  -3.362  1.00  0.00     0.107 C 
ENDROOT
BRANCH   1   2
ATOM      2  C   UNL     1      -8.235   9.496  -4.169  1.00  0.00     0.232 C 
BRANCH   2   3
ATOM      3  N   UNL     1      -6.866   8.965  -4.197  1.00  0.00    -0.350 N 
ATOM      4  H   UNL     1      -6.861   7.941  -4.414  1.00  0.00     0.345 HD
ATOM      5  H   UNL     1      -6.405   9.122  -3.272  1.00  0.00     0.345 HD
ATOM      6  H   UNL     1      -6.311   9.467  -4.929  1.00  0.00     0.345 HD
ENDBRANCH   2   3
BRANCH   2   7
ATOM      7  C   UNL     1      -8.754   9.742  -5.564  1.00  0.00     0.099 C 
ATOM      8  O   UNL     1      -9.968  10.028  -5.740  1.00  0.00    -0.544 OA
ATOM      9  O   UNL     1      -7.918   9.606  -6.666  1.00  0.00    -0.544 OA
ENDBRANCH   2   7
ENDBRANCH   1   2
BRANCH   1  10
ATOM     10  C   UNL     1      -8.526   7.900  -2.190  1.00  0.00    -0.041 A 
ATOM     11  C   UNL     1      -7.441   8.504  -1.534  1.00  0.00     0.008 A 
ATOM     12  C   UNL     1      -8.996   6.656  -1.736  1.00  0.00     0.008 A 
ATOM     13  C   UNL     1      -6.838   7.875  -0.441  1.00  0.00     0.046 A 
ATOM     14  C   UNL     1      -8.392   6.030  -0.643  1.00  0.00     0.046 A 
ATOM     15  C   UNL     1      -7.311   6.639   0.009  1.00  0.00     0.115 A 
BRANCH  15  16
ATOM     16  O   UNL     1      -6.701   6.024   1.100  1.00  0.00    -0.508 OA
ATOM     17  H   UNL     1      -7.008   5.119   1.437  1.00  0.00     0.293 HD
ENDBRANCH  15  16
ENDBRANCH   1  10
TORSDOF 5
ENDMDL
