MODEL 1
REMARK VINA RESULT:    -4.010      0.000      0.000
REMARK INTER + INTRA:          -7.797
REMARK INTER:                  -6.355
REMARK INTRA:                  -1.443
REMARK UNBOUND:                -1.443
REMARK SMILES CCCCCCCCCCCC(=O)[O-]
REMARK SMILES IDX 7 1 8 2 9 3 10 4 11 5 12 6 13 7 14 8 6 9 5 10 4 11 3 12 2 13
REMARK SMILES IDX 1 14
REMARK H PARENT
REMARK Flexibility Score: inf
ROOT
ATOM      1  C   UNL     1      19.383  32.076  43.875  1.00  0.00     0.000 C 
ENDROOT
BRANCH   1   2
ATOM      2  C   UNL     1      18.983  30.598  43.996  1.00  0.00     0.000 C 
BRANCH   2   3
ATOM      3  C   UNL     1      18.263  30.285  45.317  1.00  0.00     0.000 C 
BRANCH   3   4
ATOM      4  C   UNL     1      18.251  31.512  46.239  1.00  0.00     0.006 C 
BRANCH   4   5
ATOM      5  C   UNL     1      18.724  31.177  47.660  1.00  0.00     0.053 C 
BRANCH   5   6
ATOM      6  C   UNL     1      20.039  30.460  47.651  1.00  0.00     0.041 C 
ATOM      7  O   UNL     1      21.085  31.057  47.285  1.00  0.00    -0.550 OA
ATOM      8  O   UNL     1      20.103  29.121  48.017  1.00  0.00    -0.550 OA
ENDBRANCH   5   6
ENDBRANCH   4   5
ENDBRANCH   3   4
ENDBRANCH   2   3
ENDBRANCH   1   2
BRANCH   1   9
ATOM      9  C   UNL     1      20.906  32.279  43.881  1.00  0.00     0.000 C 
BRANCH   9  10
ATOM     10  C   UNL     1      21.282  33.593  44.576  1.00  0.00    -0.000 C 
BRANCH  10  11
ATOM     11  C   UNL     1      20.139  34.611  44.489  1.00  0.00    -0.000 C 
BRANCH  11  12
ATOM     12  C   UNL     1      19.731  35.101  45.886  1.00  0.00    -0.000 C 
BRANCH  12  13
ATOM     13  C   UNL     1      20.495  34.382  47.010  1.00  0.00    -0.003 C 
ATOM     14  C   UNL     1      19.948  34.708  48.399  1.00  0.00     0.004 C 
ENDBRANCH  12  13
ENDBRANCH  11  12
ENDBRANCH  10  11
ENDBRANCH   9  10
ENDBRANCH   1   9
TORSDOF 10
ENDMDL
MODEL 2
REMARK VINA RESULT:    -3.966      1.469      1.982
REMARK INTER + INTRA:          -7.728
REMARK INTER:                  -6.371
REMARK INTRA:                  -1.357
REMARK UNBOUND:                -1.443
REMARK SMILES CCCCCCCCCCCC(=O)[O-]
REMARK SMILES IDX 7 1 8 2 9 3 10 4 11 5 12 6 13 7 14 8 6 9 5 10 4 11 3 12 2 13
REMARK SMILES IDX 1 14
REMARK H PARENT
REMARK Flexibility Score: inf
ROOT
ATOM      1  C   UNL     1      19.652  31.387  44.103  1.00  0.00     0.000 C 
ENDROOT
BRANCH   1   2
ATOM      2  C   UNL     1      18.620  30.265  43.916  1.00  0.00     0.000 C 
BRANCH   2   3
ATOM      3  C   UNL     1      18.327  29.505  45.219  1.00  0.00     0.000 C 
BRANCH   3   4
ATOM      4  C   UNL     1      19.231  29.999  46.358  1.00  0.00     0.006 C 
BRANCH   4   5
ATOM      5  C   UNL     1      18.446  30.271  47.647  1.00  0.00     0.053 C 
BRANCH   5   6
ATOM      6  C   UNL     1      19.258  29.959  48.867  1.00  0.00     0.041 C 
ATOM      7  O   UNL     1      19.366  28.772  49.271  1.00  0.00    -0.550 OA
ATOM      8  O   UNL     1      19.870  30.986  49.577  1.00  0.00    -0.550 OA
ENDBRANCH   5   6
ENDBRANCH   4   5
ENDBRANCH   3   4
ENDBRANCH   2   3
ENDBRANCH   1   2
BRANCH   1   9
ATOM      9  C   UNL     1      19.050  32.785  43.897  1.00  0.00     0.000 C 
BRANCH   9  10
ATOM     10  C   UNL     1      18.179  33.190  45.094  1.00  0.00    -0.000 C 
BRANCH  10  11
ATOM     11  C   UNL     1      18.697  34.478  45.743  1.00  0.00    -0.000 C 
BRANCH  11  12
ATOM     12  C   UNL     1      20.214  34.409  45.968  1.00  0.00    -0.000 C 
BRANCH  12  13
ATOM     13  C   UNL     1      20.594  33.518  47.161  1.00  0.00    -0.003 C 
ATOM     14  C   UNL     1      21.837  32.668  46.893  1.00  0.00     0.004 C 
ENDBRANCH  12  13
ENDBRANCH  11  12
ENDBRANCH  10  11
ENDBRANCH   9  10
ENDBRANCH   1   9
TORSDOF 10
ENDMDL
MODEL 3
REMARK VINA RESULT:    -3.926      0.909      1.236
REMARK INTER + INTRA:          -7.663
REMARK INTER:                  -6.128
REMARK INTRA:                  -1.536
REMARK UNBOUND:                -1.443
REMARK SMILES CCCCCCCCCCCC(=O)[O-]
REMARK SMILES IDX 7 1 8 2 9 3 10 4 11 5 12 6 13 7 14 8 6 9 5 10 4 11 3 12 2 13
REMARK SMILES IDX 1 14
REMARK H PARENT
REMARK Flexibility Score: inf
ROOT
ATOM      1  C   UNL     1      19.823  31.869  43.875  1.00  0.00     0.000 C 
ENDROOT
BRANCH   1   2
ATOM      2  C   UNL     1      19.241  30.879  44.896  1.00  0.00     0.000 C 
BRANCH   2   3
ATOM      3  C   UNL     1      18.222  31.532  45.842  1.00  0.00     0.000 C 
BRANCH   3   4
ATOM      4  C   UNL     1      18.607  31.297  47.310  1.00  0.00     0.006 C 
BRANCH   4   5
ATOM      5  C   UNL     1      20.028  30.740  47.456  1.00  0.00     0.053 C 
BRANCH   5   6
ATOM      6  C   UNL     1      20.105  29.685  48.518  1.00  0.00     0.041 C 
ATOM      7  O   UNL     1      19.062  29.091  48.897  1.00  0.00    -0.550 OA
ATOM      8  O   UNL     1      21.325  29.383  49.110  1.00  0.00    -0.550 OA
ENDBRANCH   5   6
ENDBRANCH   4   5
ENDBRANCH   3   4
ENDBRANCH   2   3
ENDBRANCH   1   2
BRANCH   1   9
ATOM      9  C   UNL     1      21.314  32.154  44.111  1.00  0.00     0.000 C 
BRANCH   9  10
ATOM     10  C   UNL     1      21.521  33.565  44.675  1.00  0.00    -0.000 C 
BRANCH  10  11
ATOM     11  C   UNL     1      20.282  34.438  44.448  1.00  0.00    -0.000 C 
BRANCH  11  12
ATOM     12  C   UNL     1      19.701  34.925  45.783  1.00  0.00    -0.000 C 
BRANCH  12  13
ATOM     13  C   UNL     1      20.476  34.385  46.996  1.00  0.00    -0.003 C 
ATOM     14  C   UNL     1      19.791  34.704  48.325  1.00  0.00     0.004 C 
ENDBRANCH  12  13
ENDBRANCH  11  12
ENDBRANCH  10  11
ENDBRANCH   9  10
ENDBRANCH   1   9
TORSDOF 10
ENDMDL
MODEL 4
REMARK VINA RESULT:    -3.892      1.969      2.515
REMARK INTER + INTRA:          -7.610
REMARK INTER:                  -6.371
REMARK INTRA:                  -1.239
REMARK UNBOUND:                -1.443
REMARK SMILES CCCCCCCCCCCC(=O)[O-]
REMARK SMILES IDX 7 1 8 2 9 3 10 4 11 5 12 6 13 7 14 8 6 9 5 10 4 11 3 12 2 13
REMARK SMILES IDX 1 14
REMARK H PARENT
REMARK Flexibility Score: inf
ROOT
ATOM      1  C   UNL     1      19.014  30.741  44.660  1.00  0.00     0.000 C 
ENDROOT
BRANCH   1   2
ATOM      2  C   UNL     1      18.310  31.107  45.976  1.00  0.00     0.000 C 
BRANCH   2   3
ATOM      3  C   UNL     1      19.202  30.889  47.207  1.00  0.00     0.000 C 
BRANCH   3   4
ATOM      4  C   UNL     1      18.357  30.553  48.444  1.00  0.00     0.006 C 
BRANCH   4   5
ATOM      5  C   UNL     1      18.084  31.787  49.314  1.00  0.00     0.053 C 
BRANCH   5   6
ATOM      6  C   UNL     1      18.776  31.696  50.640  1.00  0.00     0.041 C 
ATOM      7  O   UNL     1      19.449  30.674  50.935  1.00  0.00    -0.550 OA
ATOM      8  O   UNL     1      18.650  32.727  51.562  1.00  0.00    -0.550 OA
ENDBRANCH   5   6
ENDBRANCH   4   5
ENDBRANCH   3   4
ENDBRANCH   2   3
ENDBRANCH   1   2
BRANCH   1   9
ATOM      9  C   UNL     1      19.480  31.977  43.875  1.00  0.00     0.000 C 
BRANCH   9  10
ATOM     10  C   UNL     1      20.977  32.231  44.089  1.00  0.00    -0.000 C 
BRANCH  10  11
ATOM     11  C   UNL     1      21.213  33.547  44.838  1.00  0.00    -0.000 C 
BRANCH  11  12
ATOM     12  C   UNL     1      19.928  34.385  44.895  1.00  0.00    -0.000 C 
BRANCH  12  13
ATOM     13  C   UNL     1      19.558  34.801  46.328  1.00  0.00    -0.003 C 
ATOM     14  C   UNL     1      20.560  34.299  47.368  1.00  0.00     0.004 C 
ENDBRANCH  12  13
ENDBRANCH  11  12
ENDBRANCH  10  11
ENDBRANCH   9  10
ENDBRANCH   1   9
TORSDOF 10
ENDMDL
MODEL 5
REMARK VINA RESULT:    -3.866      1.824      3.704
REMARK INTER + INTRA:          -7.568
REMARK INTER:                  -6.073
REMARK INTRA:                  -1.495
REMARK UNBOUND:                -1.443
REMARK SMILES CCCCCCCCCCCC(=O)[O-]
REMARK SMILES IDX 7 1 8 2 9 3 10 4 11 5 12 6 13 7 14 8 6 9 5 10 4 11 3 12 2 13
REMARK SMILES IDX 1 14
REMARK H PARENT
REMARK Flexibility Score: inf
ROOT
ATOM      1  C   UNL     1      18.937  34.917  46.025  1.00  0.00     0.000 C 
ENDROOT
BRANCH   1   2
ATOM      2  C   UNL     1      20.108  34.760  45.042  1.00  0.00     0.000 C 
BRANCH   2   3
ATOM      3  C   UNL     1      19.893  33.614  44.042  1.00  0.00     0.000 C 
BRANCH   3   4
ATOM      4  C   UNL     1      18.838  32.625  44.559  1.00  0.00     0.006 C 
BRANCH   4   5
ATOM      5  C   UNL     1      19.144  31.179  44.147  1.00  0.00     0.053 C 
BRANCH   5   6
ATOM      6  C   UNL     1      18.656  30.196  45.168  1.00  0.00     0.041 C 
ATOM      7  O   UNL     1      18.331  29.031  44.821  1.00  0.00    -0.550 OA
ATOM      8  O   UNL     1      18.530  30.580  46.497  1.00  0.00    -0.550 OA
ENDBRANCH   5   6
ENDBRANCH   4   5
ENDBRANCH   3   4
ENDBRANCH   2   3
ENDBRANCH   1   2
BRANCH   1   9
ATOM      9  C   UNL     1      19.397  34.980  47.489  1.00  0.00     0.000 C 
BRANCH   9  10
ATOM     10  C   UNL     1      19.059  33.679  48.227  1.00  0.00    -0.000 C 
BRANCH  10  11
ATOM     11  C   UNL     1      20.323  33.023  48.797  1.00  0.00    -0.000 C 
BRANCH  11  12
ATOM     12  C   UNL     1      21.579  33.811  48.398  1.00  0.00    -0.000 C 
BRANCH  12  13
ATOM     13  C   UNL     1      22.564  32.971  47.569  1.00  0.00    -0.003 C 
ATOM     14  C   UNL     1      21.871  31.881  46.752  1.00  0.00     0.004 C 
ENDBRANCH  12  13
ENDBRANCH  11  12
ENDBRANCH  10  11
ENDBRANCH   9  10
ENDBRANCH   1   9
TORSDOF 10
ENDMDL
MODEL 6
REMARK VINA RESULT:    -3.836     10.289     12.257
REMARK INTER + INTRA:          -7.522
REMARK INTER:                  -6.295
REMARK INTRA:                  -1.227
REMARK UNBOUND:                -1.443
REMARK SMILES CCCCCCCCCCCC(=O)[O-]
REMARK SMILES IDX 7 1 8 2 9 3 10 4 11 5 12 6 13 7 14 8 6 9 5 10 4 11 3 12 2 13
REMARK SMILES IDX 1 14
REMARK H PARENT
REMARK Flexibility Score: inf
ROOT
ATOM      1  C   UNL     1      29.472  39.037  45.790  1.00  0.00     0.000 C 
ENDROOT
BRANCH   1   2
ATOM      2  C   UNL     1      29.879  39.766  44.500  1.00  0.00     0.000 C 
BRANCH   2   3
ATOM      3  C   UNL     1      28.803  40.747  44.009  1.00  0.00     0.000 C 
BRANCH   3   4
ATOM      4  C   UNL     1      27.863  41.149  45.155  1.00  0.00     0.006 C 
BRANCH   4   5
ATOM      5  C   UNL     1      27.568  42.655  45.164  1.00  0.00     0.053 C 
BRANCH   5   6
ATOM      6  C   UNL     1      27.607  43.219  46.551  1.00  0.00     0.041 C 
ATOM      7  O   UNL     1      26.570  43.715  47.064  1.00  0.00    -0.550 OA
ATOM      8  O   UNL     1      28.799  43.227  47.265  1.00  0.00    -0.550 OA
ENDBRANCH   5   6
ENDBRANCH   4   5
ENDBRANCH   3   4
ENDBRANCH   2   3
ENDBRANCH   1   2
BRANCH   1   9
ATOM      9  C   UNL     1      29.117  37.562  45.548  1.00  0.00     0.000 C 
BRANCH   9  10
ATOM     10  C   UNL     1      27.986  37.109  46.480  1.00  0.00    -0.000 C 
BRANCH  10  11
ATOM     11  C   UNL     1      27.659  38.190  47.517  1.00  0.00    -0.000 C 
BRANCH  11  12
ATOM     12  C   UNL     1      26.149  38.463  47.569  1.00  0.00    -0.000 C 
BRANCH  12  13
ATOM     13  C   UNL     1      25.825  39.911  47.971  1.00  0.00    -0.003 C 
ATOM     14  C   UNL     1      26.864  40.509  48.919  1.00  0.00     0.004 C 
ENDBRANCH  12  13
ENDBRANCH  11  12
ENDBRANCH  10  11
ENDBRANCH   9  10
ENDBRANCH   1   9
TORSDOF 10
ENDMDL
MODEL 7
REMARK VINA RESULT:    -3.815      1.879      4.199
REMARK INTER + INTRA:          -7.488
REMARK INTER:                  -6.290
REMARK INTRA:                  -1.198
REMARK UNBOUND:                -1.443
REMARK SMILES CCCCCCCCCCCC(=O)[O-]
REMARK SMILES IDX 7 1 8 2 9 3 10 4 11 5 12 6 13 7 14 8 6 9 5 10 4 11 3 12 2 13
REMARK SMILES IDX 1 14
REMARK H PARENT
REMARK Flexibility Score: inf
ROOT
ATOM      1  C   UNL     1      19.067  31.780  44.085  1.00  0.00     0.000 C 
ENDROOT
BRANCH   1   2
ATOM      2  C   UNL     1      20.583  31.883  44.316  1.00  0.00     0.000 C 
BRANCH   2   3
ATOM      3  C   UNL     1      21.141  33.272  43.970  1.00  0.00     0.000 C 
BRANCH   3   4
ATOM      4  C   UNL     1      20.375  34.374  44.715  1.00  0.00     0.006 C 
BRANCH   4   5
ATOM      5  C   UNL     1      20.504  34.243  46.238  1.00  0.00     0.053 C 
BRANCH   5   6
ATOM      6  C   UNL     1      19.227  34.599  46.937  1.00  0.00     0.041 C 
ATOM      7  O   UNL     1      18.653  35.692  46.692  1.00  0.00    -0.550 OA
ATOM      8  O   UNL     1      18.688  33.735  47.882  1.00  0.00    -0.550 OA
ENDBRANCH   5   6
ENDBRANCH   4   5
ENDBRANCH   3   4
ENDBRANCH   2   3
ENDBRANCH   1   2
BRANCH   1   9
ATOM      9  C   UNL     1      18.587  30.326  43.949  1.00  0.00     0.000 C 
BRANCH   9  10
ATOM     10  C   UNL     1      18.689  29.587  45.288  1.00  0.00    -0.000 C 
BRANCH  10  11
ATOM     11  C   UNL     1      17.875  30.298  46.375  1.00  0.00    -0.000 C 
BRANCH  11  12
ATOM     12  C   UNL     1      18.582  30.213  47.735  1.00  0.00    -0.000 C 
BRANCH  12  13
ATOM     13  C   UNL     1      20.072  29.856  47.605  1.00  0.00    -0.003 C 
ATOM     14  C   UNL     1      20.993  31.020  47.972  1.00  0.00     0.004 C 
ENDBRANCH  12  13
ENDBRANCH  11  12
ENDBRANCH  10  11
ENDBRANCH   9  10
ENDBRANCH   1   9
TORSDOF 10
ENDMDL
MODEL 8
REMARK VINA RESULT:    -3.808      1.414      3.021
REMARK INTER + INTRA:          -7.477
REMARK INTER:                  -5.908
REMARK INTRA:                  -1.570
REMARK UNBOUND:                -1.443
REMARK SMILES CCCCCCCCCCCC(=O)[O-]
REMARK SMILES IDX 7 1 8 2 9 3 10 4 11 5 12 6 13 7 14 8 6 9 5 10 4 11 3 12 2 13
REMARK SMILES IDX 1 14
REMARK H PARENT
REMARK Flexibility Score: inf
ROOT
ATOM      1  C   UNL     1      19.544  34.778  47.540  1.00  0.00     0.000 C 
ENDROOT
BRANCH   1   2
ATOM      2  C   UNL     1      18.999  33.494  48.182  1.00  0.00     0.000 C 
BRANCH   2   3
ATOM      3  C   UNL     1      18.041  32.728  47.257  1.00  0.00     0.000 C 
BRANCH   3   4
ATOM      4  C   UNL     1      18.333  31.221  47.291  1.00  0.00     0.006 C 
BRANCH   4   5
ATOM      5  C   UNL     1      18.579  30.708  48.715  1.00  0.00     0.053 C 
BRANCH   5   6
ATOM      6  C   UNL     1      19.383  29.444  48.719  1.00  0.00     0.041 C 
ATOM      7  O   UNL     1      19.451  28.737  49.758  1.00  0.00    -0.550 OA
ATOM      8  O   UNL     1      20.085  29.064  47.581  1.00  0.00    -0.550 OA
ENDBRANCH   5   6
ENDBRANCH   4   5
ENDBRANCH   3   4
ENDBRANCH   2   3
ENDBRANCH   1   2
BRANCH   1   9
ATOM      9  C   UNL     1      19.017  34.997  46.114  1.00  0.00     0.000 C 
BRANCH   9  10
ATOM     10  C   UNL     1      20.136  34.817  45.081  1.00  0.00    -0.000 C 
BRANCH  10  11
ATOM     11  C   UNL     1      19.837  33.643  44.141  1.00  0.00    -0.000 C 
BRANCH  11  12
ATOM     12  C   UNL     1      20.643  32.399  44.542  1.00  0.00    -0.000 C 
BRANCH  12  13
ATOM     13  C   UNL     1      21.911  32.749  45.338  1.00  0.00    -0.003 C 
ATOM     14  C   UNL     1      21.982  32.028  46.684  1.00  0.00     0.004 C 
ENDBRANCH  12  13
ENDBRANCH  11  12
ENDBRANCH  10  11
ENDBRANCH   9  10
ENDBRANCH   1   9
TORSDOF 10
ENDMDL
MODEL 9
REMARK VINA RESULT:    -3.788      1.368      1.912
REMARK INTER + INTRA:          -7.445
REMARK INTER:                  -5.820
REMARK INTRA:                  -1.625
REMARK UNBOUND:                -1.443
REMARK SMILES CCCCCCCCCCCC(=O)[O-]
REMARK SMILES IDX 7 1 8 2 9 3 10 4 11 5 12 6 13 7 14 8 6 9 5 10 4 11 3 12 2 13
REMARK SMILES IDX 1 14
REMARK H PARENT
REMARK Flexibility Score: inf
ROOT
ATOM      1  C   UNL     1      18.010  33.241  44.990  1.00  0.00     0.000 C 
ENDROOT
BRANCH   1   2
ATOM      2  C   UNL     1      17.877  32.033  45.931  1.00  0.00     0.000 C 
BRANCH   2   3
ATOM      3  C   UNL     1      18.619  30.792  45.412  1.00  0.00     0.000 C 
BRANCH   3   4
ATOM      4  C   UNL     1      19.172  29.957  46.576  1.00  0.00     0.006 C 
BRANCH   4   5
ATOM      5  C   UNL     1      18.499  30.302  47.911  1.00  0.00     0.053 C 
BRANCH   5   6
ATOM      6  C   UNL     1      19.313  29.836  49.080  1.00  0.00     0.041 C 
ATOM      7  O   UNL     1      19.180  30.386  50.204  1.00  0.00    -0.550 OA
ATOM      8  O   UNL     1      20.242  28.816  48.917  1.00  0.00    -0.550 OA
ENDBRANCH   5   6
ENDBRANCH   4   5
ENDBRANCH   3   4
ENDBRANCH   2   3
ENDBRANCH   1   2
BRANCH   1   9
ATOM      9  C   UNL     1      19.281  33.183  44.129  1.00  0.00     0.000 C 
BRANCH   9  10
ATOM     10  C   UNL     1      20.380  34.080  44.711  1.00  0.00    -0.000 C 
BRANCH  10  11
ATOM     11  C   UNL     1      21.550  33.245  45.244  1.00  0.00    -0.000 C 
BRANCH  11  12
ATOM     12  C   UNL     1      21.371  32.938  46.738  1.00  0.00    -0.000 C 
BRANCH  12  13
ATOM     13  C   UNL     1      20.830  34.140  47.527  1.00  0.00    -0.003 C 
ATOM     14  C   UNL     1      19.754  33.748  48.540  1.00  0.00     0.004 C 
ENDBRANCH  12  13
ENDBRANCH  11  12
ENDBRANCH  10  11
ENDBRANCH   9  10
ENDBRANCH   1   9
TORSDOF 10
ENDMDL
