MODEL 1
REMARK VINA RESULT:    -1.934      0.000      0.000
REMARK INTER + INTRA:          -1.954
REMARK INTER:                  -2.443
REMARK INTRA:                   0.489
REMARK UNBOUND:                 0.489
REMARK SMILES O=C(C=Cc1ccc(O)cc1)c1ccc(O)cc1O
REMARK SMILES IDX 4 1 3 2 5 3 6 4 7 5 8 6 11 7 10 8 9 9 2 11 1 12 12 13 18 14
REMARK SMILES IDX 13 15 17 16 14 17 15 18 19 19 16 21
REMARK H PARENT 9 10 19 20 16 22
REMARK Flexibility Score: inf
ROOT
ATOM      1  C   UNL     1      42.810  12.851   9.875  1.00  0.00     0.012 C 
ATOM      2  C   UNL     1      42.354  11.618  10.150  1.00  0.00     0.053 C 
ENDROOT
BRANCH   1   3
ATOM      3  C   UNL     1      42.396  14.088  10.570  1.00  0.00    -0.025 A 
ATOM      4  C   UNL     1      42.535  14.173  11.963  1.00  0.00     0.012 A 
ATOM      5  C   UNL     1      42.109  15.316  12.647  1.00  0.00     0.047 A 
ATOM      6  C   UNL     1      41.520  16.374  11.948  1.00  0.00     0.115 A 
ATOM      7  C   UNL     1      41.776  15.141   9.875  1.00  0.00     0.012 A 
ATOM      8  C   UNL     1      41.352  16.283  10.560  1.00  0.00     0.047 A 
BRANCH   6   9
ATOM      9  O   UNL     1      41.101  17.509  12.641  1.00  0.00    -0.508 OA
ATOM     10  H   UNL     1      41.153  17.560  13.651  1.00  0.00     0.293 HD
ENDBRANCH   6   9
ENDBRANCH   1   3
BRANCH   2  11
ATOM     11  C   UNL     1      41.230  11.301  11.063  1.00  0.00     0.189 C 
ATOM     12  O   UNL     1      40.474  12.214  11.489  1.00  0.00    -0.289 OA
BRANCH  11  13
ATOM     13  C   UNL     1      40.932   9.898  11.423  1.00  0.00     0.064 A 
ATOM     14  C   UNL     1      39.904   9.570  12.338  1.00  0.00     0.130 A 
ATOM     15  C   UNL     1      41.660   8.860  10.812  1.00  0.00     0.020 A 
ATOM     16  C   UNL     1      39.613   8.227  12.605  1.00  0.00     0.093 A 
ATOM     17  C   UNL     1      41.367   7.524  11.096  1.00  0.00     0.047 A 
ATOM     18  C   UNL     1      40.340   7.204  11.991  1.00  0.00     0.119 A 
BRANCH  14  19
ATOM     19  O   UNL     1      39.170  10.548  13.015  1.00  0.00    -0.507 OA
ATOM     20  H   UNL     1      38.173  10.672  12.899  1.00  0.00     0.293 HD
ENDBRANCH  14  19
BRANCH  18  21
ATOM     21  O   UNL     1      40.037   5.875  12.277  1.00  0.00    -0.508 OA
ATOM     22  H   UNL     1      40.760   5.169  12.347  1.00  0.00     0.293 HD
ENDBRANCH  18  21
ENDBRANCH  11  13
ENDBRANCH   2  11
TORSDOF 6
ENDMDL
MODEL 2
REMARK VINA RESULT:    -1.655      1.131      6.979
REMARK INTER + INTRA:          -1.602
REMARK INTER:                  -3.445
REMARK INTRA:                   1.843
REMARK UNBOUND:                 0.489
REMARK SMILES O=C(C=Cc1ccc(O)cc1)c1ccc(O)cc1O
REMARK SMILES IDX 4 1 3 2 5 3 6 4 7 5 8 6 11 7 10 8 9 9 2 11 1 12 12 13 18 14
REMARK SMILES IDX 13 15 17 16 14 17 15 18 19 19 16 21
REMARK H PARENT 9 10 19 20 16 22
REMARK Flexibility Score: inf
ROOT
ATOM      1  C   UNL     1      42.615  10.512   9.972  1.00  0.00     0.012 C 
ATOM      2  C   UNL     1      42.470  11.844  10.049  1.00  0.00     0.053 C 
ENDROOT
BRANCH   1   3
ATOM      3  C   UNL     1      41.827   9.522  10.735  1.00  0.00    -0.025 A 
ATOM      4  C   UNL     1      42.359   8.243  10.956  1.00  0.00     0.012 A 
ATOM      5  C   UNL     1      41.612   7.276  11.636  1.00  0.00     0.047 A 
ATOM      6  C   UNL     1      40.320   7.571  12.084  1.00  0.00     0.115 A 
ATOM      7  C   UNL     1      40.517   9.805  11.159  1.00  0.00     0.012 A 
ATOM      8  C   UNL     1      39.773   8.837  11.841  1.00  0.00     0.047 A 
BRANCH   6   9
ATOM      9  O   UNL     1      39.588   6.599  12.763  1.00  0.00    -0.508 OA
ATOM     10  H   UNL     1      38.638   6.370  12.496  1.00  0.00     0.293 HD
ENDBRANCH   6   9
ENDBRANCH   1   3
BRANCH   2  11
ATOM     11  C   UNL     1      41.632  12.561  11.041  1.00  0.00     0.189 C 
ATOM     12  O   UNL     1      40.981  11.922  11.910  1.00  0.00    -0.289 OA
BRANCH  11  13
ATOM     13  C   UNL     1      41.612  14.039  11.073  1.00  0.00     0.064 A 
ATOM     14  C   UNL     1      41.865  14.758  12.266  1.00  0.00     0.130 A 
ATOM     15  C   UNL     1      41.378  14.753   9.883  1.00  0.00     0.020 A 
ATOM     16  C   UNL     1      41.898  16.157  12.241  1.00  0.00     0.093 A 
ATOM     17  C   UNL     1      41.401  16.149   9.875  1.00  0.00     0.047 A 
ATOM     18  C   UNL     1      41.665  16.854  11.054  1.00  0.00     0.119 A 
BRANCH  14  19
ATOM     19  O   UNL     1      42.063  14.117  13.493  1.00  0.00    -0.507 OA
ATOM     20  H   UNL     1      41.496  14.296  14.310  1.00  0.00     0.293 HD
ENDBRANCH  14  19
BRANCH  18  21
ATOM     21  O   UNL     1      41.697  18.247  11.056  1.00  0.00    -0.508 OA
ATOM     22  H   UNL     1      42.080  18.770  10.277  1.00  0.00     0.293 HD
ENDBRANCH  18  21
ENDBRANCH  11  13
ENDBRANCH   2  11
TORSDOF 6
ENDMDL
MODEL 3
REMARK VINA RESULT:    -0.006      1.743      2.183
REMARK INTER + INTRA:           0.482
REMARK INTER:                  -0.288
REMARK INTRA:                   0.770
REMARK UNBOUND:                 0.489
REMARK SMILES O=C(C=Cc1ccc(O)cc1)c1ccc(O)cc1O
REMARK SMILES IDX 4 1 3 2 5 3 6 4 7 5 8 6 11 7 10 8 9 9 2 11 1 12 12 13 18 14
REMARK SMILES IDX 13 15 17 16 14 17 15 18 19 19 16 21
REMARK H PARENT 9 10 19 20 16 22
REMARK Flexibility Score: inf
ROOT
ATOM      1  C   UNL     1      40.424  13.766  12.139  1.00  0.00     0.012 C 
ATOM      2  C   UNL     1      40.550  12.485  11.758  1.00  0.00     0.053 C 
ENDROOT
BRANCH   1   3
ATOM      3  C   UNL     1      41.109  14.915  11.510  1.00  0.00    -0.025 A 
ATOM      4  C   UNL     1      42.306  15.390  12.067  1.00  0.00     0.012 A 
ATOM      5  C   UNL     1      42.947  16.504  11.516  1.00  0.00     0.047 A 
ATOM      6  C   UNL     1      42.388  17.165  10.417  1.00  0.00     0.115 A 
ATOM      7  C   UNL     1      40.535  15.600  10.426  1.00  0.00     0.012 A 
ATOM      8  C   UNL     1      41.178  16.712   9.875  1.00  0.00     0.047 A 
BRANCH   6   9
ATOM      9  O   UNL     1      43.039  18.272   9.876  1.00  0.00    -0.508 OA
ATOM     10  H   UNL     1      42.592  18.863   9.184  1.00  0.00     0.293 HD
ENDBRANCH   6   9
ENDBRANCH   1   3
BRANCH   2  11
ATOM     11  C   UNL     1      41.530  11.974  10.770  1.00  0.00     0.189 C 
ATOM     12  O   UNL     1      42.225  12.773  10.086  1.00  0.00    -0.289 OA
BRANCH  11  13
ATOM     13  C   UNL     1      41.762  10.521  10.630  1.00  0.00     0.064 A 
ATOM     14  C   UNL     1      40.783   9.573  11.012  1.00  0.00     0.130 A 
ATOM     15  C   UNL     1      42.968  10.066  10.065  1.00  0.00     0.020 A 
ATOM     16  C   UNL     1      41.017   8.209  10.806  1.00  0.00     0.093 A 
ATOM     17  C   UNL     1      43.195   8.701   9.876  1.00  0.00     0.047 A 
ATOM     18  C   UNL     1      42.217   7.769  10.243  1.00  0.00     0.119 A 
BRANCH  14  19
ATOM     19  O   UNL     1      39.581   9.949  11.618  1.00  0.00    -0.507 OA
ATOM     20  H   UNL     1      38.793   9.325  11.721  1.00  0.00     0.293 HD
ENDBRANCH  14  19
BRANCH  18  21
ATOM     21  O   UNL     1      42.431   6.405  10.053  1.00  0.00    -0.508 OA
ATOM     22  H   UNL     1      41.668   5.740  10.087  1.00  0.00     0.293 HD
ENDBRANCH  18  21
ENDBRANCH  11  13
ENDBRANCH   2  11
TORSDOF 6
ENDMDL
MODEL 4
REMARK VINA RESULT:     0.462      1.707      7.141
REMARK INTER + INTRA:           1.073
REMARK INTER:                  -2.151
REMARK INTRA:                   3.223
REMARK UNBOUND:                 0.489
REMARK SMILES O=C(C=Cc1ccc(O)cc1)c1ccc(O)cc1O
REMARK SMILES IDX 4 1 3 2 5 3 6 4 7 5 8 6 11 7 10 8 9 9 2 11 1 12 12 13 18 14
REMARK SMILES IDX 13 15 17 16 14 17 15 18 19 19 16 21
REMARK H PARENT 9 10 19 20 16 22
REMARK Flexibility Score: inf
ROOT
ATOM      1  C   UNL     1      39.842  10.605  12.120  1.00  0.00     0.012 C 
ATOM      2  C   UNL     1      40.183  11.903  12.100  1.00  0.00     0.053 C 
ENDROOT
BRANCH   1   3
ATOM      3  C   UNL     1      40.612   9.510  11.493  1.00  0.00    -0.025 A 
ATOM      4  C   UNL     1      40.310   8.181  11.823  1.00  0.00     0.012 A 
ATOM      5  C   UNL     1      41.056   7.131  11.278  1.00  0.00     0.047 A 
ATOM      6  C   UNL     1      42.124   7.401  10.415  1.00  0.00     0.115 A 
ATOM      7  C   UNL     1      41.705   9.779  10.651  1.00  0.00     0.012 A 
ATOM      8  C   UNL     1      42.448   8.728  10.105  1.00  0.00     0.047 A 
BRANCH   6   9
ATOM      9  O   UNL     1      42.857   6.346   9.877  1.00  0.00    -0.508 OA
ATOM     10  H   UNL     1      43.695   6.000  10.328  1.00  0.00     0.293 HD
ENDBRANCH   6   9
ENDBRANCH   1   3
BRANCH   2  11
ATOM     11  C   UNL     1      41.284  12.490  11.298  1.00  0.00     0.189 C 
ATOM     12  O   UNL     1      42.048  11.751  10.622  1.00  0.00    -0.289 OA
BRANCH  11  13
ATOM     13  C   UNL     1      41.450  13.957  11.218  1.00  0.00     0.064 A 
ATOM     14  C   UNL     1      41.889  14.715  12.330  1.00  0.00     0.130 A 
ATOM     15  C   UNL     1      41.207  14.613   9.997  1.00  0.00     0.020 A 
ATOM     16  C   UNL     1      42.093  16.093  12.195  1.00  0.00     0.093 A 
ATOM     17  C   UNL     1      41.403  15.992   9.880  1.00  0.00     0.047 A 
ATOM     18  C   UNL     1      41.850  16.734  10.978  1.00  0.00     0.119 A 
BRANCH  14  19
ATOM     19  O   UNL     1      42.109  14.138  13.584  1.00  0.00    -0.507 OA
ATOM     20  H   UNL     1      42.845  14.435  14.209  1.00  0.00     0.293 HD
ENDBRANCH  14  19
BRANCH  18  21
ATOM     21  O   UNL     1      42.054  18.108  10.870  1.00  0.00    -0.508 OA
ATOM     22  H   UNL     1      42.966  18.522  11.020  1.00  0.00     0.293 HD
ENDBRANCH  18  21
ENDBRANCH  11  13
ENDBRANCH   2  11
TORSDOF 6
ENDMDL
