MODEL 1
REMARK VINA RESULT:    -2.813      0.000      0.000
REMARK INTER + INTRA:          -4.279
REMARK INTER:                  -4.292
REMARK INTRA:                   0.013
REMARK UNBOUND:                 0.013
REMARK SMILES CC1=CCC[C@H](C)C(=O)C[C@@H](C(C)C)C(=O)C1
REMARK SMILES IDX 8 1 9 2 6 3 7 4 5 5 4 6 3 7 2 8 1 9 10 11 11 12 15 13 16 14
REMARK SMILES IDX 17 15 12 17 13 18 14 19
REMARK H PARENT
REMARK Flexibility Score: 70.00
ROOT
ATOM      1  C   UNL     1      15.558  14.590  27.064  1.00  0.00     0.136 C 
ATOM      2  O   UNL     1      16.324  14.842  27.985  1.00  0.00    -0.299 OA
ENDROOT
BRANCH   1   3
ATOM      3  C   UNL     1      14.726  13.329  27.107  1.00  0.00     0.053 C 
ATOM      4  C   UNL     1      15.584  12.107  27.450  1.00  0.00     0.016 C 
BRANCH   3   5
ATOM      5  C   UNL     1      13.572  13.518  28.122  1.00  0.00     0.015 C 
BRANCH   5   6
ATOM      6  C   UNL     1      12.336  14.279  27.601  1.00  0.00     0.028 C 
BRANCH   6   7
ATOM      7  C   UNL     1      11.804  13.877  26.241  1.00  0.00    -0.028 C 
ATOM      8  C   UNL     1      11.491  14.704  25.214  1.00  0.00    -0.070 CG0
ATOM      9  C   UNL     1      10.877  14.087  23.982  1.00  0.00     0.039 C 
ATOM     10  G   UNL     1      11.786  16.194  25.197  1.00  0.00     0.000 G0
ENDBRANCH   6   7
ENDBRANCH   5   6
ENDBRANCH   3   5
ENDBRANCH   1   3
BRANCH   1  11
ATOM     11  C   UNL     1      15.397  15.587  25.942  1.00  0.00     0.087 C 
BRANCH  11  12
ATOM     12  C   UNL     1      14.205  16.564  26.187  1.00  0.00     0.066 C 
BRANCH  12  13
ATOM     13  C   UNL     1      13.249  16.500  25.002  1.00  0.00     0.140 C 
ATOM     14  O   UNL     1      13.678  16.755  23.884  1.00  0.00    -0.299 OA
BRANCH  13  15
ATOM     15  C   UNL     1      11.773  16.206  25.170  1.00  0.00     0.106 CG0
ATOM     16  G   UNL     1      11.518  14.710  25.222  1.00  0.00     0.000 G0
ENDBRANCH  13  15
ENDBRANCH  12  13
BRANCH  12  17
ATOM     17  C   UNL     1      14.689  18.031  26.439  1.00  0.00    -0.006 C 
ATOM     18  C   UNL     1      15.930  18.375  25.590  1.00  0.00     0.008 C 
ATOM     19  C   UNL     1      15.036  18.280  27.920  1.00  0.00     0.008 C 
ENDBRANCH  12  17
ENDBRANCH  11  12
ENDBRANCH   1  11
TORSDOF 1
ENDMDL
MODEL 2
REMARK VINA RESULT:    -2.325      1.997      4.619
REMARK INTER + INTRA:          -3.535
REMARK INTER:                  -5.389
REMARK INTRA:                   1.853
REMARK UNBOUND:                 0.013
REMARK SMILES CC1=CCC[C@H](C)C(=O)C[C@@H](C(C)C)C(=O)C1
REMARK SMILES IDX 8 1 9 2 6 3 7 4 5 5 4 6 3 7 2 8 1 9 10 11 11 12 15 13 16 14
REMARK SMILES IDX 17 15 12 17 13 18 14 19
REMARK H PARENT
REMARK Flexibility Score: 70.00
ROOT
ATOM      1  C   UNL     1      12.024  14.714  26.794  1.00  0.00     0.136 C 
ATOM      2  O   UNL     1      11.293  13.803  27.157  1.00  0.00    -0.299 OA
ENDROOT
BRANCH   1   3
ATOM      3  C   UNL     1      12.253  14.949  25.318  1.00  0.00     0.053 C 
ATOM      4  C   UNL     1      11.029  14.539  24.493  1.00  0.00     0.016 C 
BRANCH   3   5
ATOM      5  C   UNL     1      12.619  16.437  25.093  1.00  0.00     0.015 C 
BRANCH   5   6
ATOM      6  C   UNL     1      13.659  16.714  23.990  1.00  0.00     0.028 C 
BRANCH   6   7
ATOM      7  C   UNL     1      14.899  17.484  24.392  1.00  0.00    -0.028 C 
ATOM      8  C   UNL     1      15.177  17.997  25.615  1.00  0.00    -0.070 CG0
ATOM      9  C   UNL     1      16.433  18.821  25.759  1.00  0.00     0.039 C 
ATOM     10  G   UNL     1      14.347  17.735  26.859  1.00  0.00     0.000 G0
ENDBRANCH   6   7
ENDBRANCH   5   6
ENDBRANCH   3   5
ENDBRANCH   1   3
BRANCH   1  11
ATOM     11  C   UNL     1      12.619  15.641  27.827  1.00  0.00     0.087 C 
BRANCH  11  12
ATOM     12  C   UNL     1      14.137  15.367  28.060  1.00  0.00     0.066 C 
BRANCH  12  13
ATOM     13  C   UNL     1      14.937  16.611  27.689  1.00  0.00     0.140 C 
ATOM     14  O   UNL     1      16.075  16.731  28.123  1.00  0.00    -0.299 OA
BRANCH  13  15
ATOM     15  C   UNL     1      14.344  17.737  26.867  1.00  0.00     0.106 CG0
ATOM     16  G   UNL     1      15.180  18.004  25.628  1.00  0.00     0.000 G0
ENDBRANCH  13  15
ENDBRANCH  12  13
BRANCH  12  17
ATOM     17  C   UNL     1      14.640  14.119  27.261  1.00  0.00    -0.006 C 
ATOM     18  C   UNL     1      14.411  12.811  28.045  1.00  0.00     0.008 C 
ATOM     19  C   UNL     1      16.140  14.216  26.918  1.00  0.00     0.008 C 
ENDBRANCH  12  17
ENDBRANCH  11  12
ENDBRANCH   1  11
TORSDOF 1
ENDMDL
MODEL 3
REMARK VINA RESULT:    -1.842      1.935      3.147
REMARK INTER + INTRA:          -2.798
REMARK INTER:                  -4.625
REMARK INTRA:                   1.827
REMARK UNBOUND:                 0.013
REMARK SMILES CC1=CCC[C@H](C)C(=O)C[C@@H](C(C)C)C(=O)C1
REMARK SMILES IDX 8 1 9 2 6 3 7 4 5 5 4 6 3 7 2 8 1 9 10 11 11 12 15 13 16 14
REMARK SMILES IDX 17 15 12 17 13 18 14 19
REMARK H PARENT
REMARK Flexibility Score: 70.00
ROOT
ATOM      1  C   UNL     1      16.192  18.288  27.280  1.00  0.00     0.136 C 
ATOM      2  O   UNL     1      16.811  19.231  27.754  1.00  0.00    -0.299 OA
ENDROOT
BRANCH   1   3
ATOM      3  C   UNL     1      15.167  17.564  28.125  1.00  0.00     0.053 C 
ATOM      4  C   UNL     1      13.820  18.292  28.109  1.00  0.00     0.016 C 
BRANCH   3   5
ATOM      5  C   UNL     1      15.033  16.107  27.619  1.00  0.00     0.015 C 
BRANCH   5   6
ATOM      6  C   UNL     1      13.652  15.451  27.816  1.00  0.00     0.028 C 
BRANCH   6   7
ATOM      7  C   UNL     1      12.890  15.063  26.566  1.00  0.00    -0.028 C 
ATOM      8  C   UNL     1      12.526  15.881  25.549  1.00  0.00    -0.070 CG0
ATOM      9  C   UNL     1      11.678  15.292  24.448  1.00  0.00     0.039 C 
ATOM     10  G   UNL     1      12.976  17.324  25.412  1.00  0.00     0.000 G0
ENDBRANCH   6   7
ENDBRANCH   5   6
ENDBRANCH   3   5
ENDBRANCH   1   3
BRANCH   1  11
ATOM     11  C   UNL     1      16.403  17.917  25.832  1.00  0.00     0.087 C 
BRANCH  11  12
ATOM     12  C   UNL     1      15.304  18.521  24.903  1.00  0.00     0.066 C 
BRANCH  12  13
ATOM     13  C   UNL     1      14.255  17.457  24.606  1.00  0.00     0.140 C 
ATOM     14  O   UNL     1      14.431  16.704  23.656  1.00  0.00    -0.299 OA
BRANCH  13  15
ATOM     15  C   UNL     1      12.967  17.349  25.396  1.00  0.00     0.106 CG0
ATOM     16  G   UNL     1      12.525  15.902  25.519  1.00  0.00     0.000 G0
ENDBRANCH  13  15
ENDBRANCH  12  13
BRANCH  12  17
ATOM     17  C   UNL     1      15.906  19.100  23.579  1.00  0.00    -0.006 C 
ATOM     18  C   UNL     1      16.439  20.534  23.775  1.00  0.00     0.008 C 
ATOM     19  C   UNL     1      14.872  19.125  22.435  1.00  0.00     0.008 C 
ENDBRANCH  12  17
ENDBRANCH  11  12
ENDBRANCH   1  11
TORSDOF 1
ENDMDL
MODEL 4
REMARK VINA RESULT:    -1.382      1.905      3.678
REMARK INTER + INTRA:          -2.096
REMARK INTER:                  -4.249
REMARK INTRA:                   2.153
REMARK UNBOUND:                 0.013
REMARK SMILES CC1=CCC[C@H](C)C(=O)C[C@@H](C(C)C)C(=O)C1
REMARK SMILES IDX 8 1 9 2 6 3 7 4 5 5 4 6 3 7 2 8 1 9 10 11 11 12 15 13 16 14
REMARK SMILES IDX 17 15 12 17 13 18 14 19
REMARK H PARENT
REMARK Flexibility Score: 70.00
ROOT
ATOM      1  C   UNL     1      12.778  17.015  26.444  1.00  0.00     0.136 C 
ATOM      2  O   UNL     1      12.742  17.845  27.342  1.00  0.00    -0.299 OA
ENDROOT
BRANCH   1   3
ATOM      3  C   UNL     1      11.821  15.845  26.466  1.00  0.00     0.053 C 
ATOM      4  C   UNL     1      11.883  15.050  25.158  1.00  0.00     0.016 C 
BRANCH   3   5
ATOM      5  C   UNL     1      12.141  14.953  27.691  1.00  0.00     0.015 C 
BRANCH   5   6
ATOM      6  C   UNL     1      12.684  13.546  27.373  1.00  0.00     0.028 C 
BRANCH   6   7
ATOM      7  C   UNL     1      14.040  13.187  27.944  1.00  0.00    -0.028 C 
ATOM      8  C   UNL     1      15.251  13.534  27.443  1.00  0.00    -0.070 CG0
ATOM      9  C   UNL     1      16.475  12.975  28.124  1.00  0.00     0.039 C 
ATOM     10  G   UNL     1      15.452  14.504  26.292  1.00  0.00     0.000 G0
ENDBRANCH   6   7
ENDBRANCH   5   6
ENDBRANCH   3   5
ENDBRANCH   1   3
BRANCH   1  11
ATOM     11  C   UNL     1      13.722  17.221  25.283  1.00  0.00     0.087 C 
BRANCH  11  12
ATOM     12  C   UNL     1      15.218  17.097  25.712  1.00  0.00     0.066 C 
BRANCH  12  13
ATOM     13  C   UNL     1      15.361  15.960  26.718  1.00  0.00     0.140 C 
ATOM     14  O   UNL     1      15.446  16.234  27.908  1.00  0.00    -0.299 OA
BRANCH  13  15
ATOM     15  C   UNL     1      15.478  14.512  26.289  1.00  0.00     0.106 CG0
ATOM     16  G   UNL     1      15.236  13.578  27.461  1.00  0.00     0.000 G0
ENDBRANCH  13  15
ENDBRANCH  12  13
BRANCH  12  17
ATOM     17  C   UNL     1      15.776  18.437  26.296  1.00  0.00    -0.006 C 
ATOM     18  C   UNL     1      16.995  18.942  25.499  1.00  0.00     0.008 C 
ATOM     19  C   UNL     1      16.195  18.294  27.774  1.00  0.00     0.008 C 
ENDBRANCH  12  17
ENDBRANCH  11  12
ENDBRANCH   1  11
TORSDOF 1
ENDMDL
MODEL 5
REMARK VINA RESULT:    -1.310      1.591      3.486
REMARK INTER + INTRA:          -1.986
REMARK INTER:                  -4.831
REMARK INTRA:                   2.845
REMARK UNBOUND:                 0.013
REMARK SMILES CC1=CCC[C@H](C)C(=O)C[C@@H](C(C)C)C(=O)C1
REMARK SMILES IDX 8 1 9 2 6 3 7 4 5 5 4 6 3 7 2 8 1 9 10 11 11 12 15 13 16 14
REMARK SMILES IDX 17 15 12 17 13 18 14 19
REMARK H PARENT
REMARK Flexibility Score: 70.00
ROOT
ATOM      1  C   UNL     1      12.509  16.475  25.571  1.00  0.00     0.136 C 
ATOM      2  O   UNL     1      12.430  17.621  25.992  1.00  0.00    -0.299 OA
ENDROOT
BRANCH   1   3
ATOM      3  C   UNL     1      11.285  15.588  25.576  1.00  0.00     0.053 C 
ATOM      4  C   UNL     1      11.386  14.494  24.508  1.00  0.00     0.016 C 
BRANCH   3   5
ATOM      5  C   UNL     1      11.101  14.987  26.991  1.00  0.00     0.015 C 
BRANCH   5   6
ATOM      6  C   UNL     1      10.947  13.454  27.056  1.00  0.00     0.028 C 
BRANCH   6   7
ATOM      7  C   UNL     1      12.159  12.659  27.489  1.00  0.00    -0.028 C 
ATOM      8  C   UNL     1      13.397  13.142  27.754  1.00  0.00    -0.070 CG0
ATOM      9  C   UNL     1      14.484  12.145  28.072  1.00  0.00     0.039 C 
ATOM     10  G   UNL     1      13.739  14.620  27.823  1.00  0.00     0.000 G0
ENDBRANCH   6   7
ENDBRANCH   5   6
ENDBRANCH   3   5
ENDBRANCH   1   3
BRANCH   1  11
ATOM     11  C   UNL     1      13.811  15.994  24.975  1.00  0.00     0.087 C 
BRANCH  11  12
ATOM     12  C   UNL     1      14.997  16.105  25.983  1.00  0.00     0.066 C 
BRANCH  12  13
ATOM     13  C   UNL     1      14.958  14.917  26.937  1.00  0.00     0.140 C 
ATOM     14  O   UNL     1      15.902  14.138  26.947  1.00  0.00    -0.299 OA
BRANCH  13  15
ATOM     15  C   UNL     1      13.761  14.627  27.818  1.00  0.00     0.106 CG0
ATOM     16  G   UNL     1      13.387  13.156  27.759  1.00  0.00     0.000 G0
ENDBRANCH  13  15
ENDBRANCH  12  13
BRANCH  12  17
ATOM     17  C   UNL     1      14.977  17.458  26.770  1.00  0.00    -0.006 C 
ATOM     18  C   UNL     1      15.628  18.597  25.960  1.00  0.00     0.008 C 
ATOM     19  C   UNL     1      15.708  17.351  28.123  1.00  0.00     0.008 C 
ENDBRANCH  12  17
ENDBRANCH  11  12
ENDBRANCH   1  11
TORSDOF 1
ENDMDL
MODEL 6
REMARK VINA RESULT:    -1.285      1.983      4.324
REMARK INTER + INTRA:          -1.948
REMARK INTER:                  -4.127
REMARK INTRA:                   2.179
REMARK UNBOUND:                 0.013
REMARK SMILES CC1=CCC[C@H](C)C(=O)C[C@@H](C(C)C)C(=O)C1
REMARK SMILES IDX 8 1 9 2 6 3 7 4 5 5 4 6 3 7 2 8 1 9 10 11 11 12 15 13 16 14
REMARK SMILES IDX 17 15 12 17 13 18 14 19
REMARK H PARENT
REMARK Flexibility Score: 70.00
ROOT
ATOM      1  C   UNL     1      13.734  16.748  27.934  1.00  0.00     0.136 C 
ATOM      2  O   UNL     1      13.392  17.921  27.996  1.00  0.00    -0.299 OA
ENDROOT
BRANCH   1   3
ATOM      3  C   UNL     1      15.190  16.382  28.114  1.00  0.00     0.053 C 
ATOM      4  C   UNL     1      15.389  14.864  28.087  1.00  0.00     0.016 C 
BRANCH   3   5
ATOM      5  C   UNL     1      16.028  17.086  27.017  1.00  0.00     0.015 C 
BRANCH   5   6
ATOM      6  C   UNL     1      15.508  18.460  26.553  1.00  0.00     0.028 C 
BRANCH   6   7
ATOM      7  C   UNL     1      15.195  18.615  25.079  1.00  0.00    -0.028 C 
ATOM      8  C   UNL     1      14.779  17.644  24.230  1.00  0.00    -0.070 CG0
ATOM      9  C   UNL     1      14.627  18.007  22.773  1.00  0.00     0.039 C 
ATOM     10  G   UNL     1      14.389  16.242  24.663  1.00  0.00     0.000 G0
ENDBRANCH   6   7
ENDBRANCH   5   6
ENDBRANCH   3   5
ENDBRANCH   1   3
BRANCH   1  11
ATOM     11  C   UNL     1      12.682  15.679  27.763  1.00  0.00     0.087 C 
BRANCH  11  12
ATOM     12  C   UNL     1      12.672  15.088  26.318  1.00  0.00     0.066 C 
BRANCH  12  13
ATOM     13  C   UNL     1      13.037  16.184  25.324  1.00  0.00     0.140 C 
ATOM     14  O   UNL     1      12.194  17.025  25.039  1.00  0.00    -0.299 OA
BRANCH  13  15
ATOM     15  C   UNL     1      14.378  16.223  24.620  1.00  0.00     0.106 CG0
ATOM     16  G   UNL     1      14.756  17.646  24.251  1.00  0.00     0.000 G0
ENDBRANCH  13  15
ENDBRANCH  12  13
BRANCH  12  17
ATOM     17  C   UNL     1      11.295  14.439  25.957  1.00  0.00    -0.006 C 
ATOM     18  C   UNL     1      11.063  13.126  26.732  1.00  0.00     0.008 C 
ATOM     19  C   UNL     1      11.175  14.135  24.450  1.00  0.00     0.008 C 
ENDBRANCH  12  17
ENDBRANCH  11  12
ENDBRANCH   1  11
TORSDOF 1
ENDMDL
MODEL 7
REMARK VINA RESULT:    -0.277      2.023      4.563
REMARK INTER + INTRA:          -0.410
REMARK INTER:                  -3.585
REMARK INTRA:                   3.175
REMARK UNBOUND:                 0.013
REMARK SMILES CC1=CCC[C@H](C)C(=O)C[C@@H](C(C)C)C(=O)C1
REMARK SMILES IDX 8 1 9 2 6 3 7 4 5 5 4 6 3 7 2 8 1 9 10 11 11 12 15 13 16 14
REMARK SMILES IDX 17 15 12 17 13 18 14 19
REMARK H PARENT
REMARK Flexibility Score: 70.00
ROOT
ATOM      1  C   UNL     1      14.922  15.972  27.101  1.00  0.00     0.136 C 
ATOM      2  O   UNL     1      15.288  15.410  28.125  1.00  0.00    -0.299 OA
ENDROOT
BRANCH   1   3
ATOM      3  C   UNL     1      14.371  17.378  27.174  1.00  0.00     0.053 C 
ATOM      4  C   UNL     1      13.152  17.450  28.098  1.00  0.00     0.016 C 
BRANCH   3   5
ATOM      5  C   UNL     1      15.495  18.338  27.636  1.00  0.00     0.015 C 
BRANCH   5   6
ATOM      6  C   UNL     1      16.705  18.462  26.690  1.00  0.00     0.028 C 
BRANCH   6   7
ATOM      7  C   UNL     1      16.493  19.223  25.398  1.00  0.00    -0.028 C 
ATOM      8  C   UNL     1      15.459  19.084  24.533  1.00  0.00    -0.070 CG0
ATOM      9  C   UNL     1      15.509  19.879  23.251  1.00  0.00     0.039 C 
ATOM     10  G   UNL     1      14.227  18.239  24.804  1.00  0.00     0.000 G0
ENDBRANCH   6   7
ENDBRANCH   5   6
ENDBRANCH   3   5
ENDBRANCH   1   3
BRANCH   1  11
ATOM     11  C   UNL     1      15.106  15.280  25.772  1.00  0.00     0.087 C 
BRANCH  11  12
ATOM     12  C   UNL     1      13.955  15.608  24.772  1.00  0.00     0.066 C 
BRANCH  12  13
ATOM     13  C   UNL     1      14.262  16.923  24.064  1.00  0.00     0.140 C 
ATOM     14  O   UNL     1      14.624  16.892  22.895  1.00  0.00    -0.299 OA
BRANCH  13  15
ATOM     15  C   UNL     1      14.209  18.257  24.779  1.00  0.00     0.106 CG0
ATOM     16  G   UNL     1      15.462  19.070  24.507  1.00  0.00     0.000 G0
ENDBRANCH  13  15
ENDBRANCH  12  13
BRANCH  12  17
ATOM     17  C   UNL     1      12.559  15.665  25.478  1.00  0.00    -0.006 C 
ATOM     18  C   UNL     1      12.105  14.270  25.955  1.00  0.00     0.008 C 
ATOM     19  C   UNL     1      11.465  16.237  24.554  1.00  0.00     0.008 C 
ENDBRANCH  12  17
ENDBRANCH  11  12
ENDBRANCH   1  11
TORSDOF 1
ENDMDL
MODEL 8
REMARK VINA RESULT:     0.017      1.986      3.486
REMARK INTER + INTRA:           0.039
REMARK INTER:                  -1.315
REMARK INTRA:                   1.355
REMARK UNBOUND:                 0.013
REMARK SMILES CC1=CCC[C@H](C)C(=O)C[C@@H](C(C)C)C(=O)C1
REMARK SMILES IDX 8 1 9 2 6 3 7 4 5 5 4 6 3 7 2 8 1 9 10 11 11 12 15 13 16 14
REMARK SMILES IDX 17 15 12 17 13 18 14 19
REMARK H PARENT
REMARK Flexibility Score: 70.00
ROOT
ATOM      1  C   UNL     1      16.968  17.947  26.490  1.00  0.00     0.136 C 
ATOM      2  O   UNL     1      18.116  18.272  26.217  1.00  0.00    -0.299 OA
ENDROOT
BRANCH   1   3
ATOM      3  C   UNL     1      16.432  18.189  27.883  1.00  0.00     0.053 C 
ATOM      4  C   UNL     1      16.127  19.673  28.111  1.00  0.00     0.016 C 
BRANCH   3   5
ATOM      5  C   UNL     1      15.177  17.309  28.102  1.00  0.00     0.015 C 
BRANCH   5   6
ATOM      6  C   UNL     1      15.331  15.817  27.747  1.00  0.00     0.028 C 
BRANCH   6   7
ATOM      7  C   UNL     1      14.060  15.036  27.493  1.00  0.00    -0.028 C 
ATOM      8  C   UNL     1      13.293  15.071  26.376  1.00  0.00    -0.070 CG0
ATOM      9  C   UNL     1      12.007  14.282  26.385  1.00  0.00     0.039 C 
ATOM     10  G   UNL     1      13.680  15.793  25.097  1.00  0.00     0.000 G0
ENDBRANCH   6   7
ENDBRANCH   5   6
ENDBRANCH   3   5
ENDBRANCH   1   3
BRANCH   1  11
ATOM     11  C   UNL     1      16.080  17.385  25.406  1.00  0.00     0.087 C 
BRANCH  11  12
ATOM     12  C   UNL     1      14.791  18.238  25.198  1.00  0.00     0.066 C 
BRANCH  12  13
ATOM     13  C   UNL     1      13.571  17.326  25.244  1.00  0.00     0.140 C 
ATOM     14  O   UNL     1      12.475  17.818  25.480  1.00  0.00    -0.299 OA
BRANCH  13  15
ATOM     15  C   UNL     1      13.679  15.823  25.082  1.00  0.00     0.106 CG0
ATOM     16  G   UNL     1      13.300  15.110  26.368  1.00  0.00     0.000 G0
ENDBRANCH  13  15
ENDBRANCH  12  13
BRANCH  12  17
ATOM     17  C   UNL     1      14.832  19.053  23.863  1.00  0.00    -0.006 C 
ATOM     18  C   UNL     1      14.623  18.145  22.635  1.00  0.00     0.008 C 
ATOM     19  C   UNL     1      16.167  19.803  23.683  1.00  0.00     0.008 C 
ENDBRANCH  12  17
ENDBRANCH  11  12
ENDBRANCH   1  11
TORSDOF 1
ENDMDL
