MODEL 1
REMARK VINA RESULT:    -3.522      0.000      0.000
REMARK INTER + INTRA:          -4.771
REMARK INTER:                  -4.552
REMARK INTRA:                  -0.219
REMARK UNBOUND:                -0.219
REMARK SMILES CCCCCCC(=O)[O-]
REMARK SMILES IDX 5 1 6 2 7 3 8 4 9 5 4 6 3 7 2 8 1 9
REMARK H PARENT
REMARK Flexibility Score: inf
ROOT
ATOM      1  C   UNL     1      67.360 -14.611  13.796  1.00  0.00     0.006 C 
ENDROOT
BRANCH   1   2
ATOM      2  C   UNL     1      65.962 -14.754  13.185  1.00  0.00     0.053 C 
BRANCH   2   3
ATOM      3  C   UNL     1      65.890 -14.051  11.867  1.00  0.00     0.041 C 
ATOM      4  O   UNL     1      65.192 -13.011  11.742  1.00  0.00    -0.550 OA
ATOM      5  O   UNL     1      66.556 -14.571  10.765  1.00  0.00    -0.550 OA
ENDBRANCH   2   3
ENDBRANCH   1   2
BRANCH   1   6
ATOM      6  C   UNL     1      67.887 -15.967  14.287  1.00  0.00     0.000 C 
BRANCH   6   7
ATOM      7  C   UNL     1      68.588 -15.872  15.651  1.00  0.00    -0.000 C 
BRANCH   7   8
ATOM      8  C   UNL     1      68.073 -16.916  16.653  1.00  0.00    -0.003 C 
ATOM      9  C   UNL     1      66.568 -17.125  16.502  1.00  0.00     0.004 C 
ENDBRANCH   7   8
ENDBRANCH   6   7
ENDBRANCH   1   6
TORSDOF 5
ENDMDL
MODEL 2
REMARK VINA RESULT:    -3.430      1.783      2.630
REMARK INTER + INTRA:          -4.651
REMARK INTER:                  -4.323
REMARK INTRA:                  -0.328
REMARK UNBOUND:                -0.219
REMARK SMILES CCCCCCC(=O)[O-]
REMARK SMILES IDX 5 1 6 2 7 3 8 4 9 5 4 6 3 7 2 8 1 9
REMARK H PARENT
REMARK Flexibility Score: inf
ROOT
ATOM      1  C   UNL     1      65.702 -14.273  12.470  1.00  0.00     0.006 C 
ENDROOT
BRANCH   1   2
ATOM      2  C   UNL     1      65.989 -14.435  10.974  1.00  0.00     0.053 C 
BRANCH   2   3
ATOM      3  C   UNL     1      67.244 -15.220  10.762  1.00  0.00     0.041 C 
ATOM      4  O   UNL     1      68.344 -14.784  11.195  1.00  0.00    -0.550 OA
ATOM      5  O   UNL     1      67.209 -16.409  10.046  1.00  0.00    -0.550 OA
ENDBRANCH   2   3
ENDBRANCH   1   2
BRANCH   1   6
ATOM      6  C   UNL     1      65.277 -15.610  13.095  1.00  0.00     0.000 C 
BRANCH   6   7
ATOM      7  C   UNL     1      65.985 -15.892  14.430  1.00  0.00    -0.000 C 
BRANCH   7   8
ATOM      8  C   UNL     1      67.276 -15.077  14.597  1.00  0.00    -0.003 C 
ATOM      9  C   UNL     1      68.274 -15.807  15.492  1.00  0.00     0.004 C 
ENDBRANCH   7   8
ENDBRANCH   6   7
ENDBRANCH   1   6
TORSDOF 5
ENDMDL
MODEL 3
REMARK VINA RESULT:    -3.409      1.010      1.856
REMARK INTER + INTRA:          -4.624
REMARK INTER:                  -4.342
REMARK INTRA:                  -0.282
REMARK UNBOUND:                -0.219
REMARK SMILES CCCCCCC(=O)[O-]
REMARK SMILES IDX 5 1 6 2 7 3 8 4 9 5 4 6 3 7 2 8 1 9
REMARK H PARENT
REMARK Flexibility Score: inf
ROOT
ATOM      1  C   UNL     1      66.960 -14.595  14.151  1.00  0.00     0.006 C 
ENDROOT
BRANCH   1   2
ATOM      2  C   UNL     1      67.338 -14.587  12.666  1.00  0.00     0.053 C 
BRANCH   2   3
ATOM      3  C   UNL     1      66.121 -14.398  11.816  1.00  0.00     0.041 C 
ATOM      4  O   UNL     1      65.801 -15.270  10.966  1.00  0.00    -0.550 OA
ATOM      5  O   UNL     1      65.367 -13.237  11.929  1.00  0.00    -0.550 OA
ENDBRANCH   2   3
ENDBRANCH   1   2
BRANCH   1   6
ATOM      6  C   UNL     1      66.363 -15.951  14.558  1.00  0.00     0.000 C 
BRANCH   6   7
ATOM      7  C   UNL     1      67.208 -16.676  15.618  1.00  0.00    -0.000 C 
BRANCH   7   8
ATOM      8  C   UNL     1      68.504 -15.924  15.954  1.00  0.00    -0.003 C 
ATOM      9  C   UNL     1      69.730 -16.728  15.527  1.00  0.00     0.004 C 
ENDBRANCH   7   8
ENDBRANCH   6   7
ENDBRANCH   1   6
TORSDOF 5
ENDMDL
MODEL 4
REMARK VINA RESULT:    -3.299      2.315      3.305
REMARK INTER + INTRA:          -4.483
REMARK INTER:                  -4.162
REMARK INTRA:                  -0.321
REMARK UNBOUND:                -0.219
REMARK SMILES CCCCCCC(=O)[O-]
REMARK SMILES IDX 5 1 6 2 7 3 8 4 9 5 4 6 3 7 2 8 1 9
REMARK H PARENT
REMARK Flexibility Score: inf
ROOT
ATOM      1  C   UNL     1      66.183 -14.589  10.965  1.00  0.00     0.006 C 
ENDROOT
BRANCH   1   2
ATOM      2  C   UNL     1      66.987 -15.878  10.761  1.00  0.00     0.053 C 
BRANCH   2   3
ATOM      3  C   UNL     1      68.106 -15.650   9.795  1.00  0.00     0.041 C 
ATOM      4  O   UNL     1      68.183 -16.335   8.742  1.00  0.00    -0.550 OA
ATOM      5  O   UNL     1      69.092 -14.714  10.081  1.00  0.00    -0.550 OA
ENDBRANCH   2   3
ENDBRANCH   1   2
BRANCH   1   6
ATOM      6  C   UNL     1      66.063 -14.247  12.457  1.00  0.00     0.000 C 
BRANCH   6   7
ATOM      7  C   UNL     1      67.398 -14.386  13.206  1.00  0.00    -0.000 C 
BRANCH   7   8
ATOM      8  C   UNL     1      67.234 -15.039  14.587  1.00  0.00    -0.003 C 
ATOM      9  C   UNL     1      65.980 -15.908  14.638  1.00  0.00     0.004 C 
ENDBRANCH   7   8
ENDBRANCH   6   7
ENDBRANCH   1   6
TORSDOF 5
ENDMDL
MODEL 5
REMARK VINA RESULT:    -3.130      1.575      2.377
REMARK INTER + INTRA:          -4.264
REMARK INTER:                  -3.934
REMARK INTRA:                  -0.330
REMARK UNBOUND:                -0.219
REMARK SMILES CCCCCCC(=O)[O-]
REMARK SMILES IDX 5 1 6 2 7 3 8 4 9 5 4 6 3 7 2 8 1 9
REMARK H PARENT
REMARK Flexibility Score: inf
ROOT
ATOM      1  C   UNL     1      65.257 -16.456  13.811  1.00  0.00     0.006 C 
ENDROOT
BRANCH   1   2
ATOM      2  C   UNL     1      65.476 -15.524  12.614  1.00  0.00     0.053 C 
BRANCH   2   3
ATOM      3  C   UNL     1      66.935 -15.384  12.319  1.00  0.00     0.041 C 
ATOM      4  O   UNL     1      67.595 -16.373  11.904  1.00  0.00    -0.550 OA
ATOM      5  O   UNL     1      67.579 -14.175  12.548  1.00  0.00    -0.550 OA
ENDBRANCH   2   3
ENDBRANCH   1   2
BRANCH   1   6
ATOM      6  C   UNL     1      66.022 -15.955  15.045  1.00  0.00     0.000 C 
BRANCH   6   7
ATOM      7  C   UNL     1      66.705 -17.093  15.821  1.00  0.00    -0.000 C 
BRANCH   7   8
ATOM      8  C   UNL     1      68.036 -16.660  16.452  1.00  0.00    -0.003 C 
ATOM      9  C   UNL     1      68.958 -16.031  15.411  1.00  0.00     0.004 C 
ENDBRANCH   7   8
ENDBRANCH   6   7
ENDBRANCH   1   6
TORSDOF 5
ENDMDL
MODEL 6
REMARK VINA RESULT:    -3.129      3.205      4.936
REMARK INTER + INTRA:          -4.263
REMARK INTER:                  -3.978
REMARK INTRA:                  -0.285
REMARK UNBOUND:                -0.219
REMARK SMILES CCCCCCC(=O)[O-]
REMARK SMILES IDX 5 1 6 2 7 3 8 4 9 5 4 6 3 7 2 8 1 9
REMARK H PARENT
REMARK Flexibility Score: inf
ROOT
ATOM      1  C   UNL     1      67.084 -14.901  14.370  1.00  0.00     0.006 C 
ENDROOT
BRANCH   1   2
ATOM      2  C   UNL     1      68.296 -15.831  14.256  1.00  0.00     0.053 C 
BRANCH   2   3
ATOM      3  C   UNL     1      68.770 -16.245  15.613  1.00  0.00     0.041 C 
ATOM      4  O   UNL     1      67.947 -16.380  16.556  1.00  0.00    -0.550 OA
ATOM      5  O   UNL     1      70.125 -16.434  15.849  1.00  0.00    -0.550 OA
ENDBRANCH   2   3
ENDBRANCH   1   2
BRANCH   1   6
ATOM      6  C   UNL     1      65.826 -15.563  13.787  1.00  0.00     0.000 C 
BRANCH   6   7
ATOM      7  C   UNL     1      65.424 -14.975  12.426  1.00  0.00    -0.000 C 
BRANCH   7   8
ATOM      8  C   UNL     1      65.865 -15.857  11.248  1.00  0.00    -0.003 C 
ATOM      9  C   UNL     1      67.120 -15.300  10.584  1.00  0.00     0.004 C 
ENDBRANCH   7   8
ENDBRANCH   6   7
ENDBRANCH   1   6
TORSDOF 5
ENDMDL
MODEL 7
REMARK VINA RESULT:    -3.100      2.852      4.570
REMARK INTER + INTRA:          -4.226
REMARK INTER:                  -3.953
REMARK INTRA:                  -0.273
REMARK UNBOUND:                -0.219
REMARK SMILES CCCCCCC(=O)[O-]
REMARK SMILES IDX 5 1 6 2 7 3 8 4 9 5 4 6 3 7 2 8 1 9
REMARK H PARENT
REMARK Flexibility Score: inf
ROOT
ATOM      1  C   UNL     1      65.659 -14.183  12.414  1.00  0.00     0.006 C 
ENDROOT
BRANCH   1   2
ATOM      2  C   UNL     1      65.446 -15.489  13.187  1.00  0.00     0.053 C 
BRANCH   2   3
ATOM      3  C   UNL     1      66.347 -15.546  14.379  1.00  0.00     0.041 C 
ATOM      4  O   UNL     1      67.259 -14.690  14.525  1.00  0.00    -0.550 OA
ATOM      5  O   UNL     1      66.211 -16.572  15.305  1.00  0.00    -0.550 OA
ENDBRANCH   2   3
ENDBRANCH   1   2
BRANCH   1   6
ATOM      6  C   UNL     1      65.995 -14.464  10.942  1.00  0.00     0.000 C 
BRANCH   6   7
ATOM      7  C   UNL     1      67.093 -15.527  10.777  1.00  0.00    -0.000 C 
BRANCH   7   8
ATOM      8  C   UNL     1      68.486 -14.998  11.149  1.00  0.00    -0.003 C 
ATOM      9  C   UNL     1      69.356 -14.821   9.907  1.00  0.00     0.004 C 
ENDBRANCH   7   8
ENDBRANCH   6   7
ENDBRANCH   1   6
TORSDOF 5
ENDMDL
MODEL 8
REMARK VINA RESULT:    -3.044      9.019     10.283
REMARK INTER + INTRA:          -4.153
REMARK INTER:                  -3.944
REMARK INTRA:                  -0.209
REMARK UNBOUND:                -0.219
REMARK SMILES CCCCCCC(=O)[O-]
REMARK SMILES IDX 5 1 6 2 7 3 8 4 9 5 4 6 3 7 2 8 1 9
REMARK H PARENT
REMARK Flexibility Score: inf
ROOT
ATOM      1  C   UNL     1      56.289 -16.051  10.898  1.00  0.00     0.006 C 
ENDROOT
BRANCH   1   2
ATOM      2  C   UNL     1      57.399 -15.926   9.850  1.00  0.00     0.053 C 
BRANCH   2   3
ATOM      3  C   UNL     1      57.194 -14.703   9.013  1.00  0.00     0.041 C 
ATOM      4  O   UNL     1      57.936 -14.484   8.019  1.00  0.00    -0.550 OA
ATOM      5  O   UNL     1      56.216 -13.780   9.358  1.00  0.00    -0.550 OA
ENDBRANCH   2   3
ENDBRANCH   1   2
BRANCH   1   6
ATOM      6  C   UNL     1      56.692 -17.029  12.012  1.00  0.00     0.000 C 
BRANCH   6   7
ATOM      7  C   UNL     1      56.362 -16.497  13.415  1.00  0.00    -0.000 C 
BRANCH   7   8
ATOM      8  C   UNL     1      57.577 -16.516  14.355  1.00  0.00    -0.003 C 
ATOM      9  C   UNL     1      58.879 -16.389  13.569  1.00  0.00     0.004 C 
ENDBRANCH   7   8
ENDBRANCH   6   7
ENDBRANCH   1   6
TORSDOF 5
ENDMDL
