MODEL 1
REMARK VINA RESULT:    -3.288      0.000      0.000
REMARK INTER + INTRA:          -3.384
REMARK INTER:                  -3.384
REMARK INTRA:                   0.000
REMARK UNBOUND:                 0.000
REMARK SMILES Nc1ncnc2nc[nH]c12
REMARK SMILES IDX 8 1 7 2 6 3 5 4 4 5 3 6 2 7 10 8 9 9 1 11
REMARK H PARENT 9 10 1 12 1 13
REMARK Flexibility Score: inf
ROOT
ATOM      1  C   UNL     1      82.028  -0.876  68.228  1.00  0.00     0.199 A 
ATOM      2  N   UNL     1      80.848  -0.931  68.904  1.00  0.00    -0.217 NA
ATOM      3  C   UNL     1      80.330   0.286  68.672  1.00  0.00     0.182 A 
ATOM      4  N   UNL     1      79.144   0.758  69.125  1.00  0.00    -0.215 NA
ATOM      5  C   UNL     1      78.784   2.032  68.782  1.00  0.00     0.226 A 
ATOM      6  N   UNL     1      79.607   2.802  68.000  1.00  0.00    -0.217 NA
ATOM      7  C   UNL     1      80.803   2.327  67.542  1.00  0.00     0.152 A 
ATOM      8  C   UNL     1      81.156   1.028  67.900  1.00  0.00     0.127 A 
ATOM      9  N   UNL     1      82.245   0.309  67.604  1.00  0.00    -0.340 N 
ATOM     10  H   UNL     1      83.073   0.584  67.030  1.00  0.00     0.168 HD
ENDROOT
BRANCH   7  11
ATOM     11  N   UNL     1      81.643   3.146  66.729  1.00  0.00    -0.382 N 
ATOM     12  H   UNL     1      81.778   2.948  65.713  1.00  0.00     0.158 HD
ATOM     13  H   UNL     1      82.140   3.964  67.148  1.00  0.00     0.158 HD
ENDBRANCH   7  11
TORSDOF 1
ENDMDL
MODEL 2
REMARK VINA RESULT:    -3.191      8.714     10.032
REMARK INTER + INTRA:          -3.284
REMARK INTER:                  -3.284
REMARK INTRA:                   0.000
REMARK UNBOUND:                 0.000
REMARK SMILES Nc1ncnc2nc[nH]c12
REMARK SMILES IDX 8 1 7 2 6 3 5 4 4 5 3 6 2 7 10 8 9 9 1 11
REMARK H PARENT 9 10 1 12 1 13
REMARK Flexibility Score: inf
ROOT
ATOM      1  C   UNL     1      78.445  -8.404  64.310  1.00  0.00     0.199 A 
ATOM      2  N   UNL     1      78.516  -7.061  64.516  1.00  0.00    -0.217 NA
ATOM      3  C   UNL     1      77.488  -6.847  65.354  1.00  0.00     0.182 A 
ATOM      4  N   UNL     1      77.109  -5.658  65.880  1.00  0.00    -0.215 NA
ATOM      5  C   UNL     1      76.029  -5.638  66.719  1.00  0.00     0.226 A 
ATOM      6  N   UNL     1      75.355  -6.796  67.013  1.00  0.00    -0.217 NA
ATOM      7  C   UNL     1      75.736  -7.996  66.484  1.00  0.00     0.152 A 
ATOM      8  C   UNL     1      76.837  -8.000  65.631  1.00  0.00     0.127 A 
ATOM      9  N   UNL     1      77.429  -9.007  64.978  1.00  0.00    -0.340 N 
ATOM     10  H   UNL     1      77.177 -10.020  64.974  1.00  0.00     0.168 HD
ENDROOT
BRANCH   7  11
ATOM     11  N   UNL     1      75.020  -9.189  66.805  1.00  0.00    -0.382 N 
ATOM     12  H   UNL     1      75.169  -9.686  67.710  1.00  0.00     0.158 HD
ATOM     13  H   UNL     1      74.329  -9.582  66.127  1.00  0.00     0.158 HD
ENDBRANCH   7  11
TORSDOF 1
ENDMDL
MODEL 3
REMARK VINA RESULT:    -3.158     12.437     13.591
REMARK INTER + INTRA:          -3.250
REMARK INTER:                  -3.250
REMARK INTRA:                   0.000
REMARK UNBOUND:                 0.000
REMARK SMILES Nc1ncnc2nc[nH]c12
REMARK SMILES IDX 8 1 7 2 6 3 5 4 4 5 3 6 2 7 10 8 9 9 1 11
REMARK H PARENT 9 10 1 12 1 13
REMARK Flexibility Score: inf
ROOT
ATOM      1  C   UNL     1      69.856  -9.339  68.474  1.00  0.00     0.199 A 
ATOM      2  N   UNL     1      70.451  -8.160  68.801  1.00  0.00    -0.217 NA
ATOM      3  C   UNL     1      71.413  -8.058  67.868  1.00  0.00     0.182 A 
ATOM      4  N   UNL     1      72.308  -7.050  67.738  1.00  0.00    -0.215 NA
ATOM      5  C   UNL     1      73.219  -7.122  66.721  1.00  0.00     0.226 A 
ATOM      6  N   UNL     1      73.217  -8.191  65.860  1.00  0.00    -0.217 NA
ATOM      7  C   UNL     1      72.315  -9.208  65.990  1.00  0.00     0.152 A 
ATOM      8  C   UNL     1      71.394  -9.120  67.031  1.00  0.00     0.127 A 
ATOM      9  N   UNL     1      70.411  -9.951  67.396  1.00  0.00    -0.340 N 
ATOM     10  H   UNL     1      70.127 -10.857  66.963  1.00  0.00     0.168 HD
ENDROOT
BRANCH   7  11
ATOM     11  N   UNL     1      72.332 -10.310  65.082  1.00  0.00    -0.382 N 
ATOM     12  H   UNL     1      71.461 -10.837  64.849  1.00  0.00     0.158 HD
ATOM     13  H   UNL     1      73.229 -10.605  64.635  1.00  0.00     0.158 HD
ENDBRANCH   7  11
TORSDOF 1
ENDMDL
MODEL 4
REMARK VINA RESULT:    -3.143     21.797     22.875
REMARK INTER + INTRA:          -3.235
REMARK INTER:                  -3.235
REMARK INTRA:                   0.000
REMARK UNBOUND:                 0.000
REMARK SMILES Nc1ncnc2nc[nH]c12
REMARK SMILES IDX 8 1 7 2 6 3 5 4 4 5 3 6 2 7 10 8 9 9 1 11
REMARK H PARENT 9 10 1 12 1 13
REMARK Flexibility Score: inf
ROOT
ATOM      1  C   UNL     1      64.327   4.548  49.943  1.00  0.00     0.199 A 
ATOM      2  N   UNL     1      65.656   4.277  49.831  1.00  0.00    -0.217 NA
ATOM      3  C   UNL     1      66.167   4.917  50.897  1.00  0.00     0.182 A 
ATOM      4  N   UNL     1      67.470   4.967  51.260  1.00  0.00    -0.215 NA
ATOM      5  C   UNL     1      67.801   5.673  52.384  1.00  0.00     0.226 A 
ATOM      6  N   UNL     1      66.831   6.308  53.116  1.00  0.00    -0.217 NA
ATOM      7  C   UNL     1      65.515   6.259  52.752  1.00  0.00     0.152 A 
ATOM      8  C   UNL     1      65.195   5.536  51.605  1.00  0.00     0.127 A 
ATOM      9  N   UNL     1      64.013   5.316  51.017  1.00  0.00    -0.340 N 
ATOM     10  H   UNL     1      63.067   5.650  51.306  1.00  0.00     0.168 HD
ENDROOT
BRANCH   7  11
ATOM     11  N   UNL     1      64.523   6.928  53.530  1.00  0.00    -0.382 N 
ATOM     12  H   UNL     1      64.180   7.880  53.273  1.00  0.00     0.158 HD
ATOM     13  H   UNL     1      64.124   6.465  54.378  1.00  0.00     0.158 HD
ENDBRANCH   7  11
TORSDOF 1
ENDMDL
MODEL 5
REMARK VINA RESULT:    -3.139      3.521      4.467
REMARK INTER + INTRA:          -3.230
REMARK INTER:                  -3.230
REMARK INTRA:                   0.000
REMARK UNBOUND:                 0.000
REMARK SMILES Nc1ncnc2nc[nH]c12
REMARK SMILES IDX 8 1 7 2 6 3 5 4 4 5 3 6 2 7 10 8 9 9 1 11
REMARK H PARENT 9 10 1 12 1 13
REMARK Flexibility Score: inf
ROOT
ATOM      1  C   UNL     1      80.432   2.393  66.537  1.00  0.00     0.199 A 
ATOM      2  N   UNL     1      79.090   2.392  66.764  1.00  0.00    -0.217 NA
ATOM      3  C   UNL     1      78.635   3.190  65.783  1.00  0.00     0.182 A 
ATOM      4  N   UNL     1      77.345   3.529  65.551  1.00  0.00    -0.215 NA
ATOM      5  C   UNL     1      77.074   4.359  64.499  1.00  0.00     0.226 A 
ATOM      6  N   UNL     1      78.090   4.831  63.706  1.00  0.00    -0.217 NA
ATOM      7  C   UNL     1      79.392   4.491  63.939  1.00  0.00     0.152 A 
ATOM      8  C   UNL     1      79.651   3.645  65.014  1.00  0.00     0.127 A 
ATOM      9  N   UNL     1      80.806   3.150  65.475  1.00  0.00    -0.340 N 
ATOM     10  H   UNL     1      81.773   3.303  65.112  1.00  0.00     0.168 HD
ENDROOT
BRANCH   7  11
ATOM     11  N   UNL     1      80.433   4.994  63.101  1.00  0.00    -0.382 N 
ATOM     12  H   UNL     1      80.333   5.901  62.595  1.00  0.00     0.158 HD
ATOM     13  H   UNL     1      81.317   4.450  62.982  1.00  0.00     0.158 HD
ENDBRANCH   7  11
TORSDOF 1
ENDMDL
MODEL 6
REMARK VINA RESULT:    -3.121     16.180     16.707
REMARK INTER + INTRA:          -3.213
REMARK INTER:                  -3.213
REMARK INTRA:                   0.000
REMARK UNBOUND:                 0.000
REMARK SMILES Nc1ncnc2nc[nH]c12
REMARK SMILES IDX 8 1 7 2 6 3 5 4 4 5 3 6 2 7 10 8 9 9 1 11
REMARK H PARENT 9 10 1 12 1 13
REMARK Flexibility Score: inf
ROOT
ATOM      1  C   UNL     1      82.483  -4.824  53.898  1.00  0.00     0.199 A 
ATOM      2  N   UNL     1      81.260  -5.354  53.623  1.00  0.00    -0.217 NA
ATOM      3  C   UNL     1      80.805  -4.534  52.660  1.00  0.00     0.182 A 
ATOM      4  N   UNL     1      79.612  -4.619  52.025  1.00  0.00    -0.215 NA
ATOM      5  C   UNL     1      79.323  -3.687  51.067  1.00  0.00     0.226 A 
ATOM      6  N   UNL     1      80.225  -2.698  50.764  1.00  0.00    -0.217 NA
ATOM      7  C   UNL     1      81.429  -2.611  51.403  1.00  0.00     0.152 A 
ATOM      8  C   UNL     1      81.707  -3.568  52.377  1.00  0.00     0.127 A 
ATOM      9  N   UNL     1      82.786  -3.731  53.152  1.00  0.00    -0.340 N 
ATOM     10  H   UNL     1      83.659  -3.160  53.186  1.00  0.00     0.168 HD
ENDROOT
BRANCH   7  11
ATOM     11  N   UNL     1      82.351  -1.574  51.071  1.00  0.00    -0.382 N 
ATOM     12  H   UNL     1      82.314  -0.642  51.540  1.00  0.00     0.158 HD
ATOM     13  H   UNL     1      83.083  -1.738  50.344  1.00  0.00     0.158 HD
ENDBRANCH   7  11
TORSDOF 1
ENDMDL
MODEL 7
REMARK VINA RESULT:    -3.092     21.017     21.325
REMARK INTER + INTRA:          -3.182
REMARK INTER:                  -3.182
REMARK INTRA:                   0.000
REMARK UNBOUND:                 0.000
REMARK SMILES Nc1ncnc2nc[nH]c12
REMARK SMILES IDX 8 1 7 2 6 3 5 4 4 5 3 6 2 7 10 8 9 9 1 11
REMARK H PARENT 9 10 1 12 1 13
REMARK Flexibility Score: inf
ROOT
ATOM      1  C   UNL     1      72.072 -10.105  51.375  1.00  0.00     0.199 A 
ATOM      2  N   UNL     1      71.598  -8.844  51.182  1.00  0.00    -0.217 NA
ATOM      3  C   UNL     1      70.687  -8.730  52.163  1.00  0.00     0.182 A 
ATOM      4  N   UNL     1      69.911  -7.651  52.423  1.00  0.00    -0.215 NA
ATOM      5  C   UNL     1      69.035  -7.722  53.471  1.00  0.00     0.226 A 
ATOM      6  N   UNL     1      68.953  -8.861  54.232  1.00  0.00    -0.217 NA
ATOM      7  C   UNL     1      69.734  -9.951  53.971  1.00  0.00     0.152 A 
ATOM      8  C   UNL     1      70.620  -9.862  52.901  1.00  0.00     0.127 A 
ATOM      9  N   UNL     1      71.494 -10.753  52.418  1.00  0.00    -0.340 N 
ATOM     10  H   UNL     1      71.693 -11.721  52.755  1.00  0.00     0.168 HD
ENDROOT
BRANCH   7  11
ATOM     11  N   UNL     1      69.630 -11.125  54.777  1.00  0.00    -0.382 N 
ATOM     12  H   UNL     1      68.809 -11.286  55.401  1.00  0.00     0.158 HD
ATOM     13  H   UNL     1      70.386 -11.845  54.750  1.00  0.00     0.158 HD
ENDBRANCH   7  11
TORSDOF 1
ENDMDL
MODEL 8
REMARK VINA RESULT:    -3.041      5.732      6.914
REMARK INTER + INTRA:          -3.130
REMARK INTER:                  -3.130
REMARK INTRA:                   0.000
REMARK UNBOUND:                 0.000
REMARK SMILES Nc1ncnc2nc[nH]c12
REMARK SMILES IDX 8 1 7 2 6 3 5 4 4 5 3 6 2 7 10 8 9 9 1 11
REMARK H PARENT 9 10 1 12 1 13
REMARK Flexibility Score: inf
ROOT
ATOM      1  C   UNL     1      79.649   4.389  63.803  1.00  0.00     0.199 A 
ATOM      2  N   UNL     1      78.570   3.673  64.221  1.00  0.00    -0.217 NA
ATOM      3  C   UNL     1      77.596   4.599  64.222  1.00  0.00     0.182 A 
ATOM      4  N   UNL     1      76.300   4.407  64.564  1.00  0.00    -0.215 NA
ATOM      5  C   UNL     1      75.451   5.478  64.504  1.00  0.00     0.226 A 
ATOM      6  N   UNL     1      75.911   6.708  64.105  1.00  0.00    -0.217 NA
ATOM      7  C   UNL     1      77.218   6.903  63.760  1.00  0.00     0.152 A 
ATOM      8  C   UNL     1      78.069   5.803  63.828  1.00  0.00     0.127 A 
ATOM      9  N   UNL     1      79.375   5.695  63.554  1.00  0.00    -0.340 N 
ATOM     10  H   UNL     1      80.037   6.433  63.227  1.00  0.00     0.168 HD
ENDROOT
BRANCH   7  11
ATOM     11  N   UNL     1      77.673   8.192  63.349  1.00  0.00    -0.382 N 
ATOM     12  H   UNL     1      77.850   8.411  62.344  1.00  0.00     0.158 HD
ATOM     13  H   UNL     1      77.837   8.940  64.060  1.00  0.00     0.158 HD
ENDBRANCH   7  11
TORSDOF 1
ENDMDL
MODEL 9
REMARK VINA RESULT:    -2.999     20.406     21.385
REMARK INTER + INTRA:          -3.087
REMARK INTER:                  -3.087
REMARK INTRA:                   0.000
REMARK UNBOUND:                 0.000
REMARK SMILES Nc1ncnc2nc[nH]c12
REMARK SMILES IDX 8 1 7 2 6 3 5 4 4 5 3 6 2 7 10 8 9 9 1 11
REMARK H PARENT 9 10 1 12 1 13
REMARK Flexibility Score: inf
ROOT
ATOM      1  C   UNL     1      65.101   6.055  52.781  1.00  0.00     0.199 A 
ATOM      2  N   UNL     1      65.898   5.047  52.332  1.00  0.00    -0.217 NA
ATOM      3  C   UNL     1      67.105   5.635  52.295  1.00  0.00     0.182 A 
ATOM      4  N   UNL     1      68.271   5.061  51.912  1.00  0.00    -0.215 NA
ATOM      5  C   UNL     1      69.406   5.823  51.940  1.00  0.00     0.226 A 
ATOM      6  N   UNL     1      69.354   7.133  52.347  1.00  0.00    -0.217 NA
ATOM      7  C   UNL     1      68.180   7.713  52.733  1.00  0.00     0.152 A 
ATOM      8  C   UNL     1      67.033   6.923  52.699  1.00  0.00     0.127 A 
ATOM      9  N   UNL     1      65.766   7.215  53.015  1.00  0.00    -0.340 N 
ATOM     10  H   UNL     1      65.369   8.117  53.359  1.00  0.00     0.168 HD
ENDROOT
BRANCH   7  11
ATOM     11  N   UNL     1      68.150   9.077  53.153  1.00  0.00    -0.382 N 
ATOM     12  H   UNL     1      68.839   9.773  52.790  1.00  0.00     0.158 HD
ATOM     13  H   UNL     1      67.429   9.398  53.837  1.00  0.00     0.158 HD
ENDBRANCH   7  11
TORSDOF 1
ENDMDL
