MODEL 1
REMARK VINA RESULT:    13.031      0.000      0.000
REMARK INTER + INTRA:          23.035
REMARK INTER:                  23.696
REMARK INTRA:                  -0.662
REMARK UNBOUND:                -0.662
REMARK SMILES CCCCCCCCCCCCCC[C@H](C)C(=O)[O-]
REMARK SMILES IDX 9 1 10 2 11 3 12 4 13 5 14 6 15 7 16 8 17 9 18 10 19 11 8 12
REMARK SMILES IDX 7 13 6 14 5 15 4 16 3 17 2 18 1 19
REMARK H PARENT
REMARK Flexibility Score: inf
ROOT
ATOM      1  C   UNL     1     -14.716  28.022  -3.973  1.00  0.00     0.000 C 
ENDROOT
BRANCH   1   2
ATOM      2  C   UNL     1     -15.896  27.758  -3.025  1.00  0.00     0.000 C 
BRANCH   2   3
ATOM      3  C   UNL     1     -17.001  26.966  -3.733  1.00  0.00     0.000 C 
BRANCH   3   4
ATOM      4  C   UNL     1     -18.274  26.909  -2.875  1.00  0.00     0.000 C 
BRANCH   4   5
ATOM      5  C   UNL     1     -19.403  26.093  -3.530  1.00  0.00     0.001 C 
BRANCH   5   6
ATOM      6  C   UNL     1     -20.796  26.757  -3.502  1.00  0.00     0.009 C 
BRANCH   6   7
ATOM      7  C   UNL     1     -21.080  27.733  -4.668  1.00  0.00     0.032 C 
ATOM      8  C   UNL     1     -20.200  27.453  -5.893  1.00  0.00     0.014 C 
BRANCH   7   9
ATOM      9  C   UNL     1     -20.875  29.149  -4.202  1.00  0.00     0.044 C 
ATOM     10  O   UNL     1     -21.093  30.117  -4.979  1.00  0.00    -0.550 OA
ATOM     11  O   UNL     1     -20.428  29.397  -2.910  1.00  0.00    -0.550 OA
ENDBRANCH   7   9
ENDBRANCH   6   7
ENDBRANCH   5   6
ENDBRANCH   4   5
ENDBRANCH   3   4
ENDBRANCH   2   3
ENDBRANCH   1   2
BRANCH   1  12
ATOM     12  C   UNL     1     -13.464  28.521  -3.234  1.00  0.00     0.000 C 
BRANCH  12  13
ATOM     13  C   UNL     1     -12.712  29.610  -4.012  1.00  0.00    -0.000 C 
BRANCH  13  14
ATOM     14  C   UNL     1     -12.736  29.323  -5.518  1.00  0.00    -0.000 C 
BRANCH  14  15
ATOM     15  C   UNL     1     -11.899  30.355  -6.290  1.00  0.00    -0.000 C 
BRANCH  15  16
ATOM     16  C   UNL     1     -11.430  29.824  -7.660  1.00  0.00    -0.000 C 
BRANCH  16  17
ATOM     17  C   UNL     1      -9.947  29.410  -7.698  1.00  0.00    -0.000 C 
BRANCH  17  18
ATOM     18  C   UNL     1      -9.022  30.302  -6.845  1.00  0.00    -0.003 C 
ATOM     19  C   UNL     1      -7.801  30.797  -7.621  1.00  0.00     0.004 C 
ENDBRANCH  17  18
ENDBRANCH  16  17
ENDBRANCH  15  16
ENDBRANCH  14  15
ENDBRANCH  13  14
ENDBRANCH  12  13
ENDBRANCH   1  12
TORSDOF 14
ENDMDL
MODEL 2
REMARK VINA RESULT:    13.199      3.991      9.015
REMARK INTER + INTRA:          23.340
REMARK INTER:                  23.731
REMARK INTRA:                  -0.391
REMARK UNBOUND:                -0.662
REMARK SMILES CCCCCCCCCCCCCC[C@H](C)C(=O)[O-]
REMARK SMILES IDX 9 1 10 2 11 3 12 4 13 5 14 6 15 7 16 8 17 9 18 10 19 11 8 12
REMARK SMILES IDX 7 13 6 14 5 15 4 16 3 17 2 18 1 19
REMARK H PARENT
REMARK Flexibility Score: inf
ROOT
ATOM      1  C   UNL     1     -16.333  28.229  -3.760  1.00  0.00     0.000 C 
ENDROOT
BRANCH   1   2
ATOM      2  C   UNL     1     -15.040  27.753  -3.080  1.00  0.00     0.000 C 
BRANCH   2   3
ATOM      3  C   UNL     1     -14.017  28.891  -2.988  1.00  0.00     0.000 C 
BRANCH   3   4
ATOM      4  C   UNL     1     -12.652  28.451  -3.537  1.00  0.00     0.000 C 
BRANCH   4   5
ATOM      5  C   UNL     1     -12.008  29.501  -4.459  1.00  0.00     0.001 C 
BRANCH   5   6
ATOM      6  C   UNL     1     -12.058  29.174  -5.966  1.00  0.00     0.009 C 
BRANCH   6   7
ATOM      7  C   UNL     1     -11.350  30.199  -6.883  1.00  0.00     0.032 C 
ATOM      8  C   UNL     1     -12.185  30.551  -8.121  1.00  0.00     0.014 C 
BRANCH   7   9
ATOM      9  C   UNL     1     -10.011  29.658  -7.305  1.00  0.00     0.044 C 
ATOM     10  O   UNL     1      -9.864  28.431  -7.553  1.00  0.00    -0.550 OA
ATOM     11  O   UNL     1      -8.921  30.512  -7.415  1.00  0.00    -0.550 OA
ENDBRANCH   7   9
ENDBRANCH   6   7
ENDBRANCH   5   6
ENDBRANCH   4   5
ENDBRANCH   3   4
ENDBRANCH   2   3
ENDBRANCH   1   2
BRANCH   1  12
ATOM     12  C   UNL     1     -17.596  27.665  -3.091  1.00  0.00     0.000 C 
BRANCH  12  13
ATOM     13  C   UNL     1     -17.526  26.145  -2.881  1.00  0.00    -0.000 C 
BRANCH  13  14
ATOM     14  C   UNL     1     -18.853  25.478  -3.260  1.00  0.00    -0.000 C 
BRANCH  14  15
ATOM     15  C   UNL     1     -19.950  26.526  -3.499  1.00  0.00    -0.000 C 
BRANCH  15  16
ATOM     16  C   UNL     1     -19.941  27.066  -4.944  1.00  0.00    -0.000 C 
BRANCH  16  17
ATOM     17  C   UNL     1     -20.663  28.415  -5.116  1.00  0.00    -0.000 C 
BRANCH  17  18
ATOM     18  C   UNL     1     -20.098  29.549  -4.236  1.00  0.00    -0.003 C 
ATOM     19  C   UNL     1     -21.091  30.019  -3.172  1.00  0.00     0.004 C 
ENDBRANCH  17  18
ENDBRANCH  16  17
ENDBRANCH  15  16
ENDBRANCH  14  15
ENDBRANCH  13  14
ENDBRANCH  12  13
ENDBRANCH   1  12
TORSDOF 14
ENDMDL
MODEL 3
REMARK VINA RESULT:    13.577      4.134      9.143
REMARK INTER + INTRA:          24.027
REMARK INTER:                  23.700
REMARK INTRA:                   0.327
REMARK UNBOUND:                -0.662
REMARK SMILES CCCCCCCCCCCCCC[C@H](C)C(=O)[O-]
REMARK SMILES IDX 9 1 10 2 11 3 12 4 13 5 14 6 15 7 16 8 17 9 18 10 19 11 8 12
REMARK SMILES IDX 7 13 6 14 5 15 4 16 3 17 2 18 1 19
REMARK H PARENT
REMARK Flexibility Score: inf
ROOT
ATOM      1  C   UNL     1     -16.339  27.898  -3.327  1.00  0.00     0.000 C 
ENDROOT
BRANCH   1   2
ATOM      2  C   UNL     1     -14.882  27.613  -2.933  1.00  0.00     0.000 C 
BRANCH   2   3
ATOM      3  C   UNL     1     -14.036  28.890  -3.001  1.00  0.00     0.000 C 
BRANCH   3   4
ATOM      4  C   UNL     1     -12.738  28.649  -3.786  1.00  0.00     0.000 C 
BRANCH   4   5
ATOM      5  C   UNL     1     -12.744  29.314  -5.174  1.00  0.00     0.001 C 
BRANCH   5   6
ATOM      6  C   UNL     1     -11.430  30.019  -5.573  1.00  0.00     0.009 C 
BRANCH   6   7
ATOM      7  C   UNL     1     -11.141  30.055  -7.091  1.00  0.00     0.032 C 
ATOM      8  C   UNL     1     -11.679  28.815  -7.819  1.00  0.00     0.014 C 
BRANCH   7   9
ATOM      9  C   UNL     1      -9.660  30.180  -7.321  1.00  0.00     0.044 C 
ATOM     10  O   UNL     1      -9.097  29.536  -8.247  1.00  0.00    -0.550 OA
ATOM     11  O   UNL     1      -8.897  31.002  -6.500  1.00  0.00    -0.550 OA
ENDBRANCH   7   9
ENDBRANCH   6   7
ENDBRANCH   5   6
ENDBRANCH   4   5
ENDBRANCH   3   4
ENDBRANCH   2   3
ENDBRANCH   1   2
BRANCH   1  12
ATOM     12  C   UNL     1     -17.301  26.786  -2.881  1.00  0.00     0.000 C 
BRANCH  12  13
ATOM     13  C   UNL     1     -18.739  27.016  -3.368  1.00  0.00    -0.000 C 
BRANCH  13  14
ATOM     14  C   UNL     1     -19.119  28.498  -3.273  1.00  0.00    -0.000 C 
BRANCH  14  15
ATOM     15  C   UNL     1     -20.542  28.738  -3.803  1.00  0.00    -0.000 C 
BRANCH  15  16
ATOM     16  C   UNL     1     -20.660  28.457  -5.314  1.00  0.00    -0.000 C 
BRANCH  16  17
ATOM     17  C   UNL     1     -19.881  27.215  -5.785  1.00  0.00    -0.000 C 
BRANCH  17  18
ATOM     18  C   UNL     1     -20.757  25.963  -5.995  1.00  0.00    -0.003 C 
ATOM     19  C   UNL     1     -20.982  25.643  -7.473  1.00  0.00     0.004 C 
ENDBRANCH  17  18
ENDBRANCH  16  17
ENDBRANCH  15  16
ENDBRANCH  14  15
ENDBRANCH  13  14
ENDBRANCH  12  13
ENDBRANCH   1  12
TORSDOF 14
ENDMDL
MODEL 4
REMARK VINA RESULT:    13.868      0.956      1.518
REMARK INTER + INTRA:          24.557
REMARK INTER:                  25.026
REMARK INTRA:                  -0.469
REMARK UNBOUND:                -0.662
REMARK SMILES CCCCCCCCCCCCCC[C@H](C)C(=O)[O-]
REMARK SMILES IDX 9 1 10 2 11 3 12 4 13 5 14 6 15 7 16 8 17 9 18 10 19 11 8 12
REMARK SMILES IDX 7 13 6 14 5 15 4 16 3 17 2 18 1 19
REMARK H PARENT
REMARK Flexibility Score: inf
ROOT
ATOM      1  C   UNL     1     -16.170  27.896  -4.091  1.00  0.00     0.000 C 
ENDROOT
BRANCH   1   2
ATOM      2  C   UNL     1     -16.793  26.549  -3.693  1.00  0.00     0.000 C 
BRANCH   2   3
ATOM      3  C   UNL     1     -18.145  26.754  -2.999  1.00  0.00     0.000 C 
BRANCH   3   4
ATOM      4  C   UNL     1     -18.924  25.433  -2.912  1.00  0.00     0.000 C 
BRANCH   4   5
ATOM      5  C   UNL     1     -20.445  25.625  -3.044  1.00  0.00     0.001 C 
BRANCH   5   6
ATOM      6  C   UNL     1     -20.942  27.079  -2.897  1.00  0.00     0.009 C 
BRANCH   6   7
ATOM      7  C   UNL     1     -21.124  27.846  -4.227  1.00  0.00     0.032 C 
ATOM      8  C   UNL     1     -20.639  27.039  -5.439  1.00  0.00     0.014 C 
BRANCH   7   9
ATOM      9  C   UNL     1     -20.392  29.158  -4.159  1.00  0.00     0.044 C 
ATOM     10  O   UNL     1     -20.300  29.895  -5.177  1.00  0.00    -0.550 OA
ATOM     11  O   UNL     1     -19.798  29.561  -2.969  1.00  0.00    -0.550 OA
ENDBRANCH   7   9
ENDBRANCH   6   7
ENDBRANCH   5   6
ENDBRANCH   4   5
ENDBRANCH   3   4
ENDBRANCH   2   3
ENDBRANCH   1   2
BRANCH   1  12
ATOM     12  C   UNL     1     -15.465  28.592  -2.917  1.00  0.00     0.000 C 
BRANCH  12  13
ATOM     13  C   UNL     1     -13.966  28.807  -3.169  1.00  0.00    -0.000 C 
BRANCH  13  14
ATOM     14  C   UNL     1     -13.638  28.681  -4.662  1.00  0.00    -0.000 C 
BRANCH  14  15
ATOM     15  C   UNL     1     -12.150  28.959  -4.925  1.00  0.00    -0.000 C 
BRANCH  15  16
ATOM     16  C   UNL     1     -11.935  29.958  -6.080  1.00  0.00    -0.000 C 
BRANCH  16  17
ATOM     17  C   UNL     1     -10.530  30.589  -6.111  1.00  0.00    -0.000 C 
BRANCH  17  18
ATOM     18  C   UNL     1      -9.616  30.039  -7.224  1.00  0.00    -0.003 C 
ATOM     19  C   UNL     1     -10.190  28.791  -7.895  1.00  0.00     0.004 C 
ENDBRANCH  17  18
ENDBRANCH  16  17
ENDBRANCH  15  16
ENDBRANCH  14  15
ENDBRANCH  13  14
ENDBRANCH  12  13
ENDBRANCH   1  12
TORSDOF 14
ENDMDL
MODEL 5
REMARK VINA RESULT:    14.878      1.514      2.284
REMARK INTER + INTRA:          26.393
REMARK INTER:                  27.180
REMARK INTRA:                  -0.787
REMARK UNBOUND:                -0.662
REMARK SMILES CCCCCCCCCCCCCC[C@H](C)C(=O)[O-]
REMARK SMILES IDX 9 1 10 2 11 3 12 4 13 5 14 6 15 7 16 8 17 9 18 10 19 11 8 12
REMARK SMILES IDX 7 13 6 14 5 15 4 16 3 17 2 18 1 19
REMARK H PARENT
REMARK Flexibility Score: inf
ROOT
ATOM      1  C   UNL     1     -14.586  28.211  -3.670  1.00  0.00     0.000 C 
ENDROOT
BRANCH   1   2
ATOM      2  C   UNL     1     -15.872  28.485  -2.875  1.00  0.00     0.000 C 
BRANCH   2   3
ATOM      3  C   UNL     1     -17.088  27.852  -3.563  1.00  0.00     0.000 C 
BRANCH   3   4
ATOM      4  C   UNL     1     -17.243  26.378  -3.160  1.00  0.00     0.000 C 
BRANCH   4   5
ATOM      5  C   UNL     1     -18.704  25.985  -2.876  1.00  0.00     0.001 C 
BRANCH   5   6
ATOM      6  C   UNL     1     -19.738  27.116  -3.056  1.00  0.00     0.009 C 
BRANCH   6   7
ATOM      7  C   UNL     1     -20.832  26.842  -4.114  1.00  0.00     0.032 C 
ATOM      8  C   UNL     1     -21.061  25.341  -4.342  1.00  0.00     0.014 C 
BRANCH   7   9
ATOM      9  C   UNL     1     -20.459  27.506  -5.411  1.00  0.00     0.044 C 
ATOM     10  O   UNL     1     -20.395  26.838  -6.478  1.00  0.00    -0.550 OA
ATOM     11  O   UNL     1     -20.170  28.865  -5.437  1.00  0.00    -0.550 OA
ENDBRANCH   7   9
ENDBRANCH   6   7
ENDBRANCH   5   6
ENDBRANCH   4   5
ENDBRANCH   3   4
ENDBRANCH   2   3
ENDBRANCH   1   2
BRANCH   1  12
ATOM     12  C   UNL     1     -13.371  28.966  -3.109  1.00  0.00     0.000 C 
BRANCH  12  13
ATOM     13  C   UNL     1     -12.161  28.923  -4.053  1.00  0.00    -0.000 C 
BRANCH  13  14
ATOM     14  C   UNL     1     -12.028  30.235  -4.835  1.00  0.00    -0.000 C 
BRANCH  14  15
ATOM     15  C   UNL     1     -10.945  30.125  -5.919  1.00  0.00    -0.000 C 
BRANCH  15  16
ATOM     16  C   UNL     1     -11.354  29.174  -7.062  1.00  0.00    -0.000 C 
BRANCH  16  17
ATOM     17  C   UNL     1     -11.768  29.893  -8.360  1.00  0.00    -0.000 C 
BRANCH  17  18
ATOM     18  C   UNL     1     -12.527  31.216  -8.133  1.00  0.00    -0.003 C 
ATOM     19  C   UNL     1     -13.654  31.429  -9.144  1.00  0.00     0.004 C 
ENDBRANCH  17  18
ENDBRANCH  16  17
ENDBRANCH  15  16
ENDBRANCH  14  15
ENDBRANCH  13  14
ENDBRANCH  12  13
ENDBRANCH   1  12
TORSDOF 14
ENDMDL
MODEL 6
REMARK VINA RESULT:    15.031      3.939      9.251
REMARK INTER + INTRA:          26.672
REMARK INTER:                  26.557
REMARK INTRA:                   0.115
REMARK UNBOUND:                -0.662
REMARK SMILES CCCCCCCCCCCCCC[C@H](C)C(=O)[O-]
REMARK SMILES IDX 9 1 10 2 11 3 12 4 13 5 14 6 15 7 16 8 17 9 18 10 19 11 8 12
REMARK SMILES IDX 7 13 6 14 5 15 4 16 3 17 2 18 1 19
REMARK H PARENT
REMARK Flexibility Score: inf
ROOT
ATOM      1  C   UNL     1     -15.683  27.560  -3.927  1.00  0.00     0.000 C 
ENDROOT
BRANCH   1   2
ATOM      2  C   UNL     1     -14.633  28.490  -3.300  1.00  0.00     0.000 C 
BRANCH   2   3
ATOM      3  C   UNL     1     -13.317  28.440  -4.085  1.00  0.00     0.000 C 
BRANCH   3   4
ATOM      4  C   UNL     1     -12.354  29.540  -3.616  1.00  0.00     0.000 C 
BRANCH   4   5
ATOM      5  C   UNL     1     -11.906  30.472  -4.756  1.00  0.00     0.001 C 
BRANCH   5   6
ATOM      6  C   UNL     1     -12.245  29.982  -6.179  1.00  0.00     0.009 C 
BRANCH   6   7
ATOM      7  C   UNL     1     -11.243  30.412  -7.276  1.00  0.00     0.032 C 
ATOM      8  C   UNL     1     -11.798  30.196  -8.691  1.00  0.00     0.014 C 
BRANCH   7   9
ATOM      9  C   UNL     1      -9.955  29.654  -7.110  1.00  0.00     0.044 C 
ATOM     10  O   UNL     1      -8.853  30.264  -7.067  1.00  0.00    -0.550 OA
ATOM     11  O   UNL     1      -9.972  28.268  -7.014  1.00  0.00    -0.550 OA
ENDBRANCH   7   9
ENDBRANCH   6   7
ENDBRANCH   5   6
ENDBRANCH   4   5
ENDBRANCH   3   4
ENDBRANCH   2   3
ENDBRANCH   1   2
BRANCH   1  12
ATOM     12  C   UNL     1     -16.552  26.853  -2.875  1.00  0.00     0.000 C 
BRANCH  12  13
ATOM     13  C   UNL     1     -18.026  27.279  -2.943  1.00  0.00    -0.000 C 
BRANCH  13  14
ATOM     14  C   UNL     1     -18.952  26.059  -2.886  1.00  0.00    -0.000 C 
BRANCH  14  15
ATOM     15  C   UNL     1     -20.406  26.455  -3.184  1.00  0.00    -0.000 C 
BRANCH  15  16
ATOM     16  C   UNL     1     -21.099  25.467  -4.144  1.00  0.00    -0.000 C 
BRANCH  16  17
ATOM     17  C   UNL     1     -20.898  25.795  -5.635  1.00  0.00    -0.000 C 
BRANCH  17  18
ATOM     18  C   UNL     1     -20.343  27.209  -5.900  1.00  0.00    -0.003 C 
ATOM     19  C   UNL     1     -21.091  28.291  -5.120  1.00  0.00     0.004 C 
ENDBRANCH  17  18
ENDBRANCH  16  17
ENDBRANCH  15  16
ENDBRANCH  14  15
ENDBRANCH  13  14
ENDBRANCH  12  13
ENDBRANCH   1  12
TORSDOF 14
ENDMDL
MODEL 7
REMARK VINA RESULT:    15.625      3.398      9.113
REMARK INTER + INTRA:          27.752
REMARK INTER:                  27.744
REMARK INTRA:                   0.008
REMARK UNBOUND:                -0.662
REMARK SMILES CCCCCCCCCCCCCC[C@H](C)C(=O)[O-]
REMARK SMILES IDX 9 1 10 2 11 3 12 4 13 5 14 6 15 7 16 8 17 9 18 10 19 11 8 12
REMARK SMILES IDX 7 13 6 14 5 15 4 16 3 17 2 18 1 19
REMARK H PARENT
REMARK Flexibility Score: inf
ROOT
ATOM      1  C   UNL     1     -15.613  28.465  -2.994  1.00  0.00     0.000 C 
ENDROOT
BRANCH   1   2
ATOM      2  C   UNL     1     -14.092  28.257  -2.948  1.00  0.00     0.000 C 
BRANCH   2   3
ATOM      3  C   UNL     1     -13.350  29.547  -3.316  1.00  0.00     0.000 C 
BRANCH   3   4
ATOM      4  C   UNL     1     -12.171  29.254  -4.256  1.00  0.00     0.000 C 
BRANCH   4   5
ATOM      5  C   UNL     1     -11.550  30.529  -4.855  1.00  0.00     0.001 C 
BRANCH   5   6
ATOM      6  C   UNL     1     -10.601  30.301  -6.050  1.00  0.00     0.009 C 
BRANCH   6   7
ATOM      7  C   UNL     1     -11.024  29.170  -7.016  1.00  0.00     0.032 C 
ATOM      8  C   UNL     1      -9.850  28.257  -7.397  1.00  0.00     0.014 C 
BRANCH   7   9
ATOM      9  C   UNL     1     -11.633  29.764  -8.256  1.00  0.00     0.044 C 
ATOM     10  O   UNL     1     -11.270  29.376  -9.398  1.00  0.00    -0.550 OA
ATOM     11  O   UNL     1     -12.597  30.759  -8.147  1.00  0.00    -0.550 OA
ENDBRANCH   7   9
ENDBRANCH   6   7
ENDBRANCH   5   6
ENDBRANCH   4   5
ENDBRANCH   3   4
ENDBRANCH   2   3
ENDBRANCH   1   2
BRANCH   1  12
ATOM     12  C   UNL     1     -16.392  27.141  -2.996  1.00  0.00     0.000 C 
BRANCH  12  13
ATOM     13  C   UNL     1     -17.909  27.347  -2.877  1.00  0.00    -0.000 C 
BRANCH  13  14
ATOM     14  C   UNL     1     -18.652  26.619  -4.003  1.00  0.00    -0.000 C 
BRANCH  14  15
ATOM     15  C   UNL     1     -20.096  26.294  -3.593  1.00  0.00    -0.000 C 
BRANCH  15  16
ATOM     16  C   UNL     1     -21.124  27.209  -4.289  1.00  0.00    -0.000 C 
BRANCH  16  17
ATOM     17  C   UNL     1     -20.689  27.693  -5.686  1.00  0.00    -0.000 C 
BRANCH  17  18
ATOM     18  C   UNL     1     -20.640  26.579  -6.751  1.00  0.00    -0.003 C 
ATOM     19  C   UNL     1     -21.118  25.229  -6.215  1.00  0.00     0.004 C 
ENDBRANCH  17  18
ENDBRANCH  16  17
ENDBRANCH  15  16
ENDBRANCH  14  15
ENDBRANCH  13  14
ENDBRANCH  12  13
ENDBRANCH   1  12
TORSDOF 14
ENDMDL
