MODEL 1
REMARK VINA RESULT:    -0.892      0.000      0.000
REMARK INTER + INTRA:          -2.462
REMARK INTER:                  -1.413
REMARK INTRA:                  -1.049
REMARK UNBOUND:                -1.049
REMARK SMILES C[C@H]1O[C@H](O[C@H]2[C@@H](Oc3cc(O)c4c(c3)O[C@H](c3ccc(O)cc3)CC4=O)O[C@@H](CO)[C@H](O)[C@@H]2O)[C@@H](O)[C@@H](O)[C@@H]1O
REMARK SMILES IDX 6 1 34 2 32 3 29 4 28 5 7 6 5 7 4 8 1 9 2 10 40 11 3 12
REMARK SMILES IDX 38 13 36 14 41 15 39 17 37 19 35 21 8 23 9 24 10 25 15 26
REMARK SMILES IDX 11 27 14 28 13 29 16 30 26 31 17 32 27 33 25 34 12 35 18 37
REMARK SMILES IDX 19 38 24 39 20 40 23 41 21 42 22 43 33 45 30 47 31 48
REMARK H PARENT 41 16 39 18 37 20 35 22 12 36 22 44 33 46 31 49
REMARK Flexibility Score: inf
ROOT
ATOM      1  C   UNL     1     -17.605  21.999  15.068  1.00  0.00     0.221 C 
ATOM      2  C   UNL     1     -18.807  22.888  15.458  1.00  0.00     0.181 C 
ATOM      3  C   UNL     1     -19.252  22.610  16.921  1.00  0.00     0.177 C 
ATOM      4  C   UNL     1     -18.836  21.176  17.374  1.00  0.00     0.179 C 
ATOM      5  O   UNL     1     -17.430  20.919  17.289  1.00  0.00    -0.332 OA
ATOM      6  C   UNL     1     -16.731  21.687  16.316  1.00  0.00     0.339 C 
ENDROOT
BRANCH   1   7
ATOM      7  O   UNL     1     -16.930  22.469  13.904  1.00  0.00    -0.337 OA
BRANCH   7   8
ATOM      8  C   UNL     1     -16.345  21.459  13.098  1.00  0.00     0.282 C 
ATOM      9  C   UNL     1     -17.480  20.875   9.818  1.00  0.00     0.041 C 
ATOM     10  C   UNL     1     -17.655  21.717  11.083  1.00  0.00     0.150 C 
ATOM     11  C   UNL     1     -16.958  23.117  10.925  1.00  0.00     0.174 C 
ATOM     12  O   UNL     1     -17.295  20.908  12.201  1.00  0.00    -0.344 OA
ATOM     13  C   UNL     1     -15.500  23.185  11.460  1.00  0.00     0.179 C 
ATOM     14  C   UNL     1     -15.116  21.999  12.359  1.00  0.00     0.202 C 
BRANCH  11  15
ATOM     15  O   UNL     1     -17.733  24.151  11.493  1.00  0.00    -0.388 OA
ATOM     16  H   UNL     1     -17.347  25.029  11.254  1.00  0.00     0.211 HD
ENDBRANCH  11  15
BRANCH  13  17
ATOM     17  O   UNL     1     -14.573  23.349  10.416  1.00  0.00    -0.387 OA
ATOM     18  H   UNL     1     -14.277  24.298  10.417  1.00  0.00     0.211 HD
ENDBRANCH  13  17
BRANCH  14  19
ATOM     19  O   UNL     1     -14.543  20.969  11.594  1.00  0.00    -0.385 OA
ATOM     20  H   UNL     1     -14.334  21.348  10.698  1.00  0.00     0.211 HD
ENDBRANCH  14  19
ENDBRANCH   7   8
ENDBRANCH   1   7
BRANCH   2  21
ATOM     21  O   UNL     1     -19.868  22.716  14.546  1.00  0.00    -0.387 OA
ATOM     22  H   UNL     1     -20.343  21.878  14.794  1.00  0.00     0.211 HD
ENDBRANCH   2  21
BRANCH   6  23
ATOM     23  O   UNL     1     -16.276  22.902  16.921  1.00  0.00    -0.462 OA
BRANCH  23  24
ATOM     24  C   UNL     1     -15.343  23.017  17.960  1.00  0.00     0.130 A 
ATOM     25  C   UNL     1     -14.570  24.171  18.167  1.00  0.00     0.093 A 
ATOM     26  C   UNL     1     -15.201  21.933  18.832  1.00  0.00     0.094 A 
ATOM     27  C   UNL     1     -13.691  24.253  19.257  1.00  0.00     0.133 A 
ATOM     28  C   UNL     1     -14.320  21.995  19.913  1.00  0.00     0.138 A 
ATOM     29  C   UNL     1     -13.569  23.161  20.144  1.00  0.00     0.102 A 
ATOM     30  O   UNL     1     -14.174  20.876  20.744  1.00  0.00    -0.484 OA
ATOM     31  C   UNL     1     -12.631  23.165  21.289  1.00  0.00     0.174 C 
ATOM     32  C   UNL     1     -13.459  20.894  21.986  1.00  0.00     0.211 C 
ATOM     33  O   UNL     1     -12.070  24.230  21.674  1.00  0.00    -0.294 OA
ATOM     34  C   UNL     1     -12.256  21.858  21.917  1.00  0.00     0.131 C 
BRANCH  27  35
ATOM     35  O   UNL     1     -12.936  25.411  19.450  1.00  0.00    -0.507 OA
ATOM     36  H   UNL     1     -12.619  25.685  20.375  1.00  0.00     0.293 HD
ENDBRANCH  27  35
BRANCH  32  37
ATOM     37  C   UNL     1     -14.372  21.194  23.162  1.00  0.00    -0.007 A 
ATOM     38  C   UNL     1     -13.813  21.737  24.333  1.00  0.00     0.011 A 
ATOM     39  C   UNL     1     -15.746  20.875  23.150  1.00  0.00     0.011 A 
ATOM     40  C   UNL     1     -14.599  21.947  25.469  1.00  0.00     0.046 A 
ATOM     41  C   UNL     1     -16.530  21.076  24.295  1.00  0.00     0.046 A 
ATOM     42  C   UNL     1     -15.957  21.605  25.458  1.00  0.00     0.115 A 
BRANCH  42  43
ATOM     43  O   UNL     1     -16.715  21.749  26.617  1.00  0.00    -0.508 OA
ATOM     44  H   UNL     1     -16.377  21.427  27.517  1.00  0.00     0.293 HD
ENDBRANCH  42  43
ENDBRANCH  32  37
ENDBRANCH  23  24
ENDBRANCH   6  23
BRANCH   3  45
ATOM     45  O   UNL     1     -20.643  22.779  17.046  1.00  0.00    -0.387 OA
ATOM     46  H   UNL     1     -21.064  22.253  16.318  1.00  0.00     0.211 HD
ENDBRANCH   3  45
BRANCH   4  47
ATOM     47  C   UNL     1     -19.273  20.905  18.824  1.00  0.00     0.191 C 
BRANCH  47  48
ATOM     48  O   UNL     1     -20.298  21.783  19.216  1.00  0.00    -0.394 OA
ATOM     49  H   UNL     1     -19.850  22.592  19.583  1.00  0.00     0.210 HD
ENDBRANCH  47  48
ENDBRANCH   4  47
TORSDOF 14
ENDMDL
MODEL 2
REMARK VINA RESULT:     0.948      1.323      2.333
REMARK INTER + INTRA:           0.454
REMARK INTER:                   0.925
REMARK INTRA:                  -0.471
REMARK UNBOUND:                -1.049
REMARK SMILES C[C@H]1O[C@H](O[C@H]2[C@@H](Oc3cc(O)c4c(c3)O[C@H](c3ccc(O)cc3)CC4=O)O[C@@H](CO)[C@H](O)[C@@H]2O)[C@@H](O)[C@@H](O)[C@@H]1O
REMARK SMILES IDX 6 1 34 2 32 3 29 4 28 5 7 6 5 7 4 8 1 9 2 10 40 11 3 12
REMARK SMILES IDX 38 13 36 14 41 15 39 17 37 19 35 21 8 23 9 24 10 25 15 26
REMARK SMILES IDX 11 27 14 28 13 29 16 30 26 31 17 32 27 33 25 34 12 35 18 37
REMARK SMILES IDX 19 38 24 39 20 40 23 41 21 42 22 43 33 45 30 47 31 48
REMARK H PARENT 41 16 39 18 37 20 35 22 12 36 22 44 33 46 31 49
REMARK Flexibility Score: inf
ROOT
ATOM      1  C   UNL     1     -18.607  21.049  16.282  1.00  0.00     0.221 C 
ATOM      2  C   UNL     1     -19.619  22.217  16.278  1.00  0.00     0.181 C 
ATOM      3  C   UNL     1     -20.035  22.597  17.727  1.00  0.00     0.177 C 
ATOM      4  C   UNL     1     -19.851  21.391  18.701  1.00  0.00     0.179 C 
ATOM      5  O   UNL     1     -18.516  20.877  18.750  1.00  0.00    -0.332 OA
ATOM      6  C   UNL     1     -17.742  21.083  17.573  1.00  0.00     0.339 C 
ENDROOT
BRANCH   1   7
ATOM      7  O   UNL     1     -17.917  20.917  15.042  1.00  0.00    -0.337 OA
BRANCH   7   8
ATOM      8  C   UNL     1     -17.961  22.061  14.204  1.00  0.00     0.282 C 
ATOM      9  C   UNL     1     -15.670  24.700  14.617  1.00  0.00     0.041 C 
ATOM     10  C   UNL     1     -16.122  23.329  15.124  1.00  0.00     0.150 C 
ATOM     11  C   UNL     1     -15.188  22.193  14.572  1.00  0.00     0.174 C 
ATOM     12  O   UNL     1     -17.525  23.219  14.896  1.00  0.00    -0.344 OA
ATOM     13  C   UNL     1     -15.682  21.520  13.261  1.00  0.00     0.179 C 
ATOM     14  C   UNL     1     -17.150  21.827  12.924  1.00  0.00     0.202 C 
BRANCH  11  15
ATOM     15  O   UNL     1     -14.927  21.212  15.554  1.00  0.00    -0.388 OA
ATOM     16  H   UNL     1     -14.206  21.523  16.155  1.00  0.00     0.211 HD
ENDBRANCH  11  15
BRANCH  13  17
ATOM     17  O   UNL     1     -14.841  21.822  12.176  1.00  0.00    -0.387 OA
ATOM     18  H   UNL     1     -14.130  22.437  12.502  1.00  0.00     0.211 HD
ENDBRANCH  13  17
BRANCH  14  19
ATOM     19  O   UNL     1     -17.238  22.963  12.103  1.00  0.00    -0.385 OA
ATOM     20  H   UNL     1     -16.509  23.583  12.378  1.00  0.00     0.211 HD
ENDBRANCH  14  19
ENDBRANCH   7   8
ENDBRANCH   1   7
BRANCH   2  21
ATOM     21  O   UNL     1     -20.736  21.904  15.476  1.00  0.00    -0.387 OA
ATOM     22  H   UNL     1     -21.055  22.752  15.065  1.00  0.00     0.211 HD
ENDBRANCH   2  21
BRANCH   6  23
ATOM     23  O   UNL     1     -17.057  22.335  17.681  1.00  0.00    -0.462 OA
BRANCH  23  24
ATOM     24  C   UNL     1     -15.924  22.601  18.462  1.00  0.00     0.130 A 
ATOM     25  C   UNL     1     -15.172  23.781  18.339  1.00  0.00     0.093 A 
ATOM     26  C   UNL     1     -15.552  21.649  19.416  1.00  0.00     0.094 A 
ATOM     27  C   UNL     1     -14.081  24.021  19.187  1.00  0.00     0.133 A 
ATOM     28  C   UNL     1     -14.458  21.868  20.256  1.00  0.00     0.138 A 
ATOM     29  C   UNL     1     -13.724  23.063  20.160  1.00  0.00     0.102 A 
ATOM     30  O   UNL     1     -14.089  20.875  21.173  1.00  0.00    -0.484 OA
ATOM     31  C   UNL     1     -12.559  23.233  21.058  1.00  0.00     0.174 C 
ATOM     32  C   UNL     1     -13.122  21.070  22.213  1.00  0.00     0.211 C 
ATOM     33  O   UNL     1     -11.971  24.346  21.165  1.00  0.00    -0.294 OA
ATOM     34  C   UNL     1     -12.003  22.028  21.753  1.00  0.00     0.131 C 
BRANCH  27  35
ATOM     35  O   UNL     1     -13.349  25.203  19.053  1.00  0.00    -0.507 OA
ATOM     36  H   UNL     1     -13.795  26.111  19.142  1.00  0.00     0.293 HD
ENDBRANCH  27  35
BRANCH  32  37
ATOM     37  C   UNL     1     -13.767  21.519  23.512  1.00  0.00    -0.007 A 
ATOM     38  C   UNL     1     -15.021  20.986  23.866  1.00  0.00     0.011 A 
ATOM     39  C   UNL     1     -13.193  22.509  24.336  1.00  0.00     0.011 A 
ATOM     40  C   UNL     1     -15.692  21.436  25.006  1.00  0.00     0.046 A 
ATOM     41  C   UNL     1     -13.874  22.965  25.474  1.00  0.00     0.046 A 
ATOM     42  C   UNL     1     -15.127  22.436  25.806  1.00  0.00     0.115 A 
BRANCH  42  43
ATOM     43  O   UNL     1     -15.836  22.929  26.899  1.00  0.00    -0.508 OA
ATOM     44  H   UNL     1     -16.537  23.654  26.794  1.00  0.00     0.293 HD
ENDBRANCH  42  43
ENDBRANCH  32  37
ENDBRANCH  23  24
ENDBRANCH   6  23
BRANCH   3  45
ATOM     45  O   UNL     1     -21.369  23.044  17.747  1.00  0.00    -0.387 OA
ATOM     46  H   UNL     1     -21.693  22.944  18.678  1.00  0.00     0.211 HD
ENDBRANCH   3  45
BRANCH   4  47
ATOM     47  C   UNL     1     -20.259  21.771  20.134  1.00  0.00     0.191 C 
BRANCH  47  48
ATOM     48  O   UNL     1     -21.475  21.165  20.492  1.00  0.00    -0.394 OA
ATOM     49  H   UNL     1     -21.268  20.539  21.237  1.00  0.00     0.210 HD
ENDBRANCH  47  48
ENDBRANCH   4  47
TORSDOF 14
ENDMDL
