MODEL 1
REMARK VINA RESULT:    -2.178      0.000      0.000
REMARK INTER + INTRA:          -3.122
REMARK INTER:                  -2.942
REMARK INTRA:                  -0.180
REMARK UNBOUND:                -0.180
REMARK SMILES CCCCCCCC(=O)[O-]
REMARK SMILES IDX 5 1 6 2 7 3 8 4 9 5 10 6 4 7 3 8 2 9 1 10
REMARK H PARENT
REMARK Flexibility Score: inf
ROOT
ATOM      1  C   UNL     1     -18.366  33.024 -19.372  1.00  0.00     0.000 C 
ENDROOT
BRANCH   1   2
ATOM      2  C   UNL     1     -17.142  33.649 -20.059  1.00  0.00     0.006 C 
BRANCH   2   3
ATOM      3  C   UNL     1     -15.863  32.829 -19.845  1.00  0.00     0.053 C 
BRANCH   3   4
ATOM      4  C   UNL     1     -14.814  33.662 -19.180  1.00  0.00     0.041 C 
ATOM      5  O   UNL     1     -15.002  34.110 -18.018  1.00  0.00    -0.550 OA
ATOM      6  O   UNL     1     -13.606  33.904 -19.824  1.00  0.00    -0.550 OA
ENDBRANCH   3   4
ENDBRANCH   2   3
ENDBRANCH   1   2
BRANCH   1   7
ATOM      7  C   UNL     1     -19.578  33.973 -19.346  1.00  0.00     0.000 C 
BRANCH   7   8
ATOM      8  C   UNL     1     -20.780  33.416 -20.125  1.00  0.00    -0.000 C 
BRANCH   8   9
ATOM      9  C   UNL     1     -22.124  33.871 -19.537  1.00  0.00    -0.003 C 
ATOM     10  C   UNL     1     -22.124  33.761 -18.016  1.00  0.00     0.004 C 
ENDBRANCH   8   9
ENDBRANCH   7   8
ENDBRANCH   1   7
TORSDOF 6
ENDMDL
MODEL 2
REMARK VINA RESULT:    -2.177     20.331     22.446
REMARK INTER + INTRA:          -3.121
REMARK INTER:                  -2.867
REMARK INTRA:                  -0.254
REMARK UNBOUND:                -0.180
REMARK SMILES CCCCCCCC(=O)[O-]
REMARK SMILES IDX 5 1 6 2 7 3 8 4 9 5 10 6 4 7 3 8 2 9 1 10
REMARK H PARENT
REMARK Flexibility Score: inf
ROOT
ATOM      1  C   UNL     1      -4.057  18.504 -10.717  1.00  0.00     0.000 C 
ENDROOT
BRANCH   1   2
ATOM      2  C   UNL     1      -5.546  18.362 -11.068  1.00  0.00     0.006 C 
BRANCH   2   3
ATOM      3  C   UNL     1      -6.354  19.622 -10.730  1.00  0.00     0.053 C 
BRANCH   3   4
ATOM      4  C   UNL     1      -6.169  20.660 -11.790  1.00  0.00     0.041 C 
ATOM      5  O   UNL     1      -6.708  20.517 -12.919  1.00  0.00    -0.550 OA
ATOM      6  O   UNL     1      -5.441  21.812 -11.516  1.00  0.00    -0.550 OA
ENDBRANCH   3   4
ENDBRANCH   2   3
ENDBRANCH   1   2
BRANCH   1   7
ATOM      7  C   UNL     1      -3.326  17.149 -10.684  1.00  0.00     0.000 C 
BRANCH   7   8
ATOM      8  C   UNL     1      -4.272  15.962 -10.927  1.00  0.00    -0.000 C 
BRANCH   8   9
ATOM      9  C   UNL     1      -4.013  14.795  -9.963  1.00  0.00    -0.003 C 
ATOM     10  C   UNL     1      -2.749  14.033 -10.350  1.00  0.00     0.004 C 
ENDBRANCH   8   9
ENDBRANCH   7   8
ENDBRANCH   1   7
TORSDOF 6
ENDMDL
MODEL 3
REMARK VINA RESULT:    -1.780     21.070     22.933
REMARK INTER + INTRA:          -2.584
REMARK INTER:                  -2.344
REMARK INTRA:                  -0.240
REMARK UNBOUND:                -0.180
REMARK SMILES CCCCCCCC(=O)[O-]
REMARK SMILES IDX 5 1 6 2 7 3 8 4 9 5 10 6 4 7 3 8 2 9 1 10
REMARK H PARENT
REMARK Flexibility Score: inf
ROOT
ATOM      1  C   UNL     1      -3.150  18.618 -10.993  1.00  0.00     0.000 C 
ENDROOT
BRANCH   1   2
ATOM      2  C   UNL     1      -3.825  17.239 -10.932  1.00  0.00     0.006 C 
BRANCH   2   3
ATOM      3  C   UNL     1      -3.084  16.261 -10.010  1.00  0.00     0.053 C 
BRANCH   3   4
ATOM      4  C   UNL     1      -3.412  14.848 -10.378  1.00  0.00     0.041 C 
ATOM      5  O   UNL     1      -4.574  14.544 -10.753  1.00  0.00    -0.550 OA
ATOM      6  O   UNL     1      -2.420  13.875 -10.354  1.00  0.00    -0.550 OA
ENDBRANCH   3   4
ENDBRANCH   2   3
ENDBRANCH   1   2
BRANCH   1   7
ATOM      7  C   UNL     1      -4.143  19.772 -10.767  1.00  0.00     0.000 C 
BRANCH   7   8
ATOM      8  C   UNL     1      -5.585  19.392 -11.140  1.00  0.00    -0.000 C 
BRANCH   8   9
ATOM      9  C   UNL     1      -6.381  20.581 -11.700  1.00  0.00    -0.003 C 
ATOM     10  C   UNL     1      -5.601  21.883 -11.551  1.00  0.00     0.004 C 
ENDBRANCH   8   9
ENDBRANCH   7   8
ENDBRANCH   1   7
TORSDOF 6
ENDMDL
MODEL 4
REMARK VINA RESULT:     0.589     19.016     21.235
REMARK INTER + INTRA:           0.616
REMARK INTER:                   0.745
REMARK INTRA:                  -0.129
REMARK UNBOUND:                -0.180
REMARK SMILES CCCCCCCC(=O)[O-]
REMARK SMILES IDX 5 1 6 2 7 3 8 4 9 5 10 6 4 7 3 8 2 9 1 10
REMARK H PARENT
REMARK Flexibility Score: inf
ROOT
ATOM      1  C   UNL     1      -3.972  20.610 -10.578  1.00  0.00     0.000 C 
ENDROOT
BRANCH   1   2
ATOM      2  C   UNL     1      -4.883  21.192 -11.669  1.00  0.00     0.006 C 
BRANCH   2   3
ATOM      3  C   UNL     1      -6.344  20.748 -11.516  1.00  0.00     0.053 C 
BRANCH   3   4
ATOM      4  C   UNL     1      -6.898  20.313 -12.836  1.00  0.00     0.041 C 
ATOM      5  O   UNL     1      -7.412  19.171 -12.962  1.00  0.00    -0.550 OA
ATOM      6  O   UNL     1      -6.891  21.188 -13.916  1.00  0.00    -0.550 OA
ENDBRANCH   3   4
ENDBRANCH   2   3
ENDBRANCH   1   2
BRANCH   1   7
ATOM      7  C   UNL     1      -3.281  19.307 -11.019  1.00  0.00     0.000 C 
BRANCH   7   8
ATOM      8  C   UNL     1      -4.215  18.089 -10.947  1.00  0.00    -0.000 C 
BRANCH   8   9
ATOM      9  C   UNL     1      -3.448  16.759 -10.905  1.00  0.00    -0.003 C 
ATOM     10  C   UNL     1      -4.380  15.597 -10.578  1.00  0.00     0.004 C 
ENDBRANCH   8   9
ENDBRANCH   7   8
ENDBRANCH   1   7
TORSDOF 6
ENDMDL
