MODEL 1
REMARK VINA RESULT:    -3.546      0.000      0.000
REMARK INTER + INTRA:          -4.544
REMARK INTER:                  -4.479
REMARK INTRA:                  -0.065
REMARK UNBOUND:                -0.065
REMARK SMILES CCCCCCO
REMARK SMILES IDX 4 1 3 2 2 3 1 4 5 5 6 6 7 7
REMARK H PARENT 7 8
REMARK Flexibility Score: inf
ROOT
ATOM      1  C   UNL     1     203.202 202.771 240.856  1.00  0.00     0.002 C 
ENDROOT
BRANCH   1   2
ATOM      2  C   UNL     1     203.925 202.588 239.509  1.00  0.00    -0.000 C 
BRANCH   2   3
ATOM      3  C   UNL     1     202.963 202.298 238.348  1.00  0.00    -0.003 C 
ATOM      4  C   UNL     1     203.549 201.263 237.392  1.00  0.00     0.004 C 
ENDBRANCH   2   3
ENDBRANCH   1   2
BRANCH   1   5
ATOM      5  C   UNL     1     203.791 201.959 242.023  1.00  0.00     0.028 C 
BRANCH   5   6
ATOM      6  C   UNL     1     202.723 201.231 242.848  1.00  0.00     0.156 C 
BRANCH   6   7
ATOM      7  O   UNL     1     202.076 200.271 242.058  1.00  0.00    -0.396 OA
ATOM      8  H   UNL     1     202.399 200.402 241.129  1.00  0.00     0.210 HD
ENDBRANCH   6   7
ENDBRANCH   5   6
ENDBRANCH   1   5
TORSDOF 5
ENDMDL
MODEL 2
REMARK VINA RESULT:    -3.541      2.574      2.856
REMARK INTER + INTRA:          -4.538
REMARK INTER:                  -4.446
REMARK INTRA:                  -0.091
REMARK UNBOUND:                -0.065
REMARK SMILES CCCCCCO
REMARK SMILES IDX 4 1 3 2 2 3 1 4 5 5 6 6 7 7
REMARK H PARENT 7 8
REMARK Flexibility Score: inf
ROOT
ATOM      1  C   UNL     1     203.631 202.634 241.081  1.00  0.00     0.002 C 
ENDROOT
BRANCH   1   2
ATOM      2  C   UNL     1     203.047 202.972 239.697  1.00  0.00    -0.000 C 
BRANCH   2   3
ATOM      3  C   UNL     1     204.125 203.331 238.664  1.00  0.00    -0.003 C 
ATOM      4  C   UNL     1     203.630 204.408 237.704  1.00  0.00     0.004 C 
ENDBRANCH   2   3
ENDBRANCH   1   2
BRANCH   1   5
ATOM      5  C   UNL     1     203.019 203.421 242.253  1.00  0.00     0.028 C 
BRANCH   5   6
ATOM      6  C   UNL     1     204.063 204.191 243.070  1.00  0.00     0.156 C 
BRANCH   6   7
ATOM      7  O   UNL     1     204.842 204.993 242.224  1.00  0.00    -0.396 OA
ATOM      8  H   UNL     1     205.724 204.545 242.140  1.00  0.00     0.210 HD
ENDBRANCH   6   7
ENDBRANCH   5   6
ENDBRANCH   1   5
TORSDOF 5
ENDMDL
MODEL 3
REMARK VINA RESULT:    -3.514      9.770     10.801
REMARK INTER + INTRA:          -4.504
REMARK INTER:                  -4.355
REMARK INTRA:                  -0.149
REMARK UNBOUND:                -0.065
REMARK SMILES CCCCCCO
REMARK SMILES IDX 4 1 3 2 2 3 1 4 5 5 6 6 7 7
REMARK H PARENT 7 8
REMARK Flexibility Score: inf
ROOT
ATOM      1  C   UNL     1     203.386 202.713 229.226  1.00  0.00     0.002 C 
ENDROOT
BRANCH   1   2
ATOM      2  C   UNL     1     202.264 202.133 230.107  1.00  0.00    -0.000 C 
BRANCH   2   3
ATOM      3  C   UNL     1     202.258 200.598 230.135  1.00  0.00    -0.003 C 
ATOM      4  C   UNL     1     202.809 200.069 231.455  1.00  0.00     0.004 C 
ENDBRANCH   2   3
ENDBRANCH   1   2
BRANCH   1   5
ATOM      5  C   UNL     1     204.606 203.246 229.998  1.00  0.00     0.028 C 
BRANCH   5   6
ATOM      6  C   UNL     1     205.738 202.218 230.116  1.00  0.00     0.156 C 
BRANCH   6   7
ATOM      7  O   UNL     1     206.918 202.846 230.539  1.00  0.00    -0.396 OA
ATOM      8  H   UNL     1     206.965 202.730 231.524  1.00  0.00     0.210 HD
ENDBRANCH   6   7
ENDBRANCH   5   6
ENDBRANCH   1   5
TORSDOF 5
ENDMDL
MODEL 4
REMARK VINA RESULT:    -3.511     10.322     11.018
REMARK INTER + INTRA:          -4.501
REMARK INTER:                  -4.330
REMARK INTRA:                  -0.170
REMARK UNBOUND:                -0.065
REMARK SMILES CCCCCCO
REMARK SMILES IDX 4 1 3 2 2 3 1 4 5 5 6 6 7 7
REMARK H PARENT 7 8
REMARK Flexibility Score: inf
ROOT
ATOM      1  C   UNL     1     203.812 203.461 229.407  1.00  0.00     0.002 C 
ENDROOT
BRANCH   1   2
ATOM      2  C   UNL     1     202.442 202.948 229.886  1.00  0.00    -0.000 C 
BRANCH   2   3
ATOM      3  C   UNL     1     201.360 204.039 229.882  1.00  0.00    -0.003 C 
ATOM      4  C   UNL     1     200.623 204.088 231.217  1.00  0.00     0.004 C 
ENDBRANCH   2   3
ENDBRANCH   1   2
BRANCH   1   5
ATOM      5  C   UNL     1     204.663 204.146 230.491  1.00  0.00     0.028 C 
BRANCH   5   6
ATOM      6  C   UNL     1     204.872 205.643 230.232  1.00  0.00     0.156 C 
BRANCH   6   7
ATOM      7  O   UNL     1     203.767 206.372 230.694  1.00  0.00    -0.396 OA
ATOM      8  H   UNL     1     204.092 206.939 231.441  1.00  0.00     0.210 HD
ENDBRANCH   6   7
ENDBRANCH   5   6
ENDBRANCH   1   5
TORSDOF 5
ENDMDL
MODEL 5
REMARK VINA RESULT:    -3.507     10.116     10.905
REMARK INTER + INTRA:          -4.495
REMARK INTER:                  -4.347
REMARK INTRA:                  -0.148
REMARK UNBOUND:                -0.065
REMARK SMILES CCCCCCO
REMARK SMILES IDX 4 1 3 2 2 3 1 4 5 5 6 6 7 7
REMARK H PARENT 7 8
REMARK Flexibility Score: inf
ROOT
ATOM      1  C   UNL     1     203.756 203.359 229.162  1.00  0.00     0.002 C 
ENDROOT
BRANCH   1   2
ATOM      2  C   UNL     1     204.844 203.903 230.105  1.00  0.00    -0.000 C 
BRANCH   2   3
ATOM      3  C   UNL     1     204.854 205.437 230.186  1.00  0.00    -0.003 C 
ATOM      4  C   UNL     1     204.289 205.922 231.518  1.00  0.00     0.004 C 
ENDBRANCH   2   3
ENDBRANCH   1   2
BRANCH   1   5
ATOM      5  C   UNL     1     202.508 202.798 229.867  1.00  0.00     0.028 C 
BRANCH   5   6
ATOM      6  C   UNL     1     201.412 203.850 230.076  1.00  0.00     0.156 C 
BRANCH   6   7
ATOM      7  O   UNL     1     200.231 203.235 230.514  1.00  0.00    -0.396 OA
ATOM      8  H   UNL     1     199.750 202.932 229.701  1.00  0.00     0.210 HD
ENDBRANCH   6   7
ENDBRANCH   5   6
ENDBRANCH   1   5
TORSDOF 5
ENDMDL
MODEL 6
REMARK VINA RESULT:    -3.507      9.947     10.707
REMARK INTER + INTRA:          -4.495
REMARK INTER:                  -4.279
REMARK INTRA:                  -0.216
REMARK UNBOUND:                -0.065
REMARK SMILES CCCCCCO
REMARK SMILES IDX 4 1 3 2 2 3 1 4 5 5 6 6 7 7
REMARK H PARENT 7 8
REMARK Flexibility Score: inf
ROOT
ATOM      1  C   UNL     1     203.334 203.262 229.292  1.00  0.00     0.002 C 
ENDROOT
BRANCH   1   2
ATOM      2  C   UNL     1     204.127 202.075 229.868  1.00  0.00    -0.000 C 
BRANCH   2   3
ATOM      3  C   UNL     1     203.304 201.222 230.844  1.00  0.00    -0.003 C 
ATOM      4  C   UNL     1     202.307 200.340 230.099  1.00  0.00     0.004 C 
ENDBRANCH   2   3
ENDBRANCH   1   2
BRANCH   1   5
ATOM      5  C   UNL     1     202.524 204.063 230.327  1.00  0.00     0.028 C 
BRANCH   5   6
ATOM      6  C   UNL     1     201.037 204.174 229.969  1.00  0.00     0.156 C 
BRANCH   6   7
ATOM      7  O   UNL     1     200.303 203.190 230.647  1.00  0.00    -0.396 OA
ATOM      8  H   UNL     1     199.358 203.492 230.651  1.00  0.00     0.210 HD
ENDBRANCH   6   7
ENDBRANCH   5   6
ENDBRANCH   1   5
TORSDOF 5
ENDMDL
MODEL 7
REMARK VINA RESULT:    -3.503      2.036      2.129
REMARK INTER + INTRA:          -4.490
REMARK INTER:                  -4.422
REMARK INTRA:                  -0.068
REMARK UNBOUND:                -0.065
REMARK SMILES CCCCCCO
REMARK SMILES IDX 4 1 3 2 2 3 1 4 5 5 6 6 7 7
REMARK H PARENT 7 8
REMARK Flexibility Score: inf
ROOT
ATOM      1  C   UNL     1     203.344 202.585 240.890  1.00  0.00     0.002 C 
ENDROOT
BRANCH   1   2
ATOM      2  C   UNL     1     203.938 202.874 239.499  1.00  0.00    -0.000 C 
BRANCH   2   3
ATOM      3  C   UNL     1     202.891 203.380 238.496  1.00  0.00    -0.003 C 
ATOM      4  C   UNL     1     203.540 204.224 237.403  1.00  0.00     0.004 C 
ENDBRANCH   2   3
ENDBRANCH   1   2
BRANCH   1   5
ATOM      5  C   UNL     1     204.014 203.341 242.051  1.00  0.00     0.028 C 
BRANCH   5   6
ATOM      6  C   UNL     1     204.749 202.414 243.027  1.00  0.00     0.156 C 
BRANCH   6   7
ATOM      7  O   UNL     1     205.600 201.550 242.324  1.00  0.00    -0.396 OA
ATOM      8  H   UNL     1     206.433 202.058 242.141  1.00  0.00     0.210 HD
ENDBRANCH   6   7
ENDBRANCH   5   6
ENDBRANCH   1   5
TORSDOF 5
ENDMDL
MODEL 8
REMARK VINA RESULT:    -3.500      9.848     10.527
REMARK INTER + INTRA:          -4.487
REMARK INTER:                  -4.267
REMARK INTRA:                  -0.220
REMARK UNBOUND:                -0.065
REMARK SMILES CCCCCCO
REMARK SMILES IDX 4 1 3 2 2 3 1 4 5 5 6 6 7 7
REMARK H PARENT 7 8
REMARK Flexibility Score: inf
ROOT
ATOM      1  C   UNL     1     202.436 202.962 230.028  1.00  0.00     0.002 C 
ENDROOT
BRANCH   1   2
ATOM      2  C   UNL     1     203.760 202.927 229.243  1.00  0.00    -0.000 C 
BRANCH   2   3
ATOM      3  C   UNL     1     204.983 203.237 230.118  1.00  0.00    -0.003 C 
ATOM      4  C   UNL     1     205.957 202.063 230.139  1.00  0.00     0.004 C 
ENDBRANCH   2   3
ENDBRANCH   1   2
BRANCH   1   5
ATOM      5  C   UNL     1     202.190 201.744 230.937  1.00  0.00     0.028 C 
BRANCH   5   6
ATOM      6  C   UNL     1     202.253 200.410 230.183  1.00  0.00     0.156 C 
BRANCH   6   7
ATOM      7  O   UNL     1     203.382 199.683 230.583  1.00  0.00    -0.396 OA
ATOM      8  H   UNL     1     203.818 200.209 231.304  1.00  0.00     0.210 HD
ENDBRANCH   6   7
ENDBRANCH   5   6
ENDBRANCH   1   5
TORSDOF 5
ENDMDL
MODEL 9
REMARK VINA RESULT:    -3.454      8.381      9.389
REMARK INTER + INTRA:          -4.427
REMARK INTER:                  -4.354
REMARK INTRA:                  -0.073
REMARK UNBOUND:                -0.065
REMARK SMILES CCCCCCO
REMARK SMILES IDX 4 1 3 2 2 3 1 4 5 5 6 6 7 7
REMARK H PARENT 7 8
REMARK Flexibility Score: inf
ROOT
ATOM      1  C   UNL     1     203.957 200.433 231.303  1.00  0.00     0.002 C 
ENDROOT
BRANCH   1   2
ATOM      2  C   UNL     1     203.733 201.549 230.266  1.00  0.00    -0.000 C 
BRANCH   2   3
ATOM      3  C   UNL     1     205.039 202.227 229.825  1.00  0.00    -0.003 C 
ATOM      4  C   UNL     1     206.235 201.665 230.588  1.00  0.00     0.004 C 
ENDBRANCH   2   3
ENDBRANCH   1   2
BRANCH   1   5
ATOM      5  C   UNL     1     202.713 200.055 232.126  1.00  0.00     0.028 C 
BRANCH   5   6
ATOM      6  C   UNL     1     202.934 198.828 233.019  1.00  0.00     0.156 C 
BRANCH   6   7
ATOM      7  O   UNL     1     202.220 197.731 232.517  1.00  0.00    -0.396 OA
ATOM      8  H   UNL     1     201.845 197.253 233.302  1.00  0.00     0.210 HD
ENDBRANCH   6   7
ENDBRANCH   5   6
ENDBRANCH   1   5
TORSDOF 5
ENDMDL
