MODEL 1
REMARK VINA RESULT:    -4.396      0.000      0.000
REMARK INTER + INTRA:          -5.402
REMARK INTER:                  -5.295
REMARK INTRA:                  -0.107
REMARK UNBOUND:                -0.107
REMARK SMILES CC[C@@H](C)[C@@H]([NH3+])C(=O)[O-]
REMARK SMILES IDX 3 1 4 2 5 3 6 4 7 8 8 9 9 10 2 11 1 12
REMARK H PARENT 6 5 6 6 6 7
REMARK Flexibility Score: inf
ROOT
ATOM      1  C   UNL     1     -32.972  48.534 -15.218  1.00  0.00     0.050 C 
ATOM      2  C   UNL     1     -32.985  47.254 -14.362  1.00  0.00     0.014 C 
ENDROOT
BRANCH   1   3
ATOM      3  C   UNL     1     -32.973  48.189 -16.740  1.00  0.00     0.230 C 
BRANCH   3   4
ATOM      4  N   UNL     1     -33.966  48.964 -17.502  1.00  0.00    -0.350 N 
ATOM      5  H   UNL     1     -33.798  49.986 -17.352  1.00  0.00     0.345 HD
ATOM      6  H   UNL     1     -33.867  48.774 -18.526  1.00  0.00     0.345 HD
ATOM      7  H   UNL     1     -34.940  48.738 -17.202  1.00  0.00     0.345 HD
ENDBRANCH   3   4
BRANCH   3   8
ATOM      8  C   UNL     1     -31.592  48.344 -17.331  1.00  0.00     0.099 C 
ATOM      9  O   UNL     1     -31.183  47.568 -18.237  1.00  0.00    -0.544 OA
ATOM     10  O   UNL     1     -30.774  49.383 -16.904  1.00  0.00    -0.544 OA
ENDBRANCH   3   8
ENDBRANCH   1   3
BRANCH   1  11
ATOM     11  C   UNL     1     -34.125  49.490 -14.815  1.00  0.00     0.006 C 
ATOM     12  C   UNL     1     -33.623  50.768 -14.143  1.00  0.00     0.004 C 
ENDBRANCH   1  11
TORSDOF 4
ENDMDL
MODEL 2
REMARK VINA RESULT:    -4.271      1.412      2.048
REMARK INTER + INTRA:          -5.252
REMARK INTER:                  -5.293
REMARK INTRA:                   0.041
REMARK UNBOUND:                -0.107
REMARK SMILES CC[C@@H](C)[C@@H]([NH3+])C(=O)[O-]
REMARK SMILES IDX 3 1 4 2 5 3 6 4 7 8 8 9 9 10 2 11 1 12
REMARK H PARENT 6 5 6 6 6 7
REMARK Flexibility Score: inf
ROOT
ATOM      1  C   UNL     1     -33.452  48.991 -15.145  1.00  0.00     0.050 C 
ATOM      2  C   UNL     1     -34.125  49.455 -16.450  1.00  0.00     0.014 C 
ENDROOT
BRANCH   1   3
ATOM      3  C   UNL     1     -32.273  48.011 -15.441  1.00  0.00     0.230 C 
BRANCH   3   4
ATOM      4  N   UNL     1     -32.711  46.611 -15.567  1.00  0.00    -0.350 N 
ATOM      5  H   UNL     1     -33.747  46.557 -15.424  1.00  0.00     0.345 HD
ATOM      6  H   UNL     1     -32.505  46.251 -16.526  1.00  0.00     0.345 HD
ATOM      7  H   UNL     1     -32.245  45.999 -14.860  1.00  0.00     0.345 HD
ENDBRANCH   3   4
BRANCH   3   8
ATOM      8  C   UNL     1     -31.497  48.450 -16.659  1.00  0.00     0.099 C 
ATOM      9  O   UNL     1     -30.807  49.505 -16.644  1.00  0.00    -0.544 OA
ATOM     10  O   UNL     1     -31.506  47.658 -17.801  1.00  0.00    -0.544 OA
ENDBRANCH   3   8
ENDBRANCH   1   3
BRANCH   1  11
ATOM     11  C   UNL     1     -33.026  50.200 -14.272  1.00  0.00     0.006 C 
ATOM     12  C   UNL     1     -34.062  51.326 -14.279  1.00  0.00     0.004 C 
ENDBRANCH   1  11
TORSDOF 4
ENDMDL
MODEL 3
REMARK VINA RESULT:    -3.679     17.256     18.100
REMARK INTER + INTRA:          -4.539
REMARK INTER:                  -4.389
REMARK INTRA:                  -0.150
REMARK UNBOUND:                -0.107
REMARK SMILES CC[C@@H](C)[C@@H]([NH3+])C(=O)[O-]
REMARK SMILES IDX 3 1 4 2 5 3 6 4 7 8 8 9 9 10 2 11 1 12
REMARK H PARENT 6 5 6 6 6 7
REMARK Flexibility Score: inf
ROOT
ATOM      1  C   UNL     1     -33.121  37.535  -1.862  1.00  0.00     0.050 C 
ATOM      2  C   UNL     1     -33.764  38.236  -0.651  1.00  0.00     0.014 C 
ENDROOT
BRANCH   1   3
ATOM      3  C   UNL     1     -31.564  37.555  -1.758  1.00  0.00     0.230 C 
BRANCH   3   4
ATOM      4  N   UNL     1     -31.017  36.344  -1.124  1.00  0.00    -0.350 N 
ATOM      5  H   UNL     1     -31.757  35.605  -1.092  1.00  0.00     0.345 HD
ATOM      6  H   UNL     1     -30.219  35.968  -1.686  1.00  0.00     0.345 HD
ATOM      7  H   UNL     1     -30.693  36.535  -0.149  1.00  0.00     0.345 HD
ENDBRANCH   3   4
BRANCH   3   8
ATOM      8  C   UNL     1     -30.934  37.794  -3.109  1.00  0.00     0.099 C 
ATOM      9  O   UNL     1     -29.875  37.197  -3.446  1.00  0.00    -0.544 OA
ATOM     10  O   UNL     1     -31.550  38.649  -4.014  1.00  0.00    -0.544 OA
ENDBRANCH   3   8
ENDBRANCH   1   3
BRANCH   1  11
ATOM     11  C   UNL     1     -33.695  36.107  -2.054  1.00  0.00     0.006 C 
ATOM     12  C   UNL     1     -34.019  35.794  -3.515  1.00  0.00     0.004 C 
ENDBRANCH   1  11
TORSDOF 4
ENDMDL
MODEL 4
REMARK VINA RESULT:    -3.571      2.114      3.305
REMARK INTER + INTRA:          -4.409
REMARK INTER:                  -4.333
REMARK INTRA:                  -0.076
REMARK UNBOUND:                -0.107
REMARK SMILES CC[C@@H](C)[C@@H]([NH3+])C(=O)[O-]
REMARK SMILES IDX 3 1 4 2 5 3 6 4 7 8 8 9 9 10 2 11 1 12
REMARK H PARENT 6 5 6 6 6 7
REMARK Flexibility Score: inf
ROOT
ATOM      1  C   UNL     1     -31.912  48.132 -16.458  1.00  0.00     0.050 C 
ATOM      2  C   UNL     1     -31.298  47.914 -17.853  1.00  0.00     0.014 C 
ENDROOT
BRANCH   1   3
ATOM      3  C   UNL     1     -32.816  49.405 -16.437  1.00  0.00     0.230 C 
BRANCH   3   4
ATOM      4  N   UNL     1     -34.119  49.191 -17.088  1.00  0.00    -0.350 N 
ATOM      5  H   UNL     1     -34.229  48.177 -17.321  1.00  0.00     0.345 HD
ATOM      6  H   UNL     1     -34.896  49.453 -16.440  1.00  0.00     0.345 HD
ATOM      7  H   UNL     1     -34.202  49.747 -17.969  1.00  0.00     0.345 HD
ENDBRANCH   3   4
BRANCH   3   8
ATOM      8  C   UNL     1     -32.990  49.922 -15.030  1.00  0.00     0.099 C 
ATOM      9  O   UNL     1     -34.125  50.264 -14.599  1.00  0.00    -0.544 OA
ATOM     10  O   UNL     1     -31.893  49.983 -14.179  1.00  0.00    -0.544 OA
ENDBRANCH   3   8
ENDBRANCH   1   3
BRANCH   1  11
ATOM     11  C   UNL     1     -32.648  46.860 -15.964  1.00  0.00     0.006 C 
ATOM     12  C   UNL     1     -32.332  46.523 -14.507  1.00  0.00     0.004 C 
ENDBRANCH   1  11
TORSDOF 4
ENDMDL
MODEL 5
REMARK VINA RESULT:    -3.530      2.371      3.478
REMARK INTER + INTRA:          -4.360
REMARK INTER:                  -4.599
REMARK INTRA:                   0.239
REMARK UNBOUND:                -0.107
REMARK SMILES CC[C@@H](C)[C@@H]([NH3+])C(=O)[O-]
REMARK SMILES IDX 3 1 4 2 5 3 6 4 7 8 8 9 9 10 2 11 1 12
REMARK H PARENT 6 5 6 6 6 7
REMARK Flexibility Score: inf
ROOT
ATOM      1  C   UNL     1     -33.240  48.089 -16.307  1.00  0.00     0.050 C 
ATOM      2  C   UNL     1     -32.414  46.833 -15.970  1.00  0.00     0.014 C 
ENDROOT
BRANCH   1   3
ATOM      3  C   UNL     1     -33.937  48.659 -15.032  1.00  0.00     0.230 C 
BRANCH   3   4
ATOM      4  N   UNL     1     -34.125  47.645 -13.981  1.00  0.00    -0.350 N 
ATOM      5  H   UNL     1     -34.222  46.701 -14.422  1.00  0.00     0.345 HD
ATOM      6  H   UNL     1     -33.291  47.615 -13.351  1.00  0.00     0.345 HD
ATOM      7  H   UNL     1     -34.981  47.836 -13.413  1.00  0.00     0.345 HD
ENDBRANCH   3   4
BRANCH   3   8
ATOM      8  C   UNL     1     -33.195  49.861 -14.500  1.00  0.00     0.099 C 
ATOM      9  O   UNL     1     -33.797  50.942 -14.261  1.00  0.00    -0.544 OA
ATOM     10  O   UNL     1     -31.835  49.765 -14.228  1.00  0.00    -0.544 OA
ENDBRANCH   3   8
ENDBRANCH   1   3
BRANCH   1  11
ATOM     11  C   UNL     1     -32.378  49.145 -17.047  1.00  0.00     0.006 C 
ATOM     12  C   UNL     1     -31.013  48.602 -17.469  1.00  0.00     0.004 C 
ENDBRANCH   1  11
TORSDOF 4
ENDMDL
MODEL 6
REMARK VINA RESULT:    -3.406     16.933     17.835
REMARK INTER + INTRA:          -4.209
REMARK INTER:                  -4.543
REMARK INTRA:                   0.333
REMARK UNBOUND:                -0.107
REMARK SMILES CC[C@@H](C)[C@@H]([NH3+])C(=O)[O-]
REMARK SMILES IDX 3 1 4 2 5 3 6 4 7 8 8 9 9 10 2 11 1 12
REMARK H PARENT 6 5 6 6 6 7
REMARK Flexibility Score: inf
ROOT
ATOM      1  C   UNL     1     -32.944  36.970  -2.055  1.00  0.00     0.050 C 
ATOM      2  C   UNL     1     -33.137  36.614  -3.541  1.00  0.00     0.014 C 
ENDROOT
BRANCH   1   3
ATOM      3  C   UNL     1     -31.448  37.288  -1.746  1.00  0.00     0.230 C 
BRANCH   3   4
ATOM      4  N   UNL     1     -30.813  36.274  -0.887  1.00  0.00    -0.350 N 
ATOM      5  H   UNL     1     -31.319  35.363  -0.993  1.00  0.00     0.345 HD
ATOM      6  H   UNL     1     -29.821  36.121  -1.178  1.00  0.00     0.345 HD
ATOM      7  H   UNL     1     -30.839  36.554   0.119  1.00  0.00     0.345 HD
ENDBRANCH   3   4
BRANCH   3   8
ATOM      8  C   UNL     1     -30.662  37.490  -3.019  1.00  0.00     0.099 C 
ATOM      9  O   UNL     1     -30.921  38.449  -3.796  1.00  0.00    -0.544 OA
ATOM     10  O   UNL     1     -29.610  36.635  -3.321  1.00  0.00    -0.544 OA
ENDBRANCH   3   8
ENDBRANCH   1   3
BRANCH   1  11
ATOM     11  C   UNL     1     -33.905  38.107  -1.622  1.00  0.00     0.006 C 
ATOM     12  C   UNL     1     -33.980  39.239  -2.646  1.00  0.00     0.004 C 
ENDBRANCH   1  11
TORSDOF 4
ENDMDL
MODEL 7
REMARK VINA RESULT:    -3.374     16.758     17.953
REMARK INTER + INTRA:          -4.171
REMARK INTER:                  -4.019
REMARK INTRA:                  -0.152
REMARK UNBOUND:                -0.107
REMARK SMILES CC[C@@H](C)[C@@H]([NH3+])C(=O)[O-]
REMARK SMILES IDX 3 1 4 2 5 3 6 4 7 8 8 9 9 10 2 11 1 12
REMARK H PARENT 6 5 6 6 6 7
REMARK Flexibility Score: inf
ROOT
ATOM      1  C   UNL     1     -33.239  38.128  -2.449  1.00  0.00     0.050 C 
ATOM      2  C   UNL     1     -33.948  39.456  -2.775  1.00  0.00     0.014 C 
ENDROOT
BRANCH   1   3
ATOM      3  C   UNL     1     -31.753  38.373  -2.039  1.00  0.00     0.230 C 
BRANCH   3   4
ATOM      4  N   UNL     1     -31.515  38.166  -0.601  1.00  0.00    -0.350 N 
ATOM      5  H   UNL     1     -30.676  37.554  -0.472  1.00  0.00     0.345 HD
ATOM      6  H   UNL     1     -31.316  39.078  -0.131  1.00  0.00     0.345 HD
ATOM      7  H   UNL     1     -32.334  37.710  -0.139  1.00  0.00     0.345 HD
ENDBRANCH   3   4
BRANCH   3   8
ATOM      8  C   UNL     1     -30.816  37.533  -2.872  1.00  0.00     0.099 C 
ATOM      9  O   UNL     1     -30.348  37.967  -3.959  1.00  0.00    -0.544 OA
ATOM     10  O   UNL     1     -30.426  36.280  -2.415  1.00  0.00    -0.544 OA
ENDBRANCH   3   8
ENDBRANCH   1   3
BRANCH   1  11
ATOM     11  C   UNL     1     -34.030  37.314  -1.394  1.00  0.00     0.006 C 
ATOM     12  C   UNL     1     -34.093  35.822  -1.725  1.00  0.00     0.004 C 
ENDBRANCH   1  11
TORSDOF 4
ENDMDL
MODEL 8
REMARK VINA RESULT:    -3.271     15.743     16.892
REMARK INTER + INTRA:          -4.047
REMARK INTER:                  -3.958
REMARK INTRA:                  -0.089
REMARK UNBOUND:                -0.107
REMARK SMILES CC[C@@H](C)[C@@H]([NH3+])C(=O)[O-]
REMARK SMILES IDX 3 1 4 2 5 3 6 4 7 8 8 9 9 10 2 11 1 12
REMARK H PARENT 6 5 6 6 6 7
REMARK Flexibility Score: inf
ROOT
ATOM      1  C   UNL     1     -33.117  38.488  -3.598  1.00  0.00     0.050 C 
ATOM      2  C   UNL     1     -33.711  39.402  -2.510  1.00  0.00     0.014 C 
ENDROOT
BRANCH   1   3
ATOM      3  C   UNL     1     -32.648  37.128  -2.993  1.00  0.00     0.230 C 
BRANCH   3   4
ATOM      4  N   UNL     1     -33.127  35.966  -3.759  1.00  0.00    -0.350 N 
ATOM      5  H   UNL     1     -32.315  35.350  -3.998  1.00  0.00     0.345 HD
ATOM      6  H   UNL     1     -33.793  35.401  -3.184  1.00  0.00     0.345 HD
ATOM      7  H   UNL     1     -33.596  36.258  -4.645  1.00  0.00     0.345 HD
ENDBRANCH   3   4
BRANCH   3   8
ATOM      8  C   UNL     1     -31.147  37.095  -2.835  1.00  0.00     0.099 C 
ATOM      9  O   UNL     1     -30.602  36.367  -1.962  1.00  0.00    -0.544 OA
ATOM     10  O   UNL     1     -30.349  37.843  -3.693  1.00  0.00    -0.544 OA
ENDBRANCH   3   8
ENDBRANCH   1   3
BRANCH   1  11
ATOM     11  C   UNL     1     -34.102  38.314  -4.783  1.00  0.00     0.006 C 
ATOM     12  C   UNL     1     -33.907  39.368  -5.873  1.00  0.00     0.004 C 
ENDBRANCH   1  11
TORSDOF 4
ENDMDL
MODEL 9
REMARK VINA RESULT:    -3.215     15.747     16.797
REMARK INTER + INTRA:          -3.979
REMARK INTER:                  -3.885
REMARK INTRA:                  -0.094
REMARK UNBOUND:                -0.107
REMARK SMILES CC[C@@H](C)[C@@H]([NH3+])C(=O)[O-]
REMARK SMILES IDX 3 1 4 2 5 3 6 4 7 8 8 9 9 10 2 11 1 12
REMARK H PARENT 6 5 6 6 6 7
REMARK Flexibility Score: inf
ROOT
ATOM      1  C   UNL     1     -33.752  38.584  -3.906  1.00  0.00     0.050 C 
ATOM      2  C   UNL     1     -33.731  39.263  -5.288  1.00  0.00     0.014 C 
ENDROOT
BRANCH   1   3
ATOM      3  C   UNL     1     -32.412  37.833  -3.631  1.00  0.00     0.230 C 
BRANCH   3   4
ATOM      4  N   UNL     1     -31.226  38.633  -3.978  1.00  0.00    -0.350 N 
ATOM      5  H   UNL     1     -31.296  38.943  -4.975  1.00  0.00     0.345 HD
ATOM      6  H   UNL     1     -31.179  39.490  -3.382  1.00  0.00     0.345 HD
ATOM      7  H   UNL     1     -30.346  38.082  -3.861  1.00  0.00     0.345 HD
ENDBRANCH   3   4
BRANCH   3   8
ATOM      8  C   UNL     1     -32.345  37.352  -2.202  1.00  0.00     0.099 C 
ATOM      9  O   UNL     1     -31.519  37.849  -1.388  1.00  0.00    -0.544 OA
ATOM     10  O   UNL     1     -33.233  36.378  -1.761  1.00  0.00    -0.544 OA
ENDBRANCH   3   8
ENDBRANCH   1   3
BRANCH   1  11
ATOM     11  C   UNL     1     -34.117  39.596  -2.789  1.00  0.00     0.006 C 
ATOM     12  C   UNL     1     -34.125  41.043  -3.284  1.00  0.00     0.004 C 
ENDBRANCH   1  11
TORSDOF 4
ENDMDL
