MODEL 1
REMARK VINA RESULT:    47.320      0.000      0.000
REMARK INTER + INTRA:          57.444
REMARK INTER:                  57.002
REMARK INTRA:                   0.442
REMARK UNBOUND:                 0.442
REMARK SMILES O=c1c(O)c(-c2ccc(O)c(O)c2)oc2cc(O)cc(O)c12
REMARK SMILES IDX 5 1 3 2 2 3 1 4 22 5 20 6 19 7 17 8 16 9 15 10 14 11 6 12
REMARK SMILES IDX 7 13 8 14 9 15 13 16 11 17 10 18 12 20 4 22 21 24 18 26
REMARK H PARENT 10 19 12 21 4 23 21 25 18 27
REMARK Flexibility Score: inf
ROOT
ATOM      1  C   UNL     1     -32.983  40.621 -23.587  1.00  0.00     0.180 A 
ATOM      2  C   UNL     1     -33.733  40.630 -24.777  1.00  0.00     0.208 A 
ATOM      3  C   UNL     1     -35.125  40.457 -24.705  1.00  0.00     0.238 A 
ATOM      4  O   UNL     1     -35.797  40.521 -25.767  1.00  0.00    -0.285 OA
ATOM      5  C   UNL     1     -35.746  40.260 -23.449  1.00  0.00     0.111 A 
ATOM      6  C   UNL     1     -37.144  40.034 -23.263  1.00  0.00     0.134 A 
ATOM      7  C   UNL     1     -37.669  39.982 -21.966  1.00  0.00     0.093 A 
ATOM      8  C   UNL     1     -36.837  40.083 -20.848  1.00  0.00     0.123 A 
ATOM      9  C   UNL     1     -35.464  40.243 -21.019  1.00  0.00     0.094 A 
ATOM     10  C   UNL     1     -34.916  40.335 -22.301  1.00  0.00     0.146 A 
ATOM     11  O   UNL     1     -33.603  40.499 -22.420  1.00  0.00    -0.452 OA
ENDROOT
BRANCH   1  12
ATOM     12  C   UNL     1     -31.510  40.772 -23.584  1.00  0.00     0.025 A 
ATOM     13  C   UNL     1     -30.769  40.750 -24.778  1.00  0.00     0.016 A 
ATOM     14  C   UNL     1     -29.377  40.870 -24.748  1.00  0.00     0.051 A 
ATOM     15  C   UNL     1     -28.704  41.001 -23.526  1.00  0.00     0.157 A 
ATOM     16  C   UNL     1     -30.829  40.881 -22.360  1.00  0.00     0.062 A 
ATOM     17  C   UNL     1     -29.436  41.003 -22.326  1.00  0.00     0.158 A 
BRANCH  15  18
ATOM     18  O   UNL     1     -27.316  41.123 -23.500  1.00  0.00    -0.504 OA
ATOM     19  H   UNL     1     -26.794  41.427 -24.313  1.00  0.00     0.293 HD
ENDBRANCH  15  18
BRANCH  17  20
ATOM     20  O   UNL     1     -28.796  41.125 -21.093  1.00  0.00    -0.504 OA
ATOM     21  H   UNL     1     -27.786  41.164 -21.012  1.00  0.00     0.293 HD
ENDBRANCH  17  20
ENDBRANCH   1  12
BRANCH   2  22
ATOM     22  O   UNL     1     -33.102  40.848 -26.004  1.00  0.00    -0.502 OA
ATOM     23  H   UNL     1     -33.370  41.599 -26.628  1.00  0.00     0.293 HD
ENDBRANCH   2  22
BRANCH   6  24
ATOM     24  O   UNL     1     -38.047  39.828 -24.310  1.00  0.00    -0.507 OA
ATOM     25  H   UNL     1     -37.945  39.125 -25.027  1.00  0.00     0.293 HD
ENDBRANCH   6  24
BRANCH   8  26
ATOM     26  O   UNL     1     -37.364  40.014 -19.560  1.00  0.00    -0.508 OA
ATOM     27  H   UNL     1     -36.801  40.228 -18.745  1.00  0.00     0.293 HD
ENDBRANCH   8  26
TORSDOF 6
ENDMDL
