MODEL 1
REMARK VINA RESULT:    -5.474      0.000      0.000
REMARK INTER + INTRA:         -10.498
REMARK INTER:                  -9.634
REMARK INTRA:                  -0.864
REMARK UNBOUND:                -0.864
REMARK SMILES CCCCCCCCCCCCCCC(=O)[O-]
REMARK SMILES IDX 9 1 10 2 11 3 12 4 13 5 14 6 15 7 16 8 17 9 8 10 7 11 6 12
REMARK SMILES IDX 5 13 4 14 3 15 2 16 1 17
REMARK H PARENT
REMARK Flexibility Score: inf
ROOT
ATOM      1  C   UNL     1      10.729 -13.433  29.068  1.00  0.00     0.000 C 
ENDROOT
BRANCH   1   2
ATOM      2  C   UNL     1      11.766 -13.986  30.057  1.00  0.00     0.000 C 
BRANCH   2   3
ATOM      3  C   UNL     1      13.175 -13.483  29.709  1.00  0.00     0.000 C 
BRANCH   3   4
ATOM      4  C   UNL     1      13.450 -13.488  28.197  1.00  0.00     0.000 C 
BRANCH   4   5
ATOM      5  C   UNL     1      14.839 -14.052  27.849  1.00  0.00     0.006 C 
BRANCH   5   6
ATOM      6  C   UNL     1      15.219 -13.792  26.386  1.00  0.00     0.053 C 
BRANCH   6   7
ATOM      7  C   UNL     1      14.306 -14.507  25.438  1.00  0.00     0.041 C 
ATOM      8  O   UNL     1      14.537 -15.703  25.118  1.00  0.00    -0.550 OA
ATOM      9  O   UNL     1      13.180 -13.866  24.938  1.00  0.00    -0.550 OA
ENDBRANCH   6   7
ENDBRANCH   5   6
ENDBRANCH   4   5
ENDBRANCH   3   4
ENDBRANCH   2   3
ENDBRANCH   1   2
BRANCH   1  10
ATOM     10  C   UNL     1       9.578 -12.689  29.768  1.00  0.00     0.000 C 
BRANCH  10  11
ATOM     11  C   UNL     1       8.405 -12.392  28.820  1.00  0.00    -0.000 C 
BRANCH  11  12
ATOM     12  C   UNL     1       8.258 -13.444  27.707  1.00  0.00    -0.000 C 
BRANCH  12  13
ATOM     13  C   UNL     1       8.219 -12.843  26.285  1.00  0.00    -0.000 C 
BRANCH  13  14
ATOM     14  C   UNL     1       9.514 -12.090  25.937  1.00  0.00    -0.000 C 
BRANCH  14  15
ATOM     15  C   UNL     1       9.290 -11.003  24.863  1.00  0.00    -0.000 C 
BRANCH  15  16
ATOM     16  C   UNL     1       9.317 -11.544  23.424  1.00  0.00    -0.003 C 
ATOM     17  C   UNL     1      10.478 -12.501  23.166  1.00  0.00     0.004 C 
ENDBRANCH  15  16
ENDBRANCH  14  15
ENDBRANCH  13  14
ENDBRANCH  12  13
ENDBRANCH  11  12
ENDBRANCH  10  11
ENDBRANCH   1  10
TORSDOF 13
ENDMDL
MODEL 2
REMARK VINA RESULT:    -5.421      1.608      4.614
REMARK INTER + INTRA:         -10.405
REMARK INTER:                  -8.924
REMARK INTRA:                  -1.482
REMARK UNBOUND:                -0.864
REMARK SMILES CCCCCCCCCCCCCCC(=O)[O-]
REMARK SMILES IDX 9 1 10 2 11 3 12 4 13 5 14 6 15 7 16 8 17 9 8 10 7 11 6 12
REMARK SMILES IDX 5 13 4 14 3 15 2 16 1 17
REMARK H PARENT
REMARK Flexibility Score: inf
ROOT
ATOM      1  C   UNL     1      12.689 -13.156  22.240  1.00  0.00     0.000 C 
ENDROOT
BRANCH   1   2
ATOM      2  C   UNL     1      13.902 -12.941  23.157  1.00  0.00     0.000 C 
BRANCH   2   3
ATOM      3  C   UNL     1      13.620 -11.837  24.187  1.00  0.00     0.000 C 
BRANCH   3   4
ATOM      4  C   UNL     1      14.220 -12.146  25.567  1.00  0.00     0.000 C 
BRANCH   4   5
ATOM      5  C   UNL     1      13.326 -13.074  26.408  1.00  0.00     0.006 C 
BRANCH   5   6
ATOM      6  C   UNL     1      14.140 -14.119  27.180  1.00  0.00     0.053 C 
BRANCH   6   7
ATOM      7  C   UNL     1      14.851 -15.063  26.259  1.00  0.00     0.041 C 
ATOM      8  O   UNL     1      14.197 -15.754  25.433  1.00  0.00    -0.550 OA
ATOM      9  O   UNL     1      16.236 -15.152  26.287  1.00  0.00    -0.550 OA
ENDBRANCH   6   7
ENDBRANCH   5   6
ENDBRANCH   4   5
ENDBRANCH   3   4
ENDBRANCH   2   3
ENDBRANCH   1   2
BRANCH   1  10
ATOM     10  C   UNL     1      11.363 -13.234  23.015  1.00  0.00     0.000 C 
BRANCH  10  11
ATOM     11  C   UNL     1      10.226 -12.472  22.317  1.00  0.00    -0.000 C 
BRANCH  11  12
ATOM     12  C   UNL     1       9.345 -11.683  23.302  1.00  0.00    -0.000 C 
BRANCH  12  13
ATOM     13  C   UNL     1      10.004 -11.455  24.679  1.00  0.00    -0.000 C 
BRANCH  13  14
ATOM     14  C   UNL     1       8.982 -11.508  25.829  1.00  0.00    -0.000 C 
BRANCH  14  15
ATOM     15  C   UNL     1       9.233 -12.696  26.782  1.00  0.00    -0.000 C 
BRANCH  15  16
ATOM     16  C   UNL     1       9.088 -12.334  28.270  1.00  0.00    -0.003 C 
ATOM     17  C   UNL     1      10.098 -13.052  29.162  1.00  0.00     0.004 C 
ENDBRANCH  15  16
ENDBRANCH  14  15
ENDBRANCH  13  14
ENDBRANCH  12  13
ENDBRANCH  11  12
ENDBRANCH  10  11
ENDBRANCH   1  10
TORSDOF 13
ENDMDL
MODEL 3
REMARK VINA RESULT:    -5.410      1.837      3.950
REMARK INTER + INTRA:         -10.385
REMARK INTER:                  -9.309
REMARK INTRA:                  -1.076
REMARK UNBOUND:                -0.864
REMARK SMILES CCCCCCCCCCCCCCC(=O)[O-]
REMARK SMILES IDX 9 1 10 2 11 3 12 4 13 5 14 6 15 7 16 8 17 9 8 10 7 11 6 12
REMARK SMILES IDX 5 13 4 14 3 15 2 16 1 17
REMARK H PARENT
REMARK Flexibility Score: inf
ROOT
ATOM      1  C   UNL     1      13.161 -13.048  25.432  1.00  0.00     0.000 C 
ENDROOT
BRANCH   1   2
ATOM      2  C   UNL     1      13.091 -13.208  26.958  1.00  0.00     0.000 C 
BRANCH   2   3
ATOM      3  C   UNL     1      14.488 -13.460  27.546  1.00  0.00     0.000 C 
BRANCH   3   4
ATOM      4  C   UNL     1      15.062 -14.827  27.143  1.00  0.00     0.000 C 
BRANCH   4   5
ATOM      5  C   UNL     1      16.583 -14.786  26.911  1.00  0.00     0.006 C 
BRANCH   5   6
ATOM      6  C   UNL     1      16.942 -14.212  25.534  1.00  0.00     0.053 C 
BRANCH   6   7
ATOM      7  C   UNL     1      17.275 -15.291  24.551  1.00  0.00     0.041 C 
ATOM      8  O   UNL     1      16.931 -15.176  23.345  1.00  0.00    -0.550 OA
ATOM      9  O   UNL     1      17.996 -16.406  24.957  1.00  0.00    -0.550 OA
ENDBRANCH   6   7
ENDBRANCH   5   6
ENDBRANCH   4   5
ENDBRANCH   3   4
ENDBRANCH   2   3
ENDBRANCH   1   2
BRANCH   1  10
ATOM     10  C   UNL     1      12.213 -11.958  24.904  1.00  0.00     0.000 C 
BRANCH  10  11
ATOM     11  C   UNL     1      10.819 -12.505  24.560  1.00  0.00    -0.000 C 
BRANCH  11  12
ATOM     12  C   UNL     1       9.698 -11.830  25.370  1.00  0.00    -0.000 C 
BRANCH  12  13
ATOM     13  C   UNL     1       8.515 -12.767  25.695  1.00  0.00    -0.000 C 
BRANCH  13  14
ATOM     14  C   UNL     1       8.538 -13.244  27.158  1.00  0.00    -0.000 C 
BRANCH  14  15
ATOM     15  C   UNL     1       9.447 -12.368  28.047  1.00  0.00    -0.000 C 
BRANCH  15  16
ATOM     16  C   UNL     1       9.595 -12.893  29.485  1.00  0.00    -0.003 C 
ATOM     17  C   UNL     1      10.942 -13.566  29.740  1.00  0.00     0.004 C 
ENDBRANCH  15  16
ENDBRANCH  14  15
ENDBRANCH  13  14
ENDBRANCH  12  13
ENDBRANCH  11  12
ENDBRANCH  10  11
ENDBRANCH   1  10
TORSDOF 13
ENDMDL
MODEL 4
REMARK VINA RESULT:    -5.386      2.672      6.476
REMARK INTER + INTRA:         -10.344
REMARK INTER:                  -9.225
REMARK INTRA:                  -1.119
REMARK UNBOUND:                -0.864
REMARK SMILES CCCCCCCCCCCCCCC(=O)[O-]
REMARK SMILES IDX 9 1 10 2 11 3 12 4 13 5 14 6 15 7 16 8 17 9 8 10 7 11 6 12
REMARK SMILES IDX 5 13 4 14 3 15 2 16 1 17
REMARK H PARENT
REMARK Flexibility Score: inf
ROOT
ATOM      1  C   UNL     1      11.237 -12.175  24.251  1.00  0.00     0.000 C 
ENDROOT
BRANCH   1   2
ATOM      2  C   UNL     1       9.845 -12.817  24.360  1.00  0.00     0.000 C 
BRANCH   2   3
ATOM      3  C   UNL     1       9.020 -12.147  25.468  1.00  0.00     0.000 C 
BRANCH   3   4
ATOM      4  C   UNL     1       8.021 -13.110  26.127  1.00  0.00     0.000 C 
BRANCH   4   5
ATOM      5  C   UNL     1       8.302 -13.323  27.625  1.00  0.00     0.006 C 
BRANCH   5   6
ATOM      6  C   UNL     1       9.594 -12.628  28.076  1.00  0.00     0.053 C 
BRANCH   6   7
ATOM      7  C   UNL     1       9.855 -12.832  29.536  1.00  0.00     0.041 C 
ATOM      8  O   UNL     1      10.869 -13.476  29.914  1.00  0.00    -0.550 OA
ATOM      9  O   UNL     1       9.000 -12.279  30.480  1.00  0.00    -0.550 OA
ENDBRANCH   6   7
ENDBRANCH   5   6
ENDBRANCH   4   5
ENDBRANCH   3   4
ENDBRANCH   2   3
ENDBRANCH   1   2
BRANCH   1  10
ATOM     10  C   UNL     1      12.185 -12.616  25.379  1.00  0.00     0.000 C 
BRANCH  10  11
ATOM     11  C   UNL     1      13.566 -11.949  25.284  1.00  0.00    -0.000 C 
BRANCH  11  12
ATOM     12  C   UNL     1      14.556 -12.477  26.336  1.00  0.00    -0.000 C 
BRANCH  12  13
ATOM     13  C   UNL     1      14.030 -13.692  27.130  1.00  0.00    -0.000 C 
BRANCH  13  14
ATOM     14  C   UNL     1      14.975 -14.903  27.033  1.00  0.00    -0.000 C 
BRANCH  14  15
ATOM     15  C   UNL     1      16.421 -14.491  26.681  1.00  0.00    -0.000 C 
BRANCH  15  16
ATOM     16  C   UNL     1      17.040 -15.321  25.544  1.00  0.00    -0.003 C 
ATOM     17  C   UNL     1      16.252 -15.229  24.239  1.00  0.00     0.004 C 
ENDBRANCH  15  16
ENDBRANCH  14  15
ENDBRANCH  13  14
ENDBRANCH  12  13
ENDBRANCH  11  12
ENDBRANCH  10  11
ENDBRANCH   1  10
TORSDOF 13
ENDMDL
MODEL 5
REMARK VINA RESULT:    -5.322      2.328      4.147
REMARK INTER + INTRA:         -10.231
REMARK INTER:                  -8.813
REMARK INTRA:                  -1.418
REMARK UNBOUND:                -0.864
REMARK SMILES CCCCCCCCCCCCCCC(=O)[O-]
REMARK SMILES IDX 9 1 10 2 11 3 12 4 13 5 14 6 15 7 16 8 17 9 8 10 7 11 6 12
REMARK SMILES IDX 5 13 4 14 3 15 2 16 1 17
REMARK H PARENT
REMARK Flexibility Score: inf
ROOT
ATOM      1  C   UNL     1      13.054 -12.997  26.162  1.00  0.00     0.000 C 
ENDROOT
BRANCH   1   2
ATOM      2  C   UNL     1      14.129 -14.073  25.946  1.00  0.00     0.000 C 
BRANCH   2   3
ATOM      3  C   UNL     1      14.758 -14.493  27.283  1.00  0.00     0.000 C 
BRANCH   3   4
ATOM      4  C   UNL     1      14.706 -13.377  28.338  1.00  0.00     0.000 C 
BRANCH   4   5
ATOM      5  C   UNL     1      16.098 -13.010  28.882  1.00  0.00     0.006 C 
BRANCH   5   6
ATOM      6  C   UNL     1      17.043 -12.525  27.775  1.00  0.00     0.053 C 
BRANCH   6   7
ATOM      7  C   UNL     1      16.566 -11.246  27.158  1.00  0.00     0.041 C 
ATOM      8  O   UNL     1      16.413 -10.219  27.871  1.00  0.00    -0.550 OA
ATOM      9  O   UNL     1      16.329 -11.178  25.792  1.00  0.00    -0.550 OA
ENDBRANCH   6   7
ENDBRANCH   5   6
ENDBRANCH   4   5
ENDBRANCH   3   4
ENDBRANCH   2   3
ENDBRANCH   1   2
BRANCH   1  10
ATOM     10  C   UNL     1      12.991 -11.980  25.010  1.00  0.00     0.000 C 
BRANCH  10  11
ATOM     11  C   UNL     1      12.215 -12.513  23.794  1.00  0.00    -0.000 C 
BRANCH  11  12
ATOM     12  C   UNL     1      10.804 -13.007  24.158  1.00  0.00    -0.000 C 
BRANCH  12  13
ATOM     13  C   UNL     1       9.756 -11.878  24.251  1.00  0.00    -0.000 C 
BRANCH  13  14
ATOM     14  C   UNL     1       9.190 -11.726  25.674  1.00  0.00    -0.000 C 
BRANCH  14  15
ATOM     15  C   UNL     1       8.383 -12.964  26.120  1.00  0.00    -0.000 C 
BRANCH  15  16
ATOM     16  C   UNL     1       8.401 -13.198  27.640  1.00  0.00    -0.003 C 
ATOM     17  C   UNL     1       9.645 -12.628  28.318  1.00  0.00     0.004 C 
ENDBRANCH  15  16
ENDBRANCH  14  15
ENDBRANCH  13  14
ENDBRANCH  12  13
ENDBRANCH  11  12
ENDBRANCH  10  11
ENDBRANCH   1  10
TORSDOF 13
ENDMDL
MODEL 6
REMARK VINA RESULT:    -5.251      3.252      7.341
REMARK INTER + INTRA:         -10.106
REMARK INTER:                  -9.445
REMARK INTRA:                  -0.661
REMARK UNBOUND:                -0.864
REMARK SMILES CCCCCCCCCCCCCCC(=O)[O-]
REMARK SMILES IDX 9 1 10 2 11 3 12 4 13 5 14 6 15 7 16 8 17 9 8 10 7 11 6 12
REMARK SMILES IDX 5 13 4 14 3 15 2 16 1 17
REMARK H PARENT
REMARK Flexibility Score: inf
ROOT
ATOM      1  C   UNL     1      12.427 -12.232  24.584  1.00  0.00     0.000 C 
ENDROOT
BRANCH   1   2
ATOM      2  C   UNL     1      10.996 -12.790  24.590  1.00  0.00     0.000 C 
BRANCH   2   3
ATOM      3  C   UNL     1       9.965 -11.652  24.548  1.00  0.00     0.000 C 
BRANCH   3   4
ATOM      4  C   UNL     1       9.139 -11.553  25.840  1.00  0.00     0.000 C 
BRANCH   4   5
ATOM      5  C   UNL     1       9.582 -12.571  26.906  1.00  0.00     0.006 C 
BRANCH   5   6
ATOM      6  C   UNL     1       8.557 -12.706  28.039  1.00  0.00     0.053 C 
BRANCH   6   7
ATOM      7  C   UNL     1       9.203 -12.617  29.387  1.00  0.00     0.041 C 
ATOM      8  O   UNL     1       8.583 -12.098  30.353  1.00  0.00    -0.550 OA
ATOM      9  O   UNL     1      10.473 -13.141  29.588  1.00  0.00    -0.550 OA
ENDBRANCH   6   7
ENDBRANCH   5   6
ENDBRANCH   4   5
ENDBRANCH   3   4
ENDBRANCH   2   3
ENDBRANCH   1   2
BRANCH   1  10
ATOM     10  C   UNL     1      13.334 -12.911  25.624  1.00  0.00     0.000 C 
BRANCH  10  11
ATOM     11  C   UNL     1      13.934 -14.230  25.112  1.00  0.00    -0.000 C 
BRANCH  11  12
ATOM     12  C   UNL     1      14.577 -15.066  26.232  1.00  0.00    -0.000 C 
BRANCH  12  13
ATOM     13  C   UNL     1      16.058 -14.719  26.495  1.00  0.00    -0.000 C 
BRANCH  13  14
ATOM     14  C   UNL     1      16.897 -14.736  25.205  1.00  0.00    -0.000 C 
BRANCH  14  15
ATOM     15  C   UNL     1      17.704 -16.043  25.048  1.00  0.00    -0.000 C 
BRANCH  15  16
ATOM     16  C   UNL     1      18.986 -15.880  24.216  1.00  0.00    -0.003 C 
ATOM     17  C   UNL     1      19.434 -17.177  23.546  1.00  0.00     0.004 C 
ENDBRANCH  15  16
ENDBRANCH  14  15
ENDBRANCH  13  14
ENDBRANCH  12  13
ENDBRANCH  11  12
ENDBRANCH  10  11
ENDBRANCH   1  10
TORSDOF 13
ENDMDL
MODEL 7
REMARK VINA RESULT:    -5.222      2.163      4.115
REMARK INTER + INTRA:         -10.054
REMARK INTER:                  -9.010
REMARK INTRA:                  -1.044
REMARK UNBOUND:                -0.864
REMARK SMILES CCCCCCCCCCCCCCC(=O)[O-]
REMARK SMILES IDX 9 1 10 2 11 3 12 4 13 5 14 6 15 7 16 8 17 9 8 10 7 11 6 12
REMARK SMILES IDX 5 13 4 14 3 15 2 16 1 17
REMARK H PARENT
REMARK Flexibility Score: inf
ROOT
ATOM      1  C   UNL     1      14.165 -12.489  26.199  1.00  0.00     0.000 C 
ENDROOT
BRANCH   1   2
ATOM      2  C   UNL     1      14.451 -13.497  27.323  1.00  0.00     0.000 C 
BRANCH   2   3
ATOM      3  C   UNL     1      14.887 -14.851  26.745  1.00  0.00     0.000 C 
BRANCH   3   4
ATOM      4  C   UNL     1      16.398 -15.094  26.881  1.00  0.00     0.000 C 
BRANCH   4   5
ATOM      5  C   UNL     1      17.165 -14.807  25.578  1.00  0.00     0.006 C 
BRANCH   5   6
ATOM      6  C   UNL     1      16.308 -15.065  24.333  1.00  0.00     0.053 C 
BRANCH   6   7
ATOM      7  C   UNL     1      17.130 -15.565  23.186  1.00  0.00     0.041 C 
ATOM      8  O   UNL     1      18.316 -15.943  23.374  1.00  0.00    -0.550 OA
ATOM      9  O   UNL     1      16.574 -15.650  21.916  1.00  0.00    -0.550 OA
ENDBRANCH   6   7
ENDBRANCH   5   6
ENDBRANCH   4   5
ENDBRANCH   3   4
ENDBRANCH   2   3
ENDBRANCH   1   2
BRANCH   1  10
ATOM     10  C   UNL     1      13.240 -13.060  25.110  1.00  0.00     0.000 C 
BRANCH  10  11
ATOM     11  C   UNL     1      12.133 -12.075  24.701  1.00  0.00    -0.000 C 
BRANCH  11  12
ATOM     12  C   UNL     1      10.799 -12.775  24.391  1.00  0.00    -0.000 C 
BRANCH  12  13
ATOM     13  C   UNL     1       9.611 -11.803  24.224  1.00  0.00    -0.000 C 
BRANCH  13  14
ATOM     14  C   UNL     1       8.960 -11.443  25.571  1.00  0.00    -0.000 C 
BRANCH  14  15
ATOM     15  C   UNL     1       8.944 -12.636  26.551  1.00  0.00    -0.000 C 
BRANCH  15  16
ATOM     16  C   UNL     1       9.010 -12.219  28.030  1.00  0.00    -0.003 C 
ATOM     17  C   UNL     1      10.092 -12.959  28.812  1.00  0.00     0.004 C 
ENDBRANCH  15  16
ENDBRANCH  14  15
ENDBRANCH  13  14
ENDBRANCH  12  13
ENDBRANCH  11  12
ENDBRANCH  10  11
ENDBRANCH   1  10
TORSDOF 13
ENDMDL
MODEL 8
REMARK VINA RESULT:    -5.216      1.939      4.318
REMARK INTER + INTRA:         -10.045
REMARK INTER:                  -8.759
REMARK INTRA:                  -1.286
REMARK UNBOUND:                -0.864
REMARK SMILES CCCCCCCCCCCCCCC(=O)[O-]
REMARK SMILES IDX 9 1 10 2 11 3 12 4 13 5 14 6 15 7 16 8 17 9 8 10 7 11 6 12
REMARK SMILES IDX 5 13 4 14 3 15 2 16 1 17
REMARK H PARENT
REMARK Flexibility Score: inf
ROOT
ATOM      1  C   UNL     1      12.813 -13.082  25.707  1.00  0.00     0.000 C 
ENDROOT
BRANCH   1   2
ATOM      2  C   UNL     1      13.531 -13.968  24.678  1.00  0.00     0.000 C 
BRANCH   2   3
ATOM      3  C   UNL     1      14.269 -15.123  25.371  1.00  0.00     0.000 C 
BRANCH   3   4
ATOM      4  C   UNL     1      15.785 -15.094  25.119  1.00  0.00     0.000 C 
BRANCH   4   5
ATOM      5  C   UNL     1      16.549 -14.299  26.193  1.00  0.00     0.006 C 
BRANCH   5   6
ATOM      6  C   UNL     1      15.878 -14.393  27.569  1.00  0.00     0.053 C 
BRANCH   6   7
ATOM      7  C   UNL     1      15.496 -13.043  28.095  1.00  0.00     0.041 C 
ATOM      8  O   UNL     1      14.976 -12.933  29.237  1.00  0.00    -0.550 OA
ATOM      9  O   UNL     1      15.749 -11.905  27.342  1.00  0.00    -0.550 OA
ENDBRANCH   6   7
ENDBRANCH   5   6
ENDBRANCH   4   5
ENDBRANCH   3   4
ENDBRANCH   2   3
ENDBRANCH   1   2
BRANCH   1  10
ATOM     10  C   UNL     1      12.039 -11.923  25.057  1.00  0.00     0.000 C 
BRANCH  10  11
ATOM     11  C   UNL     1      10.872 -12.410  24.183  1.00  0.00    -0.000 C 
BRANCH  11  12
ATOM     12  C   UNL     1       9.726 -13.020  25.007  1.00  0.00    -0.000 C 
BRANCH  12  13
ATOM     13  C   UNL     1       9.289 -12.149  26.204  1.00  0.00    -0.000 C 
BRANCH  13  14
ATOM     14  C   UNL     1       8.578 -12.972  27.293  1.00  0.00    -0.000 C 
BRANCH  14  15
ATOM     15  C   UNL     1       9.222 -12.786  28.683  1.00  0.00    -0.000 C 
BRANCH  15  16
ATOM     16  C   UNL     1      10.738 -13.046  28.700  1.00  0.00    -0.003 C 
ATOM     17  C   UNL     1      11.203 -13.791  29.949  1.00  0.00     0.004 C 
ENDBRANCH  15  16
ENDBRANCH  14  15
ENDBRANCH  13  14
ENDBRANCH  12  13
ENDBRANCH  11  12
ENDBRANCH  10  11
ENDBRANCH   1  10
TORSDOF 13
ENDMDL
MODEL 9
REMARK VINA RESULT:    -5.121      2.683      6.877
REMARK INTER + INTRA:          -9.877
REMARK INTER:                  -8.401
REMARK INTRA:                  -1.476
REMARK UNBOUND:                -0.864
REMARK SMILES CCCCCCCCCCCCCCC(=O)[O-]
REMARK SMILES IDX 9 1 10 2 11 3 12 4 13 5 14 6 15 7 16 8 17 9 8 10 7 11 6 12
REMARK SMILES IDX 5 13 4 14 3 15 2 16 1 17
REMARK H PARENT
REMARK Flexibility Score: inf
ROOT
ATOM      1  C   UNL     1      13.555 -12.037  24.579  1.00  0.00     0.000 C 
ENDROOT
BRANCH   1   2
ATOM      2  C   UNL     1      12.268 -12.467  25.300  1.00  0.00     0.000 C 
BRANCH   2   3
ATOM      3  C   UNL     1      11.136 -12.721  24.294  1.00  0.00     0.000 C 
BRANCH   3   4
ATOM      4  C   UNL     1       9.753 -12.781  24.960  1.00  0.00     0.000 C 
BRANCH   4   5
ATOM      5  C   UNL     1       9.744 -12.153  26.365  1.00  0.00     0.006 C 
BRANCH   5   6
ATOM      6  C   UNL     1       8.582 -12.669  27.223  1.00  0.00     0.053 C 
BRANCH   6   7
ATOM      7  C   UNL     1       8.938 -12.705  28.678  1.00  0.00     0.041 C 
ATOM      8  O   UNL     1       8.035 -12.618  29.552  1.00  0.00    -0.550 OA
ATOM      9  O   UNL     1      10.260 -12.872  29.068  1.00  0.00    -0.550 OA
ENDBRANCH   6   7
ENDBRANCH   5   6
ENDBRANCH   4   5
ENDBRANCH   3   4
ENDBRANCH   2   3
ENDBRANCH   1   2
BRANCH   1  10
ATOM     10  C   UNL     1      14.263 -13.209  23.878  1.00  0.00     0.000 C 
BRANCH  10  11
ATOM     11  C   UNL     1      14.327 -14.469  24.756  1.00  0.00    -0.000 C 
BRANCH  11  12
ATOM     12  C   UNL     1      15.700 -15.160  24.706  1.00  0.00    -0.000 C 
BRANCH  12  13
ATOM     13  C   UNL     1      16.475 -15.098  26.040  1.00  0.00    -0.000 C 
BRANCH  13  14
ATOM     14  C   UNL     1      15.578 -14.667  27.214  1.00  0.00    -0.000 C 
BRANCH  14  15
ATOM     15  C   UNL     1      16.201 -13.519  28.037  1.00  0.00    -0.000 C 
BRANCH  15  16
ATOM     16  C   UNL     1      15.653 -12.130  27.671  1.00  0.00    -0.003 C 
ATOM     17  C   UNL     1      16.549 -11.373  26.693  1.00  0.00     0.004 C 
ENDBRANCH  15  16
ENDBRANCH  14  15
ENDBRANCH  13  14
ENDBRANCH  12  13
ENDBRANCH  11  12
ENDBRANCH  10  11
ENDBRANCH   1  10
TORSDOF 13
ENDMDL
