MODEL 1
REMARK VINA RESULT:    -3.957      0.000      0.000
REMARK INTER + INTRA:          -6.303
REMARK INTER:                  -5.808
REMARK INTRA:                  -0.495
REMARK UNBOUND:                -0.495
REMARK SMILES O=C([O-])CCCCCCCC(=O)[O-]
REMARK SMILES IDX 7 1 6 2 5 3 4 4 2 5 1 6 3 7 8 8 9 9 10 10 11 11 12 12 13 13
REMARK H PARENT
REMARK Flexibility Score: inf
ROOT
ATOM      1  C   UNL     1      -5.905  35.439  24.480  1.00  0.00     0.000 C 
ENDROOT
BRANCH   1   2
ATOM      2  C   UNL     1      -6.125  36.884  24.008  1.00  0.00     0.000 C 
BRANCH   2   3
ATOM      3  C   UNL     1      -4.997  37.802  24.504  1.00  0.00     0.006 C 
BRANCH   3   4
ATOM      4  C   UNL     1      -5.076  39.205  23.892  1.00  0.00     0.053 C 
BRANCH   4   5
ATOM      5  C   UNL     1      -5.022  39.162  22.396  1.00  0.00     0.041 C 
ATOM      6  O   UNL     1      -5.948  39.672  21.712  1.00  0.00    -0.550 OA
ATOM      7  O   UNL     1      -3.963  38.530  21.757  1.00  0.00    -0.550 OA
ENDBRANCH   4   5
ENDBRANCH   3   4
ENDBRANCH   2   3
ENDBRANCH   1   2
BRANCH   1   8
ATOM      8  C   UNL     1      -5.799  34.445  23.313  1.00  0.00     0.000 C 
BRANCH   8   9
ATOM      9  C   UNL     1      -6.055  35.102  21.949  1.00  0.00     0.006 C 
BRANCH   9  10
ATOM     10  C   UNL     1      -4.751  35.253  21.161  1.00  0.00     0.053 C 
BRANCH  10  11
ATOM     11  C   UNL     1      -5.038  35.577  19.728  1.00  0.00     0.041 C 
ATOM     12  O   UNL     1      -4.856  36.744  19.294  1.00  0.00    -0.550 OA
ATOM     13  O   UNL     1      -5.557  34.601  18.886  1.00  0.00    -0.550 OA
ENDBRANCH  10  11
ENDBRANCH   9  10
ENDBRANCH   8   9
ENDBRANCH   1   8
TORSDOF 8
ENDMDL
MODEL 2
REMARK VINA RESULT:    -3.586      2.516      5.172
REMARK INTER + INTRA:          -5.759
REMARK INTER:                  -5.367
REMARK INTRA:                  -0.391
REMARK UNBOUND:                -0.495
REMARK SMILES O=C([O-])CCCCCCCC(=O)[O-]
REMARK SMILES IDX 7 1 6 2 5 3 4 4 2 5 1 6 3 7 8 8 9 9 10 10 11 11 12 12 13 13
REMARK H PARENT
REMARK Flexibility Score: inf
ROOT
ATOM      1  C   UNL     1      -4.383  38.523  21.368  1.00  0.00     0.000 C 
ENDROOT
BRANCH   1   2
ATOM      2  C   UNL     1      -5.378  38.049  20.299  1.00  0.00     0.000 C 
BRANCH   2   3
ATOM      3  C   UNL     1      -4.950  36.695  19.713  1.00  0.00     0.006 C 
BRANCH   3   4
ATOM      4  C   UNL     1      -5.811  35.537  20.231  1.00  0.00     0.053 C 
BRANCH   4   5
ATOM      5  C   UNL     1      -5.267  34.967  21.505  1.00  0.00     0.041 C 
ATOM      6  O   UNL     1      -4.030  34.996  21.736  1.00  0.00    -0.550 OA
ATOM      7  O   UNL     1      -6.125  34.375  22.423  1.00  0.00    -0.550 OA
ENDBRANCH   4   5
ENDBRANCH   3   4
ENDBRANCH   2   3
ENDBRANCH   1   2
BRANCH   1   8
ATOM      8  C   UNL     1      -5.022  39.475  22.392  1.00  0.00     0.000 C 
BRANCH   8   9
ATOM      9  C   UNL     1      -5.028  38.896  23.814  1.00  0.00     0.006 C 
BRANCH   9  10
ATOM     10  C   UNL     1      -5.423  37.416  23.802  1.00  0.00     0.053 C 
BRANCH  10  11
ATOM     11  C   UNL     1      -5.430  36.863  25.192  1.00  0.00     0.041 C 
ATOM     12  O   UNL     1      -6.125  35.850  25.468  1.00  0.00    -0.550 OA
ATOM     13  O   UNL     1      -4.710  37.498  26.197  1.00  0.00    -0.550 OA
ENDBRANCH  10  11
ENDBRANCH   9  10
ENDBRANCH   8   9
ENDBRANCH   1   8
TORSDOF 8
ENDMDL
MODEL 3
REMARK VINA RESULT:    -3.441      2.253      5.084
REMARK INTER + INTRA:          -5.546
REMARK INTER:                  -5.288
REMARK INTRA:                  -0.257
REMARK UNBOUND:                -0.495
REMARK SMILES O=C([O-])CCCCCCCC(=O)[O-]
REMARK SMILES IDX 7 1 6 2 5 3 4 4 2 5 1 6 3 7 8 8 9 9 10 10 11 11 12 12 13 13
REMARK H PARENT
REMARK Flexibility Score: inf
ROOT
ATOM      1  C   UNL     1      -5.674  39.742  21.670  1.00  0.00     0.000 C 
ENDROOT
BRANCH   1   2
ATOM      2  C   UNL     1      -5.794  38.784  20.475  1.00  0.00     0.000 C 
BRANCH   2   3
ATOM      3  C   UNL     1      -4.832  37.595  20.626  1.00  0.00     0.006 C 
BRANCH   3   4
ATOM      4  C   UNL     1      -4.960  36.593  19.472  1.00  0.00     0.053 C 
BRANCH   4   5
ATOM      5  C   UNL     1      -5.697  35.358  19.890  1.00  0.00     0.041 C 
ATOM      6  O   UNL     1      -6.125  35.241  21.068  1.00  0.00    -0.550 OA
ATOM      7  O   UNL     1      -5.883  34.320  18.985  1.00  0.00    -0.550 OA
ENDBRANCH   4   5
ENDBRANCH   3   4
ENDBRANCH   2   3
ENDBRANCH   1   2
BRANCH   1   8
ATOM      8  C   UNL     1      -4.555  39.339  22.642  1.00  0.00     0.000 C 
BRANCH   8   9
ATOM      9  C   UNL     1      -5.093  38.826  23.986  1.00  0.00     0.006 C 
BRANCH   9  10
ATOM     10  C   UNL     1      -5.741  37.448  23.827  1.00  0.00     0.053 C 
BRANCH  10  11
ATOM     11  C   UNL     1      -5.427  36.581  25.006  1.00  0.00     0.041 C 
ATOM     12  O   UNL     1      -5.794  35.376  25.022  1.00  0.00    -0.550 OA
ATOM     13  O   UNL     1      -4.775  37.117  26.109  1.00  0.00    -0.550 OA
ENDBRANCH  10  11
ENDBRANCH   9  10
ENDBRANCH   8   9
ENDBRANCH   1   8
TORSDOF 8
ENDMDL
MODEL 4
REMARK VINA RESULT:    -3.439      0.587      4.002
REMARK INTER + INTRA:          -5.543
REMARK INTER:                  -5.171
REMARK INTRA:                  -0.372
REMARK UNBOUND:                -0.495
REMARK SMILES O=C([O-])CCCCCCCC(=O)[O-]
REMARK SMILES IDX 7 1 6 2 5 3 4 4 2 5 1 6 3 7 8 8 9 9 10 10 11 11 12 12 13 13
REMARK H PARENT
REMARK Flexibility Score: inf
ROOT
ATOM      1  C   UNL     1      -5.802  35.349  24.326  1.00  0.00     0.000 C 
ENDROOT
BRANCH   1   2
ATOM      2  C   UNL     1      -6.125  34.990  22.868  1.00  0.00     0.000 C 
BRANCH   2   3
ATOM      3  C   UNL     1      -4.851  34.600  22.104  1.00  0.00     0.006 C 
BRANCH   3   4
ATOM      4  C   UNL     1      -4.254  35.780  21.327  1.00  0.00     0.053 C 
BRANCH   4   5
ATOM      5  C   UNL     1      -4.967  36.008  20.029  1.00  0.00     0.041 C 
ATOM      6  O   UNL     1      -4.980  37.151  19.504  1.00  0.00    -0.550 OA
ATOM      7  O   UNL     1      -5.646  34.962  19.417  1.00  0.00    -0.550 OA
ENDBRANCH   4   5
ENDBRANCH   3   4
ENDBRANCH   2   3
ENDBRANCH   1   2
BRANCH   1   8
ATOM      8  C   UNL     1      -6.115  36.816  24.659  1.00  0.00     0.000 C 
BRANCH   8   9
ATOM      9  C   UNL     1      -4.910  37.743  24.445  1.00  0.00     0.006 C 
BRANCH   9  10
ATOM     10  C   UNL     1      -5.361  39.132  23.983  1.00  0.00     0.053 C 
BRANCH  10  11
ATOM     11  C   UNL     1      -5.027  39.339  22.539  1.00  0.00     0.041 C 
ATOM     12  O   UNL     1      -4.026  38.768  22.032  1.00  0.00    -0.550 OA
ATOM     13  O   UNL     1      -5.792  40.204  21.766  1.00  0.00    -0.550 OA
ENDBRANCH  10  11
ENDBRANCH   9  10
ENDBRANCH   8   9
ENDBRANCH   1   8
TORSDOF 8
ENDMDL
MODEL 5
REMARK VINA RESULT:    -3.399      2.552      3.541
REMARK INTER + INTRA:          -5.485
REMARK INTER:                  -5.023
REMARK INTRA:                  -0.462
REMARK UNBOUND:                -0.495
REMARK SMILES O=C([O-])CCCCCCCC(=O)[O-]
REMARK SMILES IDX 7 1 6 2 5 3 4 4 2 5 1 6 3 7 8 8 9 9 10 10 11 11 12 12 13 13
REMARK H PARENT
REMARK Flexibility Score: inf
ROOT
ATOM      1  C   UNL     1      -5.636  38.374  21.229  1.00  0.00     0.000 C 
ENDROOT
BRANCH   1   2
ATOM      2  C   UNL     1      -4.646  39.074  22.171  1.00  0.00     0.000 C 
BRANCH   2   3
ATOM      3  C   UNL     1      -5.018  38.827  23.641  1.00  0.00     0.006 C 
BRANCH   3   4
ATOM      4  C   UNL     1      -5.760  37.500  23.839  1.00  0.00     0.053 C 
BRANCH   4   5
ATOM      5  C   UNL     1      -5.461  36.889  25.173  1.00  0.00     0.041 C 
ATOM      6  O   UNL     1      -4.676  37.464  25.972  1.00  0.00    -0.550 OA
ATOM      7  O   UNL     1      -6.024  35.668  25.520  1.00  0.00    -0.550 OA
ENDBRANCH   4   5
ENDBRANCH   3   4
ENDBRANCH   2   3
ENDBRANCH   1   2
BRANCH   1   8
ATOM      8  C   UNL     1      -4.987  37.937  19.906  1.00  0.00     0.000 C 
BRANCH   8   9
ATOM      9  C   UNL     1      -4.847  36.413  19.790  1.00  0.00     0.006 C 
BRANCH   9  10
ATOM     10  C   UNL     1      -5.896  35.699  20.648  1.00  0.00     0.053 C 
BRANCH  10  11
ATOM     11  C   UNL     1      -5.240  34.942  21.759  1.00  0.00     0.041 C 
ATOM     12  O   UNL     1      -3.984  34.916  21.853  1.00  0.00    -0.550 OA
ATOM     13  O   UNL     1      -6.012  34.222  22.661  1.00  0.00    -0.550 OA
ENDBRANCH  10  11
ENDBRANCH   9  10
ENDBRANCH   8   9
ENDBRANCH   1   8
TORSDOF 8
ENDMDL
MODEL 6
REMARK VINA RESULT:    -3.365      1.940      3.688
REMARK INTER + INTRA:          -5.434
REMARK INTER:                  -4.962
REMARK INTRA:                  -0.471
REMARK UNBOUND:                -0.495
REMARK SMILES O=C([O-])CCCCCCCC(=O)[O-]
REMARK SMILES IDX 7 1 6 2 5 3 4 4 2 5 1 6 3 7 8 8 9 9 10 10 11 11 12 12 13 13
REMARK H PARENT
REMARK Flexibility Score: inf
ROOT
ATOM      1  C   UNL     1      -4.606  35.327  21.580  1.00  0.00     0.000 C 
ENDROOT
BRANCH   1   2
ATOM      2  C   UNL     1      -5.702  34.990  22.602  1.00  0.00     0.000 C 
BRANCH   2   3
ATOM      3  C   UNL     1      -6.124  36.242  23.387  1.00  0.00     0.006 C 
BRANCH   3   4
ATOM      4  C   UNL     1      -5.698  36.177  24.859  1.00  0.00     0.053 C 
BRANCH   4   5
ATOM      5  C   UNL     1      -4.996  37.427  25.290  1.00  0.00     0.041 C 
ATOM      6  O   UNL     1      -4.249  37.419  26.303  1.00  0.00    -0.550 OA
ATOM      7  O   UNL     1      -5.193  38.611  24.590  1.00  0.00    -0.550 OA
ENDBRANCH   4   5
ENDBRANCH   3   4
ENDBRANCH   2   3
ENDBRANCH   1   2
BRANCH   1   8
ATOM      8  C   UNL     1      -5.175  35.689  20.199  1.00  0.00     0.000 C 
BRANCH   8   9
ATOM      9  C   UNL     1      -4.745  37.086  19.729  1.00  0.00     0.006 C 
BRANCH   9  10
ATOM     10  C   UNL     1      -5.770  38.145  20.148  1.00  0.00     0.053 C 
BRANCH  10  11
ATOM     11  C   UNL     1      -5.217  39.007  21.239  1.00  0.00     0.041 C 
ATOM     12  O   UNL     1      -4.097  38.741  21.751  1.00  0.00    -0.550 OA
ATOM     13  O   UNL     1      -5.961  40.074  21.726  1.00  0.00    -0.550 OA
ENDBRANCH  10  11
ENDBRANCH   9  10
ENDBRANCH   8   9
ENDBRANCH   1   8
TORSDOF 8
ENDMDL
MODEL 7
REMARK VINA RESULT:    -3.327      2.334      3.721
REMARK INTER + INTRA:          -5.378
REMARK INTER:                  -5.379
REMARK INTRA:                   0.001
REMARK UNBOUND:                -0.495
REMARK SMILES O=C([O-])CCCCCCCC(=O)[O-]
REMARK SMILES IDX 7 1 6 2 5 3 4 4 2 5 1 6 3 7 8 8 9 9 10 10 11 11 12 12 13 13
REMARK H PARENT
REMARK Flexibility Score: inf
ROOT
ATOM      1  C   UNL     1      -4.304  35.811  20.940  1.00  0.00     0.000 C 
ENDROOT
BRANCH   1   2
ATOM      2  C   UNL     1      -5.497  36.399  20.173  1.00  0.00     0.000 C 
BRANCH   2   3
ATOM      3  C   UNL     1      -5.477  37.935  20.220  1.00  0.00     0.006 C 
BRANCH   3   4
ATOM      4  C   UNL     1      -4.573  38.472  21.336  1.00  0.00     0.053 C 
BRANCH   4   5
ATOM      5  C   UNL     1      -5.268  39.509  22.163  1.00  0.00     0.041 C 
ATOM      6  O   UNL     1      -5.970  40.396  21.610  1.00  0.00    -0.550 OA
ATOM      7  O   UNL     1      -5.115  39.515  23.543  1.00  0.00    -0.550 OA
ENDBRANCH   4   5
ENDBRANCH   3   4
ENDBRANCH   2   3
ENDBRANCH   1   2
BRANCH   1   8
ATOM      8  C   UNL     1      -4.685  34.577  21.773  1.00  0.00     0.000 C 
BRANCH   8   9
ATOM      9  C   UNL     1      -6.082  34.693  22.399  1.00  0.00     0.006 C 
BRANCH   9  10
ATOM     10  C   UNL     1      -6.036  34.388  23.900  1.00  0.00     0.053 C 
BRANCH  10  11
ATOM     11  C   UNL     1      -5.842  35.646  24.686  1.00  0.00     0.041 C 
ATOM     12  O   UNL     1      -6.123  35.677  25.913  1.00  0.00    -0.550 OA
ATOM     13  O   UNL     1      -5.399  36.801  24.052  1.00  0.00    -0.550 OA
ENDBRANCH  10  11
ENDBRANCH   9  10
ENDBRANCH   8   9
ENDBRANCH   1   8
TORSDOF 8
ENDMDL
MODEL 8
REMARK VINA RESULT:    -3.126      2.143      3.968
REMARK INTER + INTRA:          -5.083
REMARK INTER:                  -4.589
REMARK INTRA:                  -0.494
REMARK UNBOUND:                -0.495
REMARK SMILES O=C([O-])CCCCCCCC(=O)[O-]
REMARK SMILES IDX 7 1 6 2 5 3 4 4 2 5 1 6 3 7 8 8 9 9 10 10 11 11 12 12 13 13
REMARK H PARENT
REMARK Flexibility Score: inf
ROOT
ATOM      1  C   UNL     1      -4.579  35.404  21.434  1.00  0.00     0.000 C 
ENDROOT
BRANCH   1   2
ATOM      2  C   UNL     1      -5.853  34.681  21.896  1.00  0.00     0.000 C 
BRANCH   2   3
ATOM      3  C   UNL     1      -6.125  34.946  23.385  1.00  0.00     0.006 C 
BRANCH   3   4
ATOM      4  C   UNL     1      -6.029  36.436  23.738  1.00  0.00     0.053 C 
BRANCH   4   5
ATOM      5  C   UNL     1      -5.641  36.643  25.169  1.00  0.00     0.041 C 
ATOM      6  O   UNL     1      -4.953  37.644  25.502  1.00  0.00    -0.550 OA
ATOM      7  O   UNL     1      -6.011  35.712  26.132  1.00  0.00    -0.550 OA
ENDBRANCH   4   5
ENDBRANCH   3   4
ENDBRANCH   2   3
ENDBRANCH   1   2
BRANCH   1   8
ATOM      8  C   UNL     1      -4.644  35.835  19.960  1.00  0.00     0.000 C 
BRANCH   8   9
ATOM      9  C   UNL     1      -4.637  37.360  19.788  1.00  0.00     0.006 C 
BRANCH   9  10
ATOM     10  C   UNL     1      -5.770  38.007  20.591  1.00  0.00     0.053 C 
BRANCH  10  11
ATOM     11  C   UNL     1      -5.226  39.041  21.527  1.00  0.00     0.041 C 
ATOM     12  O   UNL     1      -5.860  40.110  21.728  1.00  0.00    -0.550 OA
ATOM     13  O   UNL     1      -3.993  38.846  22.136  1.00  0.00    -0.550 OA
ENDBRANCH  10  11
ENDBRANCH   9  10
ENDBRANCH   8   9
ENDBRANCH   1   8
TORSDOF 8
ENDMDL
MODEL 9
REMARK VINA RESULT:    -2.865      2.228      4.600
REMARK INTER + INTRA:          -4.700
REMARK INTER:                  -4.305
REMARK INTRA:                  -0.394
REMARK UNBOUND:                -0.495
REMARK SMILES O=C([O-])CCCCCCCC(=O)[O-]
REMARK SMILES IDX 7 1 6 2 5 3 4 4 2 5 1 6 3 7 8 8 9 9 10 10 11 11 12 12 13 13
REMARK H PARENT
REMARK Flexibility Score: inf
ROOT
ATOM      1  C   UNL     1      -4.440  38.558  21.935  1.00  0.00     0.000 C 
ENDROOT
BRANCH   1   2
ATOM      2  C   UNL     1      -5.375  39.003  20.800  1.00  0.00     0.000 C 
BRANCH   2   3
ATOM      3  C   UNL     1      -5.786  37.808  19.927  1.00  0.00     0.006 C 
BRANCH   3   4
ATOM      4  C   UNL     1      -4.726  36.700  19.920  1.00  0.00     0.053 C 
BRANCH   4   5
ATOM      5  C   UNL     1      -5.330  35.356  19.652  1.00  0.00     0.041 C 
ATOM      6  O   UNL     1      -6.124  34.840  20.480  1.00  0.00    -0.550 OA
ATOM      7  O   UNL     1      -4.989  34.660  18.499  1.00  0.00    -0.550 OA
ENDBRANCH   4   5
ENDBRANCH   3   4
ENDBRANCH   2   3
ENDBRANCH   1   2
BRANCH   1   8
ATOM      8  C   UNL     1      -4.934  39.006  23.320  1.00  0.00     0.000 C 
BRANCH   8   9
ATOM      9  C   UNL     1      -5.473  37.841  24.162  1.00  0.00     0.006 C 
BRANCH   9  10
ATOM     10  C   UNL     1      -5.676  36.590  23.301  1.00  0.00     0.053 C 
BRANCH  10  11
ATOM     11  C   UNL     1      -5.716  35.364  24.157  1.00  0.00     0.041 C 
ATOM     12  O   UNL     1      -5.889  35.465  25.401  1.00  0.00    -0.550 OA
ATOM     13  O   UNL     1      -5.510  34.113  23.590  1.00  0.00    -0.550 OA
ENDBRANCH  10  11
ENDBRANCH   9  10
ENDBRANCH   8   9
ENDBRANCH   1   8
TORSDOF 8
ENDMDL
