MODEL 1
REMARK VINA RESULT:    -6.990      0.000      0.000
REMARK INTER + INTRA:          -8.338
REMARK INTER:                  -8.215
REMARK INTRA:                  -0.122
REMARK UNBOUND:                -0.122
REMARK SMILES O=C([O-])C=Cc1ccc(O)c(O)c1
REMARK SMILES IDX 6 1 13 2 7 3 11 4 8 5 9 6 5 7 4 8 2 9 1 10 3 11 12 12 10 14
REMARK H PARENT 12 13 10 15
REMARK Flexibility Score: inf
ROOT
ATOM      1  C   UNL     1     -21.272 -15.654 -12.814  1.00  0.00    -0.022 A 
ATOM      2  C   UNL     1     -20.222 -16.510 -13.204  1.00  0.00     0.058 A 
ATOM      3  C   UNL     1     -20.957 -14.440 -12.182  1.00  0.00     0.012 A 
ATOM      4  C   UNL     1     -18.886 -16.143 -12.988  1.00  0.00     0.157 A 
ATOM      5  C   UNL     1     -19.626 -14.075 -11.967  1.00  0.00     0.051 A 
ATOM      6  C   UNL     1     -18.588 -14.922 -12.371  1.00  0.00     0.157 A 
ENDROOT
BRANCH   1   7
ATOM      7  C   UNL     1     -22.701 -16.001 -13.011  1.00  0.00     0.010 C 
ATOM      8  C   UNL     1     -23.124 -16.989 -13.813  1.00  0.00     0.025 C 
BRANCH   8   9
ATOM      9  C   UNL     1     -24.552 -17.298 -13.993  1.00  0.00     0.064 C 
ATOM     10  O   UNL     1     -25.115 -18.201 -13.318  1.00  0.00    -0.545 OA
ATOM     11  O   UNL     1     -25.292 -16.585 -14.927  1.00  0.00    -0.545 OA
ENDBRANCH   8   9
ENDBRANCH   1   7
BRANCH   4  12
ATOM     12  O   UNL     1     -17.849 -16.989 -13.378  1.00  0.00    -0.504 OA
ATOM     13  H   UNL     1     -17.723 -17.261 -14.346  1.00  0.00     0.293 HD
ENDBRANCH   4  12
BRANCH   6  14
ATOM     14  O   UNL     1     -17.258 -14.560 -12.160  1.00  0.00    -0.504 OA
ATOM     15  H   UNL     1     -16.901 -14.373 -11.230  1.00  0.00     0.293 HD
ENDBRANCH   6  14
TORSDOF 4
ENDMDL
MODEL 2
REMARK VINA RESULT:    -6.931      1.402      5.809
REMARK INTER + INTRA:          -8.269
REMARK INTER:                  -8.144
REMARK INTRA:                  -0.125
REMARK UNBOUND:                -0.122
REMARK SMILES O=C([O-])C=Cc1ccc(O)c(O)c1
REMARK SMILES IDX 6 1 13 2 7 3 11 4 8 5 9 6 5 7 4 8 2 9 1 10 3 11 12 12 10 14
REMARK H PARENT 12 13 10 15
REMARK Flexibility Score: inf
ROOT
ATOM      1  C   UNL     1     -22.260 -16.734 -13.397  1.00  0.00    -0.022 A 
ATOM      2  C   UNL     1     -22.144 -18.131 -13.549  1.00  0.00     0.058 A 
ATOM      3  C   UNL     1     -23.524 -16.141 -13.543  1.00  0.00     0.012 A 
ATOM      4  C   UNL     1     -23.275 -18.916 -13.816  1.00  0.00     0.157 A 
ATOM      5  C   UNL     1     -24.652 -16.923 -13.807  1.00  0.00     0.051 A 
ATOM      6  C   UNL     1     -24.531 -18.311 -13.941  1.00  0.00     0.157 A 
ENDROOT
BRANCH   1   7
ATOM      7  C   UNL     1     -21.093 -15.861 -13.125  1.00  0.00     0.010 C 
ATOM      8  C   UNL     1     -19.844 -16.317 -12.952  1.00  0.00     0.025 C 
BRANCH   8   9
ATOM      9  C   UNL     1     -18.710 -15.420 -12.672  1.00  0.00     0.064 C 
ATOM     10  O   UNL     1     -17.532 -15.862 -12.599  1.00  0.00    -0.545 OA
ATOM     11  O   UNL     1     -18.944 -14.065 -12.482  1.00  0.00    -0.545 OA
ENDBRANCH   8   9
ENDBRANCH   1   7
BRANCH   4  12
ATOM     12  O   UNL     1     -23.159 -20.297 -13.961  1.00  0.00    -0.504 OA
ATOM     13  H   UNL     1     -23.403 -20.761 -14.828  1.00  0.00     0.293 HD
ENDBRANCH   4  12
BRANCH   6  14
ATOM     14  O   UNL     1     -25.654 -19.094 -14.205  1.00  0.00    -0.504 OA
ATOM     15  H   UNL     1     -25.651 -19.798 -14.934  1.00  0.00     0.293 HD
ENDBRANCH   6  14
TORSDOF 4
ENDMDL
MODEL 3
REMARK VINA RESULT:    -6.253      1.277      6.117
REMARK INTER + INTRA:          -7.472
REMARK INTER:                  -7.321
REMARK INTRA:                  -0.152
REMARK UNBOUND:                -0.122
REMARK SMILES O=C([O-])C=Cc1ccc(O)c(O)c1
REMARK SMILES IDX 6 1 13 2 7 3 11 4 8 5 9 6 5 7 4 8 2 9 1 10 3 11 12 12 10 14
REMARK H PARENT 12 13 10 15
REMARK Flexibility Score: inf
ROOT
ATOM      1  C   UNL     1     -22.211 -16.913 -13.454  1.00  0.00    -0.022 A 
ATOM      2  C   UNL     1     -23.495 -16.444 -13.801  1.00  0.00     0.058 A 
ATOM      3  C   UNL     1     -21.993 -18.298 -13.383  1.00  0.00     0.012 A 
ATOM      4  C   UNL     1     -24.529 -17.345 -14.093  1.00  0.00     0.157 A 
ATOM      5  C   UNL     1     -23.023 -19.196 -13.675  1.00  0.00     0.051 A 
ATOM      6  C   UNL     1     -24.291 -18.723 -14.034  1.00  0.00     0.157 A 
ENDROOT
BRANCH   1   7
ATOM      7  C   UNL     1     -21.089 -16.000 -13.126  1.00  0.00     0.010 C 
ATOM      8  C   UNL     1     -19.813 -16.396 -13.017  1.00  0.00     0.025 C 
BRANCH   8   9
ATOM      9  C   UNL     1     -18.726 -15.463 -12.678  1.00  0.00     0.064 C 
ATOM     10  O   UNL     1     -17.531 -15.712 -12.990  1.00  0.00    -0.545 OA
ATOM     11  O   UNL     1     -19.022 -14.288 -12.000  1.00  0.00    -0.545 OA
ENDBRANCH   8   9
ENDBRANCH   1   7
BRANCH   4  12
ATOM     12  O   UNL     1     -25.796 -16.879 -14.439  1.00  0.00    -0.504 OA
ATOM     13  H   UNL     1     -26.314 -17.278 -15.213  1.00  0.00     0.293 HD
ENDBRANCH   4  12
BRANCH   6  14
ATOM     14  O   UNL     1     -25.321 -19.617 -14.327  1.00  0.00    -0.504 OA
ATOM     15  H   UNL     1     -25.927 -19.983 -13.603  1.00  0.00     0.293 HD
ENDBRANCH   6  14
TORSDOF 4
ENDMDL
MODEL 4
REMARK VINA RESULT:    -6.000      1.257      5.905
REMARK INTER + INTRA:          -7.174
REMARK INTER:                  -7.047
REMARK INTRA:                  -0.127
REMARK UNBOUND:                -0.122
REMARK SMILES O=C([O-])C=Cc1ccc(O)c(O)c1
REMARK SMILES IDX 6 1 13 2 7 3 11 4 8 5 9 6 5 7 4 8 2 9 1 10 3 11 12 12 10 14
REMARK H PARENT 12 13 10 15
REMARK Flexibility Score: inf
ROOT
ATOM      1  C   UNL     1     -22.587 -15.611 -13.730  1.00  0.00    -0.022 A 
ATOM      2  C   UNL     1     -23.278 -16.830 -13.573  1.00  0.00     0.058 A 
ATOM      3  C   UNL     1     -23.191 -14.581 -14.469  1.00  0.00     0.012 A 
ATOM      4  C   UNL     1     -24.556 -17.001 -14.123  1.00  0.00     0.157 A 
ATOM      5  C   UNL     1     -24.466 -14.751 -15.016  1.00  0.00     0.051 A 
ATOM      6  C   UNL     1     -25.152 -15.958 -14.843  1.00  0.00     0.157 A 
ENDROOT
BRANCH   1   7
ATOM      7  C   UNL     1     -21.229 -15.385 -13.177  1.00  0.00     0.010 C 
ATOM      8  C   UNL     1     -20.213 -16.248 -13.318  1.00  0.00     0.025 C 
BRANCH   8   9
ATOM      9  C   UNL     1     -18.881 -15.996 -12.744  1.00  0.00     0.064 C 
ATOM     10  O   UNL     1     -18.670 -15.002 -11.999  1.00  0.00    -0.545 OA
ATOM     11  O   UNL     1     -17.839 -16.866 -13.032  1.00  0.00    -0.545 OA
ENDBRANCH   8   9
ENDBRANCH   1   7
BRANCH   4  12
ATOM     12  O   UNL     1     -25.239 -18.205 -13.963  1.00  0.00    -0.504 OA
ATOM     13  H   UNL     1     -25.076 -18.993 -14.578  1.00  0.00     0.293 HD
ENDBRANCH   4  12
BRANCH   6  14
ATOM     14  O   UNL     1     -26.425 -16.131 -15.387  1.00  0.00    -0.504 OA
ATOM     15  H   UNL     1     -26.689 -16.990 -15.854  1.00  0.00     0.293 HD
ENDBRANCH   6  14
TORSDOF 4
ENDMDL
MODEL 5
REMARK VINA RESULT:    -5.931      0.826      1.834
REMARK INTER + INTRA:          -7.094
REMARK INTER:                  -6.945
REMARK INTRA:                  -0.148
REMARK UNBOUND:                -0.122
REMARK SMILES O=C([O-])C=Cc1ccc(O)c(O)c1
REMARK SMILES IDX 6 1 13 2 7 3 11 4 8 5 9 6 5 7 4 8 2 9 1 10 3 11 12 12 10 14
REMARK H PARENT 12 13 10 15
REMARK Flexibility Score: inf
ROOT
ATOM      1  C   UNL     1     -21.287 -16.035 -13.065  1.00  0.00    -0.022 A 
ATOM      2  C   UNL     1     -20.783 -14.998 -12.252  1.00  0.00     0.058 A 
ATOM      3  C   UNL     1     -20.385 -16.949 -13.632  1.00  0.00     0.012 A 
ATOM      4  C   UNL     1     -19.408 -14.898 -11.995  1.00  0.00     0.157 A 
ATOM      5  C   UNL     1     -19.015 -16.850 -13.375  1.00  0.00     0.051 A 
ATOM      6  C   UNL     1     -18.523 -15.828 -12.555  1.00  0.00     0.157 A 
ENDROOT
BRANCH   1   7
ATOM      7  C   UNL     1     -22.731 -16.177 -13.374  1.00  0.00     0.010 C 
ATOM      8  C   UNL     1     -23.295 -17.319 -13.794  1.00  0.00     0.025 C 
BRANCH   8   9
ATOM      9  C   UNL     1     -24.731 -17.419 -14.103  1.00  0.00     0.064 C 
ATOM     10  O   UNL     1     -25.447 -18.319 -13.587  1.00  0.00    -0.545 OA
ATOM     11  O   UNL     1     -25.305 -16.509 -14.979  1.00  0.00    -0.545 OA
ENDBRANCH   8   9
ENDBRANCH   1   7
BRANCH   4  12
ATOM     12  O   UNL     1     -18.913 -13.875 -11.189  1.00  0.00    -0.504 OA
ATOM     13  H   UNL     1     -19.525 -13.184 -10.773  1.00  0.00     0.293 HD
ENDBRANCH   4  12
BRANCH   6  14
ATOM     14  O   UNL     1     -17.157 -15.726 -12.296  1.00  0.00    -0.504 OA
ATOM     15  H   UNL     1     -16.609 -16.531 -12.016  1.00  0.00     0.293 HD
ENDBRANCH   6  14
TORSDOF 4
ENDMDL
MODEL 6
REMARK VINA RESULT:    -4.442      3.294      5.227
REMARK INTER + INTRA:          -5.343
REMARK INTER:                  -5.220
REMARK INTRA:                  -0.123
REMARK UNBOUND:                -0.122
REMARK SMILES O=C([O-])C=Cc1ccc(O)c(O)c1
REMARK SMILES IDX 6 1 13 2 7 3 11 4 8 5 9 6 5 7 4 8 2 9 1 10 3 11 12 12 10 14
REMARK H PARENT 12 13 10 15
REMARK Flexibility Score: inf
ROOT
ATOM      1  C   UNL     1     -22.720 -17.560 -13.772  1.00  0.00    -0.022 A 
ATOM      2  C   UNL     1     -23.930 -17.462 -14.490  1.00  0.00     0.058 A 
ATOM      3  C   UNL     1     -22.198 -16.407 -13.166  1.00  0.00     0.012 A 
ATOM      4  C   UNL     1     -24.612 -16.239 -14.574  1.00  0.00     0.157 A 
ATOM      5  C   UNL     1     -22.877 -15.189 -13.249  1.00  0.00     0.051 A 
ATOM      6  C   UNL     1     -24.086 -15.102 -13.950  1.00  0.00     0.157 A 
ENDROOT
BRANCH   1   7
ATOM      7  C   UNL     1     -21.957 -18.827 -13.662  1.00  0.00     0.010 C 
ATOM      8  C   UNL     1     -22.529 -20.034 -13.540  1.00  0.00     0.025 C 
BRANCH   8   9
ATOM      9  C   UNL     1     -21.739 -21.271 -13.422  1.00  0.00     0.064 C 
ATOM     10  O   UNL     1     -22.298 -22.398 -13.353  1.00  0.00    -0.545 OA
ATOM     11  O   UNL     1     -20.353 -21.194 -13.384  1.00  0.00    -0.545 OA
ENDBRANCH   8   9
ENDBRANCH   1   7
BRANCH   4  12
ATOM     12  O   UNL     1     -25.809 -16.146 -15.281  1.00  0.00    -0.504 OA
ATOM     13  H   UNL     1     -25.926 -15.485 -16.040  1.00  0.00     0.293 HD
ENDBRANCH   4  12
BRANCH   6  14
ATOM     14  O   UNL     1     -24.767 -13.888 -14.035  1.00  0.00    -0.504 OA
ATOM     15  H   UNL     1     -25.093 -13.524 -14.922  1.00  0.00     0.293 HD
ENDBRANCH   6  14
TORSDOF 4
ENDMDL
MODEL 7
REMARK VINA RESULT:    -4.087      3.102      4.866
REMARK INTER + INTRA:          -4.926
REMARK INTER:                  -4.781
REMARK INTRA:                  -0.145
REMARK UNBOUND:                -0.122
REMARK SMILES O=C([O-])C=Cc1ccc(O)c(O)c1
REMARK SMILES IDX 6 1 13 2 7 3 11 4 8 5 9 6 5 7 4 8 2 9 1 10 3 11 12 12 10 14
REMARK H PARENT 12 13 10 15
REMARK Flexibility Score: inf
ROOT
ATOM      1  C   UNL     1     -22.453 -17.530 -13.642  1.00  0.00    -0.022 A 
ATOM      2  C   UNL     1     -21.861 -16.365 -13.112  1.00  0.00     0.058 A 
ATOM      3  C   UNL     1     -23.763 -17.457 -14.141  1.00  0.00     0.012 A 
ATOM      4  C   UNL     1     -22.561 -15.149 -13.107  1.00  0.00     0.157 A 
ATOM      5  C   UNL     1     -24.460 -16.246 -14.137  1.00  0.00     0.051 A 
ATOM      6  C   UNL     1     -23.861 -15.089 -13.623  1.00  0.00     0.157 A 
ENDROOT
BRANCH   1   7
ATOM      7  C   UNL     1     -21.758 -18.841 -13.660  1.00  0.00     0.010 C 
ATOM      8  C   UNL     1     -22.367 -20.011 -13.418  1.00  0.00     0.025 C 
BRANCH   8   9
ATOM      9  C   UNL     1     -21.641 -21.292 -13.434  1.00  0.00     0.064 C 
ATOM     10  O   UNL     1     -22.258 -22.389 -13.495  1.00  0.00    -0.545 OA
ATOM     11  O   UNL     1     -20.254 -21.291 -13.377  1.00  0.00    -0.545 OA
ENDBRANCH   8   9
ENDBRANCH   1   7
BRANCH   4  12
ATOM     12  O   UNL     1     -21.973 -13.998 -12.586  1.00  0.00    -0.504 OA
ATOM     13  H   UNL     1     -22.069 -13.749 -11.609  1.00  0.00     0.293 HD
ENDBRANCH   4  12
BRANCH   6  14
ATOM     14  O   UNL     1     -24.553 -13.879 -13.619  1.00  0.00    -0.504 OA
ATOM     15  H   UNL     1     -24.161 -13.043 -14.035  1.00  0.00     0.293 HD
ENDBRANCH   6  14
TORSDOF 4
ENDMDL
MODEL 8
REMARK VINA RESULT:    -3.991      2.489      3.111
REMARK INTER + INTRA:          -4.813
REMARK INTER:                  -4.691
REMARK INTRA:                  -0.122
REMARK UNBOUND:                -0.122
REMARK SMILES O=C([O-])C=Cc1ccc(O)c(O)c1
REMARK SMILES IDX 6 1 13 2 7 3 11 4 8 5 9 6 5 7 4 8 2 9 1 10 3 11 12 12 10 14
REMARK H PARENT 12 13 10 15
REMARK Flexibility Score: inf
ROOT
ATOM      1  C   UNL     1     -22.669 -14.332 -13.978  1.00  0.00    -0.022 A 
ATOM      2  C   UNL     1     -21.282 -14.467 -14.191  1.00  0.00     0.058 A 
ATOM      3  C   UNL     1     -23.132 -14.066 -12.680  1.00  0.00     0.012 A 
ATOM      4  C   UNL     1     -20.379 -14.312 -13.128  1.00  0.00     0.157 A 
ATOM      5  C   UNL     1     -22.233 -13.911 -11.621  1.00  0.00     0.051 A 
ATOM      6  C   UNL     1     -20.856 -14.030 -11.843  1.00  0.00     0.157 A 
ENDROOT
BRANCH   1   7
ATOM      7  C   UNL     1     -23.663 -14.497 -15.067  1.00  0.00     0.010 C 
ATOM      8  C   UNL     1     -23.436 -15.202 -16.184  1.00  0.00     0.025 C 
BRANCH   8   9
ATOM      9  C   UNL     1     -24.443 -15.334 -17.250  1.00  0.00     0.064 C 
ATOM     10  O   UNL     1     -24.221 -14.907 -18.414  1.00  0.00    -0.545 OA
ATOM     11  O   UNL     1     -25.661 -15.938 -16.966  1.00  0.00    -0.545 OA
ENDBRANCH   8   9
ENDBRANCH   1   7
BRANCH   4  12
ATOM     12  O   UNL     1     -19.008 -14.442 -13.341  1.00  0.00    -0.504 OA
ATOM     13  H   UNL     1     -18.448 -13.666 -13.674  1.00  0.00     0.293 HD
ENDBRANCH   4  12
BRANCH   6  14
ATOM     14  O   UNL     1     -19.956 -13.875 -10.789  1.00  0.00    -0.504 OA
ATOM     15  H   UNL     1     -19.794 -12.973 -10.358  1.00  0.00     0.293 HD
ENDBRANCH   6  14
TORSDOF 4
ENDMDL
