MODEL 1
REMARK VINA RESULT:    -7.792      0.000      0.000
REMARK INTER + INTRA:         -13.110
REMARK INTER:                 -12.119
REMARK INTRA:                  -0.991
REMARK UNBOUND:                -0.991
REMARK SMILES C[C@]12C[C@]3(O)O[C@H](O1)[C@@]1(COC(=O)c4ccccc4)[C@@H]3C[C@]12O[C@@H]1O[C@@H](CO)[C@@H](O)[C@@H](O)[C@H]1O
REMARK SMILES IDX 1 1 2 2 3 3 4 4 20 5 21 6 22 7 9 8 7 9 8 10 6 11 23 12 24 13
REMARK SMILES IDX 33 14 25 15 31 16 26 17 29 18 34 19 32 21 27 23 28 24 30 26
REMARK SMILES IDX 5 28 10 30 11 31 12 32 13 33 14 34 15 35 19 36 16 37 18 38
REMARK SMILES IDX 17 39
REMARK H PARENT 34 20 32 22 28 25 30 27 5 29
REMARK Flexibility Score: inf
ROOT
ATOM      1  C   UNL     1      29.235  21.981  32.099  1.00  0.00     0.046 C 
ATOM      2  C   UNL     1      28.110  21.984  33.133  1.00  0.00     0.104 C 
ATOM      3  C   UNL     1      27.899  20.560  33.764  1.00  0.00     0.104 C 
ATOM      4  C   UNL     1      26.791  20.800  34.845  1.00  0.00     0.175 C 
ATOM      5  C   UNL     1      27.159  22.030  35.737  1.00  0.00     0.070 C 
ATOM      6  C   UNL     1      28.645  22.419  35.649  1.00  0.00     0.050 C 
ATOM      7  C   UNL     1      28.294  23.055  34.272  1.00  0.00     0.115 C 
ATOM      8  C   UNL     1      26.841  23.125  34.727  1.00  0.00     0.096 C 
ATOM      9  C   UNL     1      26.002  22.484  33.636  1.00  0.00     0.267 C 
ATOM     10  O   UNL     1      26.875  22.320  32.529  1.00  0.00    -0.342 OA
ATOM     11  O   UNL     1      25.638  21.206  34.132  1.00  0.00    -0.320 OA
ENDROOT
BRANCH   7  12
ATOM     12  O   UNL     1      28.793  24.311  33.805  1.00  0.00    -0.339 OA
BRANCH  12  13
ATOM     13  C   UNL     1      30.206  24.456  33.781  1.00  0.00     0.282 C 
ATOM     14  C   UNL     1      30.719  25.110  32.472  1.00  0.00     0.202 C 
ATOM     15  O   UNL     1      30.630  25.194  34.918  1.00  0.00    -0.341 OA
ATOM     16  C   UNL     1      30.348  26.610  32.420  1.00  0.00     0.179 C 
ATOM     17  C   UNL     1      30.124  26.519  34.909  1.00  0.00     0.178 C 
ATOM     18  C   UNL     1      30.724  27.313  33.733  1.00  0.00     0.177 C 
BRANCH  14  19
ATOM     19  O   UNL     1      32.114  24.950  32.405  1.00  0.00    -0.385 OA
ATOM     20  H   UNL     1      32.326  24.602  31.499  1.00  0.00     0.211 HD
ENDBRANCH  14  19
BRANCH  16  21
ATOM     21  O   UNL     1      30.979  27.243  31.338  1.00  0.00    -0.387 OA
ATOM     22  H   UNL     1      31.417  28.058  31.700  1.00  0.00     0.211 HD
ENDBRANCH  16  21
BRANCH  17  23
ATOM     23  C   UNL     1      30.453  27.191  36.250  1.00  0.00     0.191 C 
BRANCH  23  24
ATOM     24  O   UNL     1      30.769  28.544  36.054  1.00  0.00    -0.394 OA
ATOM     25  H   UNL     1      30.436  28.787  35.151  1.00  0.00     0.210 HD
ENDBRANCH  23  24
ENDBRANCH  17  23
BRANCH  18  26
ATOM     26  O   UNL     1      32.122  27.388  33.870  1.00  0.00    -0.387 OA
ATOM     27  H   UNL     1      32.505  26.641  33.339  1.00  0.00     0.211 HD
ENDBRANCH  18  26
ENDBRANCH  12  13
ENDBRANCH   7  12
BRANCH   4  28
ATOM     28  O   UNL     1      26.550  19.642  35.597  1.00  0.00    -0.365 OA
ATOM     29  H   UNL     1      27.190  19.656  36.357  1.00  0.00     0.214 HD
ENDBRANCH   4  28
BRANCH   8  30
ATOM     30  C   UNL     1      26.333  24.454  35.310  1.00  0.00     0.249 C 
BRANCH  30  31
ATOM     31  O   UNL     1      25.347  25.007  34.446  1.00  0.00    -0.461 OA
BRANCH  31  32
ATOM     32  C   UNL     1      24.054  25.323  34.874  1.00  0.00     0.338 C 
ATOM     33  O   UNL     1      23.430  24.534  35.637  1.00  0.00    -0.246 OA
BRANCH  32  34
ATOM     34  C   UNL     1      23.421  26.584  34.429  1.00  0.00     0.060 A 
ATOM     35  C   UNL     1      22.042  26.640  34.153  1.00  0.00     0.015 A 
ATOM     36  C   UNL     1      24.196  27.750  34.276  1.00  0.00     0.015 A 
ATOM     37  C   UNL     1      21.453  27.837  33.733  1.00  0.00     0.001 A 
ATOM     38  C   UNL     1      23.601  28.943  33.855  1.00  0.00     0.001 A 
ATOM     39  C   UNL     1      22.231  28.987  33.584  1.00  0.00     0.000 A 
ENDBRANCH  32  34
ENDBRANCH  31  32
ENDBRANCH  30  31
ENDBRANCH   8  30
TORSDOF 12
ENDMDL
MODEL 2
REMARK VINA RESULT:    -7.703      1.791      5.657
REMARK INTER + INTRA:         -12.973
REMARK INTER:                 -11.745
REMARK INTRA:                  -1.228
REMARK UNBOUND:                -0.991
REMARK SMILES C[C@]12C[C@]3(O)O[C@H](O1)[C@@]1(COC(=O)c4ccccc4)[C@@H]3C[C@]12O[C@@H]1O[C@@H](CO)[C@@H](O)[C@@H](O)[C@H]1O
REMARK SMILES IDX 1 1 2 2 3 3 4 4 20 5 21 6 22 7 9 8 7 9 8 10 6 11 23 12 24 13
REMARK SMILES IDX 33 14 25 15 31 16 26 17 29 18 34 19 32 21 27 23 28 24 30 26
REMARK SMILES IDX 5 28 10 30 11 31 12 32 13 33 14 34 15 35 19 36 16 37 18 38
REMARK SMILES IDX 17 39
REMARK H PARENT 34 20 32 22 28 25 30 27 5 29
REMARK Flexibility Score: inf
ROOT
ATOM      1  C   UNL     1      32.102  23.413  33.938  1.00  0.00     0.046 C 
ATOM      2  C   UNL     1      30.958  24.334  33.515  1.00  0.00     0.104 C 
ATOM      3  C   UNL     1      31.417  25.358  32.412  1.00  0.00     0.104 C 
ATOM      4  C   UNL     1      30.098  26.125  32.057  1.00  0.00     0.175 C 
ATOM      5  C   UNL     1      28.937  25.115  31.785  1.00  0.00     0.070 C 
ATOM      6  C   UNL     1      29.431  23.686  31.501  1.00  0.00     0.050 C 
ATOM      7  C   UNL     1      29.669  23.570  33.036  1.00  0.00     0.115 C 
ATOM      8  C   UNL     1      28.671  24.708  33.229  1.00  0.00     0.096 C 
ATOM      9  C   UNL     1      29.345  25.745  34.109  1.00  0.00     0.267 C 
ATOM     10  O   UNL     1      30.519  25.121  34.606  1.00  0.00    -0.342 OA
ATOM     11  O   UNL     1      29.716  26.803  33.239  1.00  0.00    -0.320 OA
ENDROOT
BRANCH   7  12
ATOM     12  O   UNL     1      29.358  22.417  33.823  1.00  0.00    -0.339 OA
BRANCH  12  13
ATOM     13  C   UNL     1      29.307  21.179  33.128  1.00  0.00     0.282 C 
ATOM     14  C   UNL     1      30.109  20.059  33.841  1.00  0.00     0.202 C 
ATOM     15  O   UNL     1      27.953  20.792  32.939  1.00  0.00    -0.341 OA
ATOM     16  C   UNL     1      29.399  19.608  35.137  1.00  0.00     0.179 C 
ATOM     17  C   UNL     1      27.293  20.550  34.171  1.00  0.00     0.178 C 
ATOM     18  C   UNL     1      27.911  19.328  34.878  1.00  0.00     0.177 C 
BRANCH  14  19
ATOM     19  O   UNL     1      30.249  18.974  32.958  1.00  0.00    -0.385 OA
ATOM     20  H   UNL     1      31.223  18.834  32.819  1.00  0.00     0.211 HD
ENDBRANCH  14  19
BRANCH  16  21
ATOM     21  O   UNL     1      30.016  18.467  35.674  1.00  0.00    -0.387 OA
ATOM     22  H   UNL     1      30.995  18.624  35.626  1.00  0.00     0.211 HD
ENDBRANCH  16  21
BRANCH  17  23
ATOM     23  C   UNL     1      25.797  20.334  33.904  1.00  0.00     0.191 C 
BRANCH  23  24
ATOM     24  O   UNL     1      25.614  19.363  32.908  1.00  0.00    -0.394 OA
ATOM     25  H   UNL     1      26.519  19.053  32.642  1.00  0.00     0.210 HD
ENDBRANCH  23  24
ENDBRANCH  17  23
BRANCH  18  26
ATOM     26  O   UNL     1      27.756  18.183  34.076  1.00  0.00    -0.387 OA
ATOM     27  H   UNL     1      27.920  18.463  33.137  1.00  0.00     0.211 HD
ENDBRANCH  18  26
ENDBRANCH  12  13
ENDBRANCH   7  12
BRANCH   4  28
ATOM     28  O   UNL     1      30.297  27.017  30.994  1.00  0.00    -0.365 OA
ATOM     29  H   UNL     1      29.396  27.288  30.676  1.00  0.00     0.214 HD
ENDBRANCH   4  28
BRANCH   8  30
ATOM     30  C   UNL     1      27.218  24.339  33.569  1.00  0.00     0.249 C 
BRANCH  30  31
ATOM     31  O   UNL     1      26.694  25.278  34.501  1.00  0.00    -0.461 OA
BRANCH  31  32
ATOM     32  C   UNL     1      25.501  25.071  35.199  1.00  0.00     0.338 C 
ATOM     33  O   UNL     1      25.464  24.252  36.159  1.00  0.00    -0.246 OA
BRANCH  32  34
ATOM     34  C   UNL     1      24.282  25.812  34.806  1.00  0.00     0.060 A 
ATOM     35  C   UNL     1      24.357  27.160  34.406  1.00  0.00     0.015 A 
ATOM     36  C   UNL     1      23.027  25.175  34.828  1.00  0.00     0.015 A 
ATOM     37  C   UNL     1      23.199  27.852  34.037  1.00  0.00     0.001 A 
ATOM     38  C   UNL     1      21.874  25.873  34.458  1.00  0.00     0.001 A 
ATOM     39  C   UNL     1      21.959  27.210  34.062  1.00  0.00     0.000 A 
ENDBRANCH  32  34
ENDBRANCH  31  32
ENDBRANCH  30  31
ENDBRANCH   8  30
TORSDOF 12
ENDMDL
MODEL 3
REMARK VINA RESULT:    -7.684      2.039      5.783
REMARK INTER + INTRA:         -12.943
REMARK INTER:                 -11.621
REMARK INTRA:                  -1.322
REMARK UNBOUND:                -0.991
REMARK SMILES C[C@]12C[C@]3(O)O[C@H](O1)[C@@]1(COC(=O)c4ccccc4)[C@@H]3C[C@]12O[C@@H]1O[C@@H](CO)[C@@H](O)[C@@H](O)[C@H]1O
REMARK SMILES IDX 1 1 2 2 3 3 4 4 20 5 21 6 22 7 9 8 7 9 8 10 6 11 23 12 24 13
REMARK SMILES IDX 33 14 25 15 31 16 26 17 29 18 34 19 32 21 27 23 28 24 30 26
REMARK SMILES IDX 5 28 10 30 11 31 12 32 13 33 14 34 15 35 19 36 16 37 18 38
REMARK SMILES IDX 17 39
REMARK H PARENT 34 20 32 22 28 25 30 27 5 29
REMARK Flexibility Score: inf
ROOT
ATOM      1  C   UNL     1      29.943  22.431  35.362  1.00  0.00     0.046 C 
ATOM      2  C   UNL     1      29.149  23.246  34.342  1.00  0.00     0.104 C 
ATOM      3  C   UNL     1      29.993  23.532  33.046  1.00  0.00     0.104 C 
ATOM      4  C   UNL     1      28.982  24.279  32.111  1.00  0.00     0.175 C 
ATOM      5  C   UNL     1      27.631  23.497  32.035  1.00  0.00     0.070 C 
ATOM      6  C   UNL     1      27.749  22.036  32.503  1.00  0.00     0.050 C 
ATOM      7  C   UNL     1      27.766  22.605  33.952  1.00  0.00     0.115 C 
ATOM      8  C   UNL     1      27.098  23.867  33.414  1.00  0.00     0.096 C 
ATOM      9  C   UNL     1      27.920  25.046  33.901  1.00  0.00     0.267 C 
ATOM     10  O   UNL     1      28.815  24.517  34.867  1.00  0.00    -0.342 OA
ATOM     11  O   UNL     1      28.663  25.487  32.775  1.00  0.00    -0.320 OA
ENDROOT
BRANCH   7  12
ATOM     12  O   UNL     1      27.064  22.033  35.059  1.00  0.00    -0.339 OA
BRANCH  12  13
ATOM     13  C   UNL     1      26.657  20.679  34.911  1.00  0.00     0.282 C 
ATOM     14  C   UNL     1      27.443  19.714  35.836  1.00  0.00     0.202 C 
ATOM     15  O   UNL     1      25.258  20.574  35.137  1.00  0.00    -0.341 OA
ATOM     16  C   UNL     1      27.030  19.903  37.313  1.00  0.00     0.179 C 
ATOM     17  C   UNL     1      24.908  20.921  36.467  1.00  0.00     0.178 C 
ATOM     18  C   UNL     1      25.500  19.902  37.460  1.00  0.00     0.177 C 
BRANCH  14  19
ATOM     19  O   UNL     1      27.192  18.393  35.425  1.00  0.00    -0.385 OA
ATOM     20  H   UNL     1      28.073  17.943  35.334  1.00  0.00     0.211 HD
ENDBRANCH  14  19
BRANCH  16  21
ATOM     21  O   UNL     1      27.590  18.901  38.121  1.00  0.00    -0.387 OA
ATOM     22  H   UNL     1      27.142  18.050  37.872  1.00  0.00     0.211 HD
ENDBRANCH  16  21
BRANCH  17  23
ATOM     23  C   UNL     1      23.379  20.977  36.584  1.00  0.00     0.191 C 
BRANCH  23  24
ATOM     24  O   UNL     1      22.835  21.732  35.533  1.00  0.00    -0.394 OA
ATOM     25  H   UNL     1      22.836  21.147  34.731  1.00  0.00     0.210 HD
ENDBRANCH  23  24
ENDBRANCH  17  23
BRANCH  18  26
ATOM     26  O   UNL     1      24.980  18.622  37.199  1.00  0.00    -0.387 OA
ATOM     27  H   UNL     1      24.016  18.647  37.435  1.00  0.00     0.211 HD
ENDBRANCH  18  26
ENDBRANCH  12  13
ENDBRANCH   7  12
BRANCH   4  28
ATOM     28  O   UNL     1      29.538  24.518  30.846  1.00  0.00    -0.365 OA
ATOM     29  H   UNL     1      29.234  23.779  30.256  1.00  0.00     0.214 HD
ENDBRANCH   4  28
BRANCH   8  30
ATOM     30  C   UNL     1      25.570  23.980  33.539  1.00  0.00     0.249 C 
BRANCH  30  31
ATOM     31  O   UNL     1      25.243  24.990  34.486  1.00  0.00    -0.461 OA
BRANCH  31  32
ATOM     32  C   UNL     1      23.926  25.341  34.797  1.00  0.00     0.338 C 
ATOM     33  O   UNL     1      23.191  24.536  35.434  1.00  0.00    -0.246 OA
BRANCH  32  34
ATOM     34  C   UNL     1      23.397  26.657  34.376  1.00  0.00     0.060 A 
ATOM     35  C   UNL     1      24.242  27.780  34.293  1.00  0.00     0.015 A 
ATOM     36  C   UNL     1      22.035  26.802  34.052  1.00  0.00     0.015 A 
ATOM     37  C   UNL     1      23.733  29.020  33.893  1.00  0.00     0.001 A 
ATOM     38  C   UNL     1      21.532  28.044  33.654  1.00  0.00     0.001 A 
ATOM     39  C   UNL     1      22.380  29.152  33.574  1.00  0.00     0.000 A 
ENDBRANCH  32  34
ENDBRANCH  31  32
ENDBRANCH  30  31
ENDBRANCH   8  30
TORSDOF 12
ENDMDL
MODEL 4
REMARK VINA RESULT:    -7.604      1.782      2.632
REMARK INTER + INTRA:         -12.819
REMARK INTER:                 -11.730
REMARK INTRA:                  -1.089
REMARK UNBOUND:                -0.991
REMARK SMILES C[C@]12C[C@]3(O)O[C@H](O1)[C@@]1(COC(=O)c4ccccc4)[C@@H]3C[C@]12O[C@@H]1O[C@@H](CO)[C@@H](O)[C@@H](O)[C@H]1O
REMARK SMILES IDX 1 1 2 2 3 3 4 4 20 5 21 6 22 7 9 8 7 9 8 10 6 11 23 12 24 13
REMARK SMILES IDX 33 14 25 15 31 16 26 17 29 18 34 19 32 21 27 23 28 24 30 26
REMARK SMILES IDX 5 28 10 30 11 31 12 32 13 33 14 34 15 35 19 36 16 37 18 38
REMARK SMILES IDX 17 39
REMARK H PARENT 34 20 32 22 28 25 30 27 5 29
REMARK Flexibility Score: inf
ROOT
ATOM      1  C   UNL     1      27.427  20.888  33.491  1.00  0.00     0.046 C 
ATOM      2  C   UNL     1      26.290  21.635  34.187  1.00  0.00     0.104 C 
ATOM      3  C   UNL     1      25.686  20.796  35.372  1.00  0.00     0.104 C 
ATOM      4  C   UNL     1      24.625  21.763  35.999  1.00  0.00     0.175 C 
ATOM      5  C   UNL     1      25.253  23.172  36.249  1.00  0.00     0.070 C 
ATOM      6  C   UNL     1      26.791  23.159  36.245  1.00  0.00     0.050 C 
ATOM      7  C   UNL     1      26.687  23.071  34.694  1.00  0.00     0.115 C 
ATOM      8  C   UNL     1      25.280  23.649  34.802  1.00  0.00     0.096 C 
ATOM      9  C   UNL     1      24.361  22.729  34.020  1.00  0.00     0.267 C 
ATOM     10  O   UNL     1      25.216  21.860  33.293  1.00  0.00    -0.342 OA
ATOM     11  O   UNL     1      23.653  21.975  34.992  1.00  0.00    -0.320 OA
ENDROOT
BRANCH   7  12
ATOM     12  O   UNL     1      27.517  23.794  33.780  1.00  0.00    -0.339 OA
BRANCH  12  13
ATOM     13  C   UNL     1      28.736  24.300  34.306  1.00  0.00     0.282 C 
ATOM     14  C   UNL     1      29.890  23.265  34.245  1.00  0.00     0.202 C 
ATOM     15  O   UNL     1      29.091  25.496  33.626  1.00  0.00    -0.341 OA
ATOM     16  C   UNL     1      30.358  23.043  32.790  1.00  0.00     0.179 C 
ATOM     17  C   UNL     1      29.349  25.267  32.250  1.00  0.00     0.178 C 
ATOM     18  C   UNL     1      30.601  24.384  32.081  1.00  0.00     0.177 C 
BRANCH  14  19
ATOM     19  O   UNL     1      30.955  23.730  35.035  1.00  0.00    -0.385 OA
ATOM     20  H   UNL     1      31.791  23.565  34.526  1.00  0.00     0.211 HD
ENDBRANCH  14  19
BRANCH  16  21
ATOM     21  O   UNL     1      31.525  22.263  32.754  1.00  0.00    -0.387 OA
ATOM     22  H   UNL     1      31.920  22.382  31.850  1.00  0.00     0.211 HD
ENDBRANCH  16  21
BRANCH  17  23
ATOM     23  C   UNL     1      29.529  26.617  31.542  1.00  0.00     0.191 C 
BRANCH  23  24
ATOM     24  O   UNL     1      30.358  26.473  30.419  1.00  0.00    -0.394 OA
ATOM     25  H   UNL     1      31.179  26.009  30.729  1.00  0.00     0.210 HD
ENDBRANCH  23  24
ENDBRANCH  17  23
BRANCH  18  26
ATOM     26  O   UNL     1      31.723  25.035  32.627  1.00  0.00    -0.387 OA
ATOM     27  H   UNL     1      32.068  25.652  31.929  1.00  0.00     0.211 HD
ENDBRANCH  18  26
ENDBRANCH  12  13
ENDBRANCH   7  12
BRANCH   4  28
ATOM     28  O   UNL     1      24.054  21.214  37.157  1.00  0.00    -0.365 OA
ATOM     29  H   UNL     1      24.786  21.128  37.822  1.00  0.00     0.214 HD
ENDBRANCH   4  28
BRANCH   8  30
ATOM     30  C   UNL     1      25.105  25.161  34.587  1.00  0.00     0.249 C 
BRANCH  30  31
ATOM     31  O   UNL     1      23.930  25.400  33.821  1.00  0.00    -0.461 OA
BRANCH  31  32
ATOM     32  C   UNL     1      22.738  25.864  34.385  1.00  0.00     0.338 C 
ATOM     33  O   UNL     1      22.042  25.100  35.110  1.00  0.00    -0.246 OA
BRANCH  32  34
ATOM     34  C   UNL     1      22.296  27.252  34.128  1.00  0.00     0.060 A 
ATOM     35  C   UNL     1      20.931  27.554  33.959  1.00  0.00     0.015 A 
ATOM     36  C   UNL     1      23.240  28.293  34.049  1.00  0.00     0.015 A 
ATOM     37  C   UNL     1      20.523  28.869  33.716  1.00  0.00     0.001 A 
ATOM     38  C   UNL     1      22.825  29.606  33.805  1.00  0.00     0.001 A 
ATOM     39  C   UNL     1      21.469  29.895  33.639  1.00  0.00     0.000 A 
ENDBRANCH  32  34
ENDBRANCH  31  32
ENDBRANCH  30  31
ENDBRANCH   8  30
TORSDOF 12
ENDMDL
MODEL 5
REMARK VINA RESULT:    -7.590      1.861      3.048
REMARK INTER + INTRA:         -12.797
REMARK INTER:                 -12.053
REMARK INTRA:                  -0.744
REMARK UNBOUND:                -0.991
REMARK SMILES C[C@]12C[C@]3(O)O[C@H](O1)[C@@]1(COC(=O)c4ccccc4)[C@@H]3C[C@]12O[C@@H]1O[C@@H](CO)[C@@H](O)[C@@H](O)[C@H]1O
REMARK SMILES IDX 1 1 2 2 3 3 4 4 20 5 21 6 22 7 9 8 7 9 8 10 6 11 23 12 24 13
REMARK SMILES IDX 33 14 25 15 31 16 26 17 29 18 34 19 32 21 27 23 28 24 30 26
REMARK SMILES IDX 5 28 10 30 11 31 12 32 13 33 14 34 15 35 19 36 16 37 18 38
REMARK SMILES IDX 17 39
REMARK H PARENT 34 20 32 22 28 25 30 27 5 29
REMARK Flexibility Score: inf
ROOT
ATOM      1  C   UNL     1      25.970  21.531  33.238  1.00  0.00     0.046 C 
ATOM      2  C   UNL     1      25.183  22.496  34.124  1.00  0.00     0.104 C 
ATOM      3  C   UNL     1      24.608  21.775  35.398  1.00  0.00     0.104 C 
ATOM      4  C   UNL     1      23.935  22.938  36.202  1.00  0.00     0.175 C 
ATOM      5  C   UNL     1      24.917  24.146  36.336  1.00  0.00     0.070 C 
ATOM      6  C   UNL     1      26.383  23.770  36.059  1.00  0.00     0.050 C 
ATOM      7  C   UNL     1      25.996  23.774  34.551  1.00  0.00     0.115 C 
ATOM      8  C   UNL     1      24.809  24.663  34.907  1.00  0.00     0.096 C 
ATOM      9  C   UNL     1      23.575  24.021  34.300  1.00  0.00     0.267 C 
ATOM     10  O   UNL     1      24.058  23.006  33.434  1.00  0.00    -0.342 OA
ATOM     11  O   UNL     1      22.885  23.416  35.383  1.00  0.00    -0.320 OA
ENDROOT
BRANCH   7  12
ATOM     12  O   UNL     1      26.805  24.318  33.505  1.00  0.00    -0.339 OA
BRANCH  12  13
ATOM     13  C   UNL     1      28.046  23.668  33.270  1.00  0.00     0.282 C 
ATOM     14  C   UNL     1      28.404  23.586  31.763  1.00  0.00     0.202 C 
ATOM     15  O   UNL     1      29.074  24.321  34.002  1.00  0.00    -0.341 OA
ATOM     16  C   UNL     1      28.781  24.978  31.208  1.00  0.00     0.179 C 
ATOM     17  C   UNL     1      29.269  25.656  33.565  1.00  0.00     0.178 C 
ATOM     18  C   UNL     1      29.803  25.674  32.119  1.00  0.00     0.177 C 
BRANCH  14  19
ATOM     19  O   UNL     1      29.475  22.690  31.603  1.00  0.00    -0.385 OA
ATOM     20  H   UNL     1      29.377  22.274  30.706  1.00  0.00     0.211 HD
ENDBRANCH  14  19
BRANCH  16  21
ATOM     21  O   UNL     1      29.293  24.874  29.905  1.00  0.00    -0.387 OA
ATOM     22  H   UNL     1      29.621  25.777  29.654  1.00  0.00     0.211 HD
ENDBRANCH  16  21
BRANCH  17  23
ATOM     23  C   UNL     1      30.244  26.359  34.520  1.00  0.00     0.191 C 
BRANCH  23  24
ATOM     24  O   UNL     1      30.885  27.424  33.867  1.00  0.00    -0.394 OA
ATOM     25  H   UNL     1      30.998  28.145  34.540  1.00  0.00     0.210 HD
ENDBRANCH  23  24
ENDBRANCH  17  23
BRANCH  18  26
ATOM     26  O   UNL     1      31.046  25.017  32.061  1.00  0.00    -0.387 OA
ATOM     27  H   UNL     1      31.021  24.291  32.738  1.00  0.00     0.211 HD
ENDBRANCH  18  26
ENDBRANCH  12  13
ENDBRANCH   7  12
BRANCH   4  28
ATOM     28  O   UNL     1      23.458  22.492  37.443  1.00  0.00    -0.365 OA
ATOM     29  H   UNL     1      23.468  23.276  38.052  1.00  0.00     0.214 HD
ENDBRANCH   4  28
BRANCH   8  30
ATOM     30  C   UNL     1      24.969  26.182  34.725  1.00  0.00     0.249 C 
BRANCH  30  31
ATOM     31  O   UNL     1      23.720  26.749  34.344  1.00  0.00    -0.461 OA
BRANCH  31  32
ATOM     32  C   UNL     1      23.577  28.090  33.975  1.00  0.00     0.338 C 
ATOM     33  O   UNL     1      24.596  28.779  33.688  1.00  0.00    -0.246 OA
BRANCH  32  34
ATOM     34  C   UNL     1      22.230  28.698  33.923  1.00  0.00     0.060 A 
ATOM     35  C   UNL     1      22.070  30.097  33.913  1.00  0.00     0.015 A 
ATOM     36  C   UNL     1      21.085  27.880  33.883  1.00  0.00     0.015 A 
ATOM     37  C   UNL     1      20.792  30.662  33.864  1.00  0.00     0.001 A 
ATOM     38  C   UNL     1      19.810  28.451  33.834  1.00  0.00     0.001 A 
ATOM     39  C   UNL     1      19.663  29.840  33.825  1.00  0.00     0.000 A 
ENDBRANCH  32  34
ENDBRANCH  31  32
ENDBRANCH  30  31
ENDBRANCH   8  30
TORSDOF 12
ENDMDL
MODEL 6
REMARK VINA RESULT:    -7.560      1.975      3.214
REMARK INTER + INTRA:         -12.749
REMARK INTER:                 -11.700
REMARK INTRA:                  -1.049
REMARK UNBOUND:                -0.991
REMARK SMILES C[C@]12C[C@]3(O)O[C@H](O1)[C@@]1(COC(=O)c4ccccc4)[C@@H]3C[C@]12O[C@@H]1O[C@@H](CO)[C@@H](O)[C@@H](O)[C@H]1O
REMARK SMILES IDX 1 1 2 2 3 3 4 4 20 5 21 6 22 7 9 8 7 9 8 10 6 11 23 12 24 13
REMARK SMILES IDX 33 14 25 15 31 16 26 17 29 18 34 19 32 21 27 23 28 24 30 26
REMARK SMILES IDX 5 28 10 30 11 31 12 32 13 33 14 34 15 35 19 36 16 37 18 38
REMARK SMILES IDX 17 39
REMARK H PARENT 34 20 32 22 28 25 30 27 5 29
REMARK Flexibility Score: inf
ROOT
ATOM      1  C   UNL     1      25.943  20.116  33.585  1.00  0.00     0.046 C 
ATOM      2  C   UNL     1      25.223  20.807  34.743  1.00  0.00     0.104 C 
ATOM      3  C   UNL     1      24.759  19.774  35.834  1.00  0.00     0.104 C 
ATOM      4  C   UNL     1      24.143  20.680  36.954  1.00  0.00     0.175 C 
ATOM      5  C   UNL     1      25.123  21.844  37.312  1.00  0.00     0.070 C 
ATOM      6  C   UNL     1      26.564  21.590  36.839  1.00  0.00     0.050 C 
ATOM      7  C   UNL     1      26.057  21.960  35.414  1.00  0.00     0.115 C 
ATOM      8  C   UNL     1      24.895  22.698  36.071  1.00  0.00     0.096 C 
ATOM      9  C   UNL     1      23.621  22.193  35.418  1.00  0.00     0.267 C 
ATOM     10  O   UNL     1      24.041  21.441  34.291  1.00  0.00    -0.342 OA
ATOM     11  O   UNL     1      23.026  21.318  36.364  1.00  0.00    -0.320 OA
ENDROOT
BRANCH   7  12
ATOM     12  O   UNL     1      26.774  22.770  34.480  1.00  0.00    -0.339 OA
BRANCH  12  13
ATOM     13  C   UNL     1      28.192  22.696  34.544  1.00  0.00     0.282 C 
ATOM     14  C   UNL     1      28.785  21.686  33.527  1.00  0.00     0.202 C 
ATOM     15  O   UNL     1      28.748  23.990  34.357  1.00  0.00    -0.341 OA
ATOM     16  C   UNL     1      28.663  22.218  32.082  1.00  0.00     0.179 C 
ATOM     17  C   UNL     1      28.464  24.508  33.067  1.00  0.00     0.178 C 
ATOM     18  C   UNL     1      29.168  23.666  31.985  1.00  0.00     0.177 C 
BRANCH  14  19
ATOM     19  O   UNL     1      30.134  21.460  33.852  1.00  0.00    -0.385 OA
ATOM     20  H   UNL     1      30.581  21.125  33.030  1.00  0.00     0.211 HD
ENDBRANCH  14  19
BRANCH  16  21
ATOM     21  O   UNL     1      29.372  21.402  31.187  1.00  0.00    -0.387 OA
ATOM     22  H   UNL     1      29.041  21.621  30.277  1.00  0.00     0.211 HD
ENDBRANCH  16  21
BRANCH  17  23
ATOM     23  C   UNL     1      28.917  25.973  33.004  1.00  0.00     0.191 C 
BRANCH  23  24
ATOM     24  O   UNL     1      29.016  26.397  31.670  1.00  0.00    -0.394 OA
ATOM     25  H   UNL     1      29.782  25.907  31.271  1.00  0.00     0.210 HD
ENDBRANCH  23  24
ENDBRANCH  17  23
BRANCH  18  26
ATOM     26  O   UNL     1      30.561  23.716  32.172  1.00  0.00    -0.387 OA
ATOM     27  H   UNL     1      30.870  22.780  32.300  1.00  0.00     0.211 HD
ENDBRANCH  18  26
ENDBRANCH  12  13
ENDBRANCH   7  12
BRANCH   4  28
ATOM     28  O   UNL     1      23.771  19.925  38.075  1.00  0.00    -0.365 OA
ATOM     29  H   UNL     1      23.829  18.970  37.809  1.00  0.00     0.214 HD
ENDBRANCH   4  28
BRANCH   8  30
ATOM     30  C   UNL     1      25.028  24.218  36.265  1.00  0.00     0.249 C 
BRANCH  30  31
ATOM     31  O   UNL     1      24.033  24.884  35.496  1.00  0.00    -0.461 OA
BRANCH  31  32
ATOM     32  C   UNL     1      24.290  26.051  34.771  1.00  0.00     0.338 C 
ATOM     33  O   UNL     1      25.479  26.374  34.492  1.00  0.00    -0.246 OA
BRANCH  32  34
ATOM     34  C   UNL     1      23.165  26.907  34.333  1.00  0.00     0.060 A 
ATOM     35  C   UNL     1      21.858  26.391  34.248  1.00  0.00     0.015 A 
ATOM     36  C   UNL     1      23.390  28.255  33.995  1.00  0.00     0.015 A 
ATOM     37  C   UNL     1      20.802  27.208  33.834  1.00  0.00     0.001 A 
ATOM     38  C   UNL     1      22.330  29.066  33.581  1.00  0.00     0.001 A 
ATOM     39  C   UNL     1      21.037  28.544  33.500  1.00  0.00     0.000 A 
ENDBRANCH  32  34
ENDBRANCH  31  32
ENDBRANCH  30  31
ENDBRANCH   8  30
TORSDOF 12
ENDMDL
MODEL 7
REMARK VINA RESULT:    -7.541      2.052      3.347
REMARK INTER + INTRA:         -12.721
REMARK INTER:                 -11.736
REMARK INTRA:                  -0.985
REMARK UNBOUND:                -0.991
REMARK SMILES C[C@]12C[C@]3(O)O[C@H](O1)[C@@]1(COC(=O)c4ccccc4)[C@@H]3C[C@]12O[C@@H]1O[C@@H](CO)[C@@H](O)[C@@H](O)[C@H]1O
REMARK SMILES IDX 1 1 2 2 3 3 4 4 20 5 21 6 22 7 9 8 7 9 8 10 6 11 23 12 24 13
REMARK SMILES IDX 33 14 25 15 31 16 26 17 29 18 34 19 32 21 27 23 28 24 30 26
REMARK SMILES IDX 5 28 10 30 11 31 12 32 13 33 14 34 15 35 19 36 16 37 18 38
REMARK SMILES IDX 17 39
REMARK H PARENT 34 20 32 22 28 25 30 27 5 29
REMARK Flexibility Score: inf
ROOT
ATOM      1  C   UNL     1      26.172  21.474  33.293  1.00  0.00     0.046 C 
ATOM      2  C   UNL     1      25.254  22.420  34.066  1.00  0.00     0.104 C 
ATOM      3  C   UNL     1      24.489  21.671  35.217  1.00  0.00     0.104 C 
ATOM      4  C   UNL     1      23.695  22.817  35.933  1.00  0.00     0.175 C 
ATOM      5  C   UNL     1      24.641  24.021  36.245  1.00  0.00     0.070 C 
ATOM      6  C   UNL     1      26.132  23.649  36.193  1.00  0.00     0.050 C 
ATOM      7  C   UNL     1      25.986  23.688  34.643  1.00  0.00     0.115 C 
ATOM      8  C   UNL     1      24.756  24.570  34.829  1.00  0.00     0.096 C 
ATOM      9  C   UNL     1      23.634  23.943  34.022  1.00  0.00     0.267 C 
ATOM     10  O   UNL     1      24.249  22.946  33.220  1.00  0.00    -0.342 OA
ATOM     11  O   UNL     1      22.784  23.315  34.970  1.00  0.00    -0.320 OA
ENDROOT
BRANCH   7  12
ATOM     12  O   UNL     1      26.948  24.254  33.749  1.00  0.00    -0.339 OA
BRANCH  12  13
ATOM     13  C   UNL     1      28.269  24.389  34.253  1.00  0.00     0.282 C 
ATOM     14  C   UNL     1      29.123  23.111  34.046  1.00  0.00     0.202 C 
ATOM     15  O   UNL     1      28.894  25.519  33.659  1.00  0.00    -0.341 OA
ATOM     16  C   UNL     1      29.480  22.918  32.555  1.00  0.00     0.179 C 
ATOM     17  C   UNL     1      29.048  25.364  32.258  1.00  0.00     0.178 C 
ATOM     18  C   UNL     1      30.032  24.218  31.951  1.00  0.00     0.177 C 
BRANCH  14  19
ATOM     19  O   UNL     1      30.293  23.221  34.818  1.00  0.00    -0.385 OA
ATOM     20  H   UNL     1      30.909  22.501  34.521  1.00  0.00     0.211 HD
ENDBRANCH  14  19
BRANCH  16  21
ATOM     21  O   UNL     1      30.411  21.880  32.394  1.00  0.00    -0.387 OA
ATOM     22  H   UNL     1      30.066  21.105  32.910  1.00  0.00     0.211 HD
ENDBRANCH  16  21
BRANCH  17  23
ATOM     23  C   UNL     1      29.541  26.687  31.658  1.00  0.00     0.191 C 
BRANCH  23  24
ATOM     24  O   UNL     1      30.320  26.446  30.516  1.00  0.00    -0.394 OA
ATOM     25  H   UNL     1      30.977  27.188  30.456  1.00  0.00     0.210 HD
ENDBRANCH  23  24
ENDBRANCH  17  23
BRANCH  18  26
ATOM     26  O   UNL     1      31.296  24.516  32.492  1.00  0.00    -0.387 OA
ATOM     27  H   UNL     1      31.640  25.310  32.005  1.00  0.00     0.211 HD
ENDBRANCH  18  26
ENDBRANCH  12  13
ENDBRANCH   7  12
BRANCH   4  28
ATOM     28  O   UNL     1      23.030  22.344  37.073  1.00  0.00    -0.365 OA
ATOM     29  H   UNL     1      22.943  23.114  37.693  1.00  0.00     0.214 HD
ENDBRANCH   4  28
BRANCH   8  30
ATOM     30  C   UNL     1      24.939  26.092  34.708  1.00  0.00     0.249 C 
BRANCH  30  31
ATOM     31  O   UNL     1      23.750  26.674  34.185  1.00  0.00    -0.461 OA
BRANCH  31  32
ATOM     32  C   UNL     1      23.619  28.044  33.942  1.00  0.00     0.338 C 
ATOM     33  O   UNL     1      24.646  28.751  33.742  1.00  0.00    -0.246 OA
BRANCH  32  34
ATOM     34  C   UNL     1      22.275  28.662  33.921  1.00  0.00     0.060 A 
ATOM     35  C   UNL     1      21.116  27.863  33.906  1.00  0.00     0.015 A 
ATOM     36  C   UNL     1      22.139  30.063  33.915  1.00  0.00     0.015 A 
ATOM     37  C   UNL     1      19.849  28.457  33.886  1.00  0.00     0.001 A 
ATOM     38  C   UNL     1      20.871  30.649  33.895  1.00  0.00     0.001 A 
ATOM     39  C   UNL     1      19.727  29.848  33.881  1.00  0.00     0.000 A 
ENDBRANCH  32  34
ENDBRANCH  31  32
ENDBRANCH  30  31
ENDBRANCH   8  30
TORSDOF 12
ENDMDL
MODEL 8
REMARK VINA RESULT:    -6.926      2.506      6.661
REMARK INTER + INTRA:         -11.764
REMARK INTER:                 -10.906
REMARK INTRA:                  -0.858
REMARK UNBOUND:                -0.991
REMARK SMILES C[C@]12C[C@]3(O)O[C@H](O1)[C@@]1(COC(=O)c4ccccc4)[C@@H]3C[C@]12O[C@@H]1O[C@@H](CO)[C@@H](O)[C@@H](O)[C@H]1O
REMARK SMILES IDX 1 1 2 2 3 3 4 4 20 5 21 6 22 7 9 8 7 9 8 10 6 11 23 12 24 13
REMARK SMILES IDX 33 14 25 15 31 16 26 17 29 18 34 19 32 21 27 23 28 24 30 26
REMARK SMILES IDX 5 28 10 30 11 31 12 32 13 33 14 34 15 35 19 36 16 37 18 38
REMARK SMILES IDX 17 39
REMARK H PARENT 34 20 32 22 28 25 30 27 5 29
REMARK Flexibility Score: inf
ROOT
ATOM      1  C   UNL     1      21.624  22.059  36.249  1.00  0.00     0.046 C 
ATOM      2  C   UNL     1      23.152  22.027  36.258  1.00  0.00     0.104 C 
ATOM      3  C   UNL     1      23.700  20.562  36.100  1.00  0.00     0.104 C 
ATOM      4  C   UNL     1      25.253  20.759  36.036  1.00  0.00     0.175 C 
ATOM      5  C   UNL     1      25.618  21.871  35.001  1.00  0.00     0.070 C 
ATOM      6  C   UNL     1      24.478  22.181  34.017  1.00  0.00     0.050 C 
ATOM      7  C   UNL     1      23.815  22.968  35.186  1.00  0.00     0.115 C 
ATOM      8  C   UNL     1      25.193  23.077  35.830  1.00  0.00     0.096 C 
ATOM      9  C   UNL     1      25.052  22.596  37.263  1.00  0.00     0.267 C 
ATOM     10  O   UNL     1      23.656  22.491  37.497  1.00  0.00    -0.342 OA
ATOM     11  O   UNL     1      25.625  21.298  37.291  1.00  0.00    -0.320 OA
ENDROOT
BRANCH   7  12
ATOM     12  O   UNL     1      23.163  24.233  35.048  1.00  0.00    -0.339 OA
BRANCH  12  13
ATOM     13  C   UNL     1      22.971  24.699  33.720  1.00  0.00     0.282 C 
ATOM     14  C   UNL     1      21.476  24.924  33.374  1.00  0.00     0.202 C 
ATOM     15  O   UNL     1      23.724  25.886  33.516  1.00  0.00    -0.341 OA
ATOM     16  C   UNL     1      20.915  26.157  34.117  1.00  0.00     0.179 C 
ATOM     17  C   UNL     1      23.277  26.946  34.346  1.00  0.00     0.178 C 
ATOM     18  C   UNL     1      21.847  27.367  33.954  1.00  0.00     0.177 C 
BRANCH  14  19
ATOM     19  O   UNL     1      21.357  25.096  31.984  1.00  0.00    -0.385 OA
ATOM     20  H   UNL     1      20.561  25.670  31.827  1.00  0.00     0.211 HD
ENDBRANCH  14  19
BRANCH  16  21
ATOM     21  O   UNL     1      19.629  26.476  33.655  1.00  0.00    -0.387 OA
ATOM     22  H   UNL     1      19.737  27.209  32.994  1.00  0.00     0.211 HD
ENDBRANCH  16  21
BRANCH  17  23
ATOM     23  C   UNL     1      24.251  28.126  34.221  1.00  0.00     0.191 C 
BRANCH  23  24
ATOM     24  O   UNL     1      23.549  29.313  33.963  1.00  0.00    -0.394 OA
ATOM     25  H   UNL     1      24.217  30.048  33.976  1.00  0.00     0.210 HD
ENDBRANCH  23  24
ENDBRANCH  17  23
BRANCH  18  26
ATOM     26  O   UNL     1      21.832  27.826  32.624  1.00  0.00    -0.387 OA
ATOM     27  H   UNL     1      22.118  28.777  32.643  1.00  0.00     0.211 HD
ENDBRANCH  18  26
ENDBRANCH  12  13
ENDBRANCH   7  12
BRANCH   4  28
ATOM     28  O   UNL     1      25.913  19.548  35.781  1.00  0.00    -0.365 OA
ATOM     29  H   UNL     1      26.728  19.542  36.347  1.00  0.00     0.214 HD
ENDBRANCH   4  28
BRANCH   8  30
ATOM     30  C   UNL     1      25.993  24.370  35.601  1.00  0.00     0.249 C 
BRANCH  30  31
ATOM     31  O   UNL     1      27.380  24.062  35.518  1.00  0.00    -0.461 OA
BRANCH  31  32
ATOM     32  C   UNL     1      28.313  24.919  34.925  1.00  0.00     0.338 C 
ATOM     33  O   UNL     1      28.916  25.779  35.626  1.00  0.00    -0.246 OA
BRANCH  32  34
ATOM     34  C   UNL     1      28.589  24.814  33.476  1.00  0.00     0.060 A 
ATOM     35  C   UNL     1      28.206  23.669  32.751  1.00  0.00     0.015 A 
ATOM     36  C   UNL     1      29.241  25.863  32.801  1.00  0.00     0.015 A 
ATOM     37  C   UNL     1      28.472  23.580  31.381  1.00  0.00     0.001 A 
ATOM     38  C   UNL     1      29.503  25.767  31.432  1.00  0.00     0.001 A 
ATOM     39  C   UNL     1      29.119  24.627  30.721  1.00  0.00     0.000 A 
ENDBRANCH  32  34
ENDBRANCH  31  32
ENDBRANCH  30  31
ENDBRANCH   8  30
TORSDOF 12
ENDMDL
MODEL 9
REMARK VINA RESULT:    -6.888      2.671      5.256
REMARK INTER + INTRA:         -11.705
REMARK INTER:                  -9.758
REMARK INTRA:                  -1.947
REMARK UNBOUND:                -0.991
REMARK SMILES C[C@]12C[C@]3(O)O[C@H](O1)[C@@]1(COC(=O)c4ccccc4)[C@@H]3C[C@]12O[C@@H]1O[C@@H](CO)[C@@H](O)[C@@H](O)[C@H]1O
REMARK SMILES IDX 1 1 2 2 3 3 4 4 20 5 21 6 22 7 9 8 7 9 8 10 6 11 23 12 24 13
REMARK SMILES IDX 33 14 25 15 31 16 26 17 29 18 34 19 32 21 27 23 28 24 30 26
REMARK SMILES IDX 5 28 10 30 11 31 12 32 13 33 14 34 15 35 19 36 16 37 18 38
REMARK SMILES IDX 17 39
REMARK H PARENT 34 20 32 22 28 25 30 27 5 29
REMARK Flexibility Score: inf
ROOT
ATOM      1  C   UNL     1      24.974  20.896  33.563  1.00  0.00     0.046 C 
ATOM      2  C   UNL     1      24.816  22.105  34.484  1.00  0.00     0.104 C 
ATOM      3  C   UNL     1      23.469  22.044  35.293  1.00  0.00     0.104 C 
ATOM      4  C   UNL     1      23.548  23.298  36.228  1.00  0.00     0.175 C 
ATOM      5  C   UNL     1      24.926  23.343  36.963  1.00  0.00     0.070 C 
ATOM      6  C   UNL     1      25.664  21.993  36.949  1.00  0.00     0.050 C 
ATOM      7  C   UNL     1      26.025  22.318  35.470  1.00  0.00     0.115 C 
ATOM      8  C   UNL     1      25.779  23.790  35.782  1.00  0.00     0.096 C 
ATOM      9  C   UNL     1      24.825  24.316  34.726  1.00  0.00     0.267 C 
ATOM     10  O   UNL     1      24.756  23.303  33.733  1.00  0.00    -0.342 OA
ATOM     11  O   UNL     1      23.563  24.422  35.367  1.00  0.00    -0.320 OA
ENDROOT
BRANCH   7  12
ATOM     12  O   UNL     1      27.302  22.081  34.872  1.00  0.00    -0.339 OA
BRANCH  12  13
ATOM     13  C   UNL     1      28.054  21.001  35.408  1.00  0.00     0.282 C 
ATOM     14  C   UNL     1      28.534  20.006  34.319  1.00  0.00     0.202 C 
ATOM     15  O   UNL     1      29.153  21.507  36.153  1.00  0.00    -0.341 OA
ATOM     16  C   UNL     1      29.646  20.632  33.448  1.00  0.00     0.179 C 
ATOM     17  C   UNL     1      30.065  22.220  35.334  1.00  0.00     0.178 C 
ATOM     18  C   UNL     1      30.736  21.269  34.324  1.00  0.00     0.177 C 
BRANCH  14  19
ATOM     19  O   UNL     1      29.005  18.841  34.949  1.00  0.00    -0.385 OA
ATOM     20  H   UNL     1      28.420  18.676  35.735  1.00  0.00     0.211 HD
ENDBRANCH  14  19
BRANCH  16  21
ATOM     21  O   UNL     1      30.215  19.672  32.597  1.00  0.00    -0.387 OA
ATOM     22  H   UNL     1      29.701  19.704  31.748  1.00  0.00     0.211 HD
ENDBRANCH  16  21
BRANCH  17  23
ATOM     23  C   UNL     1      31.113  22.902  36.226  1.00  0.00     0.191 C 
BRANCH  23  24
ATOM     24  O   UNL     1      30.490  23.772  37.133  1.00  0.00    -0.394 OA
ATOM     25  H   UNL     1      30.310  24.616  36.642  1.00  0.00     0.210 HD
ENDBRANCH  23  24
ENDBRANCH  17  23
BRANCH  18  26
ATOM     26  O   UNL     1      31.460  20.276  35.010  1.00  0.00    -0.387 OA
ATOM     27  H   UNL     1      32.422  20.494  34.903  1.00  0.00     0.211 HD
ENDBRANCH  18  26
ENDBRANCH  12  13
ENDBRANCH   7  12
BRANCH   4  28
ATOM     28  O   UNL     1      22.463  23.345  37.115  1.00  0.00    -0.365 OA
ATOM     29  H   UNL     1      22.075  24.256  37.044  1.00  0.00     0.214 HD
ENDBRANCH   4  28
BRANCH   8  30
ATOM     30  C   UNL     1      26.997  24.665  36.123  1.00  0.00     0.249 C 
BRANCH  30  31
ATOM     31  O   UNL     1      27.330  25.474  35.001  1.00  0.00    -0.461 OA
BRANCH  31  32
ATOM     32  C   UNL     1      28.634  25.593  34.511  1.00  0.00     0.338 C 
ATOM     33  O   UNL     1      29.582  25.874  35.297  1.00  0.00    -0.246 OA
BRANCH  32  34
ATOM     34  C   UNL     1      28.899  25.388  33.070  1.00  0.00     0.060 A 
ATOM     35  C   UNL     1      28.408  24.251  32.401  1.00  0.00     0.015 A 
ATOM     36  C   UNL     1      29.650  26.334  32.347  1.00  0.00     0.015 A 
ATOM     37  C   UNL     1      28.664  24.067  31.039  1.00  0.00     0.001 A 
ATOM     38  C   UNL     1      29.902  26.144  30.985  1.00  0.00     0.001 A 
ATOM     39  C   UNL     1      29.410  25.012  30.331  1.00  0.00     0.000 A 
ENDBRANCH  32  34
ENDBRANCH  31  32
ENDBRANCH  30  31
ENDBRANCH   8  30
TORSDOF 12
ENDMDL
