MODEL 1
REMARK VINA RESULT:    -4.905      0.000      0.000
REMARK INTER + INTRA:         -14.507
REMARK INTER:                 -10.640
REMARK INTRA:                  -3.867
REMARK UNBOUND:                -3.867
REMARK SMILES CCCCCCCCCCCCCCCCCCCCCC(=O)[O-]
REMARK SMILES IDX 12 1 11 2 10 3 9 4 8 5 7 6 6 7 5 8 4 9 3 10 2 11 1 12 13 13
REMARK SMILES IDX 14 14 15 15 16 16 17 17 18 18 19 19 20 20 21 21 22 22 23 23
REMARK SMILES IDX 24 24
REMARK H PARENT
REMARK Flexibility Score: inf
ROOT
ATOM      1  C   UNL     1      17.721  14.520  34.543  1.00  0.00     0.000 C 
ENDROOT
BRANCH   1   2
ATOM      2  C   UNL     1      16.495  13.642  34.851  1.00  0.00     0.000 C 
BRANCH   2   3
ATOM      3  C   UNL     1      16.214  12.602  33.750  1.00  0.00     0.000 C 
BRANCH   3   4
ATOM      4  C   UNL     1      15.894  11.183  34.260  1.00  0.00    -0.000 C 
BRANCH   4   5
ATOM      5  C   UNL     1      15.941  11.077  35.794  1.00  0.00    -0.000 C 
BRANCH   5   6
ATOM      6  C   UNL     1      14.729  10.332  36.384  1.00  0.00    -0.000 C 
BRANCH   6   7
ATOM      7  C   UNL     1      13.956  11.093  37.475  1.00  0.00    -0.000 C 
BRANCH   7   8
ATOM      8  C   UNL     1      12.434  11.064  37.266  1.00  0.00    -0.000 C 
BRANCH   8   9
ATOM      9  C   UNL     1      11.947  12.367  36.613  1.00  0.00    -0.000 C 
BRANCH   9  10
ATOM     10  C   UNL     1      13.060  13.419  36.494  1.00  0.00    -0.000 C 
BRANCH  10  11
ATOM     11  C   UNL     1      12.986  14.209  35.178  1.00  0.00    -0.003 C 
ATOM     12  C   UNL     1      12.641  13.294  34.007  1.00  0.00     0.004 C 
ENDBRANCH  10  11
ENDBRANCH   9  10
ENDBRANCH   8   9
ENDBRANCH   7   8
ENDBRANCH   6   7
ENDBRANCH   5   6
ENDBRANCH   4   5
ENDBRANCH   3   4
ENDBRANCH   2   3
ENDBRANCH   1   2
BRANCH   1  13
ATOM     13  C   UNL     1      18.761  14.496  35.674  1.00  0.00     0.000 C 
BRANCH  13  14
ATOM     14  C   UNL     1      18.264  13.745  36.922  1.00  0.00     0.000 C 
BRANCH  14  15
ATOM     15  C   UNL     1      19.063  12.451  37.192  1.00  0.00     0.000 C 
BRANCH  15  16
ATOM     16  C   UNL     1      20.091  12.111  36.096  1.00  0.00     0.000 C 
BRANCH  16  17
ATOM     17  C   UNL     1      19.745  10.885  35.231  1.00  0.00     0.000 C 
BRANCH  17  18
ATOM     18  C   UNL     1      20.276  10.934  33.787  1.00  0.00     0.000 C 
BRANCH  18  19
ATOM     19  C   UNL     1      19.566  11.989  32.920  1.00  0.00     0.000 C 
BRANCH  19  20
ATOM     20  C   UNL     1      20.551  12.934  32.213  1.00  0.00     0.006 C 
BRANCH  20  21
ATOM     21  C   UNL     1      21.431  13.715  33.200  1.00  0.00     0.053 C 
BRANCH  21  22
ATOM     22  C   UNL     1      21.365  15.184  32.921  1.00  0.00     0.041 C 
ATOM     23  O   UNL     1      20.321  15.691  32.432  1.00  0.00    -0.550 OA
ATOM     24  O   UNL     1      22.455  15.997  33.207  1.00  0.00    -0.550 OA
ENDBRANCH  21  22
ENDBRANCH  20  21
ENDBRANCH  19  20
ENDBRANCH  18  19
ENDBRANCH  17  18
ENDBRANCH  16  17
ENDBRANCH  15  16
ENDBRANCH  14  15
ENDBRANCH  13  14
ENDBRANCH   1  13
TORSDOF 20
ENDMDL
MODEL 2
REMARK VINA RESULT:    -4.875      3.712      7.735
REMARK INTER + INTRA:         -14.443
REMARK INTER:                 -11.355
REMARK INTRA:                  -3.088
REMARK UNBOUND:                -3.867
REMARK SMILES CCCCCCCCCCCCCCCCCCCCCC(=O)[O-]
REMARK SMILES IDX 12 1 11 2 10 3 9 4 8 5 7 6 6 7 5 8 4 9 3 10 2 11 1 12 13 13
REMARK SMILES IDX 14 14 15 15 16 16 17 17 18 18 19 19 20 20 21 21 22 22 23 23
REMARK SMILES IDX 24 24
REMARK H PARENT
REMARK Flexibility Score: inf
ROOT
ATOM      1  C   UNL     1      16.559  13.309  35.259  1.00  0.00     0.000 C 
ENDROOT
BRANCH   1   2
ATOM      2  C   UNL     1      17.600  14.103  34.450  1.00  0.00     0.000 C 
BRANCH   2   3
ATOM      3  C   UNL     1      18.737  14.662  35.326  1.00  0.00     0.000 C 
BRANCH   3   4
ATOM      4  C   UNL     1      18.765  14.137  36.775  1.00  0.00    -0.000 C 
BRANCH   4   5
ATOM      5  C   UNL     1      19.933  13.170  37.034  1.00  0.00    -0.000 C 
BRANCH   5   6
ATOM      6  C   UNL     1      19.469  11.738  37.357  1.00  0.00    -0.000 C 
BRANCH   6   7
ATOM      7  C   UNL     1      19.399  10.781  36.153  1.00  0.00    -0.000 C 
BRANCH   7   8
ATOM      8  C   UNL     1      20.649  10.842  35.263  1.00  0.00    -0.000 C 
BRANCH   8   9
ATOM      9  C   UNL     1      20.325  11.489  33.907  1.00  0.00    -0.000 C 
BRANCH   9  10
ATOM     10  C   UNL     1      21.200  12.718  33.616  1.00  0.00    -0.000 C 
BRANCH  10  11
ATOM     11  C   UNL     1      21.081  13.195  32.161  1.00  0.00    -0.003 C 
ATOM     12  C   UNL     1      22.331  13.956  31.729  1.00  0.00     0.004 C 
ENDBRANCH  10  11
ENDBRANCH   9  10
ENDBRANCH   8   9
ENDBRANCH   7   8
ENDBRANCH   6   7
ENDBRANCH   5   6
ENDBRANCH   4   5
ENDBRANCH   3   4
ENDBRANCH   2   3
ENDBRANCH   1   2
BRANCH   1  13
ATOM     13  C   UNL     1      16.499  11.829  34.850  1.00  0.00     0.000 C 
BRANCH  13  14
ATOM     14  C   UNL     1      16.026  11.633  33.398  1.00  0.00     0.000 C 
BRANCH  14  15
ATOM     15  C   UNL     1      14.786  10.719  33.296  1.00  0.00     0.000 C 
BRANCH  15  16
ATOM     16  C   UNL     1      13.498  11.456  32.882  1.00  0.00     0.000 C 
BRANCH  16  17
ATOM     17  C   UNL     1      13.456  12.953  33.238  1.00  0.00     0.000 C 
BRANCH  17  18
ATOM     18  C   UNL     1      12.434  13.336  34.325  1.00  0.00     0.000 C 
BRANCH  18  19
ATOM     19  C   UNL     1      13.077  14.035  35.535  1.00  0.00     0.000 C 
BRANCH  19  20
ATOM     20  C   UNL     1      13.293  13.081  36.722  1.00  0.00     0.006 C 
BRANCH  20  21
ATOM     21  C   UNL     1      12.254  11.951  36.768  1.00  0.00     0.053 C 
BRANCH  21  22
ATOM     22  C   UNL     1      11.520  11.958  38.071  1.00  0.00     0.041 C 
ATOM     23  O   UNL     1      11.926  11.253  39.033  1.00  0.00    -0.550 OA
ATOM     24  O   UNL     1      10.389  12.750  38.230  1.00  0.00    -0.550 OA
ENDBRANCH  21  22
ENDBRANCH  20  21
ENDBRANCH  19  20
ENDBRANCH  18  19
ENDBRANCH  17  18
ENDBRANCH  16  17
ENDBRANCH  15  16
ENDBRANCH  14  15
ENDBRANCH  13  14
ENDBRANCH   1  13
TORSDOF 20
ENDMDL
MODEL 3
REMARK VINA RESULT:    -4.707      3.439      7.939
REMARK INTER + INTRA:         -14.077
REMARK INTER:                 -10.667
REMARK INTRA:                  -3.411
REMARK UNBOUND:                -3.867
REMARK SMILES CCCCCCCCCCCCCCCCCCCCCC(=O)[O-]
REMARK SMILES IDX 12 1 11 2 10 3 9 4 8 5 7 6 6 7 5 8 4 9 3 10 2 11 1 12 13 13
REMARK SMILES IDX 14 14 15 15 16 16 17 17 18 18 19 19 20 20 21 21 22 22 23 23
REMARK SMILES IDX 24 24
REMARK H PARENT
REMARK Flexibility Score: inf
ROOT
ATOM      1  C   UNL     1      16.935  13.090  36.058  1.00  0.00     0.000 C 
ENDROOT
BRANCH   1   2
ATOM      2  C   UNL     1      17.313  13.993  34.870  1.00  0.00     0.000 C 
BRANCH   2   3
ATOM      3  C   UNL     1      18.582  14.826  35.134  1.00  0.00     0.000 C 
BRANCH   3   4
ATOM      4  C   UNL     1      18.773  16.038  34.202  1.00  0.00    -0.000 C 
BRANCH   4   5
ATOM      5  C   UNL     1      20.254  16.367  33.950  1.00  0.00    -0.000 C 
BRANCH   5   6
ATOM      6  C   UNL     1      21.204  15.653  34.931  1.00  0.00    -0.000 C 
BRANCH   6   7
ATOM      7  C   UNL     1      22.480  15.067  34.302  1.00  0.00    -0.000 C 
BRANCH   7   8
ATOM      8  C   UNL     1      22.317  14.728  32.812  1.00  0.00    -0.000 C 
BRANCH   8   9
ATOM      9  C   UNL     1      21.980  13.241  32.622  1.00  0.00    -0.000 C 
BRANCH   9  10
ATOM     10  C   UNL     1      20.483  13.002  32.372  1.00  0.00    -0.000 C 
BRANCH  10  11
ATOM     11  C   UNL     1      19.924  11.838  33.205  1.00  0.00    -0.003 C 
ATOM     12  C   UNL     1      20.644  11.728  34.546  1.00  0.00     0.004 C 
ENDBRANCH  10  11
ENDBRANCH   9  10
ENDBRANCH   8   9
ENDBRANCH   7   8
ENDBRANCH   6   7
ENDBRANCH   5   6
ENDBRANCH   4   5
ENDBRANCH   3   4
ENDBRANCH   2   3
ENDBRANCH   1   2
BRANCH   1  13
ATOM     13  C   UNL     1      16.966  11.596  35.695  1.00  0.00     0.000 C 
BRANCH  13  14
ATOM     14  C   UNL     1      16.516  11.327  34.247  1.00  0.00     0.000 C 
BRANCH  14  15
ATOM     15  C   UNL     1      15.089  10.744  34.169  1.00  0.00     0.000 C 
BRANCH  15  16
ATOM     16  C   UNL     1      14.259  11.277  32.985  1.00  0.00     0.000 C 
BRANCH  16  17
ATOM     17  C   UNL     1      13.177  12.308  33.355  1.00  0.00     0.000 C 
BRANCH  17  18
ATOM     18  C   UNL     1      13.631  13.406  34.335  1.00  0.00     0.000 C 
BRANCH  18  19
ATOM     19  C   UNL     1      12.489  13.928  35.224  1.00  0.00     0.000 C 
BRANCH  19  20
ATOM     20  C   UNL     1      12.062  12.911  36.295  1.00  0.00     0.006 C 
BRANCH  20  21
ATOM     21  C   UNL     1      13.256  12.323  37.061  1.00  0.00     0.053 C 
BRANCH  21  22
ATOM     22  C   UNL     1      12.979  10.912  37.473  1.00  0.00     0.041 C 
ATOM     23  O   UNL     1      12.632  10.056  36.617  1.00  0.00    -0.550 OA
ATOM     24  O   UNL     1      13.110  10.537  38.805  1.00  0.00    -0.550 OA
ENDBRANCH  21  22
ENDBRANCH  20  21
ENDBRANCH  19  20
ENDBRANCH  18  19
ENDBRANCH  17  18
ENDBRANCH  16  17
ENDBRANCH  15  16
ENDBRANCH  14  15
ENDBRANCH  13  14
ENDBRANCH   1  13
TORSDOF 20
ENDMDL
MODEL 4
REMARK VINA RESULT:    -4.671      3.746      7.810
REMARK INTER + INTRA:         -13.999
REMARK INTER:                 -10.867
REMARK INTRA:                  -3.132
REMARK UNBOUND:                -3.867
REMARK SMILES CCCCCCCCCCCCCCCCCCCCCC(=O)[O-]
REMARK SMILES IDX 12 1 11 2 10 3 9 4 8 5 7 6 6 7 5 8 4 9 3 10 2 11 1 12 13 13
REMARK SMILES IDX 14 14 15 15 16 16 17 17 18 18 19 19 20 20 21 21 22 22 23 23
REMARK SMILES IDX 24 24
REMARK H PARENT
REMARK Flexibility Score: inf
ROOT
ATOM      1  C   UNL     1      16.793  13.261  34.177  1.00  0.00     0.000 C 
ENDROOT
BRANCH   1   2
ATOM      2  C   UNL     1      17.189  13.719  35.592  1.00  0.00     0.000 C 
BRANCH   2   3
ATOM      3  C   UNL     1      17.658  12.557  36.487  1.00  0.00     0.000 C 
BRANCH   3   4
ATOM      4  C   UNL     1      18.808  12.900  37.453  1.00  0.00    -0.000 C 
BRANCH   4   5
ATOM      5  C   UNL     1      19.568  14.173  37.045  1.00  0.00    -0.000 C 
BRANCH   5   6
ATOM      6  C   UNL     1      20.856  13.876  36.254  1.00  0.00    -0.000 C 
BRANCH   6   7
ATOM      7  C   UNL     1      21.551  15.106  35.642  1.00  0.00    -0.000 C 
BRANCH   7   8
ATOM      8  C   UNL     1      20.603  15.980  34.807  1.00  0.00    -0.000 C 
BRANCH   8   9
ATOM      9  C   UNL     1      19.932  15.155  33.698  1.00  0.00    -0.000 C 
BRANCH   9  10
ATOM     10  C   UNL     1      20.717  15.193  32.378  1.00  0.00    -0.000 C 
BRANCH  10  11
ATOM     11  C   UNL     1      21.401  13.854  32.060  1.00  0.00    -0.003 C 
ATOM     12  C   UNL     1      20.661  12.691  32.716  1.00  0.00     0.004 C 
ENDBRANCH  10  11
ENDBRANCH   9  10
ENDBRANCH   8   9
ENDBRANCH   7   8
ENDBRANCH   6   7
ENDBRANCH   5   6
ENDBRANCH   4   5
ENDBRANCH   3   4
ENDBRANCH   2   3
ENDBRANCH   1   2
BRANCH   1  13
ATOM     13  C   UNL     1      16.887  11.737  34.004  1.00  0.00     0.000 C 
BRANCH  13  14
ATOM     14  C   UNL     1      15.539  11.029  34.231  1.00  0.00     0.000 C 
BRANCH  14  15
ATOM     15  C   UNL     1      14.772  10.778  32.915  1.00  0.00     0.000 C 
BRANCH  15  16
ATOM     16  C   UNL     1      13.383  11.443  32.864  1.00  0.00     0.000 C 
BRANCH  16  17
ATOM     17  C   UNL     1      13.358  12.938  33.231  1.00  0.00     0.000 C 
BRANCH  17  18
ATOM     18  C   UNL     1      12.517  13.291  34.472  1.00  0.00     0.000 C 
BRANCH  18  19
ATOM     19  C   UNL     1      13.334  13.985  35.575  1.00  0.00     0.000 C 
BRANCH  19  20
ATOM     20  C   UNL     1      13.719  13.029  36.716  1.00  0.00     0.006 C 
BRANCH  20  21
ATOM     21  C   UNL     1      12.823  11.783  36.770  1.00  0.00     0.053 C 
BRANCH  21  22
ATOM     22  C   UNL     1      11.855  11.874  37.906  1.00  0.00     0.041 C 
ATOM     23  O   UNL     1      10.888  12.681  37.854  1.00  0.00    -0.550 OA
ATOM     24  O   UNL     1      12.013  11.064  39.024  1.00  0.00    -0.550 OA
ENDBRANCH  21  22
ENDBRANCH  20  21
ENDBRANCH  19  20
ENDBRANCH  18  19
ENDBRANCH  17  18
ENDBRANCH  16  17
ENDBRANCH  15  16
ENDBRANCH  14  15
ENDBRANCH  13  14
ENDBRANCH   1  13
TORSDOF 20
ENDMDL
MODEL 5
REMARK VINA RESULT:    -4.624      1.839      2.938
REMARK INTER + INTRA:         -13.898
REMARK INTER:                 -10.465
REMARK INTRA:                  -3.433
REMARK UNBOUND:                -3.867
REMARK SMILES CCCCCCCCCCCCCCCCCCCCCC(=O)[O-]
REMARK SMILES IDX 12 1 11 2 10 3 9 4 8 5 7 6 6 7 5 8 4 9 3 10 2 11 1 12 13 13
REMARK SMILES IDX 14 14 15 15 16 16 17 17 18 18 19 19 20 20 21 21 22 22 23 23
REMARK SMILES IDX 24 24
REMARK H PARENT
REMARK Flexibility Score: inf
ROOT
ATOM      1  C   UNL     1      17.491  11.878  33.502  1.00  0.00     0.000 C 
ENDROOT
BRANCH   1   2
ATOM      2  C   UNL     1      16.989  13.077  34.326  1.00  0.00     0.000 C 
BRANCH   2   3
ATOM      3  C   UNL     1      16.644  12.700  35.780  1.00  0.00     0.000 C 
BRANCH   3   4
ATOM      4  C   UNL     1      16.582  11.187  36.065  1.00  0.00    -0.000 C 
BRANCH   4   5
ATOM      5  C   UNL     1      15.155  10.622  35.968  1.00  0.00    -0.000 C 
BRANCH   5   6
ATOM      6  C   UNL     1      14.240  11.099  37.113  1.00  0.00    -0.000 C 
BRANCH   6   7
ATOM      7  C   UNL     1      12.945  11.803  36.670  1.00  0.00    -0.000 C 
BRANCH   7   8
ATOM      8  C   UNL     1      13.054  13.335  36.692  1.00  0.00    -0.000 C 
BRANCH   8   9
ATOM      9  C   UNL     1      12.989  13.909  35.269  1.00  0.00    -0.000 C 
BRANCH   9  10
ATOM     10  C   UNL     1      12.570  12.859  34.228  1.00  0.00    -0.000 C 
BRANCH  10  11
ATOM     11  C   UNL     1      13.673  12.579  33.196  1.00  0.00    -0.003 C 
ATOM     12  C   UNL     1      13.539  11.174  32.617  1.00  0.00     0.004 C 
ENDBRANCH  10  11
ENDBRANCH   9  10
ENDBRANCH   8   9
ENDBRANCH   7   8
ENDBRANCH   6   7
ENDBRANCH   5   6
ENDBRANCH   4   5
ENDBRANCH   3   4
ENDBRANCH   2   3
ENDBRANCH   1   2
BRANCH   1  13
ATOM     13  C   UNL     1      18.977  12.002  33.126  1.00  0.00     0.000 C 
BRANCH  13  14
ATOM     14  C   UNL     1      19.902  11.265  34.110  1.00  0.00     0.000 C 
BRANCH  14  15
ATOM     15  C   UNL     1      21.049  12.159  34.628  1.00  0.00     0.000 C 
BRANCH  15  16
ATOM     16  C   UNL     1      20.834  12.687  36.059  1.00  0.00     0.000 C 
BRANCH  16  17
ATOM     17  C   UNL     1      20.078  14.025  36.158  1.00  0.00     0.000 C 
BRANCH  17  18
ATOM     18  C   UNL     1      20.640  15.158  35.280  1.00  0.00     0.000 C 
BRANCH  18  19
ATOM     19  C   UNL     1      19.678  15.584  34.158  1.00  0.00     0.000 C 
BRANCH  19  20
ATOM     20  C   UNL     1      20.413  16.162  32.938  1.00  0.00     0.006 C 
BRANCH  20  21
ATOM     21  C   UNL     1      19.473  16.916  31.985  1.00  0.00     0.053 C 
BRANCH  21  22
ATOM     22  C   UNL     1      19.642  18.395  32.133  1.00  0.00     0.041 C 
ATOM     23  O   UNL     1      19.140  19.179  31.285  1.00  0.00    -0.550 OA
ATOM     24  O   UNL     1      20.349  18.911  33.212  1.00  0.00    -0.550 OA
ENDBRANCH  21  22
ENDBRANCH  20  21
ENDBRANCH  19  20
ENDBRANCH  18  19
ENDBRANCH  17  18
ENDBRANCH  16  17
ENDBRANCH  15  16
ENDBRANCH  14  15
ENDBRANCH  13  14
ENDBRANCH   1  13
TORSDOF 20
ENDMDL
MODEL 6
REMARK VINA RESULT:    -4.620      3.038      7.414
REMARK INTER + INTRA:         -13.889
REMARK INTER:                 -10.806
REMARK INTRA:                  -3.083
REMARK UNBOUND:                -3.867
REMARK SMILES CCCCCCCCCCCCCCCCCCCCCC(=O)[O-]
REMARK SMILES IDX 12 1 11 2 10 3 9 4 8 5 7 6 6 7 5 8 4 9 3 10 2 11 1 12 13 13
REMARK SMILES IDX 14 14 15 15 16 16 17 17 18 18 19 19 20 20 21 21 22 22 23 23
REMARK SMILES IDX 24 24
REMARK H PARENT
REMARK Flexibility Score: inf
ROOT
ATOM      1  C   UNL     1      20.220  10.776  34.954  1.00  0.00     0.000 C 
ENDROOT
BRANCH   1   2
ATOM      2  C   UNL     1      21.172  11.286  36.050  1.00  0.00     0.000 C 
BRANCH   2   3
ATOM      3  C   UNL     1      20.427  11.904  37.249  1.00  0.00     0.000 C 
BRANCH   3   4
ATOM      4  C   UNL     1      18.890  11.846  37.163  1.00  0.00    -0.000 C 
BRANCH   4   5
ATOM      5  C   UNL     1      18.249  13.237  37.025  1.00  0.00    -0.000 C 
BRANCH   5   6
ATOM      6  C   UNL     1      19.263  14.332  36.643  1.00  0.00    -0.000 C 
BRANCH   6   7
ATOM      7  C   UNL     1      19.222  14.782  35.171  1.00  0.00    -0.000 C 
BRANCH   7   8
ATOM      8  C   UNL     1      20.503  15.503  34.726  1.00  0.00    -0.000 C 
BRANCH   8   9
ATOM      9  C   UNL     1      21.751  14.761  35.226  1.00  0.00    -0.000 C 
BRANCH   9  10
ATOM     10  C   UNL     1      22.892  14.763  34.195  1.00  0.00    -0.000 C 
BRANCH  10  11
ATOM     11  C   UNL     1      22.394  15.035  32.767  1.00  0.00    -0.003 C 
ATOM     12  C   UNL     1      22.556  13.800  31.886  1.00  0.00     0.004 C 
ENDBRANCH  10  11
ENDBRANCH   9  10
ENDBRANCH   8   9
ENDBRANCH   7   8
ENDBRANCH   6   7
ENDBRANCH   5   6
ENDBRANCH   4   5
ENDBRANCH   3   4
ENDBRANCH   2   3
ENDBRANCH   1   2
BRANCH   1  13
ATOM     13  C   UNL     1      20.420  11.505  33.615  1.00  0.00     0.000 C 
BRANCH  13  14
ATOM     14  C   UNL     1      19.130  11.580  32.780  1.00  0.00     0.000 C 
BRANCH  14  15
ATOM     15  C   UNL     1      17.888  11.909  33.637  1.00  0.00     0.000 C 
BRANCH  15  16
ATOM     16  C   UNL     1      16.556  11.452  33.011  1.00  0.00     0.000 C 
BRANCH  16  17
ATOM     17  C   UNL     1      15.329  11.552  33.935  1.00  0.00     0.000 C 
BRANCH  17  18
ATOM     18  C   UNL     1      13.972  11.330  33.244  1.00  0.00     0.000 C 
BRANCH  18  19
ATOM     19  C   UNL     1      13.007  12.515  33.417  1.00  0.00     0.000 C 
BRANCH  19  20
ATOM     20  C   UNL     1      13.466  13.497  34.507  1.00  0.00     0.006 C 
BRANCH  20  21
ATOM     21  C   UNL     1      12.408  13.703  35.600  1.00  0.00     0.053 C 
BRANCH  21  22
ATOM     22  C   UNL     1      12.670  12.806  36.768  1.00  0.00     0.041 C 
ATOM     23  O   UNL     1      11.731  12.479  37.541  1.00  0.00    -0.550 OA
ATOM     24  O   UNL     1      13.952  12.322  37.001  1.00  0.00    -0.550 OA
ENDBRANCH  21  22
ENDBRANCH  20  21
ENDBRANCH  19  20
ENDBRANCH  18  19
ENDBRANCH  17  18
ENDBRANCH  16  17
ENDBRANCH  15  16
ENDBRANCH  14  15
ENDBRANCH  13  14
ENDBRANCH   1  13
TORSDOF 20
ENDMDL
MODEL 7
REMARK VINA RESULT:    -4.616      3.776      7.610
REMARK INTER + INTRA:         -13.880
REMARK INTER:                 -10.291
REMARK INTRA:                  -3.589
REMARK UNBOUND:                -3.867
REMARK SMILES CCCCCCCCCCCCCCCCCCCCCC(=O)[O-]
REMARK SMILES IDX 12 1 11 2 10 3 9 4 8 5 7 6 6 7 5 8 4 9 3 10 2 11 1 12 13 13
REMARK SMILES IDX 14 14 15 15 16 16 17 17 18 18 19 19 20 20 21 21 22 22 23 23
REMARK SMILES IDX 24 24
REMARK H PARENT
REMARK Flexibility Score: inf
ROOT
ATOM      1  C   UNL     1      16.796  12.508  35.750  1.00  0.00     0.000 C 
ENDROOT
BRANCH   1   2
ATOM      2  C   UNL     1      16.826  13.753  34.846  1.00  0.00     0.000 C 
BRANCH   2   3
ATOM      3  C   UNL     1      18.145  14.541  34.959  1.00  0.00     0.000 C 
BRANCH   3   4
ATOM      4  C   UNL     1      19.176  14.251  33.851  1.00  0.00    -0.000 C 
BRANCH   4   5
ATOM      5  C   UNL     1      20.446  13.567  34.385  1.00  0.00    -0.000 C 
BRANCH   5   6
ATOM      6  C   UNL     1      20.624  12.131  33.856  1.00  0.00    -0.000 C 
BRANCH   6   7
ATOM      7  C   UNL     1      19.958  11.031  34.701  1.00  0.00    -0.000 C 
BRANCH   7   8
ATOM      8  C   UNL     1      20.971  10.125  35.418  1.00  0.00    -0.000 C 
BRANCH   8   9
ATOM      9  C   UNL     1      20.442   9.694  36.794  1.00  0.00    -0.000 C 
BRANCH   9  10
ATOM     10  C   UNL     1      19.263  10.559  37.270  1.00  0.00    -0.000 C 
BRANCH  10  11
ATOM     11  C   UNL     1      19.650  11.504  38.417  1.00  0.00    -0.003 C 
ATOM     12  C   UNL     1      19.741  12.948  37.932  1.00  0.00     0.004 C 
ENDBRANCH  10  11
ENDBRANCH   9  10
ENDBRANCH   8   9
ENDBRANCH   7   8
ENDBRANCH   6   7
ENDBRANCH   5   6
ENDBRANCH   4   5
ENDBRANCH   3   4
ENDBRANCH   2   3
ENDBRANCH   1   2
BRANCH   1  13
ATOM     13  C   UNL     1      16.212  11.277  35.037  1.00  0.00     0.000 C 
BRANCH  13  14
ATOM     14  C   UNL     1      15.910  11.539  33.551  1.00  0.00     0.000 C 
BRANCH  14  15
ATOM     15  C   UNL     1      14.694  10.734  33.043  1.00  0.00     0.000 C 
BRANCH  15  16
ATOM     16  C   UNL     1      13.435  11.587  32.802  1.00  0.00     0.000 C 
BRANCH  16  17
ATOM     17  C   UNL     1      13.534  13.051  33.272  1.00  0.00     0.000 C 
BRANCH  17  18
ATOM     18  C   UNL     1      12.496  13.468  34.329  1.00  0.00     0.000 C 
BRANCH  18  19
ATOM     19  C   UNL     1      13.128  14.131  35.564  1.00  0.00     0.000 C 
BRANCH  19  20
ATOM     20  C   UNL     1      13.394  13.131  36.702  1.00  0.00     0.006 C 
BRANCH  20  21
ATOM     21  C   UNL     1      12.407  11.954  36.695  1.00  0.00     0.053 C 
BRANCH  21  22
ATOM     22  C   UNL     1      11.537  11.984  37.911  1.00  0.00     0.041 C 
ATOM     23  O   UNL     1      10.532  12.743  37.955  1.00  0.00    -0.550 OA
ATOM     24  O   UNL     1      11.830  11.169  38.998  1.00  0.00    -0.550 OA
ENDBRANCH  21  22
ENDBRANCH  20  21
ENDBRANCH  19  20
ENDBRANCH  18  19
ENDBRANCH  17  18
ENDBRANCH  16  17
ENDBRANCH  15  16
ENDBRANCH  14  15
ENDBRANCH  13  14
ENDBRANCH   1  13
TORSDOF 20
ENDMDL
MODEL 8
REMARK VINA RESULT:    -4.605      3.117      7.145
REMARK INTER + INTRA:         -13.856
REMARK INTER:                 -10.296
REMARK INTRA:                  -3.560
REMARK UNBOUND:                -3.867
REMARK SMILES CCCCCCCCCCCCCCCCCCCCCC(=O)[O-]
REMARK SMILES IDX 12 1 11 2 10 3 9 4 8 5 7 6 6 7 5 8 4 9 3 10 2 11 1 12 13 13
REMARK SMILES IDX 14 14 15 15 16 16 17 17 18 18 19 19 20 20 21 21 22 22 23 23
REMARK SMILES IDX 24 24
REMARK H PARENT
REMARK Flexibility Score: inf
ROOT
ATOM      1  C   UNL     1      19.927  11.159  33.984  1.00  0.00     0.000 C 
ENDROOT
BRANCH   1   2
ATOM      2  C   UNL     1      19.765  11.997  32.703  1.00  0.00     0.000 C 
BRANCH   2   3
ATOM      3  C   UNL     1      20.248  13.450  32.874  1.00  0.00     0.000 C 
BRANCH   3   4
ATOM      4  C   UNL     1      21.320  13.904  31.866  1.00  0.00    -0.000 C 
BRANCH   4   5
ATOM      5  C   UNL     1      22.713  14.047  32.503  1.00  0.00    -0.000 C 
BRANCH   5   6
ATOM      6  C   UNL     1      22.701  14.892  33.791  1.00  0.00    -0.000 C 
BRANCH   6   7
ATOM      7  C   UNL     1      22.315  16.371  33.605  1.00  0.00    -0.000 C 
BRANCH   7   8
ATOM      8  C   UNL     1      21.256  16.848  34.611  1.00  0.00    -0.000 C 
BRANCH   8   9
ATOM      9  C   UNL     1      19.863  16.887  33.963  1.00  0.00    -0.000 C 
BRANCH   9  10
ATOM     10  C   UNL     1      19.862  17.621  32.613  1.00  0.00    -0.000 C 
BRANCH  10  11
ATOM     11  C   UNL     1      19.702  19.141  32.769  1.00  0.00    -0.003 C 
ATOM     12  C   UNL     1      20.958  19.875  32.308  1.00  0.00     0.004 C 
ENDBRANCH  10  11
ENDBRANCH   9  10
ENDBRANCH   8   9
ENDBRANCH   7   8
ENDBRANCH   6   7
ENDBRANCH   5   6
ENDBRANCH   4   5
ENDBRANCH   3   4
ENDBRANCH   2   3
ENDBRANCH   1   2
BRANCH   1  13
ATOM     13  C   UNL     1      20.964  11.755  34.950  1.00  0.00     0.000 C 
BRANCH  13  14
ATOM     14  C   UNL     1      20.381  12.042  36.345  1.00  0.00     0.000 C 
BRANCH  14  15
ATOM     15  C   UNL     1      20.347  13.549  36.676  1.00  0.00     0.000 C 
BRANCH  15  16
ATOM     16  C   UNL     1      19.030  14.247  36.285  1.00  0.00     0.000 C 
BRANCH  16  17
ATOM     17  C   UNL     1      17.761  13.389  36.447  1.00  0.00     0.000 C 
BRANCH  17  18
ATOM     18  C   UNL     1      16.883  13.280  35.187  1.00  0.00     0.000 C 
BRANCH  18  19
ATOM     19  C   UNL     1      16.474  11.834  34.861  1.00  0.00     0.000 C 
BRANCH  19  20
ATOM     20  C   UNL     1      16.230  11.613  33.359  1.00  0.00     0.006 C 
BRANCH  20  21
ATOM     21  C   UNL     1      14.840  11.029  33.066  1.00  0.00     0.053 C 
BRANCH  21  22
ATOM     22  C   UNL     1      13.777  11.810  33.773  1.00  0.00     0.041 C 
ATOM     23  O   UNL     1      13.468  12.965  33.377  1.00  0.00    -0.550 OA
ATOM     24  O   UNL     1      13.122  11.261  34.868  1.00  0.00    -0.550 OA
ENDBRANCH  21  22
ENDBRANCH  20  21
ENDBRANCH  19  20
ENDBRANCH  18  19
ENDBRANCH  17  18
ENDBRANCH  16  17
ENDBRANCH  15  16
ENDBRANCH  14  15
ENDBRANCH  13  14
ENDBRANCH   1  13
TORSDOF 20
ENDMDL
MODEL 9
REMARK VINA RESULT:    -4.581      3.718      7.923
REMARK INTER + INTRA:         -13.805
REMARK INTER:                 -10.967
REMARK INTRA:                  -2.837
REMARK UNBOUND:                -3.867
REMARK SMILES CCCCCCCCCCCCCCCCCCCCCC(=O)[O-]
REMARK SMILES IDX 12 1 11 2 10 3 9 4 8 5 7 6 6 7 5 8 4 9 3 10 2 11 1 12 13 13
REMARK SMILES IDX 14 14 15 15 16 16 17 17 18 18 19 19 20 20 21 21 22 22 23 23
REMARK SMILES IDX 24 24
REMARK H PARENT
REMARK Flexibility Score: inf
ROOT
ATOM      1  C   UNL     1      17.999  11.479  32.839  1.00  0.00     0.000 C 
ENDROOT
BRANCH   1   2
ATOM      2  C   UNL     1      19.460  11.661  33.288  1.00  0.00     0.000 C 
BRANCH   2   3
ATOM      3  C   UNL     1      20.200  12.748  32.487  1.00  0.00     0.000 C 
BRANCH   3   4
ATOM      4  C   UNL     1      21.620  13.076  32.987  1.00  0.00    -0.000 C 
BRANCH   4   5
ATOM      5  C   UNL     1      22.157  14.403  32.425  1.00  0.00    -0.000 C 
BRANCH   5   6
ATOM      6  C   UNL     1      22.389  15.468  33.513  1.00  0.00    -0.000 C 
BRANCH   6   7
ATOM      7  C   UNL     1      21.517  15.321  34.774  1.00  0.00    -0.000 C 
BRANCH   7   8
ATOM      8  C   UNL     1      20.106  15.904  34.602  1.00  0.00    -0.000 C 
BRANCH   8   9
ATOM      9  C   UNL     1      19.052  14.978  35.227  1.00  0.00    -0.000 C 
BRANCH   9  10
ATOM     10  C   UNL     1      19.522  14.359  36.553  1.00  0.00    -0.000 C 
BRANCH  10  11
ATOM     11  C   UNL     1      19.374  12.830  36.575  1.00  0.00    -0.003 C 
ATOM     12  C   UNL     1      20.730  12.149  36.733  1.00  0.00     0.004 C 
ENDBRANCH  10  11
ENDBRANCH   9  10
ENDBRANCH   8   9
ENDBRANCH   7   8
ENDBRANCH   6   7
ENDBRANCH   5   6
ENDBRANCH   4   5
ENDBRANCH   3   4
ENDBRANCH   2   3
ENDBRANCH   1   2
BRANCH   1  13
ATOM     13  C   UNL     1      17.007  12.228  33.743  1.00  0.00     0.000 C 
BRANCH  13  14
ATOM     14  C   UNL     1      15.881  11.321  34.269  1.00  0.00     0.000 C 
BRANCH  14  15
ATOM     15  C   UNL     1      14.978  10.781  33.138  1.00  0.00     0.000 C 
BRANCH  15  16
ATOM     16  C   UNL     1      13.566  11.398  33.116  1.00  0.00     0.000 C 
BRANCH  16  17
ATOM     17  C   UNL     1      13.511  12.917  33.358  1.00  0.00     0.000 C 
BRANCH  17  18
ATOM     18  C   UNL     1      12.452  13.377  34.376  1.00  0.00     0.000 C 
BRANCH  18  19
ATOM     19  C   UNL     1      13.064  13.997  35.643  1.00  0.00     0.000 C 
BRANCH  19  20
ATOM     20  C   UNL     1      13.544  12.937  36.648  1.00  0.00     0.006 C 
BRANCH  20  21
ATOM     21  C   UNL     1      12.577  11.749  36.760  1.00  0.00     0.053 C 
BRANCH  21  22
ATOM     22  C   UNL     1      11.810  11.808  38.043  1.00  0.00     0.041 C 
ATOM     23  O   UNL     1      10.832  12.593  38.162  1.00  0.00    -0.550 OA
ATOM     24  O   UNL     1      12.169  10.991  39.107  1.00  0.00    -0.550 OA
ENDBRANCH  21  22
ENDBRANCH  20  21
ENDBRANCH  19  20
ENDBRANCH  18  19
ENDBRANCH  17  18
ENDBRANCH  16  17
ENDBRANCH  15  16
ENDBRANCH  14  15
ENDBRANCH  13  14
ENDBRANCH   1  13
TORSDOF 20
ENDMDL
