MODEL 1
REMARK VINA RESULT:    -4.279      0.000      0.000
REMARK INTER + INTRA:          -7.321
REMARK INTER:                  -6.531
REMARK INTRA:                  -0.790
REMARK UNBOUND:                -0.790
REMARK SMILES O=C([O-])CCCCCCCCC(=O)[O-]
REMARK SMILES IDX 7 1 6 2 5 3 4 4 2 5 1 6 3 7 8 8 9 9 10 10 11 11 12 12 13 13
REMARK SMILES IDX 14 14
REMARK H PARENT
REMARK Flexibility Score: inf
ROOT
ATOM      1  C   UNL     1      23.212   5.203  15.073  1.00  0.00     0.000 C 
ENDROOT
BRANCH   1   2
ATOM      2  C   UNL     1      24.009   3.904  14.903  1.00  0.00     0.000 C 
BRANCH   2   3
ATOM      3  C   UNL     1      24.972   4.000  13.714  1.00  0.00     0.006 C 
BRANCH   3   4
ATOM      4  C   UNL     1      25.854   2.751  13.620  1.00  0.00     0.053 C 
BRANCH   4   5
ATOM      5  C   UNL     1      26.151   2.426  12.190  1.00  0.00     0.041 C 
ATOM      6  O   UNL     1      25.588   1.447  11.634  1.00  0.00    -0.550 OA
ATOM      7  O   UNL     1      27.012   3.232  11.457  1.00  0.00    -0.550 OA
ENDBRANCH   4   5
ENDBRANCH   3   4
ENDBRANCH   2   3
ENDBRANCH   1   2
BRANCH   1   8
ATOM      8  C   UNL     1      22.826   5.795  13.713  1.00  0.00     0.000 C 
BRANCH   8   9
ATOM      9  C   UNL     1      23.132   7.299  13.662  1.00  0.00     0.000 C 
BRANCH   9  10
ATOM     10  C   UNL     1      23.606   7.854  15.015  1.00  0.00     0.006 C 
BRANCH  10  11
ATOM     11  C   UNL     1      24.992   8.506  14.934  1.00  0.00     0.053 C 
BRANCH  11  12
ATOM     12  C   UNL     1      26.063   7.462  14.986  1.00  0.00     0.041 C 
ATOM     13  O   UNL     1      26.340   6.893  16.073  1.00  0.00    -0.550 OA
ATOM     14  O   UNL     1      26.722   7.083  13.823  1.00  0.00    -0.550 OA
ENDBRANCH  11  12
ENDBRANCH  10  11
ENDBRANCH   9  10
ENDBRANCH   8   9
ENDBRANCH   1   8
TORSDOF 9
ENDMDL
MODEL 2
REMARK VINA RESULT:    -4.242      2.411      6.417
REMARK INTER + INTRA:          -7.264
REMARK INTER:                  -6.836
REMARK INTRA:                  -0.428
REMARK UNBOUND:                -0.790
REMARK SMILES O=C([O-])CCCCCCCCC(=O)[O-]
REMARK SMILES IDX 7 1 6 2 5 3 4 4 2 5 1 6 3 7 8 8 9 9 10 10 11 11 12 12 13 13
REMARK SMILES IDX 14 14
REMARK H PARENT
REMARK Flexibility Score: inf
ROOT
ATOM      1  C   UNL     1      23.294   5.885  14.142  1.00  0.00     0.000 C 
ENDROOT
BRANCH   1   2
ATOM      2  C   UNL     1      23.524   7.310  14.657  1.00  0.00     0.000 C 
BRANCH   2   3
ATOM      3  C   UNL     1      23.312   7.389  16.174  1.00  0.00     0.006 C 
BRANCH   3   4
ATOM      4  C   UNL     1      23.486   8.824  16.679  1.00  0.00     0.053 C 
BRANCH   4   5
ATOM      5  C   UNL     1      22.153   9.473  16.882  1.00  0.00     0.041 C 
ATOM      6  O   UNL     1      21.443   9.164  17.874  1.00  0.00    -0.550 OA
ATOM      7  O   UNL     1      21.716  10.455  16.001  1.00  0.00    -0.550 OA
ENDBRANCH   4   5
ENDBRANCH   3   4
ENDBRANCH   2   3
ENDBRANCH   1   2
BRANCH   1   8
ATOM      8  C   UNL     1      23.289   4.876  15.296  1.00  0.00     0.000 C 
BRANCH   8   9
ATOM      9  C   UNL     1      24.080   3.612  14.924  1.00  0.00     0.000 C 
BRANCH   9  10
ATOM     10  C   UNL     1      25.147   3.877  13.849  1.00  0.00     0.006 C 
BRANCH  10  11
ATOM     11  C   UNL     1      26.002   2.639  13.547  1.00  0.00     0.053 C 
BRANCH  11  12
ATOM     12  C   UNL     1      26.094   2.416  12.071  1.00  0.00     0.041 C 
ATOM     13  O   UNL     1      26.743   3.217  11.349  1.00  0.00    -0.550 OA
ATOM     14  O   UNL     1      25.503   1.297  11.498  1.00  0.00    -0.550 OA
ENDBRANCH  11  12
ENDBRANCH  10  11
ENDBRANCH   9  10
ENDBRANCH   8   9
ENDBRANCH   1   8
TORSDOF 9
ENDMDL
MODEL 3
REMARK VINA RESULT:    -4.163      3.338      6.842
REMARK INTER + INTRA:          -7.144
REMARK INTER:                  -6.624
REMARK INTRA:                  -0.519
REMARK UNBOUND:                -0.790
REMARK SMILES O=C([O-])CCCCCCCCC(=O)[O-]
REMARK SMILES IDX 7 1 6 2 5 3 4 4 2 5 1 6 3 7 8 8 9 9 10 10 11 11 12 12 13 13
REMARK SMILES IDX 14 14
REMARK H PARENT
REMARK Flexibility Score: inf
ROOT
ATOM      1  C   UNL     1      23.793   7.667  15.519  1.00  0.00     0.000 C 
ENDROOT
BRANCH   1   2
ATOM      2  C   UNL     1      22.905   8.732  16.173  1.00  0.00     0.000 C 
BRANCH   2   3
ATOM      3  C   UNL     1      22.721   8.453  17.669  1.00  0.00     0.006 C 
BRANCH   3   4
ATOM      4  C   UNL     1      21.371   8.980  18.164  1.00  0.00     0.053 C 
BRANCH   4   5
ATOM      5  C   UNL     1      21.334  10.474  18.093  1.00  0.00     0.041 C 
ATOM      6  O   UNL     1      22.178  11.159  18.729  1.00  0.00    -0.550 OA
ATOM      7  O   UNL     1      20.399  11.109  17.286  1.00  0.00    -0.550 OA
ENDBRANCH   4   5
ENDBRANCH   3   4
ENDBRANCH   2   3
ENDBRANCH   1   2
BRANCH   1   8
ATOM      8  C   UNL     1      23.268   7.290  14.129  1.00  0.00     0.000 C 
BRANCH   8   9
ATOM      9  C   UNL     1      22.928   5.794  14.057  1.00  0.00     0.000 C 
BRANCH   9  10
ATOM     10  C   UNL     1      23.526   4.994  15.226  1.00  0.00     0.006 C 
BRANCH  10  11
ATOM     11  C   UNL     1      24.130   3.656  14.779  1.00  0.00     0.053 C 
BRANCH  11  12
ATOM     12  C   UNL     1      25.220   3.885  13.780  1.00  0.00     0.041 C 
ATOM     13  O   UNL     1      25.287   3.176  12.743  1.00  0.00    -0.550 OA
ATOM     14  O   UNL     1      26.134   4.913  13.971  1.00  0.00    -0.550 OA
ENDBRANCH  11  12
ENDBRANCH  10  11
ENDBRANCH   9  10
ENDBRANCH   8   9
ENDBRANCH   1   8
TORSDOF 9
ENDMDL
MODEL 4
REMARK VINA RESULT:    -4.125      8.571      9.907
REMARK INTER + INTRA:          -7.086
REMARK INTER:                  -6.688
REMARK INTRA:                  -0.398
REMARK UNBOUND:                -0.790
REMARK SMILES O=C([O-])CCCCCCCCC(=O)[O-]
REMARK SMILES IDX 7 1 6 2 5 3 4 4 2 5 1 6 3 7 8 8 9 9 10 10 11 11 12 12 13 13
REMARK SMILES IDX 14 14
REMARK H PARENT
REMARK Flexibility Score: inf
ROOT
ATOM      1  C   UNL     1      23.335   5.539   6.811  1.00  0.00     0.000 C 
ENDROOT
BRANCH   1   2
ATOM      2  C   UNL     1      24.300   5.390   5.629  1.00  0.00     0.000 C 
BRANCH   2   3
ATOM      3  C   UNL     1      25.556   4.612   6.037  1.00  0.00     0.006 C 
BRANCH   3   4
ATOM      4  C   UNL     1      25.332   3.859   7.352  1.00  0.00     0.053 C 
BRANCH   4   5
ATOM      5  C   UNL     1      26.536   3.042   7.700  1.00  0.00     0.041 C 
ATOM      6  O   UNL     1      27.084   3.170   8.826  1.00  0.00    -0.550 OA
ATOM      7  O   UNL     1      27.025   2.104   6.799  1.00  0.00    -0.550 OA
ENDBRANCH   4   5
ENDBRANCH   3   4
ENDBRANCH   2   3
ENDBRANCH   1   2
BRANCH   1   8
ATOM      8  C   UNL     1      21.878   5.565   6.334  1.00  0.00     0.000 C 
BRANCH   8   9
ATOM      9  C   UNL     1      21.787   5.263   4.831  1.00  0.00     0.000 C 
BRANCH   9  10
ATOM     10  C   UNL     1      20.380   5.508   4.262  1.00  0.00     0.006 C 
BRANCH  10  11
ATOM     11  C   UNL     1      20.348   6.645   3.232  1.00  0.00     0.053 C 
BRANCH  11  12
ATOM     12  C   UNL     1      18.940   7.086   2.986  1.00  0.00     0.041 C 
ATOM     13  O   UNL     1      18.225   6.483   2.144  1.00  0.00    -0.550 OA
ATOM     14  O   UNL     1      18.401   8.134   3.721  1.00  0.00    -0.550 OA
ENDBRANCH  11  12
ENDBRANCH  10  11
ENDBRANCH   9  10
ENDBRANCH   8   9
ENDBRANCH   1   8
TORSDOF 9
ENDMDL
MODEL 5
REMARK VINA RESULT:    -4.113      2.382      2.727
REMARK INTER + INTRA:          -7.067
REMARK INTER:                  -6.552
REMARK INTRA:                  -0.514
REMARK UNBOUND:                -0.790
REMARK SMILES O=C([O-])CCCCCCCCC(=O)[O-]
REMARK SMILES IDX 7 1 6 2 5 3 4 4 2 5 1 6 3 7 8 8 9 9 10 10 11 11 12 12 13 13
REMARK SMILES IDX 14 14
REMARK H PARENT
REMARK Flexibility Score: inf
ROOT
ATOM      1  C   UNL     1      23.368   4.633  15.146  1.00  0.00     0.000 C 
ENDROOT
BRANCH   1   2
ATOM      2  C   UNL     1      24.313   3.503  14.722  1.00  0.00     0.000 C 
BRANCH   2   3
ATOM      3  C   UNL     1      25.057   3.863  13.431  1.00  0.00     0.006 C 
BRANCH   3   4
ATOM      4  C   UNL     1      25.737   2.630  12.827  1.00  0.00     0.053 C 
BRANCH   4   5
ATOM      5  C   UNL     1      27.224   2.743  12.942  1.00  0.00     0.041 C 
ATOM      6  O   UNL     1      27.951   1.729  12.772  1.00  0.00    -0.550 OA
ATOM      7  O   UNL     1      27.812   3.978  13.188  1.00  0.00    -0.550 OA
ENDBRANCH   4   5
ENDBRANCH   3   4
ENDBRANCH   2   3
ENDBRANCH   1   2
BRANCH   1   8
ATOM      8  C   UNL     1      23.195   5.659  14.021  1.00  0.00     0.000 C 
BRANCH   8   9
ATOM      9  C   UNL     1      23.274   7.093  14.567  1.00  0.00     0.000 C 
BRANCH   9  10
ATOM     10  C   UNL     1      23.841   7.152  15.995  1.00  0.00     0.006 C 
BRANCH  10  11
ATOM     11  C   UNL     1      23.883   8.580  16.555  1.00  0.00     0.053 C 
BRANCH  11  12
ATOM     12  C   UNL     1      22.521   9.005  17.004  1.00  0.00     0.041 C 
ATOM     13  O   UNL     1      21.928   8.370  17.914  1.00  0.00    -0.550 OA
ATOM     14  O   UNL     1      21.926  10.131  16.450  1.00  0.00    -0.550 OA
ENDBRANCH  11  12
ENDBRANCH  10  11
ENDBRANCH   9  10
ENDBRANCH   8   9
ENDBRANCH   1   8
TORSDOF 9
ENDMDL
MODEL 6
REMARK VINA RESULT:    -4.070     10.422     12.559
REMARK INTER + INTRA:          -7.002
REMARK INTER:                  -6.200
REMARK INTRA:                  -0.802
REMARK UNBOUND:                -0.790
REMARK SMILES O=C([O-])CCCCCCCCC(=O)[O-]
REMARK SMILES IDX 7 1 6 2 5 3 4 4 2 5 1 6 3 7 8 8 9 9 10 10 11 11 12 12 13 13
REMARK SMILES IDX 14 14
REMARK H PARENT
REMARK Flexibility Score: inf
ROOT
ATOM      1  C   UNL     1      18.342  10.065   9.574  1.00  0.00     0.000 C 
ENDROOT
BRANCH   1   2
ATOM      2  C   UNL     1      18.556  10.596  10.997  1.00  0.00     0.000 C 
BRANCH   2   3
ATOM      3  C   UNL     1      19.332  11.918  10.981  1.00  0.00     0.006 C 
BRANCH   3   4
ATOM      4  C   UNL     1      18.394  13.102  10.727  1.00  0.00     0.053 C 
BRANCH   4   5
ATOM      5  C   UNL     1      18.044  13.779  12.015  1.00  0.00     0.041 C 
ATOM      6  O   UNL     1      18.773  13.625  13.029  1.00  0.00    -0.550 OA
ATOM      7  O   UNL     1      16.940  14.619  12.082  1.00  0.00    -0.550 OA
ENDBRANCH   4   5
ENDBRANCH   3   4
ENDBRANCH   2   3
ENDBRANCH   1   2
BRANCH   1   8
ATOM      8  C   UNL     1      16.952   9.437   9.424  1.00  0.00     0.000 C 
BRANCH   8   9
ATOM      9  C   UNL     1      15.884  10.291  10.125  1.00  0.00     0.000 C 
BRANCH   9  10
ATOM     10  C   UNL     1      15.163  11.247   9.161  1.00  0.00     0.006 C 
BRANCH  10  11
ATOM     11  C   UNL     1      14.878  12.617   9.790  1.00  0.00     0.053 C 
BRANCH  11  12
ATOM     12  C   UNL     1      13.622  13.199   9.225  1.00  0.00     0.041 C 
ATOM     13  O   UNL     1      13.272  14.369   9.530  1.00  0.00    -0.550 OA
ATOM     14  O   UNL     1      12.860  12.467   8.323  1.00  0.00    -0.550 OA
ENDBRANCH  11  12
ENDBRANCH  10  11
ENDBRANCH   9  10
ENDBRANCH   8   9
ENDBRANCH   1   8
TORSDOF 9
ENDMDL
MODEL 7
REMARK VINA RESULT:    -4.027      9.343     11.800
REMARK INTER + INTRA:          -6.936
REMARK INTER:                  -6.391
REMARK INTRA:                  -0.545
REMARK UNBOUND:                -0.790
REMARK SMILES O=C([O-])CCCCCCCCC(=O)[O-]
REMARK SMILES IDX 7 1 6 2 5 3 4 4 2 5 1 6 3 7 8 8 9 9 10 10 11 11 12 12 13 13
REMARK SMILES IDX 14 14
REMARK H PARENT
REMARK Flexibility Score: inf
ROOT
ATOM      1  C   UNL     1      18.723  10.442  11.282  1.00  0.00     0.000 C 
ENDROOT
BRANCH   1   2
ATOM      2  C   UNL     1      19.481  11.767  11.424  1.00  0.00     0.000 C 
BRANCH   2   3
ATOM      3  C   UNL     1      18.752  12.900  10.693  1.00  0.00     0.006 C 
BRANCH   3   4
ATOM      4  C   UNL     1      17.793  13.634  11.635  1.00  0.00     0.053 C 
BRANCH   4   5
ATOM      5  C   UNL     1      16.444  13.776  11.002  1.00  0.00     0.041 C 
ATOM      6  O   UNL     1      15.814  14.862  11.093  1.00  0.00    -0.550 OA
ATOM      7  O   UNL     1      15.905  12.726  10.270  1.00  0.00    -0.550 OA
ENDBRANCH   4   5
ENDBRANCH   3   4
ENDBRANCH   2   3
ENDBRANCH   1   2
BRANCH   1   8
ATOM      8  C   UNL     1      18.404  10.144   9.813  1.00  0.00     0.000 C 
BRANCH   8   9
ATOM      9  C   UNL     1      17.007   9.521   9.669  1.00  0.00     0.000 C 
BRANCH   9  10
ATOM     10  C   UNL     1      16.830   8.762   8.344  1.00  0.00     0.006 C 
BRANCH  10  11
ATOM     11  C   UNL     1      18.164   8.497   7.632  1.00  0.00     0.053 C 
BRANCH  11  12
ATOM     12  C   UNL     1      17.948   7.648   6.420  1.00  0.00     0.041 C 
ATOM     13  O   UNL     1      18.524   6.534   6.317  1.00  0.00    -0.550 OA
ATOM     14  O   UNL     1      17.072   8.064   5.425  1.00  0.00    -0.550 OA
ENDBRANCH  11  12
ENDBRANCH  10  11
ENDBRANCH   9  10
ENDBRANCH   8   9
ENDBRANCH   1   8
TORSDOF 9
ENDMDL
MODEL 8
REMARK VINA RESULT:    -4.005      9.499     11.810
REMARK INTER + INTRA:          -6.902
REMARK INTER:                  -6.270
REMARK INTRA:                  -0.631
REMARK UNBOUND:                -0.790
REMARK SMILES O=C([O-])CCCCCCCCC(=O)[O-]
REMARK SMILES IDX 7 1 6 2 5 3 4 4 2 5 1 6 3 7 8 8 9 9 10 10 11 11 12 12 13 13
REMARK SMILES IDX 14 14
REMARK H PARENT
REMARK Flexibility Score: inf
ROOT
ATOM      1  C   UNL     1      15.905  10.589  10.007  1.00  0.00     0.000 C 
ENDROOT
BRANCH   1   2
ATOM      2  C   UNL     1      14.980  11.411   9.101  1.00  0.00     0.000 C 
BRANCH   2   3
ATOM      3  C   UNL     1      14.866  12.857   9.597  1.00  0.00     0.006 C 
BRANCH   3   4
ATOM      4  C   UNL     1      15.937  13.163  10.648  1.00  0.00     0.053 C 
BRANCH   4   5
ATOM      5  C   UNL     1      15.779  14.558  11.166  1.00  0.00     0.041 C 
ATOM      6  O   UNL     1      14.787  15.253  10.822  1.00  0.00    -0.550 OA
ATOM      7  O   UNL     1      16.701  15.074  12.068  1.00  0.00    -0.550 OA
ENDBRANCH   4   5
ENDBRANCH   3   4
ENDBRANCH   2   3
ENDBRANCH   1   2
BRANCH   1   8
ATOM      8  C   UNL     1      16.593   9.468   9.220  1.00  0.00     0.000 C 
BRANCH   8   9
ATOM      9  C   UNL     1      18.121   9.594   9.305  1.00  0.00     0.000 C 
BRANCH   9  10
ATOM     10  C   UNL     1      18.570  10.803  10.142  1.00  0.00     0.006 C 
BRANCH  10  11
ATOM     11  C   UNL     1      19.087  10.402  11.530  1.00  0.00     0.053 C 
BRANCH  11  12
ATOM     12  C   UNL     1      19.713  11.577  12.212  1.00  0.00     0.041 C 
ATOM     13  O   UNL     1      20.680  11.410  13.001  1.00  0.00    -0.550 OA
ATOM     14  O   UNL     1      19.261  12.862  11.941  1.00  0.00    -0.550 OA
ENDBRANCH  11  12
ENDBRANCH  10  11
ENDBRANCH   9  10
ENDBRANCH   8   9
ENDBRANCH   1   8
TORSDOF 9
ENDMDL
MODEL 9
REMARK VINA RESULT:    -4.000      1.768      5.641
REMARK INTER + INTRA:          -6.895
REMARK INTER:                  -6.315
REMARK INTRA:                  -0.581
REMARK UNBOUND:                -0.790
REMARK SMILES O=C([O-])CCCCCCCCC(=O)[O-]
REMARK SMILES IDX 7 1 6 2 5 3 4 4 2 5 1 6 3 7 8 8 9 9 10 10 11 11 12 12 13 13
REMARK SMILES IDX 14 14
REMARK H PARENT
REMARK Flexibility Score: inf
ROOT
ATOM      1  C   UNL     1      23.211   5.205  14.957  1.00  0.00     0.000 C 
ENDROOT
BRANCH   1   2
ATOM      2  C   UNL     1      22.934   5.831  13.585  1.00  0.00     0.000 C 
BRANCH   2   3
ATOM      3  C   UNL     1      22.972   7.362  13.659  1.00  0.00     0.006 C 
BRANCH   3   4
ATOM      4  C   UNL     1      24.384   7.861  13.980  1.00  0.00     0.053 C 
BRANCH   4   5
ATOM      5  C   UNL     1      24.384   8.654  15.249  1.00  0.00     0.041 C 
ATOM      6  O   UNL     1      25.407   9.304  15.590  1.00  0.00    -0.550 OA
ATOM      7  O   UNL     1      23.238   8.714  16.032  1.00  0.00    -0.550 OA
ENDBRANCH   4   5
ENDBRANCH   3   4
ENDBRANCH   2   3
ENDBRANCH   1   2
BRANCH   1   8
ATOM      8  C   UNL     1      24.126   3.982  14.830  1.00  0.00     0.000 C 
BRANCH   8   9
ATOM      9  C   UNL     1      25.236   4.230  13.797  1.00  0.00     0.000 C 
BRANCH   9  10
ATOM     10  C   UNL     1      25.587   2.969  12.991  1.00  0.00     0.006 C 
BRANCH  10  11
ATOM     11  C   UNL     1      26.493   2.005  13.766  1.00  0.00     0.053 C 
BRANCH  11  12
ATOM     12  C   UNL     1      27.916   2.162  13.331  1.00  0.00     0.041 C 
ATOM     13  O   UNL     1      28.183   2.704  12.227  1.00  0.00    -0.550 OA
ATOM     14  O   UNL     1      28.948   1.755  14.166  1.00  0.00    -0.550 OA
ENDBRANCH  11  12
ENDBRANCH  10  11
ENDBRANCH   9  10
ENDBRANCH   8   9
ENDBRANCH   1   8
TORSDOF 9
ENDMDL
