MODEL 1
REMARK VINA RESULT:    -6.498      0.000      0.000
REMARK INTER + INTRA:          -7.068
REMARK INTER:                  -7.068
REMARK INTRA:                   0.000
REMARK UNBOUND:                 0.000
REMARK SMILES Cc1cc(O)c2c(c1)C(=O)c1cc(O)cc(O)c1C2=O
REMARK SMILES IDX 1 1 2 2 8 3 7 4 6 5 4 6 3 7 19 8 20 9 18 10 11 11 9 12 10 13
REMARK SMILES IDX 12 14 13 15 15 16 16 17 5 18 17 20 14 22
REMARK H PARENT 5 19 17 21 14 23
REMARK Flexibility Score: inf
ROOT
ATOM      1  C   UNL     1      20.083  48.247   0.624  1.00  0.00     0.044 C 
ATOM      2  C   UNL     1      21.287  49.057   1.002  1.00  0.00    -0.047 A 
ATOM      3  C   UNL     1      21.807  50.005   0.114  1.00  0.00     0.016 A 
ATOM      4  C   UNL     1      22.918  50.788   0.470  1.00  0.00     0.038 A 
ATOM      5  C   UNL     1      23.518  50.620   1.738  1.00  0.00     0.076 A 
ATOM      6  C   UNL     1      22.936  49.719   2.665  1.00  0.00     0.127 A 
ATOM      7  C   UNL     1      21.843  48.936   2.280  1.00  0.00     0.050 A 
ATOM      8  C   UNL     1      24.777  51.358   2.021  1.00  0.00     0.201 C 
ATOM      9  O   UNL     1      25.627  50.865   2.809  1.00  0.00    -0.288 OA
ATOM     10  C   UNL     1      25.112  52.575   1.238  1.00  0.00     0.076 A 
ATOM     11  C   UNL     1      24.507  52.740  -0.028  1.00  0.00     0.041 A 
ATOM     12  C   UNL     1      23.457  51.795  -0.475  1.00  0.00     0.194 C 
ATOM     13  O   UNL     1      23.004  51.862  -1.651  1.00  0.00    -0.289 OA
ATOM     14  C   UNL     1      24.901  53.805  -0.858  1.00  0.00     0.059 A 
ATOM     15  C   UNL     1      25.876  54.711  -0.432  1.00  0.00     0.120 A 
ATOM     16  C   UNL     1      26.446  54.574   0.832  1.00  0.00     0.093 A 
ATOM     17  C   UNL     1      26.057  53.535   1.684  1.00  0.00     0.131 A 
ENDROOT
BRANCH   6  18
ATOM     18  O   UNL     1      23.384  49.596   3.983  1.00  0.00    -0.507 OA
ATOM     19  H   UNL     1      22.997  48.939   4.646  1.00  0.00     0.293 HD
ENDBRANCH   6  18
BRANCH  17  20
ATOM     20  O   UNL     1      26.604  53.516   2.970  1.00  0.00    -0.507 OA
ATOM     21  H   UNL     1      27.597  53.524   3.154  1.00  0.00     0.293 HD
ENDBRANCH  17  20
BRANCH  15  22
ATOM     22  O   UNL     1      26.278  55.760  -1.256  1.00  0.00    -0.508 OA
ATOM     23  H   UNL     1      26.845  55.599  -2.081  1.00  0.00     0.293 HD
ENDBRANCH  15  22
TORSDOF 3
ENDMDL
MODEL 2
REMARK VINA RESULT:    -5.865      1.574      5.472
REMARK INTER + INTRA:          -6.380
REMARK INTER:                  -6.380
REMARK INTRA:                   0.000
REMARK UNBOUND:                 0.000
REMARK SMILES Cc1cc(O)c2c(c1)C(=O)c1cc(O)cc(O)c1C2=O
REMARK SMILES IDX 1 1 2 2 8 3 7 4 6 5 4 6 3 7 19 8 20 9 18 10 11 11 9 12 10 13
REMARK SMILES IDX 12 14 13 15 15 16 16 17 5 18 17 20 14 22
REMARK H PARENT 5 19 17 21 14 23
REMARK Flexibility Score: inf
ROOT
ATOM      1  C   UNL     1      26.656  55.648  -0.168  1.00  0.00     0.044 C 
ATOM      2  C   UNL     1      25.982  54.394   0.302  1.00  0.00    -0.047 A 
ATOM      3  C   UNL     1      25.027  53.763  -0.502  1.00  0.00     0.016 A 
ATOM      4  C   UNL     1      24.410  52.572  -0.083  1.00  0.00     0.038 A 
ATOM      5  C   UNL     1      24.756  52.002   1.163  1.00  0.00     0.076 A 
ATOM      6  C   UNL     1      25.785  52.600   1.934  1.00  0.00     0.127 A 
ATOM      7  C   UNL     1      26.370  53.795   1.506  1.00  0.00     0.050 A 
ATOM      8  C   UNL     1      23.979  50.828   1.638  1.00  0.00     0.201 C 
ATOM      9  O   UNL     1      23.822  50.640   2.873  1.00  0.00    -0.288 OA
ATOM     10  C   UNL     1      23.236  49.990   0.662  1.00  0.00     0.076 A 
ATOM     11  C   UNL     1      22.894  50.563  -0.584  1.00  0.00     0.041 A 
ATOM     12  C   UNL     1      23.404  51.907  -0.945  1.00  0.00     0.194 C 
ATOM     13  O   UNL     1      23.002  52.474  -1.998  1.00  0.00    -0.289 OA
ATOM     14  C   UNL     1      22.075  49.852  -1.479  1.00  0.00     0.059 A 
ATOM     15  C   UNL     1      21.608  48.577  -1.152  1.00  0.00     0.120 A 
ATOM     16  C   UNL     1      21.976  47.993   0.059  1.00  0.00     0.093 A 
ATOM     17  C   UNL     1      22.807  48.670   0.957  1.00  0.00     0.131 A 
ENDROOT
BRANCH   6  18
ATOM     18  O   UNL     1      26.281  52.024   3.107  1.00  0.00    -0.507 OA
ATOM     19  H   UNL     1      27.249  51.765   3.236  1.00  0.00     0.293 HD
ENDBRANCH   6  18
BRANCH  17  20
ATOM     20  O   UNL     1      23.207  47.985   2.108  1.00  0.00    -0.507 OA
ATOM     21  H   UNL     1      23.079  48.343   3.043  1.00  0.00     0.293 HD
ENDBRANCH  17  20
BRANCH  15  22
ATOM     22  O   UNL     1      20.786  47.875  -2.030  1.00  0.00    -0.508 OA
ATOM     23  H   UNL     1      20.604  48.211  -2.969  1.00  0.00     0.293 HD
ENDBRANCH  15  22
TORSDOF 3
ENDMDL
MODEL 3
REMARK VINA RESULT:    -5.723      2.271      3.569
REMARK INTER + INTRA:          -6.225
REMARK INTER:                  -6.225
REMARK INTRA:                   0.000
REMARK UNBOUND:                 0.000
REMARK SMILES Cc1cc(O)c2c(c1)C(=O)c1cc(O)cc(O)c1C2=O
REMARK SMILES IDX 1 1 2 2 8 3 7 4 6 5 4 6 3 7 19 8 20 9 18 10 11 11 9 12 10 13
REMARK SMILES IDX 12 14 13 15 15 16 16 17 5 18 17 20 14 22
REMARK H PARENT 5 19 17 21 14 23
REMARK Flexibility Score: inf
ROOT
ATOM      1  C   UNL     1      18.505  48.202   5.747  1.00  0.00     0.044 C 
ATOM      2  C   UNL     1      19.778  48.723   5.149  1.00  0.00    -0.047 A 
ATOM      3  C   UNL     1      19.854  48.992   3.777  1.00  0.00     0.016 A 
ATOM      4  C   UNL     1      21.033  49.507   3.212  1.00  0.00     0.038 A 
ATOM      5  C   UNL     1      22.155  49.759   4.034  1.00  0.00     0.076 A 
ATOM      6  C   UNL     1      22.043  49.564   5.434  1.00  0.00     0.127 A 
ATOM      7  C   UNL     1      20.867  49.031   5.970  1.00  0.00     0.050 A 
ATOM      8  C   UNL     1      23.427  50.161   3.380  1.00  0.00     0.201 C 
ATOM      9  O   UNL     1      24.528  49.853   3.909  1.00  0.00    -0.288 OA
ATOM     10  C   UNL     1      23.402  50.757   2.019  1.00  0.00     0.076 A 
ATOM     11  C   UNL     1      22.277  50.506   1.202  1.00  0.00     0.041 A 
ATOM     12  C   UNL     1      21.102  49.796   1.760  1.00  0.00     0.194 C 
ATOM     13  O   UNL     1      20.149  49.459   1.004  1.00  0.00    -0.289 OA
ATOM     14  C   UNL     1      22.275  50.936  -0.137  1.00  0.00     0.059 A 
ATOM     15  C   UNL     1      23.373  51.623  -0.661  1.00  0.00     0.120 A 
ATOM     16  C   UNL     1      24.467  51.908   0.154  1.00  0.00     0.093 A 
ATOM     17  C   UNL     1      24.485  51.509   1.494  1.00  0.00     0.131 A 
ENDROOT
BRANCH   6  18
ATOM     18  O   UNL     1      23.057  49.918   6.329  1.00  0.00    -0.507 OA
ATOM     19  H   UNL     1      22.882  50.273   7.258  1.00  0.00     0.293 HD
ENDBRANCH   6  18
BRANCH  17  20
ATOM     20  O   UNL     1      25.575  51.910   2.272  1.00  0.00    -0.507 OA
ATOM     21  H   UNL     1      26.416  51.362   2.378  1.00  0.00     0.293 HD
ENDBRANCH  17  20
BRANCH  15  22
ATOM     22  O   UNL     1      23.380  52.040  -1.990  1.00  0.00    -0.508 OA
ATOM     23  H   UNL     1      22.563  52.458  -2.419  1.00  0.00     0.293 HD
ENDBRANCH  15  22
TORSDOF 3
ENDMDL
MODEL 4
REMARK VINA RESULT:    -5.491      2.586      5.255
REMARK INTER + INTRA:          -5.972
REMARK INTER:                  -5.972
REMARK INTRA:                   0.000
REMARK UNBOUND:                 0.000
REMARK SMILES Cc1cc(O)c2c(c1)C(=O)c1cc(O)cc(O)c1C2=O
REMARK SMILES IDX 1 1 2 2 8 3 7 4 6 5 4 6 3 7 19 8 20 9 18 10 11 11 9 12 10 13
REMARK SMILES IDX 12 14 13 15 15 16 16 17 5 18 17 20 14 22
REMARK H PARENT 5 19 17 21 14 23
REMARK Flexibility Score: inf
ROOT
ATOM      1  C   UNL     1      22.900  51.640  -1.634  1.00  0.00     0.044 C 
ATOM      2  C   UNL     1      23.837  51.916  -0.495  1.00  0.00    -0.047 A 
ATOM      3  C   UNL     1      23.856  51.073   0.622  1.00  0.00     0.016 A 
ATOM      4  C   UNL     1      24.749  51.307   1.681  1.00  0.00     0.038 A 
ATOM      5  C   UNL     1      25.639  52.403   1.621  1.00  0.00     0.076 A 
ATOM      6  C   UNL     1      25.672  53.203   0.450  1.00  0.00     0.127 A 
ATOM      7  C   UNL     1      24.760  52.963  -0.582  1.00  0.00     0.050 A 
ATOM      8  C   UNL     1      26.461  52.705   2.821  1.00  0.00     0.201 C 
ATOM      9  O   UNL     1      26.803  53.893   3.062  1.00  0.00    -0.288 OA
ATOM     10  C   UNL     1      26.719  51.643   3.826  1.00  0.00     0.076 A 
ATOM     11  C   UNL     1      25.829  50.547   3.881  1.00  0.00     0.041 A 
ATOM     12  C   UNL     1      24.767  50.404   2.857  1.00  0.00     0.194 C 
ATOM     13  O   UNL     1      23.894  49.501   2.972  1.00  0.00    -0.289 OA
ATOM     14  C   UNL     1      25.958  49.592   4.905  1.00  0.00     0.059 A 
ATOM     15  C   UNL     1      26.970  49.711   5.861  1.00  0.00     0.120 A 
ATOM     16  C   UNL     1      27.874  50.768   5.786  1.00  0.00     0.093 A 
ATOM     17  C   UNL     1      27.780  51.720   4.766  1.00  0.00     0.131 A 
ENDROOT
BRANCH   6  18
ATOM     18  O   UNL     1      26.614  54.217   0.255  1.00  0.00    -0.507 OA
ATOM     19  H   UNL     1      26.399  55.101  -0.184  1.00  0.00     0.293 HD
ENDBRANCH   6  18
BRANCH  17  20
ATOM     20  O   UNL     1      28.776  52.699   4.702  1.00  0.00    -0.507 OA
ATOM     21  H   UNL     1      29.444  52.767   3.949  1.00  0.00     0.293 HD
ENDBRANCH  17  20
BRANCH  15  22
ATOM     22  O   UNL     1      27.093  48.774   6.885  1.00  0.00    -0.508 OA
ATOM     23  H   UNL     1      26.695  48.936   7.803  1.00  0.00     0.293 HD
ENDBRANCH  15  22
TORSDOF 3
ENDMDL
MODEL 5
REMARK VINA RESULT:    -5.473      2.332      4.408
REMARK INTER + INTRA:          -5.953
REMARK INTER:                  -5.953
REMARK INTRA:                   0.000
REMARK UNBOUND:                 0.000
REMARK SMILES Cc1cc(O)c2c(c1)C(=O)c1cc(O)cc(O)c1C2=O
REMARK SMILES IDX 1 1 2 2 8 3 7 4 6 5 4 6 3 7 19 8 20 9 18 10 11 11 9 12 10 13
REMARK SMILES IDX 12 14 13 15 15 16 16 17 5 18 17 20 14 22
REMARK H PARENT 5 19 17 21 14 23
REMARK Flexibility Score: inf
ROOT
ATOM      1  C   UNL     1      27.621  49.597   6.521  1.00  0.00     0.044 C 
ATOM      2  C   UNL     1      26.890  50.029   5.285  1.00  0.00    -0.047 A 
ATOM      3  C   UNL     1      27.118  51.298   4.740  1.00  0.00     0.016 A 
ATOM      4  C   UNL     1      26.459  51.702   3.566  1.00  0.00     0.038 A 
ATOM      5  C   UNL     1      25.558  50.822   2.927  1.00  0.00     0.076 A 
ATOM      6  C   UNL     1      25.396  49.508   3.437  1.00  0.00     0.127 A 
ATOM      7  C   UNL     1      26.046  49.136   4.617  1.00  0.00     0.050 A 
ATOM      8  C   UNL     1      24.771  51.336   1.777  1.00  0.00     0.201 C 
ATOM      9  O   UNL     1      23.623  50.871   1.545  1.00  0.00    -0.288 OA
ATOM     10  C   UNL     1      25.255  52.520   1.021  1.00  0.00     0.076 A 
ATOM     11  C   UNL     1      26.159  53.397   1.662  1.00  0.00     0.041 A 
ATOM     12  C   UNL     1      26.712  53.045   2.992  1.00  0.00     0.194 C 
ATOM     13  O   UNL     1      27.419  53.879   3.623  1.00  0.00    -0.289 OA
ATOM     14  C   UNL     1      26.534  54.597   1.034  1.00  0.00     0.059 A 
ATOM     15  C   UNL     1      26.030  54.923  -0.228  1.00  0.00     0.120 A 
ATOM     16  C   UNL     1      25.170  54.042  -0.881  1.00  0.00     0.093 A 
ATOM     17  C   UNL     1      24.798  52.832  -0.286  1.00  0.00     0.131 A 
ENDROOT
BRANCH   6  18
ATOM     18  O   UNL     1      24.632  48.535   2.787  1.00  0.00    -0.507 OA
ATOM     19  H   UNL     1      24.177  47.770   3.266  1.00  0.00     0.293 HD
ENDBRANCH   6  18
BRANCH  17  20
ATOM     20  O   UNL     1      24.008  51.960  -1.039  1.00  0.00    -0.507 OA
ATOM     21  H   UNL     1      23.531  52.229  -1.887  1.00  0.00     0.293 HD
ENDBRANCH  17  20
BRANCH  15  22
ATOM     22  O   UNL     1      26.389  56.118  -0.848  1.00  0.00    -0.508 OA
ATOM     23  H   UNL     1      27.221  56.187  -1.423  1.00  0.00     0.293 HD
ENDBRANCH  15  22
TORSDOF 3
ENDMDL
MODEL 6
REMARK VINA RESULT:    -5.254      2.737      7.065
REMARK INTER + INTRA:          -5.715
REMARK INTER:                  -5.715
REMARK INTRA:                   0.000
REMARK UNBOUND:                 0.000
REMARK SMILES Cc1cc(O)c2c(c1)C(=O)c1cc(O)cc(O)c1C2=O
REMARK SMILES IDX 1 1 2 2 8 3 7 4 6 5 4 6 3 7 19 8 20 9 18 10 11 11 9 12 10 13
REMARK SMILES IDX 12 14 13 15 15 16 16 17 5 18 17 20 14 22
REMARK H PARENT 5 19 17 21 14 23
REMARK Flexibility Score: inf
ROOT
ATOM      1  C   UNL     1      25.338  52.548   0.071  1.00  0.00     0.044 C 
ATOM      2  C   UNL     1      24.146  51.637   0.106  1.00  0.00    -0.047 A 
ATOM      3  C   UNL     1      23.544  51.312   1.326  1.00  0.00     0.016 A 
ATOM      4  C   UNL     1      22.410  50.482   1.367  1.00  0.00     0.038 A 
ATOM      5  C   UNL     1      21.870  49.970   0.166  1.00  0.00     0.076 A 
ATOM      6  C   UNL     1      22.435  50.372  -1.072  1.00  0.00     0.127 A 
ATOM      7  C   UNL     1      23.574  51.181  -1.086  1.00  0.00     0.050 A 
ATOM      8  C   UNL     1      20.766  48.980   0.259  1.00  0.00     0.201 C 
ATOM      9  O   UNL     1      20.637  48.101  -0.634  1.00  0.00    -0.288 OA
ATOM     10  C   UNL     1      19.937  48.911   1.489  1.00  0.00     0.076 A 
ATOM     11  C   UNL     1      20.479  49.428   2.688  1.00  0.00     0.041 A 
ATOM     12  C   UNL     1      21.774  50.148   2.664  1.00  0.00     0.194 C 
ATOM     13  O   UNL     1      22.323  50.500   3.744  1.00  0.00    -0.289 OA
ATOM     14  C   UNL     1      19.785  49.259   3.899  1.00  0.00     0.059 A 
ATOM     15  C   UNL     1      18.555  48.598   3.924  1.00  0.00     0.120 A 
ATOM     16  C   UNL     1      17.998  48.123   2.738  1.00  0.00     0.093 A 
ATOM     17  C   UNL     1      18.659  48.296   1.517  1.00  0.00     0.131 A 
ENDROOT
BRANCH   6  18
ATOM     18  O   UNL     1      21.877  50.022  -2.305  1.00  0.00    -0.507 OA
ATOM     19  H   UNL     1      21.048  49.452  -2.401  1.00  0.00     0.293 HD
ENDBRANCH   6  18
BRANCH  17  20
ATOM     20  O   UNL     1      17.997  47.876   0.360  1.00  0.00    -0.507 OA
ATOM     21  H   UNL     1      17.815  48.479  -0.429  1.00  0.00     0.293 HD
ENDBRANCH  17  20
BRANCH  15  22
ATOM     22  O   UNL     1      17.870  48.418   5.123  1.00  0.00    -0.508 OA
ATOM     23  H   UNL     1      16.894  48.674   5.220  1.00  0.00     0.293 HD
ENDBRANCH  15  22
TORSDOF 3
ENDMDL
MODEL 7
REMARK VINA RESULT:    -5.101      2.002      4.983
REMARK INTER + INTRA:          -5.548
REMARK INTER:                  -5.548
REMARK INTRA:                   0.000
REMARK UNBOUND:                 0.000
REMARK SMILES Cc1cc(O)c2c(c1)C(=O)c1cc(O)cc(O)c1C2=O
REMARK SMILES IDX 1 1 2 2 8 3 7 4 6 5 4 6 3 7 19 8 20 9 18 10 11 11 9 12 10 13
REMARK SMILES IDX 12 14 13 15 15 16 16 17 5 18 17 20 14 22
REMARK H PARENT 5 19 17 21 14 23
REMARK Flexibility Score: inf
ROOT
ATOM      1  C   UNL     1      27.399  53.471   3.503  1.00  0.00     0.044 C 
ATOM      2  C   UNL     1      26.369  52.571   2.887  1.00  0.00    -0.047 A 
ATOM      3  C   UNL     1      25.817  52.884   1.639  1.00  0.00     0.016 A 
ATOM      4  C   UNL     1      24.872  52.033   1.041  1.00  0.00     0.038 A 
ATOM      5  C   UNL     1      24.474  50.850   1.701  1.00  0.00     0.076 A 
ATOM      6  C   UNL     1      25.099  50.497   2.924  1.00  0.00     0.127 A 
ATOM      7  C   UNL     1      26.021  51.369   3.510  1.00  0.00     0.050 A 
ATOM      8  C   UNL     1      23.367  50.054   1.109  1.00  0.00     0.201 C 
ATOM      9  O   UNL     1      22.609  49.382   1.857  1.00  0.00    -0.288 OA
ATOM     10  C   UNL     1      23.042  50.200  -0.333  1.00  0.00     0.076 A 
ATOM     11  C   UNL     1      23.445  51.384  -0.991  1.00  0.00     0.041 A 
ATOM     12  C   UNL     1      24.298  52.369  -0.284  1.00  0.00     0.194 C 
ATOM     13  O   UNL     1      24.556  53.482  -0.820  1.00  0.00    -0.289 OA
ATOM     14  C   UNL     1      23.039  51.621  -2.317  1.00  0.00     0.059 A 
ATOM     15  C   UNL     1      22.252  50.686  -2.993  1.00  0.00     0.120 A 
ATOM     16  C   UNL     1      21.887  49.499  -2.362  1.00  0.00     0.093 A 
ATOM     17  C   UNL     1      22.294  49.230  -1.051  1.00  0.00     0.131 A 
ENDROOT
BRANCH   6  18
ATOM     18  O   UNL     1      24.862  49.279   3.569  1.00  0.00    -0.507 OA
ATOM     19  H   UNL     1      24.789  48.396   3.084  1.00  0.00     0.293 HD
ENDBRANCH   6  18
BRANCH  17  20
ATOM     20  O   UNL     1      21.967  47.981  -0.516  1.00  0.00    -0.507 OA
ATOM     21  H   UNL     1      22.654  47.312  -0.201  1.00  0.00     0.293 HD
ENDBRANCH  17  20
BRANCH  15  22
ATOM     22  O   UNL     1      21.837  50.922  -4.302  1.00  0.00    -0.508 OA
ATOM     23  H   UNL     1      20.930  50.615  -4.635  1.00  0.00     0.293 HD
ENDBRANCH  15  22
TORSDOF 3
ENDMDL
MODEL 8
REMARK VINA RESULT:    -5.038      2.529      5.461
REMARK INTER + INTRA:          -5.480
REMARK INTER:                  -5.480
REMARK INTRA:                   0.000
REMARK UNBOUND:                 0.000
REMARK SMILES Cc1cc(O)c2c(c1)C(=O)c1cc(O)cc(O)c1C2=O
REMARK SMILES IDX 1 1 2 2 8 3 7 4 6 5 4 6 3 7 19 8 20 9 18 10 11 11 9 12 10 13
REMARK SMILES IDX 12 14 13 15 15 16 16 17 5 18 17 20 14 22
REMARK H PARENT 5 19 17 21 14 23
REMARK Flexibility Score: inf
ROOT
ATOM      1  C   UNL     1      21.787  49.624  -4.058  1.00  0.00     0.044 C 
ATOM      2  C   UNL     1      22.178  49.933  -2.643  1.00  0.00    -0.047 A 
ATOM      3  C   UNL     1      21.453  49.389  -1.577  1.00  0.00     0.016 A 
ATOM      4  C   UNL     1      21.829  49.649  -0.248  1.00  0.00     0.038 A 
ATOM      5  C   UNL     1      22.950  50.466   0.018  1.00  0.00     0.076 A 
ATOM      6  C   UNL     1      23.730  50.945  -1.066  1.00  0.00     0.127 A 
ATOM      7  C   UNL     1      23.324  50.690  -2.379  1.00  0.00     0.050 A 
ATOM      8  C   UNL     1      23.228  50.839   1.429  1.00  0.00     0.201 C 
ATOM      9  O   UNL     1      23.784  51.939   1.689  1.00  0.00    -0.288 OA
ATOM     10  C   UNL     1      22.684  50.007   2.534  1.00  0.00     0.076 A 
ATOM     11  C   UNL     1      21.565  49.188   2.263  1.00  0.00     0.041 A 
ATOM     12  C   UNL     1      21.059  49.062   0.875  1.00  0.00     0.194 C 
ATOM     13  O   UNL     1      19.989  48.435   0.646  1.00  0.00    -0.289 OA
ATOM     14  C   UNL     1      20.938  48.492   3.311  1.00  0.00     0.059 A 
ATOM     15  C   UNL     1      21.422  48.592   4.617  1.00  0.00     0.120 A 
ATOM     16  C   UNL     1      22.551  49.366   4.881  1.00  0.00     0.093 A 
ATOM     17  C   UNL     1      23.205  50.052   3.853  1.00  0.00     0.131 A 
ENDROOT
BRANCH   6  18
ATOM     18  O   UNL     1      24.928  51.642  -0.885  1.00  0.00    -0.507 OA
ATOM     19  H   UNL     1      25.426  51.676  -0.006  1.00  0.00     0.293 HD
ENDBRANCH   6  18
BRANCH  17  20
ATOM     20  O   UNL     1      24.381  50.733   4.178  1.00  0.00    -0.507 OA
ATOM     21  H   UNL     1      24.949  50.513   4.983  1.00  0.00     0.293 HD
ENDBRANCH  17  20
BRANCH  15  22
ATOM     22  O   UNL     1      20.796  47.913   5.661  1.00  0.00    -0.508 OA
ATOM     23  H   UNL     1      20.788  46.901   5.705  1.00  0.00     0.293 HD
ENDBRANCH  15  22
TORSDOF 3
ENDMDL
MODEL 9
REMARK VINA RESULT:    -5.036      3.533      4.799
REMARK INTER + INTRA:          -5.477
REMARK INTER:                  -5.477
REMARK INTRA:                   0.000
REMARK UNBOUND:                 0.000
REMARK SMILES Cc1cc(O)c2c(c1)C(=O)c1cc(O)cc(O)c1C2=O
REMARK SMILES IDX 1 1 2 2 8 3 7 4 6 5 4 6 3 7 19 8 20 9 18 10 11 11 9 12 10 13
REMARK SMILES IDX 12 14 13 15 15 16 16 17 5 18 17 20 14 22
REMARK H PARENT 5 19 17 21 14 23
REMARK Flexibility Score: inf
ROOT
ATOM      1  C   UNL     1      19.603  49.680   1.935  1.00  0.00     0.044 C 
ATOM      2  C   UNL     1      20.657  49.671   3.002  1.00  0.00    -0.047 A 
ATOM      3  C   UNL     1      21.978  50.012   2.691  1.00  0.00     0.016 A 
ATOM      4  C   UNL     1      22.966  50.033   3.690  1.00  0.00     0.038 A 
ATOM      5  C   UNL     1      22.627  49.709   5.022  1.00  0.00     0.076 A 
ATOM      6  C   UNL     1      21.271  49.447   5.346  1.00  0.00     0.127 A 
ATOM      7  C   UNL     1      20.309  49.411   4.332  1.00  0.00     0.050 A 
ATOM      8  C   UNL     1      23.724  49.598   6.018  1.00  0.00     0.201 C 
ATOM      9  O   UNL     1      23.609  48.805   6.991  1.00  0.00    -0.288 OA
ATOM     10  C   UNL     1      25.022  50.276   5.767  1.00  0.00     0.076 A 
ATOM     11  C   UNL     1      25.356  50.601   4.433  1.00  0.00     0.041 A 
ATOM     12  C   UNL     1      24.362  50.403   3.352  1.00  0.00     0.194 C 
ATOM     13  O   UNL     1      24.696  50.573   2.147  1.00  0.00    -0.289 OA
ATOM     14  C   UNL     1      26.630  51.118   4.138  1.00  0.00     0.059 A 
ATOM     15  C   UNL     1      27.564  51.325   5.156  1.00  0.00     0.120 A 
ATOM     16  C   UNL     1      27.223  51.043   6.478  1.00  0.00     0.093 A 
ATOM     17  C   UNL     1      25.956  50.548   6.800  1.00  0.00     0.131 A 
ENDROOT
BRANCH   6  18
ATOM     18  O   UNL     1      20.832  49.254   6.659  1.00  0.00    -0.507 OA
ATOM     19  H   UNL     1      20.486  48.371   7.007  1.00  0.00     0.293 HD
ENDBRANCH   6  18
BRANCH  17  20
ATOM     20  O   UNL     1      25.655  50.376   8.154  1.00  0.00    -0.507 OA
ATOM     21  H   UNL     1      26.356  50.236   8.868  1.00  0.00     0.293 HD
ENDBRANCH  17  20
BRANCH  15  22
ATOM     22  O   UNL     1      28.832  51.824   4.866  1.00  0.00    -0.508 OA
ATOM     23  H   UNL     1      29.615  51.679   5.493  1.00  0.00     0.293 HD
ENDBRANCH  15  22
TORSDOF 3
ENDMDL
