MODEL 1
REMARK VINA RESULT:    -2.349      0.000      0.000
REMARK INTER + INTRA:          -4.811
REMARK INTER:                  -4.547
REMARK INTRA:                  -0.264
REMARK UNBOUND:                -0.264
REMARK SMILES CCCCCCCCCCCCCCCCCC(=O)[O-]
REMARK SMILES IDX 10 1 11 2 12 3 13 4 14 5 15 6 16 7 17 8 18 9 19 10 20 11
REMARK SMILES IDX 9 12 8 13 7 14 6 15 5 16 4 17 3 18 2 19 1 20
REMARK H PARENT
REMARK Flexibility Score: inf
ROOT
ATOM      1  C   UNL     1       5.709  -4.772  -7.413  1.00  0.00     0.000 C 
ENDROOT
BRANCH   1   2
ATOM      2  C   UNL     1       6.699  -5.134  -8.537  1.00  0.00     0.000 C 
BRANCH   2   3
ATOM      3  C   UNL     1       8.184  -5.141  -8.122  1.00  0.00     0.000 C 
BRANCH   3   4
ATOM      4  C   UNL     1       9.037  -4.002  -8.710  1.00  0.00     0.000 C 
BRANCH   4   5
ATOM      5  C   UNL     1       8.298  -2.654  -8.738  1.00  0.00     0.000 C 
BRANCH   5   6
ATOM      6  C   UNL     1       7.630  -2.362 -10.095  1.00  0.00     0.000 C 
BRANCH   6   7
ATOM      7  C   UNL     1       6.102  -2.546 -10.125  1.00  0.00     0.006 C 
BRANCH   7   8
ATOM      8  C   UNL     1       5.336  -1.218 -10.047  1.00  0.00     0.053 C 
BRANCH   8   9
ATOM      9  C   UNL     1       3.929  -1.453  -9.596  1.00  0.00     0.041 C 
ATOM     10  O   UNL     1       3.654  -2.443  -8.869  1.00  0.00    -0.550 OA
ATOM     11  O   UNL     1       2.913  -0.605 -10.020  1.00  0.00    -0.550 OA
ENDBRANCH   8   9
ENDBRANCH   7   8
ENDBRANCH   6   7
ENDBRANCH   5   6
ENDBRANCH   4   5
ENDBRANCH   3   4
ENDBRANCH   2   3
ENDBRANCH   1   2
BRANCH   1  12
ATOM     12  C   UNL     1       5.968  -5.479  -6.068  1.00  0.00     0.000 C 
BRANCH  12  13
ATOM     13  C   UNL     1       7.448  -5.548  -5.641  1.00  0.00    -0.000 C 
BRANCH  13  14
ATOM     14  C   UNL     1       7.980  -6.967  -5.369  1.00  0.00    -0.000 C 
BRANCH  14  15
ATOM     15  C   UNL     1       6.919  -8.055  -5.604  1.00  0.00    -0.000 C 
BRANCH  15  16
ATOM     16  C   UNL     1       7.377  -9.125  -6.611  1.00  0.00    -0.000 C 
BRANCH  16  17
ATOM     17  C   UNL     1       6.827  -8.947  -8.040  1.00  0.00    -0.000 C 
BRANCH  17  18
ATOM     18  C   UNL     1       5.394  -8.384  -8.127  1.00  0.00    -0.000 C 
BRANCH  18  19
ATOM     19  C   UNL     1       4.586  -8.860  -9.347  1.00  0.00    -0.003 C 
ATOM     20  C   UNL     1       3.572  -7.825  -9.830  1.00  0.00     0.004 C 
ENDBRANCH  18  19
ENDBRANCH  17  18
ENDBRANCH  16  17
ENDBRANCH  15  16
ENDBRANCH  14  15
ENDBRANCH  13  14
ENDBRANCH  12  13
ENDBRANCH   1  12
TORSDOF 16
ENDMDL
MODEL 2
REMARK VINA RESULT:    -2.067      5.279      8.818
REMARK INTER + INTRA:          -4.265
REMARK INTER:                  -4.329
REMARK INTRA:                   0.063
REMARK UNBOUND:                -0.264
REMARK SMILES CCCCCCCCCCCCCCCCCC(=O)[O-]
REMARK SMILES IDX 10 1 11 2 12 3 13 4 14 5 15 6 16 7 17 8 18 9 19 10 20 11
REMARK SMILES IDX 9 12 8 13 7 14 6 15 5 16 4 17 3 18 2 19 1 20
REMARK H PARENT
REMARK Flexibility Score: inf
ROOT
ATOM      1  C   UNL     1       7.516  -7.650  -5.236  1.00  0.00     0.000 C 
ENDROOT
BRANCH   1   2
ATOM      2  C   UNL     1       8.785  -7.824  -4.379  1.00  0.00     0.000 C 
BRANCH   2   3
ATOM      3  C   UNL     1       8.817  -9.096  -3.509  1.00  0.00     0.000 C 
BRANCH   3   4
ATOM      4  C   UNL     1       7.918  -9.062  -2.260  1.00  0.00     0.000 C 
BRANCH   4   5
ATOM      5  C   UNL     1       8.675  -8.647  -0.987  1.00  0.00     0.000 C 
BRANCH   5   6
ATOM      6  C   UNL     1       7.977  -9.109   0.305  1.00  0.00     0.000 C 
BRANCH   6   7
ATOM      7  C   UNL     1       6.485  -8.744   0.411  1.00  0.00     0.006 C 
BRANCH   7   8
ATOM      8  C   UNL     1       5.869  -9.124   1.764  1.00  0.00     0.053 C 
BRANCH   8   9
ATOM      9  C   UNL     1       4.409  -8.798   1.783  1.00  0.00     0.041 C 
ATOM     10  O   UNL     1       3.817  -8.483   0.717  1.00  0.00    -0.550 OA
ATOM     11  O   UNL     1       3.713  -8.792   2.986  1.00  0.00    -0.550 OA
ENDBRANCH   8   9
ENDBRANCH   7   8
ENDBRANCH   6   7
ENDBRANCH   5   6
ENDBRANCH   4   5
ENDBRANCH   3   4
ENDBRANCH   2   3
ENDBRANCH   1   2
BRANCH   1  12
ATOM     12  C   UNL     1       7.705  -6.800  -6.508  1.00  0.00     0.000 C 
BRANCH  12  13
ATOM     13  C   UNL     1       7.707  -5.275  -6.280  1.00  0.00    -0.000 C 
BRANCH  13  14
ATOM     14  C   UNL     1       7.165  -4.442  -7.456  1.00  0.00    -0.000 C 
BRANCH  14  15
ATOM     15  C   UNL     1       5.772  -4.903  -7.919  1.00  0.00    -0.000 C 
BRANCH  15  16
ATOM     16  C   UNL     1       5.114  -3.914  -8.898  1.00  0.00    -0.000 C 
BRANCH  16  17
ATOM     17  C   UNL     1       6.026  -3.437 -10.047  1.00  0.00    -0.000 C 
BRANCH  17  18
ATOM     18  C   UNL     1       6.429  -1.949  -9.991  1.00  0.00    -0.000 C 
BRANCH  18  19
ATOM     19  C   UNL     1       5.254  -0.967  -9.843  1.00  0.00    -0.003 C 
ATOM     20  C   UNL     1       3.895  -1.624 -10.072  1.00  0.00     0.004 C 
ENDBRANCH  18  19
ENDBRANCH  17  18
ENDBRANCH  16  17
ENDBRANCH  15  16
ENDBRANCH  14  15
ENDBRANCH  13  14
ENDBRANCH  12  13
ENDBRANCH   1  12
TORSDOF 16
ENDMDL
MODEL 3
REMARK VINA RESULT:    -2.021      5.612      8.622
REMARK INTER + INTRA:          -4.176
REMARK INTER:                  -3.051
REMARK INTRA:                  -1.125
REMARK UNBOUND:                -0.264
REMARK SMILES CCCCCCCCCCCCCCCCCC(=O)[O-]
REMARK SMILES IDX 10 1 11 2 12 3 13 4 14 5 15 6 16 7 17 8 18 9 19 10 20 11
REMARK SMILES IDX 9 12 8 13 7 14 6 15 5 16 4 17 3 18 2 19 1 20
REMARK H PARENT
REMARK Flexibility Score: inf
ROOT
ATOM      1  C   UNL     1       6.289  -7.805  -5.705  1.00  0.00     0.000 C 
ENDROOT
BRANCH   1   2
ATOM      2  C   UNL     1       7.165  -8.578  -4.700  1.00  0.00     0.000 C 
BRANCH   2   3
ATOM      3  C   UNL     1       6.909  -8.244  -3.216  1.00  0.00     0.000 C 
BRANCH   3   4
ATOM      4  C   UNL     1       8.063  -8.585  -2.256  1.00  0.00     0.000 C 
BRANCH   4   5
ATOM      5  C   UNL     1       7.575  -9.116  -0.898  1.00  0.00     0.000 C 
BRANCH   5   6
ATOM      6  C   UNL     1       6.200  -8.553  -0.492  1.00  0.00     0.000 C 
BRANCH   6   7
ATOM      7  C   UNL     1       5.619  -9.123   0.815  1.00  0.00     0.006 C 
BRANCH   7   8
ATOM      8  C   UNL     1       6.423  -8.717   2.057  1.00  0.00     0.053 C 
BRANCH   8   9
ATOM      9  C   UNL     1       5.614  -7.810   2.930  1.00  0.00     0.041 C 
ATOM     10  O   UNL     1       4.837  -6.964   2.415  1.00  0.00    -0.550 OA
ATOM     11  O   UNL     1       5.755  -7.865   4.311  1.00  0.00    -0.550 OA
ENDBRANCH   8   9
ENDBRANCH   7   8
ENDBRANCH   6   7
ENDBRANCH   5   6
ENDBRANCH   4   5
ENDBRANCH   3   4
ENDBRANCH   2   3
ENDBRANCH   1   2
BRANCH   1  12
ATOM     12  C   UNL     1       6.988  -7.442  -7.029  1.00  0.00     0.000 C 
BRANCH  12  13
ATOM     13  C   UNL     1       8.394  -6.825  -6.878  1.00  0.00    -0.000 C 
BRANCH  13  14
ATOM     14  C   UNL     1       8.448  -5.292  -7.009  1.00  0.00    -0.000 C 
BRANCH  14  15
ATOM     15  C   UNL     1       7.109  -4.687  -7.464  1.00  0.00    -0.000 C 
BRANCH  15  16
ATOM     16  C   UNL     1       7.192  -4.037  -8.857  1.00  0.00    -0.000 C 
BRANCH  16  17
ATOM     17  C   UNL     1       5.862  -3.465  -9.385  1.00  0.00    -0.000 C 
BRANCH  17  18
ATOM     18  C   UNL     1       4.598  -4.236  -8.955  1.00  0.00    -0.000 C 
BRANCH  18  19
ATOM     19  C   UNL     1       4.069  -5.240  -9.993  1.00  0.00    -0.003 C 
ATOM     20  C   UNL     1       4.860  -6.546 -10.016  1.00  0.00     0.004 C 
ENDBRANCH  18  19
ENDBRANCH  17  18
ENDBRANCH  16  17
ENDBRANCH  15  16
ENDBRANCH  14  15
ENDBRANCH  13  14
ENDBRANCH  12  13
ENDBRANCH   1  12
TORSDOF 16
ENDMDL
MODEL 4
REMARK VINA RESULT:    -1.771      4.766      8.165
REMARK INTER + INTRA:          -3.692
REMARK INTER:                  -2.441
REMARK INTRA:                  -1.251
REMARK UNBOUND:                -0.264
REMARK SMILES CCCCCCCCCCCCCCCCCC(=O)[O-]
REMARK SMILES IDX 10 1 11 2 12 3 13 4 14 5 15 6 16 7 17 8 18 9 19 10 20 11
REMARK SMILES IDX 9 12 8 13 7 14 6 15 5 16 4 17 3 18 2 19 1 20
REMARK H PARENT
REMARK Flexibility Score: inf
ROOT
ATOM      1  C   UNL     1       5.119  -6.174  -6.079  1.00  0.00     0.000 C 
ENDROOT
BRANCH   1   2
ATOM      2  C   UNL     1       5.662  -7.609  -5.928  1.00  0.00     0.000 C 
BRANCH   2   3
ATOM      3  C   UNL     1       7.047  -7.718  -5.259  1.00  0.00     0.000 C 
BRANCH   3   4
ATOM      4  C   UNL     1       7.120  -8.664  -4.047  1.00  0.00     0.000 C 
BRANCH   4   5
ATOM      5  C   UNL     1       7.838  -8.037  -2.840  1.00  0.00     0.000 C 
BRANCH   5   6
ATOM      6  C   UNL     1       7.930  -8.990  -1.634  1.00  0.00     0.000 C 
BRANCH   6   7
ATOM      7  C   UNL     1       6.642  -9.119  -0.800  1.00  0.00     0.006 C 
BRANCH   7   8
ATOM      8  C   UNL     1       6.885  -8.966   0.707  1.00  0.00     0.053 C 
BRANCH   8   9
ATOM      9  C   UNL     1       5.700  -8.334   1.366  1.00  0.00     0.041 C 
ATOM     10  O   UNL     1       5.809  -7.828   2.513  1.00  0.00    -0.550 OA
ATOM     11  O   UNL     1       4.463  -8.349   0.733  1.00  0.00    -0.550 OA
ENDBRANCH   8   9
ENDBRANCH   7   8
ENDBRANCH   6   7
ENDBRANCH   5   6
ENDBRANCH   4   5
ENDBRANCH   3   4
ENDBRANCH   2   3
ENDBRANCH   1   2
BRANCH   1  12
ATOM     12  C   UNL     1       5.770  -5.351  -7.208  1.00  0.00     0.000 C 
BRANCH  12  13
ATOM     13  C   UNL     1       5.288  -5.699  -8.631  1.00  0.00    -0.000 C 
BRANCH  13  14
ATOM     14  C   UNL     1       6.290  -6.508  -9.475  1.00  0.00    -0.000 C 
BRANCH  14  15
ATOM     15  C   UNL     1       7.718  -6.468  -8.904  1.00  0.00    -0.000 C 
BRANCH  15  16
ATOM     16  C   UNL     1       8.717  -5.778  -9.849  1.00  0.00    -0.000 C 
BRANCH  16  17
ATOM     17  C   UNL     1       8.427  -4.288 -10.123  1.00  0.00    -0.000 C 
BRANCH  17  18
ATOM     18  C   UNL     1       8.402  -3.383  -8.874  1.00  0.00    -0.000 C 
BRANCH  18  19
ATOM     19  C   UNL     1       8.365  -1.874  -9.170  1.00  0.00    -0.003 C 
ATOM     20  C   UNL     1       7.082  -1.437  -9.873  1.00  0.00     0.004 C 
ENDBRANCH  18  19
ENDBRANCH  17  18
ENDBRANCH  16  17
ENDBRANCH  15  16
ENDBRANCH  14  15
ENDBRANCH  13  14
ENDBRANCH  12  13
ENDBRANCH   1  12
TORSDOF 16
ENDMDL
MODEL 5
REMARK VINA RESULT:    -1.624      3.084      6.573
REMARK INTER + INTRA:          -3.407
REMARK INTER:                  -2.093
REMARK INTRA:                  -1.314
REMARK UNBOUND:                -0.264
REMARK SMILES CCCCCCCCCCCCCCCCCC(=O)[O-]
REMARK SMILES IDX 10 1 11 2 12 3 13 4 14 5 15 6 16 7 17 8 18 9 19 10 20 11
REMARK SMILES IDX 9 12 8 13 7 14 6 15 5 16 4 17 3 18 2 19 1 20
REMARK H PARENT
REMARK Flexibility Score: inf
ROOT
ATOM      1  C   UNL     1       5.125  -5.021  -6.249  1.00  0.00     0.000 C 
ENDROOT
BRANCH   1   2
ATOM      2  C   UNL     1       4.680  -6.497  -6.229  1.00  0.00     0.000 C 
BRANCH   2   3
ATOM      3  C   UNL     1       4.774  -7.189  -4.854  1.00  0.00     0.000 C 
BRANCH   3   4
ATOM      4  C   UNL     1       5.971  -8.140  -4.677  1.00  0.00     0.000 C 
BRANCH   4   5
ATOM      5  C   UNL     1       6.582  -8.077  -3.267  1.00  0.00     0.000 C 
BRANCH   5   6
ATOM      6  C   UNL     1       7.965  -8.750  -3.181  1.00  0.00     0.000 C 
BRANCH   6   7
ATOM      7  C   UNL     1       9.108  -7.991  -3.880  1.00  0.00     0.006 C 
BRANCH   7   8
ATOM      8  C   UNL     1       8.878  -6.475  -3.932  1.00  0.00     0.053 C 
BRANCH   8   9
ATOM      9  C   UNL     1       8.676  -6.025  -5.344  1.00  0.00     0.041 C 
ATOM     10  O   UNL     1       8.575  -4.799  -5.610  1.00  0.00    -0.550 OA
ATOM     11  O   UNL     1       8.549  -6.964  -6.361  1.00  0.00    -0.550 OA
ENDBRANCH   8   9
ENDBRANCH   7   8
ENDBRANCH   6   7
ENDBRANCH   5   6
ENDBRANCH   4   5
ENDBRANCH   3   4
ENDBRANCH   2   3
ENDBRANCH   1   2
BRANCH   1  12
ATOM     12  C   UNL     1       5.371  -4.437  -7.654  1.00  0.00     0.000 C 
BRANCH  12  13
ATOM     13  C   UNL     1       4.676  -5.191  -8.805  1.00  0.00    -0.000 C 
BRANCH  13  14
ATOM     14  C   UNL     1       5.608  -6.060  -9.670  1.00  0.00    -0.000 C 
BRANCH  14  15
ATOM     15  C   UNL     1       6.870  -5.307 -10.124  1.00  0.00    -0.000 C 
BRANCH  15  16
ATOM     16  C   UNL     1       8.096  -5.617  -9.247  1.00  0.00    -0.000 C 
BRANCH  16  17
ATOM     17  C   UNL     1       9.123  -4.472  -9.141  1.00  0.00    -0.000 C 
BRANCH  17  18
ATOM     18  C   UNL     1       8.529  -3.081  -8.844  1.00  0.00    -0.000 C 
BRANCH  18  19
ATOM     19  C   UNL     1       8.723  -2.043  -9.962  1.00  0.00    -0.003 C 
ATOM     20  C   UNL     1       7.690  -0.919  -9.919  1.00  0.00     0.004 C 
ENDBRANCH  18  19
ENDBRANCH  17  18
ENDBRANCH  16  17
ENDBRANCH  15  16
ENDBRANCH  14  15
ENDBRANCH  13  14
ENDBRANCH  12  13
ENDBRANCH   1  12
TORSDOF 16
ENDMDL
MODEL 6
REMARK VINA RESULT:    -1.615      5.490      8.253
REMARK INTER + INTRA:          -3.390
REMARK INTER:                  -2.135
REMARK INTRA:                  -1.255
REMARK UNBOUND:                -0.264
REMARK SMILES CCCCCCCCCCCCCCCCCC(=O)[O-]
REMARK SMILES IDX 10 1 11 2 12 3 13 4 14 5 15 6 16 7 17 8 18 9 19 10 20 11
REMARK SMILES IDX 9 12 8 13 7 14 6 15 5 16 4 17 3 18 2 19 1 20
REMARK H PARENT
REMARK Flexibility Score: inf
ROOT
ATOM      1  C   UNL     1       6.322  -6.669  -5.345  1.00  0.00     0.000 C 
ENDROOT
BRANCH   1   2
ATOM      2  C   UNL     1       7.488  -7.592  -4.942  1.00  0.00     0.000 C 
BRANCH   2   3
ATOM      3  C   UNL     1       7.414  -8.150  -3.506  1.00  0.00     0.000 C 
BRANCH   3   4
ATOM      4  C   UNL     1       8.709  -8.023  -2.683  1.00  0.00     0.000 C 
BRANCH   4   5
ATOM      5  C   UNL     1       8.637  -8.760  -1.336  1.00  0.00     0.000 C 
BRANCH   5   6
ATOM      6  C   UNL     1       7.198  -9.125  -0.926  1.00  0.00     0.000 C 
BRANCH   6   7
ATOM      7  C   UNL     1       6.917  -9.083   0.587  1.00  0.00     0.006 C 
BRANCH   7   8
ATOM      8  C   UNL     1       5.517  -8.550   0.922  1.00  0.00     0.053 C 
BRANCH   8   9
ATOM      9  C   UNL     1       5.190  -8.811   2.359  1.00  0.00     0.041 C 
ATOM     10  O   UNL     1       6.108  -9.079   3.178  1.00  0.00    -0.550 OA
ATOM     11  O   UNL     1       3.867  -8.807   2.782  1.00  0.00    -0.550 OA
ENDBRANCH   8   9
ENDBRANCH   7   8
ENDBRANCH   6   7
ENDBRANCH   5   6
ENDBRANCH   4   5
ENDBRANCH   3   4
ENDBRANCH   2   3
ENDBRANCH   1   2
BRANCH   1  12
ATOM     12  C   UNL     1       6.745  -5.291  -5.890  1.00  0.00     0.000 C 
BRANCH  12  13
ATOM     13  C   UNL     1       8.051  -5.285  -6.709  1.00  0.00    -0.000 C 
BRANCH  13  14
ATOM     14  C   UNL     1       8.071  -4.302  -7.894  1.00  0.00    -0.000 C 
BRANCH  14  15
ATOM     15  C   UNL     1       8.169  -5.014  -9.254  1.00  0.00    -0.000 C 
BRANCH  15  16
ATOM     16  C   UNL     1       8.925  -6.352  -9.172  1.00  0.00    -0.000 C 
BRANCH  16  17
ATOM     17  C   UNL     1       8.026  -7.604  -9.154  1.00  0.00    -0.000 C 
BRANCH  17  18
ATOM     18  C   UNL     1       6.733  -7.497  -9.987  1.00  0.00    -0.000 C 
BRANCH  18  19
ATOM     19  C   UNL     1       5.430  -7.609  -9.177  1.00  0.00    -0.003 C 
ATOM     20  C   UNL     1       4.247  -6.920  -9.853  1.00  0.00     0.004 C 
ENDBRANCH  18  19
ENDBRANCH  17  18
ENDBRANCH  16  17
ENDBRANCH  15  16
ENDBRANCH  14  15
ENDBRANCH  13  14
ENDBRANCH  12  13
ENDBRANCH   1  12
TORSDOF 16
ENDMDL
MODEL 7
REMARK VINA RESULT:    -1.571     17.417     18.965
REMARK INTER + INTRA:          -3.305
REMARK INTER:                  -2.076
REMARK INTRA:                  -1.228
REMARK UNBOUND:                -0.264
REMARK SMILES CCCCCCCCCCCCCCCCCC(=O)[O-]
REMARK SMILES IDX 10 1 11 2 12 3 13 4 14 5 15 6 16 7 17 8 18 9 19 10 20 11
REMARK SMILES IDX 9 12 8 13 7 14 6 15 5 16 4 17 3 18 2 19 1 20
REMARK H PARENT
REMARK Flexibility Score: inf
ROOT
ATOM      1  C   UNL     1       6.662   6.634   7.517  1.00  0.00     0.000 C 
ENDROOT
BRANCH   1   2
ATOM      2  C   UNL     1       6.240   6.197   8.934  1.00  0.00     0.000 C 
BRANCH   2   3
ATOM      3  C   UNL     1       6.671   7.149  10.067  1.00  0.00     0.000 C 
BRANCH   3   4
ATOM      4  C   UNL     1       7.352   8.452   9.609  1.00  0.00     0.000 C 
BRANCH   4   5
ATOM      5  C   UNL     1       6.365   9.622   9.457  1.00  0.00     0.000 C 
BRANCH   5   6
ATOM      6  C   UNL     1       6.994  10.854   8.781  1.00  0.00     0.000 C 
BRANCH   6   7
ATOM      7  C   UNL     1       7.256  10.711   7.270  1.00  0.00     0.006 C 
BRANCH   7   8
ATOM      8  C   UNL     1       6.087  10.061   6.517  1.00  0.00     0.053 C 
BRANCH   8   9
ATOM      9  C   UNL     1       6.467   9.794   5.095  1.00  0.00     0.041 C 
ATOM     10  O   UNL     1       5.950  10.466   4.165  1.00  0.00    -0.550 OA
ATOM     11  O   UNL     1       7.355   8.768   4.794  1.00  0.00    -0.550 OA
ENDBRANCH   8   9
ENDBRANCH   7   8
ENDBRANCH   6   7
ENDBRANCH   5   6
ENDBRANCH   4   5
ENDBRANCH   3   4
ENDBRANCH   2   3
ENDBRANCH   1   2
BRANCH   1  12
ATOM     12  C   UNL     1       5.915   5.926   6.371  1.00  0.00     0.000 C 
BRANCH  12  13
ATOM     13  C   UNL     1       5.318   4.550   6.731  1.00  0.00    -0.000 C 
BRANCH  13  14
ATOM     14  C   UNL     1       4.701   3.780   5.550  1.00  0.00    -0.000 C 
BRANCH  14  15
ATOM     15  C   UNL     1       4.328   4.696   4.372  1.00  0.00    -0.000 C 
BRANCH  15  16
ATOM     16  C   UNL     1       3.239   4.091   3.469  1.00  0.00    -0.000 C 
BRANCH  16  17
ATOM     17  C   UNL     1       3.020   4.829   2.133  1.00  0.00    -0.000 C 
BRANCH  17  18
ATOM     18  C   UNL     1       4.268   5.527   1.556  1.00  0.00    -0.000 C 
BRANCH  18  19
ATOM     19  C   UNL     1       4.208   5.814   0.046  1.00  0.00    -0.003 C 
ATOM     20  C   UNL     1       5.447   5.328  -0.702  1.00  0.00     0.004 C 
ENDBRANCH  18  19
ENDBRANCH  17  18
ENDBRANCH  16  17
ENDBRANCH  15  16
ENDBRANCH  14  15
ENDBRANCH  13  14
ENDBRANCH  12  13
ENDBRANCH   1  12
TORSDOF 16
ENDMDL
MODEL 8
REMARK VINA RESULT:    -1.520      2.998      5.829
REMARK INTER + INTRA:          -3.206
REMARK INTER:                  -1.341
REMARK INTRA:                  -1.864
REMARK UNBOUND:                -0.264
REMARK SMILES CCCCCCCCCCCCCCCCCC(=O)[O-]
REMARK SMILES IDX 10 1 11 2 12 3 13 4 14 5 15 6 16 7 17 8 18 9 19 10 20 11
REMARK SMILES IDX 9 12 8 13 7 14 6 15 5 16 4 17 3 18 2 19 1 20
REMARK H PARENT
REMARK Flexibility Score: inf
ROOT
ATOM      1  C   UNL     1       4.999  -5.103  -6.390  1.00  0.00     0.000 C 
ENDROOT
BRANCH   1   2
ATOM      2  C   UNL     1       5.070  -6.641  -6.320  1.00  0.00     0.000 C 
BRANCH   2   3
ATOM      3  C   UNL     1       5.388  -7.217  -4.925  1.00  0.00     0.000 C 
BRANCH   3   4
ATOM      4  C   UNL     1       6.428  -8.352  -4.904  1.00  0.00     0.000 C 
BRANCH   4   5
ATOM      5  C   UNL     1       6.836  -8.764  -3.480  1.00  0.00     0.000 C 
BRANCH   5   6
ATOM      6  C   UNL     1       8.358  -8.717  -3.253  1.00  0.00     0.000 C 
BRANCH   6   7
ATOM      7  C   UNL     1       9.123  -7.722  -4.144  1.00  0.00     0.006 C 
BRANCH   7   8
ATOM      8  C   UNL     1       8.771  -6.258  -3.847  1.00  0.00     0.053 C 
BRANCH   8   9
ATOM      9  C   UNL     1       8.529  -5.511  -5.121  1.00  0.00     0.041 C 
ATOM     10  O   UNL     1       9.116  -5.857  -6.179  1.00  0.00    -0.550 OA
ATOM     11  O   UNL     1       7.692  -4.401  -5.128  1.00  0.00    -0.550 OA
ENDBRANCH   8   9
ENDBRANCH   7   8
ENDBRANCH   6   7
ENDBRANCH   5   6
ENDBRANCH   4   5
ENDBRANCH   3   4
ENDBRANCH   2   3
ENDBRANCH   1   2
BRANCH   1  12
ATOM     12  C   UNL     1       5.307  -4.503  -7.776  1.00  0.00     0.000 C 
BRANCH  12  13
ATOM     13  C   UNL     1       5.068  -5.453  -8.967  1.00  0.00    -0.000 C 
BRANCH  13  14
ATOM     14  C   UNL     1       6.280  -5.648  -9.896  1.00  0.00    -0.000 C 
BRANCH  14  15
ATOM     15  C   UNL     1       7.579  -5.074  -9.306  1.00  0.00    -0.000 C 
BRANCH  15  16
ATOM     16  C   UNL     1       8.802  -5.968  -9.579  1.00  0.00    -0.000 C 
BRANCH  16  17
ATOM     17  C   UNL     1       8.469  -7.374 -10.118  1.00  0.00    -0.000 C 
BRANCH  17  18
ATOM     18  C   UNL     1       8.829  -8.541  -9.176  1.00  0.00    -0.000 C 
BRANCH  18  19
ATOM     19  C   UNL     1       7.824  -8.786  -8.037  1.00  0.00    -0.003 C 
ATOM     20  C   UNL     1       6.406  -9.048  -8.539  1.00  0.00     0.004 C 
ENDBRANCH  18  19
ENDBRANCH  17  18
ENDBRANCH  16  17
ENDBRANCH  15  16
ENDBRANCH  14  15
ENDBRANCH  13  14
ENDBRANCH  12  13
ENDBRANCH   1  12
TORSDOF 16
ENDMDL
