MODEL 1
REMARK VINA RESULT:     0.589      0.000      0.000
REMARK INTER + INTRA:           0.613
REMARK INTER:                   0.898
REMARK INTRA:                  -0.285
REMARK UNBOUND:                -0.285
REMARK SMILES CCCCCCCCCCC(=O)[O-]
REMARK SMILES IDX 7 1 8 2 9 3 10 4 11 5 12 6 13 7 6 8 5 9 4 10 3 11 2 12 1 13
REMARK H PARENT
REMARK Flexibility Score: inf
ROOT
ATOM      1  C   UNL     1      10.920  16.452   1.114  1.00  0.00     0.000 C 
ENDROOT
BRANCH   1   2
ATOM      2  C   UNL     1      12.041  15.406   1.217  1.00  0.00     0.000 C 
BRANCH   2   3
ATOM      3  C   UNL     1      11.587  14.124   1.933  1.00  0.00     0.006 C 
BRANCH   3   4
ATOM      4  C   UNL     1      11.686  12.880   1.042  1.00  0.00     0.053 C 
BRANCH   4   5
ATOM      5  C   UNL     1      12.019  13.271  -0.363  1.00  0.00     0.041 C 
ATOM      6  O   UNL     1      13.148  12.996  -0.847  1.00  0.00    -0.550 OA
ATOM      7  O   UNL     1      11.063  13.894  -1.157  1.00  0.00    -0.550 OA
ENDBRANCH   4   5
ENDBRANCH   3   4
ENDBRANCH   2   3
ENDBRANCH   1   2
BRANCH   1   8
ATOM      8  C   UNL     1       9.784  16.213   2.125  1.00  0.00     0.000 C 
BRANCH   8   9
ATOM      9  C   UNL     1       8.400  16.745   1.698  1.00  0.00    -0.000 C 
BRANCH   9  10
ATOM     10  C   UNL     1       7.211  15.841   2.071  1.00  0.00    -0.000 C 
BRANCH  10  11
ATOM     11  C   UNL     1       7.586  14.349   2.098  1.00  0.00    -0.000 C 
BRANCH  11  12
ATOM     12  C   UNL     1       6.375  13.434   1.856  1.00  0.00    -0.003 C 
ATOM     13  C   UNL     1       5.135  14.206   1.402  1.00  0.00     0.004 C 
ENDBRANCH  11  12
ENDBRANCH  10  11
ENDBRANCH   9  10
ENDBRANCH   8   9
ENDBRANCH   1   8
TORSDOF 9
ENDMDL
MODEL 2
REMARK VINA RESULT:     0.727      2.097      2.924
REMARK INTER + INTRA:           0.824
REMARK INTER:                   0.496
REMARK INTRA:                   0.328
REMARK UNBOUND:                -0.285
REMARK SMILES CCCCCCCCCCC(=O)[O-]
REMARK SMILES IDX 7 1 8 2 9 3 10 4 11 5 12 6 13 7 6 8 5 9 4 10 3 11 2 12 1 13
REMARK H PARENT
REMARK Flexibility Score: inf
ROOT
ATOM      1  C   UNL     1      11.155  14.057  -0.915  1.00  0.00     0.000 C 
ENDROOT
BRANCH   1   2
ATOM      2  C   UNL     1      12.149  13.405   0.060  1.00  0.00     0.000 C 
BRANCH   2   3
ATOM      3  C   UNL     1      11.781  13.656   1.531  1.00  0.00     0.006 C 
BRANCH   3   4
ATOM      4  C   UNL     1      12.505  14.870   2.125  1.00  0.00     0.053 C 
BRANCH   4   5
ATOM      5  C   UNL     1      11.660  16.098   1.991  1.00  0.00     0.041 C 
ATOM      6  O   UNL     1      10.411  16.024   2.125  1.00  0.00    -0.550 OA
ATOM      7  O   UNL     1      12.258  17.333   1.770  1.00  0.00    -0.550 OA
ENDBRANCH   4   5
ENDBRANCH   3   4
ENDBRANCH   2   3
ENDBRANCH   1   2
BRANCH   1   8
ATOM      8  C   UNL     1       9.710  13.565  -0.713  1.00  0.00     0.000 C 
BRANCH   8   9
ATOM      9  C   UNL     1       8.785  14.533   0.052  1.00  0.00    -0.000 C 
BRANCH   9  10
ATOM     10  C   UNL     1       8.476  14.127   1.505  1.00  0.00    -0.000 C 
BRANCH  10  11
ATOM     11  C   UNL     1       7.135  14.688   2.006  1.00  0.00    -0.000 C 
BRANCH  11  12
ATOM     12  C   UNL     1       6.052  13.603   2.125  1.00  0.00    -0.003 C 
ATOM     13  C   UNL     1       5.006  13.692   1.013  1.00  0.00     0.004 C 
ENDBRANCH  11  12
ENDBRANCH  10  11
ENDBRANCH   9  10
ENDBRANCH   8   9
ENDBRANCH   1   8
TORSDOF 9
ENDMDL
MODEL 3
REMARK VINA RESULT:     1.232      0.982      1.796
REMARK INTER + INTRA:           1.595
REMARK INTER:                   1.449
REMARK INTRA:                   0.147
REMARK UNBOUND:                -0.285
REMARK SMILES CCCCCCCCCCC(=O)[O-]
REMARK SMILES IDX 7 1 8 2 9 3 10 4 11 5 12 6 13 7 6 8 5 9 4 10 3 11 2 12 1 13
REMARK H PARENT
REMARK Flexibility Score: inf
ROOT
ATOM      1  C   UNL     1      12.438  16.162   1.079  1.00  0.00     0.000 C 
ENDROOT
BRANCH   1   2
ATOM      2  C   UNL     1      12.711  15.020   2.070  1.00  0.00     0.000 C 
BRANCH   2   3
ATOM      3  C   UNL     1      11.614  13.943   2.045  1.00  0.00     0.006 C 
BRANCH   3   4
ATOM      4  C   UNL     1      11.814  12.920   0.920  1.00  0.00     0.053 C 
BRANCH   4   5
ATOM      5  C   UNL     1      11.257  13.443  -0.366  1.00  0.00     0.041 C 
ATOM      6  O   UNL     1      10.058  13.825  -0.428  1.00  0.00    -0.550 OA
ATOM      7  O   UNL     1      12.075  13.557  -1.483  1.00  0.00    -0.550 OA
ENDBRANCH   4   5
ENDBRANCH   3   4
ENDBRANCH   2   3
ENDBRANCH   1   2
BRANCH   1   8
ATOM      8  C   UNL     1      11.310  17.101   1.544  1.00  0.00     0.000 C 
BRANCH   8   9
ATOM      9  C   UNL     1      10.057  16.397   2.104  1.00  0.00    -0.000 C 
BRANCH   9  10
ATOM     10  C   UNL     1       8.781  16.569   1.259  1.00  0.00    -0.000 C 
BRANCH  10  11
ATOM     11  C   UNL     1       7.512  16.693   2.119  1.00  0.00    -0.000 C 
BRANCH  11  12
ATOM     12  C   UNL     1       6.676  15.403   2.124  1.00  0.00    -0.003 C 
ATOM     13  C   UNL     1       7.539  14.143   2.055  1.00  0.00     0.004 C 
ENDBRANCH  11  12
ENDBRANCH  10  11
ENDBRANCH   9  10
ENDBRANCH   8   9
ENDBRANCH   1   8
TORSDOF 9
ENDMDL
MODEL 4
REMARK VINA RESULT:     2.316      2.011      3.281
REMARK INTER + INTRA:           3.249
REMARK INTER:                   3.814
REMARK INTRA:                  -0.565
REMARK UNBOUND:                -0.285
REMARK SMILES CCCCCCCCCCC(=O)[O-]
REMARK SMILES IDX 7 1 8 2 9 3 10 4 11 5 12 6 13 7 6 8 5 9 4 10 3 11 2 12 1 13
REMARK H PARENT
REMARK Flexibility Score: inf
ROOT
ATOM      1  C   UNL     1      10.339  14.343  -0.828  1.00  0.00     0.000 C 
ENDROOT
BRANCH   1   2
ATOM      2  C   UNL     1      11.762  14.016  -0.346  1.00  0.00     0.000 C 
BRANCH   2   3
ATOM      3  C   UNL     1      11.788  13.495   1.100  1.00  0.00     0.006 C 
BRANCH   3   4
ATOM      4  C   UNL     1      11.398  14.569   2.124  1.00  0.00     0.053 C 
BRANCH   4   5
ATOM      5  C   UNL     1      12.118  15.848   1.837  1.00  0.00     0.041 C 
ATOM      6  O   UNL     1      11.490  16.839   1.378  1.00  0.00    -0.550 OA
ATOM      7  O   UNL     1      13.473  15.964   2.125  1.00  0.00    -0.550 OA
ENDBRANCH   4   5
ENDBRANCH   3   4
ENDBRANCH   2   3
ENDBRANCH   1   2
BRANCH   1   8
ATOM      8  C   UNL     1       9.296  13.313  -0.357  1.00  0.00     0.000 C 
BRANCH   8   9
ATOM      9  C   UNL     1       8.030  13.909   0.292  1.00  0.00    -0.000 C 
BRANCH   9  10
ATOM     10  C   UNL     1       8.178  14.296   1.775  1.00  0.00    -0.000 C 
BRANCH  10  11
ATOM     11  C   UNL     1       7.446  15.602   2.125  1.00  0.00    -0.000 C 
BRANCH  11  12
ATOM     12  C   UNL     1       8.366  16.831   2.052  1.00  0.00    -0.003 C 
ATOM     13  C   UNL     1       8.150  17.653   0.781  1.00  0.00     0.004 C 
ENDBRANCH  11  12
ENDBRANCH  10  11
ENDBRANCH   9  10
ENDBRANCH   8   9
ENDBRANCH   1   8
TORSDOF 9
ENDMDL
MODEL 5
REMARK VINA RESULT:     2.865      1.612      2.328
REMARK INTER + INTRA:           4.087
REMARK INTER:                   2.767
REMARK INTRA:                   1.320
REMARK UNBOUND:                -0.285
REMARK SMILES CCCCCCCCCCC(=O)[O-]
REMARK SMILES IDX 7 1 8 2 9 3 10 4 11 5 12 6 13 7 6 8 5 9 4 10 3 11 2 12 1 13
REMARK H PARENT
REMARK Flexibility Score: inf
ROOT
ATOM      1  C   UNL     1      10.394  15.221   0.724  1.00  0.00     0.000 C 
ENDROOT
BRANCH   1   2
ATOM      2  C   UNL     1      10.014  13.942  -0.039  1.00  0.00     0.000 C 
BRANCH   2   3
ATOM      3  C   UNL     1      11.201  13.340  -0.809  1.00  0.00     0.006 C 
BRANCH   3   4
ATOM      4  C   UNL     1      12.551  13.644  -0.148  1.00  0.00     0.053 C 
BRANCH   4   5
ATOM      5  C   UNL     1      12.570  13.130   1.257  1.00  0.00     0.041 C 
ATOM      6  O   UNL     1      11.490  12.875   1.853  1.00  0.00    -0.550 OA
ATOM      7  O   UNL     1      13.782  12.885   1.892  1.00  0.00    -0.550 OA
ENDBRANCH   4   5
ENDBRANCH   3   4
ENDBRANCH   2   3
ENDBRANCH   1   2
BRANCH   1   8
ATOM      8  C   UNL     1       9.379  15.585   1.823  1.00  0.00     0.000 C 
BRANCH   8   9
ATOM      9  C   UNL     1       8.290  14.526   2.090  1.00  0.00    -0.000 C 
BRANCH   9  10
ATOM     10  C   UNL     1       6.888  14.886   1.564  1.00  0.00    -0.000 C 
BRANCH  10  11
ATOM     11  C   UNL     1       5.897  13.714   1.663  1.00  0.00    -0.000 C 
BRANCH  11  12
ATOM     12  C   UNL     1       4.462  14.125   1.298  1.00  0.00    -0.003 C 
ATOM     13  C   UNL     1       3.827  13.193   0.266  1.00  0.00     0.004 C 
ENDBRANCH  11  12
ENDBRANCH  10  11
ENDBRANCH   9  10
ENDBRANCH   8   9
ENDBRANCH   1   8
TORSDOF 9
ENDMDL
MODEL 6
REMARK VINA RESULT:     3.238     15.860     17.081
REMARK INTER + INTRA:           4.657
REMARK INTER:                   5.249
REMARK INTRA:                  -0.592
REMARK UNBOUND:                -0.285
REMARK SMILES CCCCCCCCCCC(=O)[O-]
REMARK SMILES IDX 7 1 8 2 9 3 10 4 11 5 12 6 13 7 6 8 5 9 4 10 3 11 2 12 1 13
REMARK H PARENT
REMARK Flexibility Score: inf
ROOT
ATOM      1  C   UNL     1      18.963  17.326 -12.209  1.00  0.00     0.000 C 
ENDROOT
BRANCH   1   2
ATOM      2  C   UNL     1      18.282  17.918 -10.964  1.00  0.00     0.000 C 
BRANCH   2   3
ATOM      3  C   UNL     1      17.981  19.418 -11.116  1.00  0.00     0.006 C 
BRANCH   3   4
ATOM      4  C   UNL     1      18.386  19.968 -12.489  1.00  0.00     0.053 C 
BRANCH   4   5
ATOM      5  C   UNL     1      19.598  20.837 -12.366  1.00  0.00     0.041 C 
ATOM      6  O   UNL     1      19.476  22.088 -12.304  1.00  0.00    -0.550 OA
ATOM      7  O   UNL     1      20.859  20.261 -12.268  1.00  0.00    -0.550 OA
ENDBRANCH   4   5
ENDBRANCH   3   4
ENDBRANCH   2   3
ENDBRANCH   1   2
BRANCH   1   8
ATOM      8  C   UNL     1      17.959  16.736 -13.216  1.00  0.00     0.000 C 
BRANCH   8   9
ATOM      9  C   UNL     1      16.810  15.915 -12.596  1.00  0.00    -0.000 C 
BRANCH   9  10
ATOM     10  C   UNL     1      16.743  14.445 -13.049  1.00  0.00    -0.000 C 
BRANCH  10  11
ATOM     11  C   UNL     1      17.973  14.018 -13.868  1.00  0.00    -0.000 C 
BRANCH  11  12
ATOM     12  C   UNL     1      18.940  13.137 -13.062  1.00  0.00    -0.003 C 
ATOM     13  C   UNL     1      20.191  13.894 -12.615  1.00  0.00     0.004 C 
ENDBRANCH  11  12
ENDBRANCH  10  11
ENDBRANCH   9  10
ENDBRANCH   8   9
ENDBRANCH   1   8
TORSDOF 9
ENDMDL
MODEL 7
REMARK VINA RESULT:     3.392     16.109     17.255
REMARK INTER + INTRA:           4.891
REMARK INTER:                   5.478
REMARK INTRA:                  -0.587
REMARK UNBOUND:                -0.285
REMARK SMILES CCCCCCCCCCC(=O)[O-]
REMARK SMILES IDX 7 1 8 2 9 3 10 4 11 5 12 6 13 7 6 8 5 9 4 10 3 11 2 12 1 13
REMARK H PARENT
REMARK Flexibility Score: inf
ROOT
ATOM      1  C   UNL     1      18.659  17.840 -11.213  1.00  0.00     0.000 C 
ENDROOT
BRANCH   1   2
ATOM      2  C   UNL     1      18.124  19.282 -11.206  1.00  0.00     0.000 C 
BRANCH   2   3
ATOM      3  C   UNL     1      18.304  19.983 -12.562  1.00  0.00     0.006 C 
BRANCH   3   4
ATOM      4  C   UNL     1      19.216  21.213 -12.477  1.00  0.00     0.053 C 
BRANCH   4   5
ATOM      5  C   UNL     1      20.627  20.797 -12.204  1.00  0.00     0.041 C 
ATOM      6  O   UNL     1      21.324  21.432 -11.369  1.00  0.00    -0.550 OA
ATOM      7  O   UNL     1      21.157  19.677 -12.833  1.00  0.00    -0.550 OA
ENDBRANCH   4   5
ENDBRANCH   3   4
ENDBRANCH   2   3
ENDBRANCH   1   2
BRANCH   1   8
ATOM      8  C   UNL     1      18.316  17.081 -12.508  1.00  0.00     0.000 C 
BRANCH   8   9
ATOM      9  C   UNL     1      16.948  16.369 -12.510  1.00  0.00    -0.000 C 
BRANCH   9  10
ATOM     10  C   UNL     1      16.923  15.010 -13.233  1.00  0.00    -0.000 C 
BRANCH  10  11
ATOM     11  C   UNL     1      18.320  14.550 -13.682  1.00  0.00    -0.000 C 
BRANCH  11  12
ATOM     12  C   UNL     1      18.687  13.161 -13.136  1.00  0.00    -0.003 C 
ATOM     13  C   UNL     1      20.165  13.046 -12.765  1.00  0.00     0.004 C 
ENDBRANCH  11  12
ENDBRANCH  10  11
ENDBRANCH   9  10
ENDBRANCH   8   9
ENDBRANCH   1   8
TORSDOF 9
ENDMDL
