MODEL 1
REMARK VINA RESULT:    -5.957      0.000      0.000
REMARK INTER + INTRA:          -8.702
REMARK INTER:                  -8.395
REMARK INTRA:                  -0.307
REMARK UNBOUND:                -0.307
REMARK SMILES C=CCCCCCCC(=O)[O-]
REMARK SMILES IDX 6 1 7 2 8 3 9 4 10 5 11 6 5 7 4 8 3 9 2 10 1 11
REMARK H PARENT
REMARK Flexibility Score: inf
ROOT
ATOM      1  C   UNL     1       4.600  -1.939  -2.563  1.00  0.00     0.000 C 
ENDROOT
BRANCH   1   2
ATOM      2  C   UNL     1       4.920  -0.737  -3.471  1.00  0.00     0.006 C 
BRANCH   2   3
ATOM      3  C   UNL     1       3.688   0.070  -3.914  1.00  0.00     0.053 C 
BRANCH   3   4
ATOM      4  C   UNL     1       3.836   0.604  -5.305  1.00  0.00     0.041 C 
ATOM      5  O   UNL     1       4.921   0.457  -5.928  1.00  0.00    -0.550 OA
ATOM      6  O   UNL     1       2.766   1.236  -5.926  1.00  0.00    -0.550 OA
ENDBRANCH   3   4
ENDBRANCH   2   3
ENDBRANCH   1   2
BRANCH   1   7
ATOM      7  C   UNL     1       5.607  -3.091  -2.727  1.00  0.00     0.000 C 
BRANCH   7   8
ATOM      8  C   UNL     1       4.946  -4.473  -2.592  1.00  0.00     0.004 C 
BRANCH   8   9
ATOM      9  C   UNL     1       3.427  -4.429  -2.819  1.00  0.00     0.027 C 
BRANCH   9  10
ATOM     10  C   UNL     1       2.893  -5.788  -3.176  1.00  0.00    -0.035 C 
ATOM     11  C   UNL     1       3.001  -6.284  -4.412  1.00  0.00     0.004 C 
ENDBRANCH   9  10
ENDBRANCH   8   9
ENDBRANCH   7   8
ENDBRANCH   1   7
TORSDOF 7
ENDMDL
MODEL 2
REMARK VINA RESULT:    -5.789      1.147      1.754
REMARK INTER + INTRA:          -8.465
REMARK INTER:                  -8.117
REMARK INTRA:                  -0.348
REMARK UNBOUND:                -0.307
REMARK SMILES C=CCCCCCCC(=O)[O-]
REMARK SMILES IDX 6 1 7 2 8 3 9 4 10 5 11 6 5 7 4 8 3 9 2 10 1 11
REMARK H PARENT
REMARK Flexibility Score: inf
ROOT
ATOM      1  C   UNL     1       3.796  -0.584  -2.985  1.00  0.00     0.000 C 
ENDROOT
BRANCH   1   2
ATOM      2  C   UNL     1       4.560  -0.131  -4.242  1.00  0.00     0.006 C 
BRANCH   2   3
ATOM      3  C   UNL     1       3.834   0.937  -5.077  1.00  0.00     0.053 C 
BRANCH   3   4
ATOM      4  C   UNL     1       4.389   1.040  -6.464  1.00  0.00     0.041 C 
ATOM      5  O   UNL     1       5.330   1.840  -6.712  1.00  0.00    -0.550 OA
ATOM      6  O   UNL     1       3.890   0.228  -7.476  1.00  0.00    -0.550 OA
ENDBRANCH   3   4
ENDBRANCH   2   3
ENDBRANCH   1   2
BRANCH   1   7
ATOM      7  C   UNL     1       4.631  -1.510  -2.083  1.00  0.00     0.000 C 
BRANCH   7   8
ATOM      8  C   UNL     1       5.587  -2.407  -2.885  1.00  0.00     0.004 C 
BRANCH   8   9
ATOM      9  C   UNL     1       5.437  -3.896  -2.534  1.00  0.00     0.027 C 
BRANCH   9  10
ATOM     10  C   UNL     1       4.024  -4.363  -2.753  1.00  0.00    -0.035 C 
ATOM     11  C   UNL     1       3.752  -5.503  -3.395  1.00  0.00     0.004 C 
ENDBRANCH   9  10
ENDBRANCH   8   9
ENDBRANCH   7   8
ENDBRANCH   1   7
TORSDOF 7
ENDMDL
MODEL 3
REMARK VINA RESULT:    -5.674      3.205      5.520
REMARK INTER + INTRA:          -8.303
REMARK INTER:                  -8.046
REMARK INTRA:                  -0.256
REMARK UNBOUND:                -0.307
REMARK SMILES C=CCCCCCCC(=O)[O-]
REMARK SMILES IDX 6 1 7 2 8 3 9 4 10 5 11 6 5 7 4 8 3 9 2 10 1 11
REMARK H PARENT
REMARK Flexibility Score: inf
ROOT
ATOM      1  C   UNL     1       5.772  -2.885  -2.509  1.00  0.00     0.000 C 
ENDROOT
BRANCH   1   2
ATOM      2  C   UNL     1       4.428  -3.634  -2.575  1.00  0.00     0.006 C 
BRANCH   2   3
ATOM      3  C   UNL     1       4.543  -5.112  -2.983  1.00  0.00     0.053 C 
BRANCH   3   4
ATOM      4  C   UNL     1       3.213  -5.704  -3.333  1.00  0.00     0.041 C 
ATOM      5  O   UNL     1       2.296  -5.759  -2.471  1.00  0.00    -0.550 OA
ATOM      6  O   UNL     1       2.974  -6.165  -4.622  1.00  0.00    -0.550 OA
ENDBRANCH   3   4
ENDBRANCH   2   3
ENDBRANCH   1   2
BRANCH   1   7
ATOM      7  C   UNL     1       5.616  -1.367  -2.701  1.00  0.00     0.000 C 
BRANCH   7   8
ATOM      8  C   UNL     1       4.248  -0.984  -3.289  1.00  0.00     0.004 C 
BRANCH   8   9
ATOM      9  C   UNL     1       4.184   0.486  -3.733  1.00  0.00     0.027 C 
BRANCH   9  10
ATOM     10  C   UNL     1       3.789   0.597  -5.180  1.00  0.00    -0.035 C 
ATOM     11  C   UNL     1       2.508   0.651  -5.557  1.00  0.00     0.004 C 
ENDBRANCH   9  10
ENDBRANCH   8   9
ENDBRANCH   7   8
ENDBRANCH   1   7
TORSDOF 7
ENDMDL
MODEL 4
REMARK VINA RESULT:    -5.662      3.029      4.848
REMARK INTER + INTRA:          -8.285
REMARK INTER:                  -8.031
REMARK INTRA:                  -0.254
REMARK UNBOUND:                -0.307
REMARK SMILES C=CCCCCCCC(=O)[O-]
REMARK SMILES IDX 6 1 7 2 8 3 9 4 10 5 11 6 5 7 4 8 3 9 2 10 1 11
REMARK H PARENT
REMARK Flexibility Score: inf
ROOT
ATOM      1  C   UNL     1       3.096   0.568  -6.624  1.00  0.00     0.000 C 
ENDROOT
BRANCH   1   2
ATOM      2  C   UNL     1       1.735   0.322  -7.302  1.00  0.00     0.006 C 
BRANCH   2   3
ATOM      3  C   UNL     1       0.518   0.693  -6.437  1.00  0.00     0.053 C 
BRANCH   3   4
ATOM      4  C   UNL     1      -0.443  -0.447  -6.301  1.00  0.00     0.041 C 
ATOM      5  O   UNL     1      -0.826  -0.820  -5.160  1.00  0.00    -0.550 OA
ATOM      6  O   UNL     1      -0.940  -1.077  -7.435  1.00  0.00    -0.550 OA
ENDBRANCH   3   4
ENDBRANCH   2   3
ENDBRANCH   1   2
BRANCH   1   7
ATOM      7  C   UNL     1       2.998   0.603  -5.089  1.00  0.00     0.000 C 
BRANCH   7   8
ATOM      8  C   UNL     1       4.328   0.245  -4.405  1.00  0.00     0.004 C 
BRANCH   8   9
ATOM      9  C   UNL     1       4.128  -0.484  -3.066  1.00  0.00     0.027 C 
BRANCH   9  10
ATOM     10  C   UNL     1       5.298  -1.376  -2.756  1.00  0.00    -0.035 C 
ATOM     11  C   UNL     1       5.191  -2.708  -2.774  1.00  0.00     0.004 C 
ENDBRANCH   9  10
ENDBRANCH   8   9
ENDBRANCH   7   8
ENDBRANCH   1   7
TORSDOF 7
ENDMDL
MODEL 5
REMARK VINA RESULT:    -5.653      3.111      5.378
REMARK INTER + INTRA:          -8.273
REMARK INTER:                  -7.907
REMARK INTRA:                  -0.366
REMARK UNBOUND:                -0.307
REMARK SMILES C=CCCCCCCC(=O)[O-]
REMARK SMILES IDX 6 1 7 2 8 3 9 4 10 5 11 6 5 7 4 8 3 9 2 10 1 11
REMARK H PARENT
REMARK Flexibility Score: inf
ROOT
ATOM      1  C   UNL     1       4.500  -0.038  -4.246  1.00  0.00     0.000 C 
ENDROOT
BRANCH   1   2
ATOM      2  C   UNL     1       3.740  -0.501  -2.988  1.00  0.00     0.006 C 
BRANCH   2   3
ATOM      3  C   UNL     1       4.592  -1.302  -1.990  1.00  0.00     0.053 C 
BRANCH   3   4
ATOM      4  C   UNL     1       4.992  -2.638  -2.537  1.00  0.00     0.041 C 
ATOM      5  O   UNL     1       6.174  -2.835  -2.925  1.00  0.00    -0.550 OA
ATOM      6  O   UNL     1       4.068  -3.674  -2.588  1.00  0.00    -0.550 OA
ENDBRANCH   3   4
ENDBRANCH   2   3
ENDBRANCH   1   2
BRANCH   1   7
ATOM      7  C   UNL     1       3.655   0.881  -5.146  1.00  0.00     0.000 C 
BRANCH   7   8
ATOM      8  C   UNL     1       3.865   0.594  -6.642  1.00  0.00     0.004 C 
BRANCH   8   9
ATOM      9  C   UNL     1       2.542   0.503  -7.419  1.00  0.00     0.027 C 
BRANCH   9  10
ATOM     10  C   UNL     1       1.374   0.854  -6.540  1.00  0.00    -0.035 C 
ATOM     11  C   UNL     1       0.256   0.123  -6.531  1.00  0.00     0.004 C 
ENDBRANCH   9  10
ENDBRANCH   8   9
ENDBRANCH   7   8
ENDBRANCH   1   7
TORSDOF 7
ENDMDL
MODEL 6
REMARK VINA RESULT:    -5.637      3.587      5.217
REMARK INTER + INTRA:          -8.250
REMARK INTER:                  -7.927
REMARK INTRA:                  -0.324
REMARK UNBOUND:                -0.307
REMARK SMILES C=CCCCCCCC(=O)[O-]
REMARK SMILES IDX 6 1 7 2 8 3 9 4 10 5 11 6 5 7 4 8 3 9 2 10 1 11
REMARK H PARENT
REMARK Flexibility Score: inf
ROOT
ATOM      1  C   UNL     1       4.451   0.127  -4.288  1.00  0.00     0.000 C 
ENDROOT
BRANCH   1   2
ATOM      2  C   UNL     1       3.704  -0.581  -3.143  1.00  0.00     0.006 C 
BRANCH   2   3
ATOM      3  C   UNL     1       4.590  -0.955  -1.942  1.00  0.00     0.053 C 
BRANCH   3   4
ATOM      4  C   UNL     1       5.815  -1.709  -2.360  1.00  0.00     0.041 C 
ATOM      5  O   UNL     1       6.959  -1.257  -2.091  1.00  0.00    -0.550 OA
ATOM      6  O   UNL     1       5.691  -2.927  -3.017  1.00  0.00    -0.550 OA
ENDBRANCH   3   4
ENDBRANCH   2   3
ENDBRANCH   1   2
BRANCH   1   7
ATOM      7  C   UNL     1       3.520   0.982  -5.165  1.00  0.00     0.000 C 
BRANCH   7   8
ATOM      8  C   UNL     1       2.101   0.398  -5.261  1.00  0.00     0.004 C 
BRANCH   8   9
ATOM      9  C   UNL     1       1.465   0.610  -6.644  1.00  0.00     0.027 C 
BRANCH   9  10
ATOM     10  C   UNL     1       0.050   0.100  -6.673  1.00  0.00    -0.035 C 
ATOM     11  C   UNL     1      -0.469  -0.592  -5.655  1.00  0.00     0.004 C 
ENDBRANCH   9  10
ENDBRANCH   8   9
ENDBRANCH   7   8
ENDBRANCH   1   7
TORSDOF 7
ENDMDL
MODEL 7
REMARK VINA RESULT:    -5.511      4.629      6.389
REMARK INTER + INTRA:          -8.073
REMARK INTER:                  -7.527
REMARK INTRA:                  -0.546
REMARK UNBOUND:                -0.307
REMARK SMILES C=CCCCCCCC(=O)[O-]
REMARK SMILES IDX 6 1 7 2 8 3 9 4 10 5 11 6 5 7 4 8 3 9 2 10 1 11
REMARK H PARENT
REMARK Flexibility Score: inf
ROOT
ATOM      1  C   UNL     1       3.935   3.759  -5.712  1.00  0.00     0.000 C 
ENDROOT
BRANCH   1   2
ATOM      2  C   UNL     1       4.540   4.308  -4.407  1.00  0.00     0.006 C 
BRANCH   2   3
ATOM      3  C   UNL     1       5.986   4.815  -4.542  1.00  0.00     0.053 C 
BRANCH   3   4
ATOM      4  C   UNL     1       6.323   5.837  -3.500  1.00  0.00     0.041 C 
ATOM      5  O   UNL     1       6.808   6.950  -3.838  1.00  0.00    -0.550 OA
ATOM      6  O   UNL     1       6.071   5.573  -2.160  1.00  0.00    -0.550 OA
ENDBRANCH   3   4
ENDBRANCH   2   3
ENDBRANCH   1   2
BRANCH   1   7
ATOM      7  C   UNL     1       4.915   2.865  -6.492  1.00  0.00     0.000 C 
BRANCH   7   8
ATOM      8  C   UNL     1       4.627   1.367  -6.300  1.00  0.00     0.004 C 
BRANCH   8   9
ATOM      9  C   UNL     1       3.183   1.094  -5.848  1.00  0.00     0.027 C 
BRANCH   9  10
ATOM     10  C   UNL     1       3.157   0.314  -4.563  1.00  0.00    -0.035 C 
ATOM     11  C   UNL     1       4.248   0.170  -3.805  1.00  0.00     0.004 C 
ENDBRANCH   9  10
ENDBRANCH   8   9
ENDBRANCH   7   8
ENDBRANCH   1   7
TORSDOF 7
ENDMDL
MODEL 8
REMARK VINA RESULT:    -5.405      3.010      5.557
REMARK INTER + INTRA:          -7.924
REMARK INTER:                  -7.607
REMARK INTRA:                  -0.316
REMARK UNBOUND:                -0.307
REMARK SMILES C=CCCCCCCC(=O)[O-]
REMARK SMILES IDX 6 1 7 2 8 3 9 4 10 5 11 6 5 7 4 8 3 9 2 10 1 11
REMARK H PARENT
REMARK Flexibility Score: inf
ROOT
ATOM      1  C   UNL     1       3.660  -0.116  -3.634  1.00  0.00     0.000 C 
ENDROOT
BRANCH   1   2
ATOM      2  C   UNL     1       4.993  -0.838  -3.365  1.00  0.00     0.006 C 
BRANCH   2   3
ATOM      3  C   UNL     1       4.989  -1.735  -2.115  1.00  0.00     0.053 C 
BRANCH   3   4
ATOM      4  C   UNL     1       4.925  -3.189  -2.467  1.00  0.00     0.041 C 
ATOM      5  O   UNL     1       3.821  -3.721  -2.761  1.00  0.00    -0.550 OA
ATOM      6  O   UNL     1       6.087  -3.948  -2.504  1.00  0.00    -0.550 OA
ENDBRANCH   3   4
ENDBRANCH   2   3
ENDBRANCH   1   2
BRANCH   1   7
ATOM      7  C   UNL     1       3.645   0.618  -4.987  1.00  0.00     0.000 C 
BRANCH   7   8
ATOM      8  C   UNL     1       2.251   0.630  -5.635  1.00  0.00     0.004 C 
BRANCH   8   9
ATOM      9  C   UNL     1       2.309   0.521  -7.167  1.00  0.00     0.027 C 
BRANCH   9  10
ATOM     10  C   UNL     1       3.712   0.251  -7.637  1.00  0.00    -0.035 C 
ATOM     11  C   UNL     1       3.963  -0.245  -8.852  1.00  0.00     0.004 C 
ENDBRANCH   9  10
ENDBRANCH   8   9
ENDBRANCH   7   8
ENDBRANCH   1   7
TORSDOF 7
ENDMDL
MODEL 9
REMARK VINA RESULT:    -5.365      1.925      2.995
REMARK INTER + INTRA:          -7.867
REMARK INTER:                  -7.554
REMARK INTRA:                  -0.313
REMARK UNBOUND:                -0.307
REMARK SMILES C=CCCCCCCC(=O)[O-]
REMARK SMILES IDX 6 1 7 2 8 3 9 4 10 5 11 6 5 7 4 8 3 9 2 10 1 11
REMARK H PARENT
REMARK Flexibility Score: inf
ROOT
ATOM      1  C   UNL     1       4.487   0.018  -4.412  1.00  0.00     0.000 C 
ENDROOT
BRANCH   1   2
ATOM      2  C   UNL     1       3.747   1.146  -5.156  1.00  0.00     0.006 C 
BRANCH   2   3
ATOM      3  C   UNL     1       2.978   0.685  -6.406  1.00  0.00     0.053 C 
BRANCH   3   4
ATOM      4  C   UNL     1       1.502   0.891  -6.267  1.00  0.00     0.041 C 
ATOM      5  O   UNL     1       0.933   1.832  -6.882  1.00  0.00    -0.550 OA
ATOM      6  O   UNL     1       0.749   0.025  -5.484  1.00  0.00    -0.550 OA
ENDBRANCH   3   4
ENDBRANCH   2   3
ENDBRANCH   1   2
BRANCH   1   7
ATOM      7  C   UNL     1       3.748  -0.442  -3.144  1.00  0.00     0.000 C 
BRANCH   7   8
ATOM      8  C   UNL     1       4.690  -1.089  -2.116  1.00  0.00     0.004 C 
BRANCH   8   9
ATOM      9  C   UNL     1       5.339  -2.382  -2.638  1.00  0.00     0.027 C 
BRANCH   9  10
ATOM     10  C   UNL     1       4.395  -3.547  -2.517  1.00  0.00    -0.035 C 
ATOM     11  C   UNL     1       4.752  -4.781  -2.882  1.00  0.00     0.004 C 
ENDBRANCH   9  10
ENDBRANCH   8   9
ENDBRANCH   7   8
ENDBRANCH   1   7
TORSDOF 7
ENDMDL
