MODEL 1
REMARK VINA RESULT:    -5.980      0.000      0.000
REMARK INTER + INTRA:          -6.678
REMARK INTER:                  -6.504
REMARK INTRA:                  -0.173
REMARK UNBOUND:                -0.173
REMARK SMILES C[C@@H]1[C@@H](C)CC[C@@]2(C(=O)[O-])CC[C@@]3(C)C(=CC[C@H]4[C@@]5(C)CC[C@H](O)C(C)(C)[C@H]5CC[C@]43C)[C@@H]12
REMARK SMILES IDX 7 1 6 2 11 3 33 4 5 5 12 6 15 7 2 8 3 9 13 10 16 11 1 12
REMARK SMILES IDX 4 13 14 14 31 15 17 16 18 17 30 18 32 19 19 20 29 21 28 22
REMARK SMILES IDX 21 23 20 24 25 25 22 26 23 27 26 28 27 29 8 30 9 31 10 32
REMARK SMILES IDX 24 33
REMARK H PARENT 24 34
REMARK Flexibility Score: inf
ROOT
ATOM      1  C   UNL     1      17.784  -4.870 -34.501  1.00  0.00     0.017 C 
ATOM      2  C   UNL     1      16.399  -5.101 -35.195  1.00  0.00     0.014 C 
ATOM      3  C   UNL     1      18.383  -6.257 -34.163  1.00  0.00     0.014 C 
ATOM      4  C   UNL     1      18.781  -4.106 -35.439  1.00  0.00     0.030 C 
ATOM      5  C   UNL     1      16.137  -4.120 -36.338  1.00  0.00     0.004 C 
ATOM      6  C   UNL     1      19.729  -6.161 -33.442  1.00  0.00     0.013 C 
ATOM      7  C   UNL     1      20.226  -4.123 -34.898  1.00  0.00    -0.063 C 
ATOM      8  C   UNL     1      18.630  -4.570 -36.928  1.00  0.00    -0.003 C 
ATOM      9  C   UNL     1      17.188  -4.265 -37.466  1.00  0.00    -0.011 C 
ATOM     10  C   UNL     1      20.840  -5.344 -34.198  1.00  0.00    -0.006 C 
ATOM     11  C   UNL     1      20.986  -3.046 -35.165  1.00  0.00    -0.027 C 
ATOM     12  C   UNL     1      19.675  -3.937 -37.866  1.00  0.00     0.008 C 
ATOM     13  C   UNL     1      16.745  -5.331 -38.485  1.00  0.00     0.008 C 
ATOM     14  C   UNL     1      21.401  -6.257 -35.329  1.00  0.00     0.017 C 
ATOM     15  C   UNL     1      22.011  -4.896 -33.172  1.00  0.00    -0.020 C 
ATOM     16  C   UNL     1      22.357  -2.802 -34.625  1.00  0.00     0.032 C 
ATOM     17  C   UNL     1      23.071  -3.983 -33.896  1.00  0.00     0.006 C 
ATOM     18  C   UNL     1      21.424  -4.074 -31.968  1.00  0.00     0.008 C 
ATOM     19  C   UNL     1      22.697  -6.192 -32.623  1.00  0.00     0.012 C 
ATOM     20  C   UNL     1      24.309  -3.507 -32.961  1.00  0.00    -0.025 C 
ATOM     21  C   UNL     1      22.335  -2.974 -31.359  1.00  0.00     0.005 C 
ATOM     22  C   UNL     1      23.852  -3.294 -31.440  1.00  0.00     0.003 C 
ATOM     23  C   UNL     1      24.973  -2.209 -33.559  1.00  0.00     0.010 C 
ATOM     24  C   UNL     1      25.414  -4.617 -33.023  1.00  0.00     0.012 C 
ATOM     25  C   UNL     1      24.786  -2.360 -30.534  1.00  0.00    -0.006 C 
ATOM     26  C   UNL     1      25.970  -1.507 -32.645  1.00  0.00     0.033 C 
ATOM     27  C   UNL     1      25.286  -1.119 -31.331  1.00  0.00     0.120 C 
ATOM     28  C   UNL     1      25.985  -3.185 -29.980  1.00  0.00     0.014 C 
ATOM     29  C   UNL     1      24.041  -1.835 -29.276  1.00  0.00     0.014 C 
ENDROOT
BRANCH   1  30
ATOM     30  C   UNL     1      17.546  -4.082 -33.215  1.00  0.00     0.048 C 
ATOM     31  O   UNL     1      16.969  -4.629 -32.237  1.00  0.00    -0.550 OA
ATOM     32  O   UNL     1      17.899  -2.740 -33.115  1.00  0.00    -0.550 OA
ENDBRANCH   1  30
BRANCH  27  33
ATOM     33  O   UNL     1      26.123  -0.293 -30.554  1.00  0.00    -0.393 OA
ATOM     34  H   UNL     1      27.038  -0.322 -30.938  1.00  0.00     0.210 HD
ENDBRANCH  27  33
TORSDOF 2
ENDMDL
MODEL 2
REMARK VINA RESULT:    -5.922      2.544      3.899
REMARK INTER + INTRA:          -6.615
REMARK INTER:                  -6.444
REMARK INTRA:                  -0.171
REMARK UNBOUND:                -0.173
REMARK SMILES C[C@@H]1[C@@H](C)CC[C@@]2(C(=O)[O-])CC[C@@]3(C)C(=CC[C@H]4[C@@]5(C)CC[C@H](O)C(C)(C)[C@H]5CC[C@]43C)[C@@H]12
REMARK SMILES IDX 7 1 6 2 11 3 33 4 5 5 12 6 15 7 2 8 3 9 13 10 16 11 1 12
REMARK SMILES IDX 4 13 14 14 31 15 17 16 18 17 30 18 32 19 19 20 29 21 28 22
REMARK SMILES IDX 21 23 20 24 25 25 22 26 23 27 26 28 27 29 8 30 9 31 10 32
REMARK SMILES IDX 24 33
REMARK H PARENT 24 34
REMARK Flexibility Score: inf
ROOT
ATOM      1  C   UNL     1      19.167  -2.766 -36.811  1.00  0.00     0.017 C 
ATOM      2  C   UNL     1      18.277  -2.407 -38.049  1.00  0.00     0.014 C 
ATOM      3  C   UNL     1      18.600  -2.013 -35.584  1.00  0.00     0.014 C 
ATOM      4  C   UNL     1      19.146  -4.306 -36.512  1.00  0.00     0.030 C 
ATOM      5  C   UNL     1      18.041  -3.598 -38.978  1.00  0.00     0.004 C 
ATOM      6  C   UNL     1      19.414  -2.257 -34.312  1.00  0.00     0.013 C 
ATOM      7  C   UNL     1      19.770  -4.645 -35.143  1.00  0.00    -0.063 C 
ATOM      8  C   UNL     1      17.722  -4.913 -36.756  1.00  0.00    -0.003 C 
ATOM      9  C   UNL     1      17.292  -4.744 -38.255  1.00  0.00    -0.011 C 
ATOM     10  C   UNL     1      19.582  -3.765 -33.899  1.00  0.00    -0.006 C 
ATOM     11  C   UNL     1      20.410  -5.824 -35.044  1.00  0.00    -0.027 C 
ATOM     12  C   UNL     1      17.624  -6.398 -36.355  1.00  0.00     0.008 C 
ATOM     13  C   UNL     1      15.768  -4.551 -38.369  1.00  0.00     0.008 C 
ATOM     14  C   UNL     1      18.242  -4.220 -33.245  1.00  0.00     0.017 C 
ATOM     15  C   UNL     1      20.823  -3.937 -32.872  1.00  0.00    -0.020 C 
ATOM     16  C   UNL     1      21.193  -6.285 -33.858  1.00  0.00     0.032 C 
ATOM     17  C   UNL     1      21.068  -5.458 -32.541  1.00  0.00     0.006 C 
ATOM     18  C   UNL     1      22.151  -3.369 -33.490  1.00  0.00     0.008 C 
ATOM     19  C   UNL     1      20.485  -3.145 -31.565  1.00  0.00     0.012 C 
ATOM     20  C   UNL     1      22.272  -5.737 -31.488  1.00  0.00    -0.025 C 
ATOM     21  C   UNL     1      23.473  -4.072 -33.080  1.00  0.00     0.005 C 
ATOM     22  C   UNL     1      23.453  -4.666 -31.646  1.00  0.00     0.003 C 
ATOM     23  C   UNL     1      22.798  -7.215 -31.647  1.00  0.00     0.010 C 
ATOM     24  C   UNL     1      21.678  -5.650 -30.041  1.00  0.00     0.012 C 
ATOM     25  C   UNL     1      24.888  -5.091 -31.073  1.00  0.00    -0.006 C 
ATOM     26  C   UNL     1      24.096  -7.526 -30.912  1.00  0.00     0.033 C 
ATOM     27  C   UNL     1      25.203  -6.583 -31.390  1.00  0.00     0.120 C 
ATOM     28  C   UNL     1      24.948  -4.822 -29.540  1.00  0.00     0.014 C 
ATOM     29  C   UNL     1      26.034  -4.234 -31.679  1.00  0.00     0.014 C 
ENDROOT
BRANCH   1  30
ATOM     30  C   UNL     1      20.590  -2.294 -37.097  1.00  0.00     0.048 C 
ATOM     31  O   UNL     1      20.862  -1.063 -37.083  1.00  0.00    -0.550 OA
ATOM     32  O   UNL     1      21.596  -3.194 -37.436  1.00  0.00    -0.550 OA
ENDBRANCH   1  30
BRANCH  27  33
ATOM     33  O   UNL     1      26.456  -6.978 -30.878  1.00  0.00    -0.393 OA
ATOM     34  H   UNL     1      26.906  -7.548 -31.555  1.00  0.00     0.210 HD
ENDBRANCH  27  33
TORSDOF 2
ENDMDL
MODEL 3
REMARK VINA RESULT:    -5.548      1.725      7.934
REMARK INTER + INTRA:          -6.207
REMARK INTER:                  -6.036
REMARK INTRA:                  -0.171
REMARK UNBOUND:                -0.173
REMARK SMILES C[C@@H]1[C@@H](C)CC[C@@]2(C(=O)[O-])CC[C@@]3(C)C(=CC[C@H]4[C@@]5(C)CC[C@H](O)C(C)(C)[C@H]5CC[C@]43C)[C@@H]12
REMARK SMILES IDX 7 1 6 2 11 3 33 4 5 5 12 6 15 7 2 8 3 9 13 10 16 11 1 12
REMARK SMILES IDX 4 13 14 14 31 15 17 16 18 17 30 18 32 19 19 20 29 21 28 22
REMARK SMILES IDX 21 23 20 24 25 25 22 26 23 27 26 28 27 29 8 30 9 31 10 32
REMARK SMILES IDX 24 33
REMARK H PARENT 24 34
REMARK Flexibility Score: inf
ROOT
ATOM      1  C   UNL     1      24.903  -2.802 -32.095  1.00  0.00     0.017 C 
ATOM      2  C   UNL     1      26.118  -2.415 -31.184  1.00  0.00     0.014 C 
ATOM      3  C   UNL     1      25.168  -4.216 -32.665  1.00  0.00     0.014 C 
ATOM      4  C   UNL     1      23.560  -2.828 -31.286  1.00  0.00     0.030 C 
ATOM      5  C   UNL     1      25.699  -1.654 -29.926  1.00  0.00     0.004 C 
ATOM      6  C   UNL     1      24.061  -4.691 -33.606  1.00  0.00     0.013 C 
ATOM      7  C   UNL     1      22.410  -3.481 -32.080  1.00  0.00    -0.063 C 
ATOM      8  C   UNL     1      23.776  -3.404 -29.844  1.00  0.00    -0.003 C 
ATOM      9  C   UNL     1      24.771  -2.509 -29.027  1.00  0.00    -0.011 C 
ATOM     10  C   UNL     1      22.613  -4.699 -32.993  1.00  0.00    -0.006 C 
ATOM     11  C   UNL     1      21.172  -3.005 -31.856  1.00  0.00    -0.027 C 
ATOM     12  C   UNL     1      22.461  -3.565 -29.057  1.00  0.00     0.008 C 
ATOM     13  C   UNL     1      25.600  -3.361 -28.050  1.00  0.00     0.008 C 
ATOM     14  C   UNL     1      22.504  -5.953 -32.073  1.00  0.00     0.017 C 
ATOM     15  C   UNL     1      21.498  -4.736 -34.168  1.00  0.00    -0.020 C 
ATOM     16  C   UNL     1      19.945  -3.401 -32.611  1.00  0.00     0.032 C 
ATOM     17  C   UNL     1      20.047  -4.631 -33.566  1.00  0.00     0.006 C 
ATOM     18  C   UNL     1      21.685  -3.533 -35.162  1.00  0.00     0.008 C 
ATOM     19  C   UNL     1      21.664  -6.081 -34.952  1.00  0.00     0.012 C 
ATOM     20  C   UNL     1      18.851  -4.695 -34.662  1.00  0.00    -0.025 C 
ATOM     21  C   UNL     1      20.401  -2.961 -35.820  1.00  0.00     0.005 C 
ATOM     22  C   UNL     1      19.285  -4.015 -36.048  1.00  0.00     0.003 C 
ATOM     23  C   UNL     1      17.542  -4.041 -34.075  1.00  0.00     0.010 C 
ATOM     24  C   UNL     1      18.501  -6.203 -34.907  1.00  0.00     0.012 C 
ATOM     25  C   UNL     1      18.099  -3.543 -37.016  1.00  0.00    -0.006 C 
ATOM     26  C   UNL     1      16.428  -3.795 -35.085  1.00  0.00     0.033 C 
ATOM     27  C   UNL     1      16.938  -2.890 -36.210  1.00  0.00     0.120 C 
ATOM     28  C   UNL     1      17.585  -4.751 -37.855  1.00  0.00     0.014 C 
ATOM     29  C   UNL     1      18.583  -2.501 -38.062  1.00  0.00     0.014 C 
ENDROOT
BRANCH   1  30
ATOM     30  C   UNL     1      24.823  -1.790 -33.235  1.00  0.00     0.048 C 
ATOM     31  O   UNL     1      25.743  -1.733 -34.095  1.00  0.00    -0.550 OA
ATOM     32  O   UNL     1      23.778  -0.876 -33.318  1.00  0.00    -0.550 OA
ENDBRANCH   1  30
BRANCH  27  33
ATOM     33  O   UNL     1      15.878  -2.482 -37.046  1.00  0.00    -0.393 OA
ATOM     34  H   UNL     1      15.721  -3.191 -37.723  1.00  0.00     0.210 HD
ENDBRANCH  27  33
TORSDOF 2
ENDMDL
MODEL 4
REMARK VINA RESULT:    -5.532      3.950      8.007
REMARK INTER + INTRA:          -6.190
REMARK INTER:                  -6.024
REMARK INTRA:                  -0.166
REMARK UNBOUND:                -0.173
REMARK SMILES C[C@@H]1[C@@H](C)CC[C@@]2(C(=O)[O-])CC[C@@]3(C)C(=CC[C@H]4[C@@]5(C)CC[C@H](O)C(C)(C)[C@H]5CC[C@]43C)[C@@H]12
REMARK SMILES IDX 7 1 6 2 11 3 33 4 5 5 12 6 15 7 2 8 3 9 13 10 16 11 1 12
REMARK SMILES IDX 4 13 14 14 31 15 17 16 18 17 30 18 32 19 19 20 29 21 28 22
REMARK SMILES IDX 21 23 20 24 25 25 22 26 23 27 26 28 27 29 8 30 9 31 10 32
REMARK SMILES IDX 24 33
REMARK H PARENT 24 34
REMARK Flexibility Score: inf
ROOT
ATOM      1  C   UNL     1      19.068   0.802 -28.029  1.00  0.00     0.017 C 
ATOM      2  C   UNL     1      18.815   1.611 -26.712  1.00  0.00     0.014 C 
ATOM      3  C   UNL     1      19.212   1.816 -29.190  1.00  0.00     0.014 C 
ATOM      4  C   UNL     1      20.381  -0.051 -27.940  1.00  0.00     0.030 C 
ATOM      5  C   UNL     1      19.536   1.017 -25.502  1.00  0.00     0.004 C 
ATOM      6  C   UNL     1      19.426   1.139 -30.544  1.00  0.00     0.013 C 
ATOM      7  C   UNL     1      20.804  -0.621 -29.310  1.00  0.00    -0.063 C 
ATOM      8  C   UNL     1      21.508   0.719 -27.170  1.00  0.00    -0.003 C 
ATOM      9  C   UNL     1      21.072   1.021 -25.695  1.00  0.00    -0.011 C 
ATOM     10  C   UNL     1      20.658   0.164 -30.621  1.00  0.00    -0.006 C 
ATOM     11  C   UNL     1      21.422  -1.816 -29.305  1.00  0.00    -0.027 C 
ATOM     12  C   UNL     1      22.855  -0.030 -27.168  1.00  0.00     0.008 C 
ATOM     13  C   UNL     1      21.675   2.352 -25.206  1.00  0.00     0.008 C 
ATOM     14  C   UNL     1      21.940   1.041 -30.747  1.00  0.00     0.017 C 
ATOM     15  C   UNL     1      20.508  -0.840 -31.885  1.00  0.00    -0.020 C 
ATOM     16  C   UNL     1      21.791  -2.602 -30.520  1.00  0.00     0.032 C 
ATOM     17  C   UNL     1      21.679  -1.892 -31.905  1.00  0.00     0.006 C 
ATOM     18  C   UNL     1      19.156  -1.638 -31.816  1.00  0.00     0.008 C 
ATOM     19  C   UNL     1      20.529   0.021 -33.193  1.00  0.00     0.012 C 
ATOM     20  C   UNL     1      21.641  -2.926 -33.156  1.00  0.00    -0.025 C 
ATOM     21  C   UNL     1      19.160  -3.075 -32.404  1.00  0.00     0.005 C 
ATOM     22  C   UNL     1      20.138  -3.268 -33.593  1.00  0.00     0.003 C 
ATOM     23  C   UNL     1      22.459  -4.228 -32.809  1.00  0.00     0.010 C 
ATOM     24  C   UNL     1      22.395  -2.257 -34.357  1.00  0.00     0.012 C 
ATOM     25  C   UNL     1      19.924  -4.618 -34.429  1.00  0.00    -0.006 C 
ATOM     26  C   UNL     1      22.286  -5.385 -33.784  1.00  0.00     0.033 C 
ATOM     27  C   UNL     1      20.807  -5.773 -33.872  1.00  0.00     0.120 C 
ATOM     28  C   UNL     1      20.225  -4.363 -35.936  1.00  0.00     0.014 C 
ATOM     29  C   UNL     1      18.447  -5.100 -34.387  1.00  0.00     0.014 C 
ENDROOT
BRANCH   1  30
ATOM     30  C   UNL     1      17.859  -0.097 -28.274  1.00  0.00     0.048 C 
ATOM     31  O   UNL     1      16.732   0.412 -28.515  1.00  0.00    -0.550 OA
ATOM     32  O   UNL     1      17.957  -1.482 -28.177  1.00  0.00    -0.550 OA
ENDBRANCH   1  30
BRANCH  27  33
ATOM     33  O   UNL     1      20.643  -6.965 -34.606  1.00  0.00    -0.393 OA
ATOM     34  H   UNL     1      19.962  -7.525 -34.151  1.00  0.00     0.210 HD
ENDBRANCH  27  33
TORSDOF 2
ENDMDL
MODEL 5
REMARK VINA RESULT:    -5.528      3.743      5.675
REMARK INTER + INTRA:          -6.186
REMARK INTER:                  -6.014
REMARK INTRA:                  -0.172
REMARK UNBOUND:                -0.173
REMARK SMILES C[C@@H]1[C@@H](C)CC[C@@]2(C(=O)[O-])CC[C@@]3(C)C(=CC[C@H]4[C@@]5(C)CC[C@H](O)C(C)(C)[C@H]5CC[C@]43C)[C@@H]12
REMARK SMILES IDX 7 1 6 2 11 3 33 4 5 5 12 6 15 7 2 8 3 9 13 10 16 11 1 12
REMARK SMILES IDX 4 13 14 14 31 15 17 16 18 17 30 18 32 19 19 20 29 21 28 22
REMARK SMILES IDX 21 23 20 24 25 25 22 26 23 27 26 28 27 29 8 30 9 31 10 32
REMARK SMILES IDX 24 33
REMARK H PARENT 24 34
REMARK Flexibility Score: inf
ROOT
ATOM      1  C   UNL     1      21.999  -4.270 -33.443  1.00  0.00     0.017 C 
ATOM      2  C   UNL     1      22.034  -5.335 -34.592  1.00  0.00     0.014 C 
ATOM      3  C   UNL     1      23.366  -3.544 -33.425  1.00  0.00     0.014 C 
ATOM      4  C   UNL     1      20.867  -3.208 -33.674  1.00  0.00     0.030 C 
ATOM      5  C   UNL     1      20.708  -5.441 -35.345  1.00  0.00     0.004 C 
ATOM      6  C   UNL     1      23.466  -2.499 -32.313  1.00  0.00     0.013 C 
ATOM      7  C   UNL     1      20.996  -1.998 -32.726  1.00  0.00    -0.063 C 
ATOM      8  C   UNL     1      20.731  -2.845 -35.192  1.00  0.00    -0.003 C 
ATOM      9  C   UNL     1      20.338  -4.106 -36.037  1.00  0.00    -0.011 C 
ATOM     10  C   UNL     1      22.350  -1.391 -32.327  1.00  0.00    -0.006 C 
ATOM     11  C   UNL     1      19.852  -1.408 -32.338  1.00  0.00    -0.027 C 
ATOM     12  C   UNL     1      19.717  -1.713 -35.452  1.00  0.00     0.008 C 
ATOM     13  C   UNL     1      20.955  -4.038 -37.446  1.00  0.00     0.008 C 
ATOM     14  C   UNL     1      22.717  -0.375 -33.450  1.00  0.00     0.017 C 
ATOM     15  C   UNL     1      22.256  -0.662 -30.884  1.00  0.00    -0.020 C 
ATOM     16  C   UNL     1      19.745  -0.314 -31.325  1.00  0.00     0.032 C 
ATOM     17  C   UNL     1      21.066   0.370 -30.855  1.00  0.00     0.006 C 
ATOM     18  C   UNL     1      22.002  -1.707 -29.738  1.00  0.00     0.008 C 
ATOM     19  C   UNL     1      23.615   0.069 -30.620  1.00  0.00     0.012 C 
ATOM     20  C   UNL     1      20.908   1.184 -29.459  1.00  0.00    -0.025 C 
ATOM     21  C   UNL     1      21.164  -1.225 -28.523  1.00  0.00     0.005 C 
ATOM     22  C   UNL     1      21.328   0.284 -28.201  1.00  0.00     0.003 C 
ATOM     23  C   UNL     1      19.438   1.736 -29.318  1.00  0.00     0.010 C 
ATOM     24  C   UNL     1      21.832   2.447 -29.529  1.00  0.00     0.012 C 
ATOM     25  C   UNL     1      20.755   0.735 -26.775  1.00  0.00    -0.006 C 
ATOM     26  C   UNL     1      19.078   2.286 -27.943  1.00  0.00     0.033 C 
ATOM     27  C   UNL     1      19.273   1.200 -26.882  1.00  0.00     0.120 C 
ATOM     28  C   UNL     1      21.650   1.860 -26.174  1.00  0.00     0.014 C 
ATOM     29  C   UNL     1      20.806  -0.420 -25.736  1.00  0.00     0.014 C 
ENDROOT
BRANCH   1  30
ATOM     30  C   UNL     1      21.784  -5.004 -32.122  1.00  0.00     0.048 C 
ATOM     31  O   UNL     1      22.689  -5.749 -31.659  1.00  0.00    -0.550 OA
ATOM     32  O   UNL     1      20.577  -4.917 -31.435  1.00  0.00    -0.550 OA
ENDBRANCH   1  30
BRANCH  27  33
ATOM     33  O   UNL     1      18.758   1.615 -25.637  1.00  0.00    -0.393 OA
ATOM     34  H   UNL     1      18.396   2.534 -25.737  1.00  0.00     0.210 HD
ENDBRANCH  27  33
TORSDOF 2
ENDMDL
MODEL 6
REMARK VINA RESULT:    -5.465      1.974      2.561
REMARK INTER + INTRA:          -6.117
REMARK INTER:                  -5.947
REMARK INTRA:                  -0.170
REMARK UNBOUND:                -0.173
REMARK SMILES C[C@@H]1[C@@H](C)CC[C@@]2(C(=O)[O-])CC[C@@]3(C)C(=CC[C@H]4[C@@]5(C)CC[C@H](O)C(C)(C)[C@H]5CC[C@]43C)[C@@H]12
REMARK SMILES IDX 7 1 6 2 11 3 33 4 5 5 12 6 15 7 2 8 3 9 13 10 16 11 1 12
REMARK SMILES IDX 4 13 14 14 31 15 17 16 18 17 30 18 32 19 19 20 29 21 28 22
REMARK SMILES IDX 21 23 20 24 25 25 22 26 23 27 26 28 27 29 8 30 9 31 10 32
REMARK SMILES IDX 24 33
REMARK H PARENT 24 34
REMARK Flexibility Score: inf
ROOT
ATOM      1  C   UNL     1      18.762  -2.382 -34.552  1.00  0.00     0.017 C 
ATOM      2  C   UNL     1      17.686  -1.760 -35.506  1.00  0.00     0.014 C 
ATOM      3  C   UNL     1      18.136  -3.625 -33.876  1.00  0.00     0.014 C 
ATOM      4  C   UNL     1      20.043  -2.828 -35.340  1.00  0.00     0.030 C 
ATOM      5  C   UNL     1      18.281  -1.241 -36.815  1.00  0.00     0.004 C 
ATOM      6  C   UNL     1      19.085  -4.302 -32.886  1.00  0.00     0.013 C 
ATOM      7  C   UNL     1      20.985  -3.698 -34.483  1.00  0.00    -0.063 C 
ATOM      8  C   UNL     1      19.669  -3.439 -36.734  1.00  0.00    -0.003 C 
ATOM      9  C   UNL     1      18.940  -2.379 -37.632  1.00  0.00    -0.011 C 
ATOM     10  C   UNL     1      20.474  -4.743 -33.480  1.00  0.00    -0.006 C 
ATOM     11  C   UNL     1      22.303  -3.588 -34.727  1.00  0.00    -0.027 C 
ATOM     12  C   UNL     1      20.886  -4.006 -37.490  1.00  0.00     0.008 C 
ATOM     13  C   UNL     1      17.905  -3.056 -38.549  1.00  0.00     0.008 C 
ATOM     14  C   UNL     1      20.237  -6.049 -34.296  1.00  0.00     0.017 C 
ATOM     15  C   UNL     1      21.549  -4.981 -32.291  1.00  0.00    -0.020 C 
ATOM     16  C   UNL     1      23.387  -4.234 -33.929  1.00  0.00     0.032 C 
ATOM     17  C   UNL     1      22.971  -5.314 -32.882  1.00  0.00     0.006 C 
ATOM     18  C   UNL     1      21.697  -3.697 -31.397  1.00  0.00     0.008 C 
ATOM     19  C   UNL     1      21.038  -6.167 -31.405  1.00  0.00     0.012 C 
ATOM     20  C   UNL     1      24.116  -5.606 -31.768  1.00  0.00    -0.025 C 
ATOM     21  C   UNL     1      23.093  -3.437 -30.770  1.00  0.00     0.005 C 
ATOM     22  C   UNL     1      23.891  -4.728 -30.446  1.00  0.00     0.003 C 
ATOM     23  C   UNL     1      25.546  -5.372 -32.389  1.00  0.00     0.010 C 
ATOM     24  C   UNL     1      24.055  -7.128 -31.401  1.00  0.00     0.012 C 
ATOM     25  C   UNL     1      25.168  -4.512 -29.504  1.00  0.00    -0.006 C 
ATOM     26  C   UNL     1      26.695  -5.352 -31.388  1.00  0.00     0.033 C 
ATOM     27  C   UNL     1      26.454  -4.257 -30.344  1.00  0.00     0.120 C 
ATOM     28  C   UNL     1      25.350  -5.743 -28.566  1.00  0.00     0.014 C 
ATOM     29  C   UNL     1      24.988  -3.300 -28.549  1.00  0.00     0.014 C 
ENDROOT
BRANCH   1  30
ATOM     30  C   UNL     1      19.118  -1.341 -33.494  1.00  0.00     0.048 C 
ATOM     31  O   UNL     1      18.279  -1.030 -32.607  1.00  0.00    -0.550 OA
ATOM     32  O   UNL     1      20.339  -0.674 -33.520  1.00  0.00    -0.550 OA
ENDBRANCH   1  30
BRANCH  27  33
ATOM     33  O   UNL     1      27.591  -4.081 -29.529  1.00  0.00    -0.393 OA
ATOM     34  H   UNL     1      27.918  -4.975 -29.247  1.00  0.00     0.210 HD
ENDBRANCH  27  33
TORSDOF 2
ENDMDL
MODEL 7
REMARK VINA RESULT:    -5.464      5.347      8.975
REMARK INTER + INTRA:          -6.116
REMARK INTER:                  -5.952
REMARK INTRA:                  -0.165
REMARK UNBOUND:                -0.173
REMARK SMILES C[C@@H]1[C@@H](C)CC[C@@]2(C(=O)[O-])CC[C@@]3(C)C(=CC[C@H]4[C@@]5(C)CC[C@H](O)C(C)(C)[C@H]5CC[C@]43C)[C@@H]12
REMARK SMILES IDX 7 1 6 2 11 3 33 4 5 5 12 6 15 7 2 8 3 9 13 10 16 11 1 12
REMARK SMILES IDX 4 13 14 14 31 15 17 16 18 17 30 18 32 19 19 20 29 21 28 22
REMARK SMILES IDX 21 23 20 24 25 25 22 26 23 27 26 28 27 29 8 30 9 31 10 32
REMARK SMILES IDX 24 33
REMARK H PARENT 24 34
REMARK Flexibility Score: inf
ROOT
ATOM      1  C   UNL     1      25.640  -4.316 -30.283  1.00  0.00     0.017 C 
ATOM      2  C   UNL     1      25.728  -4.739 -31.789  1.00  0.00     0.014 C 
ATOM      3  C   UNL     1      27.073  -3.996 -29.794  1.00  0.00     0.014 C 
ATOM      4  C   UNL     1      24.745  -3.042 -30.091  1.00  0.00     0.030 C 
ATOM      5  C   UNL     1      24.565  -4.204 -32.625  1.00  0.00     0.004 C 
ATOM      6  C   UNL     1      27.121  -3.605 -28.316  1.00  0.00     0.013 C 
ATOM      7  C   UNL     1      24.876  -2.441 -28.677  1.00  0.00    -0.063 C 
ATOM      8  C   UNL     1      24.951  -2.022 -31.263  1.00  0.00    -0.003 C 
ATOM      9  C   UNL     1      24.537  -2.655 -32.636  1.00  0.00    -0.011 C 
ATOM     10  C   UNL     1      26.207  -2.390 -27.912  1.00  0.00    -0.006 C 
ATOM     11  C   UNL     1      23.782  -1.849 -28.166  1.00  0.00    -0.027 C 
ATOM     12  C   UNL     1      24.187  -0.701 -31.052  1.00  0.00     0.008 C 
ATOM     13  C   UNL     1      25.410  -2.107 -33.780  1.00  0.00     0.008 C 
ATOM     14  C   UNL     1      26.927  -1.090 -28.380  1.00  0.00     0.017 C 
ATOM     15  C   UNL     1      25.956  -2.378 -26.311  1.00  0.00    -0.020 C 
ATOM     16  C   UNL     1      23.654  -1.325 -26.773  1.00  0.00     0.032 C 
ATOM     17  C   UNL     1      24.952  -1.231 -25.912  1.00  0.00     0.006 C 
ATOM     18  C   UNL     1      25.337  -3.738 -25.825  1.00  0.00     0.008 C 
ATOM     19  C   UNL     1      27.337  -2.160 -25.605  1.00  0.00     0.012 C 
ATOM     20  C   UNL     1      24.660  -1.110 -24.319  1.00  0.00    -0.025 C 
ATOM     21  C   UNL     1      24.370  -3.674 -24.613  1.00  0.00     0.005 C 
ATOM     22  C   UNL     1      24.697  -2.543 -23.602  1.00  0.00     0.003 C 
ATOM     23  C   UNL     1      23.290  -0.369 -24.074  1.00  0.00     0.010 C 
ATOM     24  C   UNL     1      25.762  -0.186 -23.695  1.00  0.00     0.012 C 
ATOM     25  C   UNL     1      23.942  -2.659 -22.194  1.00  0.00    -0.006 C 
ATOM     26  C   UNL     1      22.768  -0.423 -22.644  1.00  0.00     0.033 C 
ATOM     27  C   UNL     1      22.594  -1.881 -22.209  1.00  0.00     0.120 C 
ATOM     28  C   UNL     1      24.869  -2.146 -21.051  1.00  0.00     0.014 C 
ATOM     29  C   UNL     1      23.623  -4.134 -21.824  1.00  0.00     0.014 C 
ENDROOT
BRANCH   1  30
ATOM     30  C   UNL     1      25.074  -5.493 -29.492  1.00  0.00     0.048 C 
ATOM     31  O   UNL     1      25.711  -6.579 -29.432  1.00  0.00    -0.550 OA
ATOM     32  O   UNL     1      23.828  -5.418 -28.877  1.00  0.00    -0.550 OA
ENDBRANCH   1  30
BRANCH  27  33
ATOM     33  O   UNL     1      21.924  -1.959 -20.971  1.00  0.00    -0.393 OA
ATOM     34  H   UNL     1      22.203  -2.795 -20.514  1.00  0.00     0.210 HD
ENDBRANCH  27  33
TORSDOF 2
ENDMDL
MODEL 8
REMARK VINA RESULT:    -5.359      6.651      9.831
REMARK INTER + INTRA:          -6.002
REMARK INTER:                  -5.860
REMARK INTRA:                  -0.141
REMARK UNBOUND:                -0.173
REMARK SMILES C[C@@H]1[C@@H](C)CC[C@@]2(C(=O)[O-])CC[C@@]3(C)C(=CC[C@H]4[C@@]5(C)CC[C@H](O)C(C)(C)[C@H]5CC[C@]43C)[C@@H]12
REMARK SMILES IDX 7 1 6 2 11 3 33 4 5 5 12 6 15 7 2 8 3 9 13 10 16 11 1 12
REMARK SMILES IDX 4 13 14 14 31 15 17 16 18 17 30 18 32 19 19 20 29 21 28 22
REMARK SMILES IDX 21 23 20 24 25 25 22 26 23 27 26 28 27 29 8 30 9 31 10 32
REMARK SMILES IDX 24 33
REMARK H PARENT 24 34
REMARK Flexibility Score: inf
ROOT
ATOM      1  C   UNL     1      21.463   1.810 -27.231  1.00  0.00     0.017 C 
ATOM      2  C   UNL     1      21.182   2.913 -28.308  1.00  0.00     0.014 C 
ATOM      3  C   UNL     1      20.115   1.437 -26.569  1.00  0.00     0.014 C 
ATOM      4  C   UNL     1      22.084   0.521 -27.872  1.00  0.00     0.030 C 
ATOM      5  C   UNL     1      22.021   2.736 -29.573  1.00  0.00     0.004 C 
ATOM      6  C   UNL     1      20.268   0.389 -25.466  1.00  0.00     0.013 C 
ATOM      7  C   UNL     1      22.100  -0.671 -26.893  1.00  0.00    -0.063 C 
ATOM      8  C   UNL     1      21.445   0.217 -29.270  1.00  0.00    -0.003 C 
ATOM      9  C   UNL     1      21.715   1.390 -30.276  1.00  0.00    -0.011 C 
ATOM     10  C   UNL     1      20.960  -0.953 -25.903  1.00  0.00    -0.006 C 
ATOM     11  C   UNL     1      23.119  -1.541 -27.014  1.00  0.00    -0.027 C 
ATOM     12  C   UNL     1      21.934  -1.110 -29.881  1.00  0.00     0.008 C 
ATOM     13  C   UNL     1      20.543   1.549 -31.262  1.00  0.00     0.008 C 
ATOM     14  C   UNL     1      19.903  -1.789 -26.686  1.00  0.00     0.017 C 
ATOM     15  C   UNL     1      21.504  -1.760 -24.608  1.00  0.00    -0.020 C 
ATOM     16  C   UNL     1      23.395  -2.681 -26.088  1.00  0.00     0.032 C 
ATOM     17  C   UNL     1      22.296  -3.050 -25.044  1.00  0.00     0.006 C 
ATOM     18  C   UNL     1      22.480  -0.871 -23.756  1.00  0.00     0.008 C 
ATOM     19  C   UNL     1      20.269  -2.154 -23.729  1.00  0.00     0.012 C 
ATOM     20  C   UNL     1      22.854  -3.951 -23.814  1.00  0.00    -0.025 C 
ATOM     21  C   UNL     1      23.625  -1.606 -23.008  1.00  0.00     0.005 C 
ATOM     22  C   UNL     1      23.262  -3.046 -22.557  1.00  0.00     0.003 C 
ATOM     23  C   UNL     1      24.054  -4.849 -24.302  1.00  0.00     0.010 C 
ATOM     24  C   UNL     1      21.720  -4.948 -23.394  1.00  0.00     0.012 C 
ATOM     25  C   UNL     1      24.279  -3.698 -21.504  1.00  0.00    -0.006 C 
ATOM     26  C   UNL     1      24.839  -5.544 -23.196  1.00  0.00     0.033 C 
ATOM     27  C   UNL     1      25.401  -4.501 -22.225  1.00  0.00     0.120 C 
ATOM     28  C   UNL     1      23.500  -4.604 -20.505  1.00  0.00     0.014 C 
ATOM     29  C   UNL     1      24.970  -2.623 -20.621  1.00  0.00     0.014 C 
ENDROOT
BRANCH   1  30
ATOM     30  C   UNL     1      22.408   2.398 -26.186  1.00  0.00     0.048 C 
ATOM     31  O   UNL     1      21.955   3.125 -25.261  1.00  0.00    -0.550 OA
ATOM     32  O   UNL     1      23.783   2.200 -26.263  1.00  0.00    -0.550 OA
ENDBRANCH   1  30
BRANCH  27  33
ATOM     33  O   UNL     1      26.296  -5.095 -21.312  1.00  0.00    -0.393 OA
ATOM     34  H   UNL     1      27.145  -4.581 -21.323  1.00  0.00     0.210 HD
ENDBRANCH  27  33
TORSDOF 2
ENDMDL
MODEL 9
REMARK VINA RESULT:    -5.281      4.593      9.739
REMARK INTER + INTRA:          -5.917
REMARK INTER:                  -5.746
REMARK INTRA:                  -0.171
REMARK UNBOUND:                -0.173
REMARK SMILES C[C@@H]1[C@@H](C)CC[C@@]2(C(=O)[O-])CC[C@@]3(C)C(=CC[C@H]4[C@@]5(C)CC[C@H](O)C(C)(C)[C@H]5CC[C@]43C)[C@@H]12
REMARK SMILES IDX 7 1 6 2 11 3 33 4 5 5 12 6 15 7 2 8 3 9 13 10 16 11 1 12
REMARK SMILES IDX 4 13 14 14 31 15 17 16 18 17 30 18 32 19 19 20 29 21 28 22
REMARK SMILES IDX 21 23 20 24 25 25 22 26 23 27 26 28 27 29 8 30 9 31 10 32
REMARK SMILES IDX 24 33
REMARK H PARENT 24 34
REMARK Flexibility Score: inf
ROOT
ATOM      1  C   UNL     1      22.955  -1.104 -23.960  1.00  0.00     0.017 C 
ATOM      2  C   UNL     1      22.496  -0.876 -22.480  1.00  0.00     0.014 C 
ATOM      3  C   UNL     1      24.429  -0.645 -24.076  1.00  0.00     0.014 C 
ATOM      4  C   UNL     1      22.864  -2.615 -24.368  1.00  0.00     0.030 C 
ATOM      5  C   UNL     1      21.593  -1.994 -21.959  1.00  0.00     0.004 C 
ATOM      6  C   UNL     1      24.982  -0.785 -25.495  1.00  0.00     0.013 C 
ATOM      7  C   UNL     1      23.576  -2.906 -25.705  1.00  0.00    -0.063 C 
ATOM      8  C   UNL     1      23.282  -3.550 -23.181  1.00  0.00    -0.003 C 
ATOM      9  C   UNL     1      22.323  -3.360 -21.955  1.00  0.00    -0.011 C 
ATOM     10  C   UNL     1      24.892  -2.228 -26.114  1.00  0.00    -0.006 C 
ATOM     11  C   UNL     1      23.053  -3.879 -26.471  1.00  0.00    -0.027 C 
ATOM     12  C   UNL     1      23.328  -5.039 -23.575  1.00  0.00     0.008 C 
ATOM     13  C   UNL     1      23.080  -3.564 -20.629  1.00  0.00     0.008 C 
ATOM     14  C   UNL     1      26.034  -3.078 -25.480  1.00  0.00     0.017 C 
ATOM     15  C   UNL     1      25.034  -2.164 -27.727  1.00  0.00    -0.020 C 
ATOM     16  C   UNL     1      23.503  -4.227 -27.852  1.00  0.00     0.032 C 
ATOM     17  C   UNL     1      24.833  -3.591 -28.363  1.00  0.00     0.006 C 
ATOM     18  C   UNL     1      23.953  -1.211 -28.353  1.00  0.00     0.008 C 
ATOM     19  C   UNL     1      26.461  -1.614 -28.066  1.00  0.00     0.012 C 
ATOM     20  C   UNL     1      24.992  -3.641 -29.978  1.00  0.00    -0.025 C 
ATOM     21  C   UNL     1      23.430  -1.577 -29.768  1.00  0.00     0.005 C 
ATOM     22  C   UNL     1      24.479  -2.287 -30.664  1.00  0.00     0.003 C 
ATOM     23  C   UNL     1      24.251  -4.907 -30.556  1.00  0.00     0.010 C 
ATOM     24  C   UNL     1      26.510  -3.851 -30.307  1.00  0.00     0.012 C 
ATOM     25  C   UNL     1      24.091  -2.372 -32.216  1.00  0.00    -0.006 C 
ATOM     26  C   UNL     1      24.094  -4.934 -32.071  1.00  0.00     0.033 C 
ATOM     27  C   UNL     1      23.329  -3.692 -32.537  1.00  0.00     0.120 C 
ATOM     28  C   UNL     1      25.373  -2.242 -33.092  1.00  0.00     0.014 C 
ATOM     29  C   UNL     1      23.181  -1.192 -32.654  1.00  0.00     0.014 C 
ENDROOT
BRANCH   1  30
ATOM     30  C   UNL     1      22.074  -0.249 -24.868  1.00  0.00     0.048 C 
ATOM     31  O   UNL     1      22.170   1.008 -24.840  1.00  0.00    -0.550 OA
ATOM     32  O   UNL     1      21.112  -0.825 -25.692  1.00  0.00    -0.550 OA
ENDBRANCH   1  30
BRANCH  27  33
ATOM     33  O   UNL     1      22.994  -3.791 -33.902  1.00  0.00    -0.393 OA
ATOM     34  H   UNL     1      22.970  -2.876 -34.288  1.00  0.00     0.210 HD
ENDBRANCH  27  33
TORSDOF 2
ENDMDL
