MODEL 1
REMARK VINA RESULT:    19.041      0.000      0.000
REMARK INTER + INTRA:          26.262
REMARK INTER:                  23.494
REMARK INTRA:                   2.768
REMARK UNBOUND:                 2.768
REMARK SMILES C=C1CC[C@@H]2[C@H]([C@@H]3[C@H](C)CC[C@H]13)C2(C)C
REMARK SMILES IDX 3 1 2 2 1 3 12 4 9 5 8 6 10 7 7 8 11 9 4 11 5 12 6 13 13 14
REMARK SMILES IDX 14 16 15 17
REMARK H PARENT
REMARK Flexibility Score: 80.00
ROOT
ATOM      1  C   UNL     1       1.438   4.001  -9.837  1.00  0.00     0.031 C 
ENDROOT
BRANCH   1   2
ATOM      2  C   UNL     1       1.531   5.181  -8.870  1.00  0.00    -0.074 C 
ATOM      3  C   UNL     1       2.771   5.563  -8.501  1.00  0.00     0.008 C 
BRANCH   2   4
ATOM      4  C   UNL     1       0.312   5.692  -8.080  1.00  0.00     0.018 C 
ATOM      5  C   UNL     1      -3.070   7.345  -8.695  1.00  0.00     0.008 C 
ATOM      6  C   UNL     1      -1.874   6.696  -7.983  1.00  0.00    -0.010 C 
ATOM      7  C   UNL     1      -0.913   7.716  -7.373  1.00  0.00     0.004 C 
ATOM      8  C   UNL     1      -1.007   5.783  -8.864  1.00  0.00     0.003 CG0
ATOM      9  C   UNL     1       0.483   7.100  -7.475  1.00  0.00     0.008 C 
ATOM     10  G   UNL     1      -0.764   6.400 -10.274  1.00  0.00     0.000 G0
ENDBRANCH   2   4
ENDBRANCH   1   2
BRANCH   1  11
ATOM     11  C   UNL     1       0.268   4.022 -10.835  1.00  0.00     0.009 C 
BRANCH  11  12
ATOM     12  C   UNL     1      -0.045   5.446 -11.328  1.00  0.00    -0.001 C 
ATOM     13  C   UNL     1      -0.756   6.365 -10.321  1.00  0.00     0.002 CG0
ATOM     14  C   UNL     1      -1.500   5.879 -11.580  1.00  0.00    -0.029 C 
ATOM     15  G   UNL     1      -1.034   5.761  -8.911  1.00  0.00     0.000 G0
ATOM     16  C   UNL     1      -2.609   4.811 -11.529  1.00  0.00     0.011 C 
ATOM     17  C   UNL     1      -1.650   6.929 -12.687  1.00  0.00     0.011 C 
ENDBRANCH  11  12
ENDBRANCH   1  11
TORSDOF 0
ENDMDL
MODEL 2
REMARK VINA RESULT:    21.724      1.038      3.640
REMARK INTER + INTRA:          29.572
REMARK INTER:                  26.374
REMARK INTRA:                   3.198
REMARK UNBOUND:                 2.768
REMARK SMILES C=C1CC[C@@H]2[C@H]([C@@H]3[C@H](C)CC[C@H]13)C2(C)C
REMARK SMILES IDX 3 1 2 2 1 3 12 4 9 5 8 6 10 7 7 8 11 9 4 11 5 12 6 13 13 14
REMARK SMILES IDX 14 16 15 17
REMARK H PARENT
REMARK Flexibility Score: 80.00
ROOT
ATOM      1  C   UNL     1      -0.612   5.866 -12.486  1.00  0.00     0.031 C 
ENDROOT
BRANCH   1   2
ATOM      2  C   UNL     1      -1.734   5.974 -11.453  1.00  0.00    -0.074 C 
ATOM      3  C   UNL     1      -2.975   5.657 -11.874  1.00  0.00     0.008 C 
BRANCH   2   4
ATOM      4  C   UNL     1      -1.552   6.725 -10.120  1.00  0.00     0.018 C 
ATOM      5  C   UNL     1       0.521   6.523  -6.925  1.00  0.00     0.008 C 
ATOM      6  C   UNL     1      -0.479   7.009  -7.984  1.00  0.00    -0.010 C 
ATOM      7  C   UNL     1      -1.920   6.598  -7.682  1.00  0.00     0.004 C 
ATOM      8  C   UNL     1      -0.200   6.527  -9.416  1.00  0.00     0.003 CG0
ATOM      9  C   UNL     1      -2.591   6.372  -9.038  1.00  0.00     0.008 C 
ATOM     10  G   UNL     1       0.219   5.026  -9.450  1.00  0.00     0.000 G0
ENDBRANCH   2   4
ENDBRANCH   1   2
BRANCH   1  11
ATOM     11  C   UNL     1       0.784   5.510 -11.948  1.00  0.00     0.009 C 
BRANCH  11  12
ATOM     12  C   UNL     1       0.718   4.486 -10.802  1.00  0.00    -0.001 C 
ATOM     13  C   UNL     1       0.213   5.020  -9.451  1.00  0.00     0.002 CG0
ATOM     14  C   UNL     1       1.684   4.590  -9.609  1.00  0.00    -0.029 C 
ATOM     15  G   UNL     1      -0.212   6.519  -9.416  1.00  0.00     0.000 G0
ATOM     16  C   UNL     1       2.842   5.604  -9.683  1.00  0.00     0.011 C 
ATOM     17  C   UNL     1       2.035   3.238  -8.976  1.00  0.00     0.011 C 
ENDBRANCH  11  12
ENDBRANCH   1  11
TORSDOF 0
ENDMDL
