MODEL 1
REMARK VINA RESULT:    -7.069      0.000      0.000
REMARK INTER + INTRA:         -17.296
REMARK INTER:                 -16.159
REMARK INTRA:                  -1.137
REMARK UNBOUND:                -1.137
REMARK SMILES CCCCCCCCCCCCCCCCCCCCCCCC(=O)[O-]
REMARK SMILES IDX 13 1 14 2 15 3 16 4 17 5 18 6 19 7 20 8 21 9 22 10 23 11
REMARK SMILES IDX 24 12 25 13 26 14 12 15 11 16 10 17 9 18 8 19 7 20 6 21 5 22
REMARK SMILES IDX 4 23 3 24 2 25 1 26
REMARK H PARENT
REMARK Flexibility Score: inf
ROOT
ATOM      1  C   UNL     1      24.088  -7.245  19.874  1.00  0.00     0.000 C 
ENDROOT
BRANCH   1   2
ATOM      2  C   UNL     1      24.704  -8.269  20.839  1.00  0.00     0.000 C 
BRANCH   2   3
ATOM      3  C   UNL     1      23.639  -9.073  21.601  1.00  0.00     0.000 C 
BRANCH   3   4
ATOM      4  C   UNL     1      23.411  -8.556  23.032  1.00  0.00     0.000 C 
BRANCH   4   5
ATOM      5  C   UNL     1      22.394  -9.396  23.836  1.00  0.00     0.000 C 
BRANCH   5   6
ATOM      6  C   UNL     1      21.063  -8.654  24.046  1.00  0.00     0.000 C 
BRANCH   6   7
ATOM      7  C   UNL     1      20.389  -9.013  25.388  1.00  0.00     0.000 C 
BRANCH   7   8
ATOM      8  C   UNL     1      19.051  -8.288  25.625  1.00  0.00     0.000 C 
BRANCH   8   9
ATOM      9  C   UNL     1      18.489  -7.540  24.402  1.00  0.00     0.000 C 
BRANCH   9  10
ATOM     10  C   UNL     1      17.122  -6.861  24.623  1.00  0.00     0.006 C 
BRANCH  10  11
ATOM     11  C   UNL     1      17.195  -5.484  25.302  1.00  0.00     0.053 C 
BRANCH  11  12
ATOM     12  C   UNL     1      15.879  -4.771  25.273  1.00  0.00     0.041 C 
ATOM     13  O   UNL     1      15.759  -3.689  24.641  1.00  0.00    -0.550 OA
ATOM     14  O   UNL     1      14.776  -5.318  25.917  1.00  0.00    -0.550 OA
ENDBRANCH  11  12
ENDBRANCH  10  11
ENDBRANCH   9  10
ENDBRANCH   8   9
ENDBRANCH   7   8
ENDBRANCH   6   7
ENDBRANCH   5   6
ENDBRANCH   4   5
ENDBRANCH   3   4
ENDBRANCH   2   3
ENDBRANCH   1   2
BRANCH   1  15
ATOM     15  C   UNL     1      24.709  -5.846  20.028  1.00  0.00     0.000 C 
BRANCH  15  16
ATOM     16  C   UNL     1      26.211  -5.818  19.686  1.00  0.00     0.000 C 
BRANCH  16  17
ATOM     17  C   UNL     1      26.665  -4.608  18.850  1.00  0.00     0.000 C 
BRANCH  17  18
ATOM     18  C   UNL     1      28.068  -4.792  18.246  1.00  0.00    -0.000 C 
BRANCH  18  19
ATOM     19  C   UNL     1      29.151  -4.025  19.022  1.00  0.00    -0.000 C 
BRANCH  19  20
ATOM     20  C   UNL     1      28.574  -2.888  19.880  1.00  0.00    -0.000 C 
BRANCH  20  21
ATOM     21  C   UNL     1      29.198  -1.538  19.494  1.00  0.00    -0.000 C 
BRANCH  21  22
ATOM     22  C   UNL     1      28.161  -0.406  19.388  1.00  0.00    -0.000 C 
BRANCH  22  23
ATOM     23  C   UNL     1      26.703  -0.824  19.669  1.00  0.00    -0.000 C 
BRANCH  23  24
ATOM     24  C   UNL     1      25.767   0.321  20.096  1.00  0.00    -0.000 C 
BRANCH  24  25
ATOM     25  C   UNL     1      24.332   0.140  19.585  1.00  0.00    -0.003 C 
ATOM     26  C   UNL     1      23.900   1.329  18.732  1.00  0.00     0.004 C 
ENDBRANCH  24  25
ENDBRANCH  23  24
ENDBRANCH  22  23
ENDBRANCH  21  22
ENDBRANCH  20  21
ENDBRANCH  19  20
ENDBRANCH  18  19
ENDBRANCH  17  18
ENDBRANCH  16  17
ENDBRANCH  15  16
ENDBRANCH   1  15
TORSDOF 22
ENDMDL
MODEL 2
REMARK VINA RESULT:    -6.879      3.368     10.531
REMARK INTER + INTRA:         -16.864
REMARK INTER:                 -15.847
REMARK INTRA:                  -1.017
REMARK UNBOUND:                -1.137
REMARK SMILES CCCCCCCCCCCCCCCCCCCCCCCC(=O)[O-]
REMARK SMILES IDX 13 1 14 2 15 3 16 4 17 5 18 6 19 7 20 8 21 9 22 10 23 11
REMARK SMILES IDX 24 12 25 13 26 14 12 15 11 16 10 17 9 18 8 19 7 20 6 21 5 22
REMARK SMILES IDX 4 23 3 24 2 25 1 26
REMARK H PARENT
REMARK Flexibility Score: inf
ROOT
ATOM      1  C   UNL     1      24.568  -8.055  20.872  1.00  0.00     0.000 C 
ENDROOT
BRANCH   1   2
ATOM      2  C   UNL     1      25.927  -8.668  20.500  1.00  0.00     0.000 C 
BRANCH   2   3
ATOM      3  C   UNL     1      26.810  -7.699  19.699  1.00  0.00     0.000 C 
BRANCH   3   4
ATOM      4  C   UNL     1      26.447  -6.223  19.939  1.00  0.00     0.000 C 
BRANCH   4   5
ATOM      5  C   UNL     1      27.206  -5.244  19.018  1.00  0.00     0.000 C 
BRANCH   5   6
ATOM      6  C   UNL     1      27.699  -3.997  19.773  1.00  0.00     0.000 C 
BRANCH   6   7
ATOM      7  C   UNL     1      28.782  -3.221  18.991  1.00  0.00     0.000 C 
BRANCH   7   8
ATOM      8  C   UNL     1      29.490  -2.136  19.824  1.00  0.00     0.000 C 
BRANCH   8   9
ATOM      9  C   UNL     1      28.575  -1.009  20.339  1.00  0.00     0.000 C 
BRANCH   9  10
ATOM     10  C   UNL     1      27.703  -0.332  19.262  1.00  0.00     0.006 C 
BRANCH  10  11
ATOM     11  C   UNL     1      26.727   0.726  19.802  1.00  0.00     0.053 C 
BRANCH  11  12
ATOM     12  C   UNL     1      25.306   0.259  19.752  1.00  0.00     0.041 C 
ATOM     13  O   UNL     1      24.382   1.070  19.480  1.00  0.00    -0.550 OA
ATOM     14  O   UNL     1      25.005  -1.079  19.974  1.00  0.00    -0.550 OA
ENDBRANCH  11  12
ENDBRANCH  10  11
ENDBRANCH   9  10
ENDBRANCH   8   9
ENDBRANCH   7   8
ENDBRANCH   6   7
ENDBRANCH   5   6
ENDBRANCH   4   5
ENDBRANCH   3   4
ENDBRANCH   2   3
ENDBRANCH   1   2
BRANCH   1  15
ATOM     15  C   UNL     1      23.619  -9.078  21.519  1.00  0.00     0.000 C 
BRANCH  15  16
ATOM     16  C   UNL     1      23.272  -8.732  22.979  1.00  0.00     0.000 C 
BRANCH  16  17
ATOM     17  C   UNL     1      22.700  -9.897  23.806  1.00  0.00     0.000 C 
BRANCH  17  18
ATOM     18  C   UNL     1      21.696  -9.435  24.876  1.00  0.00    -0.000 C 
BRANCH  18  19
ATOM     19  C   UNL     1      20.587  -8.540  24.297  1.00  0.00    -0.000 C 
BRANCH  19  20
ATOM     20  C   UNL     1      19.724  -7.884  25.387  1.00  0.00    -0.000 C 
BRANCH  20  21
ATOM     21  C   UNL     1      18.234  -8.181  25.158  1.00  0.00    -0.000 C 
BRANCH  21  22
ATOM     22  C   UNL     1      17.551  -7.152  24.239  1.00  0.00    -0.000 C 
BRANCH  22  23
ATOM     23  C   UNL     1      16.009  -7.179  24.257  1.00  0.00    -0.000 C 
BRANCH  23  24
ATOM     24  C   UNL     1      15.340  -5.848  24.645  1.00  0.00    -0.000 C 
BRANCH  24  25
ATOM     25  C   UNL     1      16.208  -4.994  25.578  1.00  0.00    -0.003 C 
ATOM     26  C   UNL     1      16.642  -3.701  24.894  1.00  0.00     0.004 C 
ENDBRANCH  24  25
ENDBRANCH  23  24
ENDBRANCH  22  23
ENDBRANCH  21  22
ENDBRANCH  20  21
ENDBRANCH  19  20
ENDBRANCH  18  19
ENDBRANCH  17  18
ENDBRANCH  16  17
ENDBRANCH  15  16
ENDBRANCH   1  15
TORSDOF 22
ENDMDL
MODEL 3
REMARK VINA RESULT:    -6.878      3.178     10.264
REMARK INTER + INTRA:         -16.862
REMARK INTER:                 -15.278
REMARK INTRA:                  -1.583
REMARK UNBOUND:                -1.137
REMARK SMILES CCCCCCCCCCCCCCCCCCCCCCCC(=O)[O-]
REMARK SMILES IDX 13 1 14 2 15 3 16 4 17 5 18 6 19 7 20 8 21 9 22 10 23 11
REMARK SMILES IDX 24 12 25 13 26 14 12 15 11 16 10 17 9 18 8 19 7 20 6 21 5 22
REMARK SMILES IDX 4 23 3 24 2 25 1 26
REMARK H PARENT
REMARK Flexibility Score: inf
ROOT
ATOM      1  C   UNL     1      24.971  -7.021  19.438  1.00  0.00     0.000 C 
ENDROOT
BRANCH   1   2
ATOM      2  C   UNL     1      25.907  -6.082  20.215  1.00  0.00     0.000 C 
BRANCH   2   3
ATOM      3  C   UNL     1      25.984  -4.681  19.590  1.00  0.00     0.000 C 
BRANCH   3   4
ATOM      4  C   UNL     1      26.754  -4.662  18.259  1.00  0.00     0.000 C 
BRANCH   4   5
ATOM      5  C   UNL     1      28.279  -4.482  18.430  1.00  0.00     0.000 C 
BRANCH   5   6
ATOM      6  C   UNL     1      28.643  -3.870  19.794  1.00  0.00     0.000 C 
BRANCH   6   7
ATOM      7  C   UNL     1      29.561  -2.634  19.662  1.00  0.00     0.000 C 
BRANCH   7   8
ATOM      8  C   UNL     1      28.904  -1.321  20.129  1.00  0.00     0.000 C 
BRANCH   8   9
ATOM      9  C   UNL     1      27.418  -1.437  20.515  1.00  0.00     0.000 C 
BRANCH   9  10
ATOM     10  C   UNL     1      26.427  -0.894  19.464  1.00  0.00     0.006 C 
BRANCH  10  11
ATOM     11  C   UNL     1      24.986  -0.724  19.972  1.00  0.00     0.053 C 
BRANCH  11  12
ATOM     12  C   UNL     1      24.355   0.535  19.464  1.00  0.00     0.041 C 
ATOM     13  O   UNL     1      23.101   0.645  19.429  1.00  0.00    -0.550 OA
ATOM     14  O   UNL     1      25.151   1.598  19.058  1.00  0.00    -0.550 OA
ENDBRANCH  11  12
ENDBRANCH  10  11
ENDBRANCH   9  10
ENDBRANCH   8   9
ENDBRANCH   7   8
ENDBRANCH   6   7
ENDBRANCH   5   6
ENDBRANCH   4   5
ENDBRANCH   3   4
ENDBRANCH   2   3
ENDBRANCH   1   2
BRANCH   1  15
ATOM     15  C   UNL     1      23.784  -7.504  20.289  1.00  0.00     0.000 C 
BRANCH  15  16
ATOM     16  C   UNL     1      24.208  -8.465  21.415  1.00  0.00     0.000 C 
BRANCH  16  17
ATOM     17  C   UNL     1      23.348  -8.394  22.689  1.00  0.00     0.000 C 
BRANCH  17  18
ATOM     18  C   UNL     1      22.915  -9.782  23.196  1.00  0.00    -0.000 C 
BRANCH  18  19
ATOM     19  C   UNL     1      22.237  -9.722  24.575  1.00  0.00    -0.000 C 
BRANCH  19  20
ATOM     20  C   UNL     1      21.009  -8.798  24.593  1.00  0.00    -0.000 C 
BRANCH  20  21
ATOM     21  C   UNL     1      20.095  -9.124  25.784  1.00  0.00    -0.000 C 
BRANCH  21  22
ATOM     22  C   UNL     1      18.804  -8.287  25.797  1.00  0.00    -0.000 C 
BRANCH  22  23
ATOM     23  C   UNL     1      18.552  -7.452  24.524  1.00  0.00    -0.000 C 
BRANCH  23  24
ATOM     24  C   UNL     1      17.126  -7.550  23.952  1.00  0.00    -0.000 C 
BRANCH  24  25
ATOM     25  C   UNL     1      16.071  -6.921  24.872  1.00  0.00    -0.003 C 
ATOM     26  C   UNL     1      16.360  -5.441  25.106  1.00  0.00     0.004 C 
ENDBRANCH  24  25
ENDBRANCH  23  24
ENDBRANCH  22  23
ENDBRANCH  21  22
ENDBRANCH  20  21
ENDBRANCH  19  20
ENDBRANCH  18  19
ENDBRANCH  17  18
ENDBRANCH  16  17
ENDBRANCH  15  16
ENDBRANCH   1  15
TORSDOF 22
ENDMDL
MODEL 4
REMARK VINA RESULT:    -6.852      4.622     11.130
REMARK INTER + INTRA:         -16.802
REMARK INTER:                 -15.720
REMARK INTRA:                  -1.082
REMARK UNBOUND:                -1.137
REMARK SMILES CCCCCCCCCCCCCCCCCCCCCCCC(=O)[O-]
REMARK SMILES IDX 13 1 14 2 15 3 16 4 17 5 18 6 19 7 20 8 21 9 22 10 23 11
REMARK SMILES IDX 24 12 25 13 26 14 12 15 11 16 10 17 9 18 8 19 7 20 6 21 5 22
REMARK SMILES IDX 4 23 3 24 2 25 1 26
REMARK H PARENT
REMARK Flexibility Score: inf
ROOT
ATOM      1  C   UNL     1      24.183  -8.206  20.767  1.00  0.00     0.000 C 
ENDROOT
BRANCH   1   2
ATOM      2  C   UNL     1      25.719  -8.212  20.776  1.00  0.00     0.000 C 
BRANCH   2   3
ATOM      3  C   UNL     1      26.317  -7.329  19.670  1.00  0.00     0.000 C 
BRANCH   3   4
ATOM      4  C   UNL     1      25.456  -6.093  19.362  1.00  0.00     0.000 C 
BRANCH   4   5
ATOM      5  C   UNL     1      26.140  -4.758  19.730  1.00  0.00     0.000 C 
BRANCH   5   6
ATOM      6  C   UNL     1      25.608  -3.581  18.894  1.00  0.00     0.000 C 
BRANCH   6   7
ATOM      7  C   UNL     1      25.359  -2.315  19.744  1.00  0.00     0.000 C 
BRANCH   7   8
ATOM      8  C   UNL     1      26.565  -1.900  20.607  1.00  0.00     0.000 C 
BRANCH   8   9
ATOM      9  C   UNL     1      27.498  -0.857  19.963  1.00  0.00     0.000 C 
BRANCH   9  10
ATOM     10  C   UNL     1      28.913  -1.369  19.622  1.00  0.00     0.006 C 
BRANCH  10  11
ATOM     11  C   UNL     1      29.178  -2.829  20.024  1.00  0.00     0.053 C 
BRANCH  11  12
ATOM     12  C   UNL     1      30.047  -3.537  19.031  1.00  0.00     0.041 C 
ATOM     13  O   UNL     1      29.553  -4.394  18.254  1.00  0.00    -0.550 OA
ATOM     14  O   UNL     1      31.398  -3.226  18.944  1.00  0.00    -0.550 OA
ENDBRANCH  11  12
ENDBRANCH  10  11
ENDBRANCH   9  10
ENDBRANCH   8   9
ENDBRANCH   7   8
ENDBRANCH   6   7
ENDBRANCH   5   6
ENDBRANCH   4   5
ENDBRANCH   3   4
ENDBRANCH   2   3
ENDBRANCH   1   2
BRANCH   1  15
ATOM     15  C   UNL     1      23.586  -9.284  21.687  1.00  0.00     0.000 C 
BRANCH  15  16
ATOM     16  C   UNL     1      23.321  -8.772  23.115  1.00  0.00     0.000 C 
BRANCH  16  17
ATOM     17  C   UNL     1      22.255  -9.556  23.901  1.00  0.00     0.000 C 
BRANCH  17  18
ATOM     18  C   UNL     1      21.050  -8.688  24.304  1.00  0.00    -0.000 C 
BRANCH  18  19
ATOM     19  C   UNL     1      20.596  -8.943  25.751  1.00  0.00    -0.000 C 
BRANCH  19  20
ATOM     20  C   UNL     1      19.092  -8.704  25.953  1.00  0.00    -0.000 C 
BRANCH  20  21
ATOM     21  C   UNL     1      18.486  -7.978  24.742  1.00  0.00    -0.000 C 
BRANCH  21  22
ATOM     22  C   UNL     1      17.394  -6.966  25.134  1.00  0.00    -0.000 C 
BRANCH  22  23
ATOM     23  C   UNL     1      16.083  -7.071  24.328  1.00  0.00    -0.000 C 
BRANCH  23  24
ATOM     24  C   UNL     1      14.992  -6.059  24.723  1.00  0.00    -0.000 C 
BRANCH  24  25
ATOM     25  C   UNL     1      15.509  -4.965  25.667  1.00  0.00    -0.003 C 
ATOM     26  C   UNL     1      16.228  -3.866  24.891  1.00  0.00     0.004 C 
ENDBRANCH  24  25
ENDBRANCH  23  24
ENDBRANCH  22  23
ENDBRANCH  21  22
ENDBRANCH  20  21
ENDBRANCH  19  20
ENDBRANCH  18  19
ENDBRANCH  17  18
ENDBRANCH  16  17
ENDBRANCH  15  16
ENDBRANCH   1  15
TORSDOF 22
ENDMDL
MODEL 5
REMARK VINA RESULT:    -6.641      1.064      2.216
REMARK INTER + INTRA:         -16.319
REMARK INTER:                 -15.510
REMARK INTRA:                  -0.809
REMARK UNBOUND:                -1.137
REMARK SMILES CCCCCCCCCCCCCCCCCCCCCCCC(=O)[O-]
REMARK SMILES IDX 13 1 14 2 15 3 16 4 17 5 18 6 19 7 20 8 21 9 22 10 23 11
REMARK SMILES IDX 24 12 25 13 26 14 12 15 11 16 10 17 9 18 8 19 7 20 6 21 5 22
REMARK SMILES IDX 4 23 3 24 2 25 1 26
REMARK H PARENT
REMARK Flexibility Score: inf
ROOT
ATOM      1  C   UNL     1      25.654  -6.373  19.400  1.00  0.00     0.000 C 
ENDROOT
BRANCH   1   2
ATOM      2  C   UNL     1      25.386  -7.677  20.166  1.00  0.00     0.000 C 
BRANCH   2   3
ATOM      3  C   UNL     1      23.895  -7.880  20.478  1.00  0.00     0.000 C 
BRANCH   3   4
ATOM      4  C   UNL     1      23.640  -9.055  21.437  1.00  0.00     0.000 C 
BRANCH   4   5
ATOM      5  C   UNL     1      23.329  -8.614  22.884  1.00  0.00     0.000 C 
BRANCH   5   6
ATOM      6  C   UNL     1      22.573  -9.698  23.673  1.00  0.00     0.000 C 
BRANCH   6   7
ATOM      7  C   UNL     1      21.747  -9.112  24.840  1.00  0.00     0.000 C 
BRANCH   7   8
ATOM      8  C   UNL     1      20.347  -8.622  24.425  1.00  0.00     0.000 C 
BRANCH   8   9
ATOM      9  C   UNL     1      19.296  -8.625  25.550  1.00  0.00     0.000 C 
BRANCH   9  10
ATOM     10  C   UNL     1      18.255  -7.489  25.474  1.00  0.00     0.006 C 
BRANCH  10  11
ATOM     11  C   UNL     1      17.343  -7.541  24.237  1.00  0.00     0.053 C 
BRANCH  11  12
ATOM     12  C   UNL     1      16.078  -6.766  24.439  1.00  0.00     0.041 C 
ATOM     13  O   UNL     1      15.028  -7.098  23.829  1.00  0.00    -0.550 OA
ATOM     14  O   UNL     1      16.050  -5.695  25.324  1.00  0.00    -0.550 OA
ENDBRANCH  11  12
ENDBRANCH  10  11
ENDBRANCH   9  10
ENDBRANCH   8   9
ENDBRANCH   7   8
ENDBRANCH   6   7
ENDBRANCH   5   6
ENDBRANCH   4   5
ENDBRANCH   3   4
ENDBRANCH   2   3
ENDBRANCH   1   2
BRANCH   1  15
ATOM     15  C   UNL     1      27.116  -6.253  18.938  1.00  0.00     0.000 C 
BRANCH  15  16
ATOM     16  C   UNL     1      27.418  -4.908  18.252  1.00  0.00     0.000 C 
BRANCH  16  17
ATOM     17  C   UNL     1      28.578  -4.107  18.871  1.00  0.00     0.000 C 
BRANCH  17  18
ATOM     18  C   UNL     1      28.095  -2.950  19.764  1.00  0.00    -0.000 C 
BRANCH  18  19
ATOM     19  C   UNL     1      28.953  -1.683  19.603  1.00  0.00    -0.000 C 
BRANCH  19  20
ATOM     20  C   UNL     1      28.189  -0.400  19.966  1.00  0.00    -0.000 C 
BRANCH  20  21
ATOM     21  C   UNL     1      26.679  -0.668  20.057  1.00  0.00    -0.000 C 
BRANCH  21  22
ATOM     22  C   UNL     1      25.829   0.560  19.686  1.00  0.00    -0.000 C 
BRANCH  22  23
ATOM     23  C   UNL     1      24.324   0.280  19.492  1.00  0.00    -0.000 C 
BRANCH  23  24
ATOM     24  C   UNL     1      23.511   1.456  18.920  1.00  0.00    -0.000 C 
BRANCH  24  25
ATOM     25  C   UNL     1      24.254   2.209  17.808  1.00  0.00    -0.003 C 
ATOM     26  C   UNL     1      23.301   2.613  16.688  1.00  0.00     0.004 C 
ENDBRANCH  24  25
ENDBRANCH  23  24
ENDBRANCH  22  23
ENDBRANCH  21  22
ENDBRANCH  20  21
ENDBRANCH  19  20
ENDBRANCH  18  19
ENDBRANCH  17  18
ENDBRANCH  16  17
ENDBRANCH  15  16
ENDBRANCH   1  15
TORSDOF 22
ENDMDL
MODEL 6
REMARK VINA RESULT:    -6.602      7.900     12.597
REMARK INTER + INTRA:         -16.230
REMARK INTER:                 -14.747
REMARK INTRA:                  -1.483
REMARK UNBOUND:                -1.137
REMARK SMILES CCCCCCCCCCCCCCCCCCCCCCCC(=O)[O-]
REMARK SMILES IDX 13 1 14 2 15 3 16 4 17 5 18 6 19 7 20 8 21 9 22 10 23 11
REMARK SMILES IDX 24 12 25 13 26 14 12 15 11 16 10 17 9 18 8 19 7 20 6 21 5 22
REMARK SMILES IDX 4 23 3 24 2 25 1 26
REMARK H PARENT
REMARK Flexibility Score: inf
ROOT
ATOM      1  C   UNL     1      22.505   3.331  14.652  1.00  0.00     0.000 C 
ENDROOT
BRANCH   1   2
ATOM      2  C   UNL     1      22.881   3.407  16.140  1.00  0.00     0.000 C 
BRANCH   2   3
ATOM      3  C   UNL     1      23.474   2.089  16.664  1.00  0.00     0.000 C 
BRANCH   3   4
ATOM      4  C   UNL     1      24.020   2.209  18.097  1.00  0.00     0.000 C 
BRANCH   4   5
ATOM      5  C   UNL     1      23.416   1.177  19.075  1.00  0.00     0.000 C 
BRANCH   5   6
ATOM      6  C   UNL     1      24.466   0.175  19.585  1.00  0.00     0.000 C 
BRANCH   6   7
ATOM      7  C   UNL     1      25.869   0.806  19.725  1.00  0.00     0.000 C 
BRANCH   7   8
ATOM      8  C   UNL     1      27.019  -0.217  19.662  1.00  0.00     0.000 C 
BRANCH   8   9
ATOM      9  C   UNL     1      26.648  -1.643  20.110  1.00  0.00     0.000 C 
BRANCH   9  10
ATOM     10  C   UNL     1      27.678  -2.731  19.742  1.00  0.00     0.006 C 
BRANCH  10  11
ATOM     11  C   UNL     1      29.104  -2.208  19.505  1.00  0.00     0.053 C 
BRANCH  11  12
ATOM     12  C   UNL     1      30.003  -3.261  18.936  1.00  0.00     0.041 C 
ATOM     13  O   UNL     1      31.246  -3.204  19.128  1.00  0.00    -0.550 OA
ATOM     14  O   UNL     1      29.465  -4.323  18.220  1.00  0.00    -0.550 OA
ENDBRANCH  11  12
ENDBRANCH  10  11
ENDBRANCH   9  10
ENDBRANCH   8   9
ENDBRANCH   7   8
ENDBRANCH   6   7
ENDBRANCH   5   6
ENDBRANCH   4   5
ENDBRANCH   3   4
ENDBRANCH   2   3
ENDBRANCH   1   2
BRANCH   1  15
ATOM     15  C   UNL     1      22.434   4.719  13.993  1.00  0.00     0.000 C 
BRANCH  15  16
ATOM     16  C   UNL     1      22.772   4.685  12.491  1.00  0.00     0.000 C 
BRANCH  16  17
ATOM     17  C   UNL     1      21.718   4.001  11.602  1.00  0.00     0.000 C 
BRANCH  17  18
ATOM     18  C   UNL     1      20.406   4.799  11.509  1.00  0.00    -0.000 C 
BRANCH  18  19
ATOM     19  C   UNL     1      19.169   3.940  11.820  1.00  0.00    -0.000 C 
BRANCH  19  20
ATOM     20  C   UNL     1      19.515   2.660  12.596  1.00  0.00    -0.000 C 
BRANCH  20  21
ATOM     21  C   UNL     1      18.356   2.245  13.515  1.00  0.00    -0.000 C 
BRANCH  21  22
ATOM     22  C   UNL     1      18.834   1.661  14.857  1.00  0.00    -0.000 C 
BRANCH  22  23
ATOM     23  C   UNL     1      17.716   1.116  15.769  1.00  0.00    -0.000 C 
BRANCH  23  24
ATOM     24  C   UNL     1      16.498   0.534  15.029  1.00  0.00    -0.000 C 
BRANCH  24  25
ATOM     25  C   UNL     1      16.521  -0.999  14.956  1.00  0.00    -0.003 C 
ATOM     26  C   UNL     1      15.418  -1.606  15.819  1.00  0.00     0.004 C 
ENDBRANCH  24  25
ENDBRANCH  23  24
ENDBRANCH  22  23
ENDBRANCH  21  22
ENDBRANCH  20  21
ENDBRANCH  19  20
ENDBRANCH  18  19
ENDBRANCH  17  18
ENDBRANCH  16  17
ENDBRANCH  15  16
ENDBRANCH   1  15
TORSDOF 22
ENDMDL
MODEL 7
REMARK VINA RESULT:    -6.591      4.590      9.179
REMARK INTER + INTRA:         -16.204
REMARK INTER:                 -15.069
REMARK INTRA:                  -1.135
REMARK UNBOUND:                -1.137
REMARK SMILES CCCCCCCCCCCCCCCCCCCCCCCC(=O)[O-]
REMARK SMILES IDX 13 1 14 2 15 3 16 4 17 5 18 6 19 7 20 8 21 9 22 10 23 11
REMARK SMILES IDX 24 12 25 13 26 14 12 15 11 16 10 17 9 18 8 19 7 20 6 21 5 22
REMARK SMILES IDX 4 23 3 24 2 25 1 26
REMARK H PARENT
REMARK Flexibility Score: inf
ROOT
ATOM      1  C   UNL     1      26.002  -1.426  20.042  1.00  0.00     0.000 C 
ENDROOT
BRANCH   1   2
ATOM      2  C   UNL     1      27.191  -0.476  19.835  1.00  0.00     0.000 C 
BRANCH   2   3
ATOM      3  C   UNL     1      28.492  -1.020  20.446  1.00  0.00     0.000 C 
BRANCH   3   4
ATOM      4  C   UNL     1      29.292  -1.895  19.466  1.00  0.00     0.000 C 
BRANCH   4   5
ATOM      5  C   UNL     1      29.191  -3.407  19.765  1.00  0.00     0.000 C 
BRANCH   5   6
ATOM      6  C   UNL     1      29.020  -4.243  18.485  1.00  0.00     0.000 C 
BRANCH   6   7
ATOM      7  C   UNL     1      27.621  -4.890  18.383  1.00  0.00     0.000 C 
BRANCH   7   8
ATOM      8  C   UNL     1      27.129  -5.518  19.701  1.00  0.00     0.000 C 
BRANCH   8   9
ATOM      9  C   UNL     1      26.512  -6.922  19.563  1.00  0.00     0.000 C 
BRANCH   9  10
ATOM     10  C   UNL     1      25.101  -7.077  20.169  1.00  0.00     0.006 C 
BRANCH  10  11
ATOM     11  C   UNL     1      24.906  -8.346  21.015  1.00  0.00     0.053 C 
BRANCH  11  12
ATOM     12  C   UNL     1      23.485  -8.513  21.458  1.00  0.00     0.041 C 
ATOM     13  O   UNL     1      22.543  -8.354  20.638  1.00  0.00    -0.550 OA
ATOM     14  O   UNL     1      23.203  -8.876  22.769  1.00  0.00    -0.550 OA
ENDBRANCH  11  12
ENDBRANCH  10  11
ENDBRANCH   9  10
ENDBRANCH   8   9
ENDBRANCH   7   8
ENDBRANCH   6   7
ENDBRANCH   5   6
ENDBRANCH   4   5
ENDBRANCH   3   4
ENDBRANCH   2   3
ENDBRANCH   1   2
BRANCH   1  15
ATOM     15  C   UNL     1      24.648  -0.726  19.834  1.00  0.00     0.000 C 
BRANCH  15  16
ATOM     16  C   UNL     1      24.795   0.751  19.425  1.00  0.00     0.000 C 
BRANCH  16  17
ATOM     17  C   UNL     1      23.552   1.369  18.759  1.00  0.00     0.000 C 
BRANCH  17  18
ATOM     18  C   UNL     1      23.898   2.529  17.808  1.00  0.00    -0.000 C 
BRANCH  18  19
ATOM     19  C   UNL     1      23.216   2.392  16.437  1.00  0.00    -0.000 C 
BRANCH  19  20
ATOM     20  C   UNL     1      22.867   3.750  15.809  1.00  0.00    -0.000 C 
BRANCH  20  21
ATOM     21  C   UNL     1      22.214   3.565  14.431  1.00  0.00    -0.000 C 
BRANCH  21  22
ATOM     22  C   UNL     1      22.380   4.794  13.519  1.00  0.00    -0.000 C 
BRANCH  22  23
ATOM     23  C   UNL     1      22.336   4.498  12.005  1.00  0.00    -0.000 C 
BRANCH  23  24
ATOM     24  C   UNL     1      23.354   5.283  11.158  1.00  0.00    -0.000 C 
BRANCH  24  25
ATOM     25  C   UNL     1      24.717   4.584  11.066  1.00  0.00    -0.003 C 
ATOM     26  C   UNL     1      24.601   3.249  10.335  1.00  0.00     0.004 C 
ENDBRANCH  24  25
ENDBRANCH  23  24
ENDBRANCH  22  23
ENDBRANCH  21  22
ENDBRANCH  20  21
ENDBRANCH  19  20
ENDBRANCH  18  19
ENDBRANCH  17  18
ENDBRANCH  16  17
ENDBRANCH  15  16
ENDBRANCH   1  15
TORSDOF 22
ENDMDL
MODEL 8
REMARK VINA RESULT:    -6.535      5.646     10.695
REMARK INTER + INTRA:         -16.077
REMARK INTER:                 -14.885
REMARK INTRA:                  -1.192
REMARK UNBOUND:                -1.137
REMARK SMILES CCCCCCCCCCCCCCCCCCCCCCCC(=O)[O-]
REMARK SMILES IDX 13 1 14 2 15 3 16 4 17 5 18 6 19 7 20 8 21 9 22 10 23 11
REMARK SMILES IDX 24 12 25 13 26 14 12 15 11 16 10 17 9 18 8 19 7 20 6 21 5 22
REMARK SMILES IDX 4 23 3 24 2 25 1 26
REMARK H PARENT
REMARK Flexibility Score: inf
ROOT
ATOM      1  C   UNL     1      23.640   1.243  18.919  1.00  0.00     0.000 C 
ENDROOT
BRANCH   1   2
ATOM      2  C   UNL     1      24.877   0.642  19.603  1.00  0.00     0.000 C 
BRANCH   2   3
ATOM      3  C   UNL     1      24.797  -0.887  19.726  1.00  0.00     0.000 C 
BRANCH   3   4
ATOM      4  C   UNL     1      26.141  -1.527  20.114  1.00  0.00     0.000 C 
BRANCH   4   5
ATOM      5  C   UNL     1      27.368  -0.732  19.617  1.00  0.00     0.000 C 
BRANCH   5   6
ATOM      6  C   UNL     1      28.670  -1.546  19.719  1.00  0.00     0.000 C 
BRANCH   6   7
ATOM      7  C   UNL     1      28.410  -3.054  19.933  1.00  0.00     0.000 C 
BRANCH   7   8
ATOM      8  C   UNL     1      28.703  -3.916  18.691  1.00  0.00     0.000 C 
BRANCH   8   9
ATOM      9  C   UNL     1      27.572  -4.881  18.286  1.00  0.00     0.000 C 
BRANCH   9  10
ATOM     10  C   UNL     1      26.777  -5.485  19.462  1.00  0.00     0.006 C 
BRANCH  10  11
ATOM     11  C   UNL     1      25.940  -6.722  19.099  1.00  0.00     0.053 C 
BRANCH  11  12
ATOM     12  C   UNL     1      25.671  -7.589  20.290  1.00  0.00     0.041 C 
ATOM     13  O   UNL     1      24.583  -7.486  20.915  1.00  0.00    -0.550 OA
ATOM     14  O   UNL     1      26.608  -8.533  20.689  1.00  0.00    -0.550 OA
ENDBRANCH  11  12
ENDBRANCH  10  11
ENDBRANCH   9  10
ENDBRANCH   8   9
ENDBRANCH   7   8
ENDBRANCH   6   7
ENDBRANCH   5   6
ENDBRANCH   4   5
ENDBRANCH   3   4
ENDBRANCH   2   3
ENDBRANCH   1   2
BRANCH   1  15
ATOM     15  C   UNL     1      24.008   2.262  17.827  1.00  0.00     0.000 C 
BRANCH  15  16
ATOM     16  C   UNL     1      23.217   2.053  16.523  1.00  0.00     0.000 C 
BRANCH  16  17
ATOM     17  C   UNL     1      22.499   3.306  15.989  1.00  0.00     0.000 C 
BRANCH  17  18
ATOM     18  C   UNL     1      21.767   3.054  14.659  1.00  0.00    -0.000 C 
BRANCH  18  19
ATOM     19  C   UNL     1      20.428   2.322  14.851  1.00  0.00    -0.000 C 
BRANCH  19  20
ATOM     20  C   UNL     1      19.519   2.414  13.615  1.00  0.00    -0.000 C 
BRANCH  20  21
ATOM     21  C   UNL     1      18.086   1.977  13.955  1.00  0.00    -0.000 C 
BRANCH  21  22
ATOM     22  C   UNL     1      17.996   1.190  15.275  1.00  0.00    -0.000 C 
BRANCH  22  23
ATOM     23  C   UNL     1      16.893   0.113  15.321  1.00  0.00    -0.000 C 
BRANCH  23  24
ATOM     24  C   UNL     1      15.519   0.607  15.808  1.00  0.00    -0.000 C 
BRANCH  24  25
ATOM     25  C   UNL     1      14.495  -0.527  15.956  1.00  0.00    -0.003 C 
ATOM     26  C   UNL     1      15.188  -1.884  16.035  1.00  0.00     0.004 C 
ENDBRANCH  24  25
ENDBRANCH  23  24
ENDBRANCH  22  23
ENDBRANCH  21  22
ENDBRANCH  20  21
ENDBRANCH  19  20
ENDBRANCH  18  19
ENDBRANCH  17  18
ENDBRANCH  16  17
ENDBRANCH  15  16
ENDBRANCH   1  15
TORSDOF 22
ENDMDL
MODEL 9
REMARK VINA RESULT:    -6.493      5.582     11.702
REMARK INTER + INTRA:         -15.981
REMARK INTER:                 -14.612
REMARK INTRA:                  -1.369
REMARK UNBOUND:                -1.137
REMARK SMILES CCCCCCCCCCCCCCCCCCCCCCCC(=O)[O-]
REMARK SMILES IDX 13 1 14 2 15 3 16 4 17 5 18 6 19 7 20 8 21 9 22 10 23 11
REMARK SMILES IDX 24 12 25 13 26 14 12 15 11 16 10 17 9 18 8 19 7 20 6 21 5 22
REMARK SMILES IDX 4 23 3 24 2 25 1 26
REMARK H PARENT
REMARK Flexibility Score: inf
ROOT
ATOM      1  C   UNL     1      24.365  -0.474  19.789  1.00  0.00     0.000 C 
ENDROOT
BRANCH   1   2
ATOM      2  C   UNL     1      24.693   0.978  19.410  1.00  0.00     0.000 C 
BRANCH   2   3
ATOM      3  C   UNL     1      23.511   1.691  18.733  1.00  0.00     0.000 C 
BRANCH   3   4
ATOM      4  C   UNL     1      23.948   2.605  17.576  1.00  0.00     0.000 C 
BRANCH   4   5
ATOM      5  C   UNL     1      23.073   2.462  16.312  1.00  0.00     0.000 C 
BRANCH   5   6
ATOM      6  C   UNL     1      22.815   3.815  15.626  1.00  0.00     0.000 C 
BRANCH   6   7
ATOM      7  C   UNL     1      22.127   3.661  14.252  1.00  0.00     0.000 C 
BRANCH   7   8
ATOM      8  C   UNL     1      22.489   4.773  13.249  1.00  0.00     0.000 C 
BRANCH   8   9
ATOM      9  C   UNL     1      22.685   4.301  11.796  1.00  0.00     0.000 C 
BRANCH   9  10
ATOM     10  C   UNL     1      21.455   3.622  11.159  1.00  0.00     0.006 C 
BRANCH  10  11
ATOM     11  C   UNL     1      20.144   4.413  11.300  1.00  0.00     0.053 C 
BRANCH  11  12
ATOM     12  C   UNL     1      19.088   3.629  12.014  1.00  0.00     0.041 C 
ATOM     13  O   UNL     1      19.358   2.501  12.503  1.00  0.00    -0.550 OA
ATOM     14  O   UNL     1      17.813   4.158  12.168  1.00  0.00    -0.550 OA
ENDBRANCH  11  12
ENDBRANCH  10  11
ENDBRANCH   9  10
ENDBRANCH   8   9
ENDBRANCH   7   8
ENDBRANCH   6   7
ENDBRANCH   5   6
ENDBRANCH   4   5
ENDBRANCH   3   4
ENDBRANCH   2   3
ENDBRANCH   1   2
BRANCH   1  15
ATOM     15  C   UNL     1      25.610  -1.376  19.791  1.00  0.00     0.000 C 
BRANCH  15  16
ATOM     16  C   UNL     1      26.927  -0.578  19.746  1.00  0.00     0.000 C 
BRANCH  16  17
ATOM     17  C   UNL     1      28.146  -1.363  19.229  1.00  0.00     0.000 C 
BRANCH  17  18
ATOM     18  C   UNL     1      28.413  -2.648  20.031  1.00  0.00    -0.000 C 
BRANCH  18  19
ATOM     19  C   UNL     1      28.685  -3.863  19.127  1.00  0.00    -0.000 C 
BRANCH  19  20
ATOM     20  C   UNL     1      27.450  -4.289  18.319  1.00  0.00    -0.000 C 
BRANCH  20  21
ATOM     21  C   UNL     1      26.326  -4.772  19.249  1.00  0.00    -0.000 C 
BRANCH  21  22
ATOM     22  C   UNL     1      26.747  -5.959  20.133  1.00  0.00    -0.000 C 
BRANCH  22  23
ATOM     23  C   UNL     1      26.386  -7.352  19.575  1.00  0.00    -0.000 C 
BRANCH  23  24
ATOM     24  C   UNL     1      25.759  -8.319  20.595  1.00  0.00    -0.000 C 
BRANCH  24  25
ATOM     25  C   UNL     1      24.283  -8.011  20.880  1.00  0.00    -0.003 C 
ATOM     26  C   UNL     1      23.828  -8.664  22.182  1.00  0.00     0.004 C 
ENDBRANCH  24  25
ENDBRANCH  23  24
ENDBRANCH  22  23
ENDBRANCH  21  22
ENDBRANCH  20  21
ENDBRANCH  19  20
ENDBRANCH  18  19
ENDBRANCH  17  18
ENDBRANCH  16  17
ENDBRANCH  15  16
ENDBRANCH   1  15
TORSDOF 22
ENDMDL
