MODEL 1
REMARK VINA RESULT:    -5.784      0.000      0.000
REMARK INTER + INTRA:         -12.331
REMARK INTER:                 -10.518
REMARK INTRA:                  -1.813
REMARK UNBOUND:                -1.813
REMARK SMILES CCCCCCCCCCCCCCCC(=O)[O-]
REMARK SMILES IDX 9 1 10 2 11 3 12 4 13 5 14 6 15 7 16 8 17 9 18 10 8 11 7 12
REMARK SMILES IDX 6 13 5 14 4 15 3 16 2 17 1 18
REMARK H PARENT
REMARK Flexibility Score: inf
ROOT
ATOM      1  C   UNL     1     -16.648  -9.509  -6.315  1.00  0.00     0.000 C 
ENDROOT
BRANCH   1   2
ATOM      2  C   UNL     1     -17.653  -9.702  -7.463  1.00  0.00     0.000 C 
BRANCH   2   3
ATOM      3  C   UNL     1     -17.695  -8.507  -8.427  1.00  0.00     0.000 C 
BRANCH   3   4
ATOM      4  C   UNL     1     -17.467  -8.959  -9.874  1.00  0.00     0.000 C 
BRANCH   4   5
ATOM      5  C   UNL     1     -18.385 -10.133 -10.235  1.00  0.00     0.000 C 
BRANCH   5   6
ATOM      6  C   UNL     1     -18.563 -10.246 -11.756  1.00  0.00     0.006 C 
BRANCH   6   7
ATOM      7  C   UNL     1     -19.315 -11.520 -12.160  1.00  0.00     0.053 C 
BRANCH   7   8
ATOM      8  C   UNL     1     -20.570 -11.210 -12.917  1.00  0.00     0.041 C 
ATOM      9  O   UNL     1     -21.124 -10.086 -12.792  1.00  0.00    -0.550 OA
ATOM     10  O   UNL     1     -21.147 -12.175 -13.735  1.00  0.00    -0.550 OA
ENDBRANCH   7   8
ENDBRANCH   6   7
ENDBRANCH   5   6
ENDBRANCH   4   5
ENDBRANCH   3   4
ENDBRANCH   2   3
ENDBRANCH   1   2
BRANCH   1  11
ATOM     11  C   UNL     1     -15.664  -8.336  -6.497  1.00  0.00     0.000 C 
BRANCH  11  12
ATOM     12  C   UNL     1     -14.326  -8.701  -7.171  1.00  0.00    -0.000 C 
BRANCH  12  13
ATOM     13  C   UNL     1     -13.509  -9.786  -6.444  1.00  0.00    -0.000 C 
BRANCH  13  14
ATOM     14  C   UNL     1     -13.790 -11.228  -6.906  1.00  0.00    -0.000 C 
BRANCH  14  15
ATOM     15  C   UNL     1     -14.214 -11.334  -8.387  1.00  0.00    -0.000 C 
BRANCH  15  16
ATOM     16  C   UNL     1     -15.163 -12.518  -8.643  1.00  0.00    -0.000 C 
BRANCH  16  17
ATOM     17  C   UNL     1     -15.659 -12.572 -10.097  1.00  0.00    -0.003 C 
ATOM     18  C   UNL     1     -15.092 -11.441 -10.956  1.00  0.00     0.004 C 
ENDBRANCH  16  17
ENDBRANCH  15  16
ENDBRANCH  14  15
ENDBRANCH  13  14
ENDBRANCH  12  13
ENDBRANCH  11  12
ENDBRANCH   1  11
TORSDOF 14
ENDMDL
MODEL 2
REMARK VINA RESULT:    -5.775      0.833      3.215
REMARK INTER + INTRA:         -12.315
REMARK INTER:                 -10.434
REMARK INTRA:                  -1.881
REMARK UNBOUND:                -1.813
REMARK SMILES CCCCCCCCCCCCCCCC(=O)[O-]
REMARK SMILES IDX 9 1 10 2 11 3 12 4 13 5 14 6 15 7 16 8 17 9 18 10 8 11 7 12
REMARK SMILES IDX 6 13 5 14 4 15 3 16 2 17 1 18
REMARK H PARENT
REMARK Flexibility Score: inf
ROOT
ATOM      1  C   UNL     1     -15.038 -12.236  -7.585  1.00  0.00     0.000 C 
ENDROOT
BRANCH   1   2
ATOM      2  C   UNL     1     -15.123 -12.914  -8.963  1.00  0.00     0.000 C 
BRANCH   2   3
ATOM      3  C   UNL     1     -14.755 -11.968 -10.117  1.00  0.00     0.000 C 
BRANCH   3   4
ATOM      4  C   UNL     1     -15.953 -11.102 -10.521  1.00  0.00     0.000 C 
BRANCH   4   5
ATOM      5  C   UNL     1     -17.179 -11.970 -10.834  1.00  0.00     0.000 C 
BRANCH   5   6
ATOM      6  C   UNL     1     -18.092 -11.284 -11.860  1.00  0.00     0.006 C 
BRANCH   6   7
ATOM      7  C   UNL     1     -19.485 -11.924 -11.918  1.00  0.00     0.053 C 
BRANCH   7   8
ATOM      8  C   UNL     1     -20.405 -11.174 -12.831  1.00  0.00     0.041 C 
ATOM      9  O   UNL     1     -20.760 -11.678 -13.928  1.00  0.00    -0.550 OA
ATOM     10  O   UNL     1     -20.843  -9.901 -12.485  1.00  0.00    -0.550 OA
ENDBRANCH   7   8
ENDBRANCH   6   7
ENDBRANCH   5   6
ENDBRANCH   4   5
ENDBRANCH   3   4
ENDBRANCH   2   3
ENDBRANCH   1   2
BRANCH   1  11
ATOM     11  C   UNL     1     -13.784 -11.369  -7.359  1.00  0.00     0.000 C 
BRANCH  11  12
ATOM     12  C   UNL     1     -14.003 -10.113  -6.491  1.00  0.00    -0.000 C 
BRANCH  12  13
ATOM     13  C   UNL     1     -14.286  -8.820  -7.279  1.00  0.00    -0.000 C 
BRANCH  13  14
ATOM     14  C   UNL     1     -15.698  -8.238  -7.083  1.00  0.00    -0.000 C 
BRANCH  14  15
ATOM     15  C   UNL     1     -16.686  -9.216  -6.411  1.00  0.00    -0.000 C 
BRANCH  15  16
ATOM     16  C   UNL     1     -17.772  -9.714  -7.381  1.00  0.00    -0.000 C 
BRANCH  16  17
ATOM     17  C   UNL     1     -17.919  -8.810  -8.615  1.00  0.00    -0.003 C 
ATOM     18  C   UNL     1     -19.149  -9.152  -9.454  1.00  0.00     0.004 C 
ENDBRANCH  16  17
ENDBRANCH  15  16
ENDBRANCH  14  15
ENDBRANCH  13  14
ENDBRANCH  12  13
ENDBRANCH  11  12
ENDBRANCH   1  11
TORSDOF 14
ENDMDL
MODEL 3
REMARK VINA RESULT:    -5.695      4.143      6.596
REMARK INTER + INTRA:         -12.169
REMARK INTER:                 -10.669
REMARK INTRA:                  -1.500
REMARK UNBOUND:                -1.813
REMARK SMILES CCCCCCCCCCCCCCCC(=O)[O-]
REMARK SMILES IDX 9 1 10 2 11 3 12 4 13 5 14 6 15 7 16 8 17 9 18 10 8 11 7 12
REMARK SMILES IDX 6 13 5 14 4 15 3 16 2 17 1 18
REMARK H PARENT
REMARK Flexibility Score: inf
ROOT
ATOM      1  C   UNL     1     -17.278  -8.332  -7.642  1.00  0.00     0.000 C 
ENDROOT
BRANCH   1   2
ATOM      2  C   UNL     1     -16.927  -9.228  -6.442  1.00  0.00     0.000 C 
BRANCH   2   3
ATOM      3  C   UNL     1     -17.537 -10.634  -6.547  1.00  0.00     0.000 C 
BRANCH   3   4
ATOM      4  C   UNL     1     -16.460 -11.713  -6.398  1.00  0.00     0.000 C 
BRANCH   4   5
ATOM      5  C   UNL     1     -15.542 -11.750  -7.626  1.00  0.00     0.000 C 
BRANCH   5   6
ATOM      6  C   UNL     1     -14.069 -11.601  -7.219  1.00  0.00     0.006 C 
BRANCH   6   7
ATOM      7  C   UNL     1     -13.561 -10.163  -7.391  1.00  0.00     0.053 C 
BRANCH   7   8
ATOM      8  C   UNL     1     -12.377  -9.883  -6.518  1.00  0.00     0.041 C 
ATOM      9  O   UNL     1     -11.523  -9.025  -6.863  1.00  0.00    -0.550 OA
ATOM     10  O   UNL     1     -12.198 -10.597  -5.338  1.00  0.00    -0.550 OA
ENDBRANCH   7   8
ENDBRANCH   6   7
ENDBRANCH   5   6
ENDBRANCH   4   5
ENDBRANCH   3   4
ENDBRANCH   2   3
ENDBRANCH   1   2
BRANCH   1  11
ATOM     11  C   UNL     1     -16.219  -8.292  -8.760  1.00  0.00     0.000 C 
BRANCH  11  12
ATOM     12  C   UNL     1     -16.637  -8.966 -10.083  1.00  0.00    -0.000 C 
BRANCH  12  13
ATOM     13  C   UNL     1     -17.822  -9.942  -9.968  1.00  0.00    -0.000 C 
BRANCH  13  14
ATOM     14  C   UNL     1     -17.804 -11.106 -10.976  1.00  0.00    -0.000 C 
BRANCH  14  15
ATOM     15  C   UNL     1     -19.198 -11.472 -11.529  1.00  0.00    -0.000 C 
BRANCH  15  16
ATOM     16  C   UNL     1     -19.939 -10.255 -12.108  1.00  0.00    -0.000 C 
BRANCH  16  17
ATOM     17  C   UNL     1     -21.018 -10.652 -13.129  1.00  0.00    -0.003 C 
ATOM     18  C   UNL     1     -20.801 -12.052 -13.702  1.00  0.00     0.004 C 
ENDBRANCH  16  17
ENDBRANCH  15  16
ENDBRANCH  14  15
ENDBRANCH  13  14
ENDBRANCH  12  13
ENDBRANCH  11  12
ENDBRANCH   1  11
TORSDOF 14
ENDMDL
MODEL 4
REMARK VINA RESULT:    -5.677      1.019      3.193
REMARK INTER + INTRA:         -12.135
REMARK INTER:                 -10.457
REMARK INTRA:                  -1.678
REMARK UNBOUND:                -1.813
REMARK SMILES CCCCCCCCCCCCCCCC(=O)[O-]
REMARK SMILES IDX 9 1 10 2 11 3 12 4 13 5 14 6 15 7 16 8 17 9 18 10 8 11 7 12
REMARK SMILES IDX 6 13 5 14 4 15 3 16 2 17 1 18
REMARK H PARENT
REMARK Flexibility Score: inf
ROOT
ATOM      1  C   UNL     1     -14.443 -12.381  -9.401  1.00  0.00     0.000 C 
ENDROOT
BRANCH   1   2
ATOM      2  C   UNL     1     -15.207 -11.845 -10.624  1.00  0.00     0.000 C 
BRANCH   2   3
ATOM      3  C   UNL     1     -16.363 -10.908 -10.241  1.00  0.00     0.000 C 
BRANCH   3   4
ATOM      4  C   UNL     1     -17.664 -11.328 -10.935  1.00  0.00     0.000 C 
BRANCH   4   5
ATOM      5  C   UNL     1     -18.774 -10.297 -10.695  1.00  0.00     0.000 C 
BRANCH   5   6
ATOM      6  C   UNL     1     -19.696 -10.185 -11.918  1.00  0.00     0.006 C 
BRANCH   6   7
ATOM      7  C   UNL     1     -19.551 -11.382 -12.867  1.00  0.00     0.053 C 
BRANCH   7   8
ATOM      8  C   UNL     1     -20.849 -11.727 -13.529  1.00  0.00     0.041 C 
ATOM      9  O   UNL     1     -21.614 -10.815 -13.938  1.00  0.00    -0.550 OA
ATOM     10  O   UNL     1     -21.230 -13.057 -13.663  1.00  0.00    -0.550 OA
ENDBRANCH   7   8
ENDBRANCH   6   7
ENDBRANCH   5   6
ENDBRANCH   4   5
ENDBRANCH   3   4
ENDBRANCH   2   3
ENDBRANCH   1   2
BRANCH   1  11
ATOM     11  C   UNL     1     -15.316 -12.694  -8.170  1.00  0.00     0.000 C 
BRANCH  11  12
ATOM     12  C   UNL     1     -15.080 -11.781  -6.950  1.00  0.00    -0.000 C 
BRANCH  12  13
ATOM     13  C   UNL     1     -13.711 -11.076  -6.922  1.00  0.00    -0.000 C 
BRANCH  13  14
ATOM     14  C   UNL     1     -13.738  -9.592  -7.333  1.00  0.00    -0.000 C 
BRANCH  14  15
ATOM     15  C   UNL     1     -14.982  -8.830  -6.827  1.00  0.00    -0.000 C 
BRANCH  15  16
ATOM     16  C   UNL     1     -15.693  -8.053  -7.950  1.00  0.00    -0.000 C 
BRANCH  16  17
ATOM     17  C   UNL     1     -17.199  -8.351  -8.010  1.00  0.00    -0.003 C 
ATOM     18  C   UNL     1     -17.619  -9.467  -7.054  1.00  0.00     0.004 C 
ENDBRANCH  16  17
ENDBRANCH  15  16
ENDBRANCH  14  15
ENDBRANCH  13  14
ENDBRANCH  12  13
ENDBRANCH  11  12
ENDBRANCH   1  11
TORSDOF 14
ENDMDL
MODEL 5
REMARK VINA RESULT:    -5.649      1.098      2.636
REMARK INTER + INTRA:         -12.085
REMARK INTER:                 -10.470
REMARK INTRA:                  -1.615
REMARK UNBOUND:                -1.813
REMARK SMILES CCCCCCCCCCCCCCCC(=O)[O-]
REMARK SMILES IDX 9 1 10 2 11 3 12 4 13 5 14 6 15 7 16 8 17 9 18 10 8 11 7 12
REMARK SMILES IDX 6 13 5 14 4 15 3 16 2 17 1 18
REMARK H PARENT
REMARK Flexibility Score: inf
ROOT
ATOM      1  C   UNL     1     -16.656  -8.361  -8.336  1.00  0.00     0.000 C 
ENDROOT
BRANCH   1   2
ATOM      2  C   UNL     1     -18.097  -8.502  -8.857  1.00  0.00     0.000 C 
BRANCH   2   3
ATOM      3  C   UNL     1     -18.312  -9.783  -9.677  1.00  0.00     0.000 C 
BRANCH   3   4
ATOM      4  C   UNL     1     -16.994 -10.277 -10.282  1.00  0.00     0.000 C 
BRANCH   4   5
ATOM      5  C   UNL     1     -17.181 -11.626 -10.986  1.00  0.00     0.000 C 
BRANCH   5   6
ATOM      6  C   UNL     1     -18.641 -11.823 -11.421  1.00  0.00     0.006 C 
BRANCH   6   7
ATOM      7  C   UNL     1     -18.938 -11.164 -12.774  1.00  0.00     0.053 C 
BRANCH   7   8
ATOM      8  C   UNL     1     -20.410 -11.073 -13.036  1.00  0.00     0.041 C 
ATOM      9  O   UNL     1     -20.998 -11.986 -13.673  1.00  0.00    -0.550 OA
ATOM     10  O   UNL     1     -21.126  -9.961 -12.608  1.00  0.00    -0.550 OA
ENDBRANCH   7   8
ENDBRANCH   6   7
ENDBRANCH   5   6
ENDBRANCH   4   5
ENDBRANCH   3   4
ENDBRANCH   2   3
ENDBRANCH   1   2
BRANCH   1  11
ATOM     11  C   UNL     1     -16.467  -8.684  -6.840  1.00  0.00     0.000 C 
BRANCH  11  12
ATOM     12  C   UNL     1     -17.209  -9.941  -6.343  1.00  0.00    -0.000 C 
BRANCH  12  13
ATOM     13  C   UNL     1     -16.306 -11.151  -6.041  1.00  0.00    -0.000 C 
BRANCH  13  14
ATOM     14  C   UNL     1     -15.927 -11.999  -7.269  1.00  0.00    -0.000 C 
BRANCH  14  15
ATOM     15  C   UNL     1     -14.512 -11.708  -7.814  1.00  0.00    -0.000 C 
BRANCH  15  16
ATOM     16  C   UNL     1     -13.613 -11.016  -6.775  1.00  0.00    -0.000 C 
BRANCH  16  17
ATOM     17  C   UNL     1     -13.163  -9.617  -7.224  1.00  0.00    -0.003 C 
ATOM     18  C   UNL     1     -11.765  -9.257  -6.722  1.00  0.00     0.004 C 
ENDBRANCH  16  17
ENDBRANCH  15  16
ENDBRANCH  14  15
ENDBRANCH  13  14
ENDBRANCH  12  13
ENDBRANCH  11  12
ENDBRANCH   1  11
TORSDOF 14
ENDMDL
MODEL 6
REMARK VINA RESULT:    -5.590      5.666      8.206
REMARK INTER + INTRA:         -11.977
REMARK INTER:                 -10.462
REMARK INTRA:                  -1.515
REMARK UNBOUND:                -1.813
REMARK SMILES CCCCCCCCCCCCCCCC(=O)[O-]
REMARK SMILES IDX 9 1 10 2 11 3 12 4 13 5 14 6 15 7 16 8 17 9 18 10 8 11 7 12
REMARK SMILES IDX 6 13 5 14 4 15 3 16 2 17 1 18
REMARK H PARENT
REMARK Flexibility Score: inf
ROOT
ATOM      1  C   UNL     1     -15.591  -9.569  -6.346  1.00  0.00     0.000 C 
ENDROOT
BRANCH   1   2
ATOM      2  C   UNL     1     -14.523  -9.048  -7.324  1.00  0.00     0.000 C 
BRANCH   2   3
ATOM      3  C   UNL     1     -13.151  -9.706  -7.116  1.00  0.00     0.000 C 
BRANCH   3   4
ATOM      4  C   UNL     1     -13.211 -10.764  -6.009  1.00  0.00     0.000 C 
BRANCH   4   5
ATOM      5  C   UNL     1     -12.109 -10.535  -4.967  1.00  0.00     0.000 C 
BRANCH   5   6
ATOM      6  C   UNL     1     -11.768 -11.838  -4.230  1.00  0.00     0.006 C 
BRANCH   6   7
ATOM      7  C   UNL     1     -12.070 -11.753  -2.728  1.00  0.00     0.053 C 
BRANCH   7   8
ATOM      8  C   UNL     1     -10.937 -12.278  -1.902  1.00  0.00     0.041 C 
ATOM      9  O   UNL     1     -10.049 -12.998  -2.428  1.00  0.00    -0.550 OA
ATOM     10  O   UNL     1     -10.880 -12.000  -0.541  1.00  0.00    -0.550 OA
ENDBRANCH   7   8
ENDBRANCH   6   7
ENDBRANCH   5   6
ENDBRANCH   4   5
ENDBRANCH   3   4
ENDBRANCH   2   3
ENDBRANCH   1   2
BRANCH   1  11
ATOM     11  C   UNL     1     -17.047  -9.254  -6.739  1.00  0.00     0.000 C 
BRANCH  11  12
ATOM     12  C   UNL     1     -17.222  -8.561  -8.106  1.00  0.00    -0.000 C 
BRANCH  12  13
ATOM     13  C   UNL     1     -18.286  -9.193  -9.023  1.00  0.00    -0.000 C 
BRANCH  13  14
ATOM     14  C   UNL     1     -17.726  -9.918 -10.261  1.00  0.00    -0.000 C 
BRANCH  14  15
ATOM     15  C   UNL     1     -16.224 -10.262 -10.155  1.00  0.00    -0.000 C 
BRANCH  15  16
ATOM     16  C   UNL     1     -15.938 -11.743 -10.456  1.00  0.00    -0.000 C 
BRANCH  16  17
ATOM     17  C   UNL     1     -14.720 -12.276  -9.685  1.00  0.00    -0.003 C 
ATOM     18  C   UNL     1     -15.068 -12.716  -8.264  1.00  0.00     0.004 C 
ENDBRANCH  16  17
ENDBRANCH  15  16
ENDBRANCH  14  15
ENDBRANCH  13  14
ENDBRANCH  12  13
ENDBRANCH  11  12
ENDBRANCH   1  11
TORSDOF 14
ENDMDL
MODEL 7
REMARK VINA RESULT:    -5.509      6.527      9.166
REMARK INTER + INTRA:         -11.831
REMARK INTER:                 -10.297
REMARK INTRA:                  -1.535
REMARK UNBOUND:                -1.813
REMARK SMILES CCCCCCCCCCCCCCCC(=O)[O-]
REMARK SMILES IDX 9 1 10 2 11 3 12 4 13 5 14 6 15 7 16 8 17 9 18 10 8 11 7 12
REMARK SMILES IDX 6 13 5 14 4 15 3 16 2 17 1 18
REMARK H PARENT
REMARK Flexibility Score: inf
ROOT
ATOM      1  C   UNL     1     -13.701  -8.978  -7.199  1.00  0.00     0.000 C 
ENDROOT
BRANCH   1   2
ATOM      2  C   UNL     1     -12.524  -9.828  -6.689  1.00  0.00     0.000 C 
BRANCH   2   3
ATOM      3  C   UNL     1     -12.959 -10.916  -5.694  1.00  0.00     0.000 C 
BRANCH   3   4
ATOM      4  C   UNL     1     -11.774 -11.395  -4.850  1.00  0.00     0.000 C 
BRANCH   4   5
ATOM      5  C   UNL     1     -12.156 -11.494  -3.368  1.00  0.00     0.000 C 
BRANCH   5   6
ATOM      6  C   UNL     1     -11.302 -12.548  -2.648  1.00  0.00     0.006 C 
BRANCH   6   7
ATOM      7  C   UNL     1     -11.080 -12.203  -1.169  1.00  0.00     0.053 C 
BRANCH   7   8
ATOM      8  C   UNL     1      -9.857 -12.871  -0.620  1.00  0.00     0.041 C 
ATOM      9  O   UNL     1      -9.884 -13.406   0.519  1.00  0.00    -0.550 OA
ATOM     10  O   UNL     1      -8.675 -12.871  -1.353  1.00  0.00    -0.550 OA
ENDBRANCH   7   8
ENDBRANCH   6   7
ENDBRANCH   5   6
ENDBRANCH   4   5
ENDBRANCH   3   4
ENDBRANCH   2   3
ENDBRANCH   1   2
BRANCH   1  11
ATOM     11  C   UNL     1     -15.052  -9.253  -6.509  1.00  0.00     0.000 C 
BRANCH  11  12
ATOM     12  C   UNL     1     -16.279  -8.620  -7.196  1.00  0.00    -0.000 C 
BRANCH  12  13
ATOM     13  C   UNL     1     -16.125  -8.384  -8.710  1.00  0.00    -0.000 C 
BRANCH  13  14
ATOM     14  C   UNL     1     -17.103  -9.183  -9.592  1.00  0.00    -0.000 C 
BRANCH  14  15
ATOM     15  C   UNL     1     -16.882 -10.710  -9.540  1.00  0.00    -0.000 C 
BRANCH  15  16
ATOM     16  C   UNL     1     -15.624 -11.149 -10.310  1.00  0.00    -0.000 C 
BRANCH  16  17
ATOM     17  C   UNL     1     -14.571 -11.798  -9.397  1.00  0.00    -0.003 C 
ATOM     18  C   UNL     1     -15.194 -12.604  -8.258  1.00  0.00     0.004 C 
ENDBRANCH  16  17
ENDBRANCH  15  16
ENDBRANCH  14  15
ENDBRANCH  13  14
ENDBRANCH  12  13
ENDBRANCH  11  12
ENDBRANCH   1  11
TORSDOF 14
ENDMDL
MODEL 8
REMARK VINA RESULT:    -5.499      3.995      6.174
REMARK INTER + INTRA:         -11.813
REMARK INTER:                 -10.199
REMARK INTRA:                  -1.614
REMARK UNBOUND:                -1.813
REMARK SMILES CCCCCCCCCCCCCCCC(=O)[O-]
REMARK SMILES IDX 9 1 10 2 11 3 12 4 13 5 14 6 15 7 16 8 17 9 18 10 8 11 7 12
REMARK SMILES IDX 6 13 5 14 4 15 3 16 2 17 1 18
REMARK H PARENT
REMARK Flexibility Score: inf
ROOT
ATOM      1  C   UNL     1     -15.779 -11.753  -6.870  1.00  0.00     0.000 C 
ENDROOT
BRANCH   1   2
ATOM      2  C   UNL     1     -17.103 -10.969  -6.840  1.00  0.00     0.000 C 
BRANCH   2   3
ATOM      3  C   UNL     1     -16.928  -9.520  -6.361  1.00  0.00     0.000 C 
BRANCH   3   4
ATOM      4  C   UNL     1     -17.127  -8.532  -7.515  1.00  0.00     0.000 C 
BRANCH   4   5
ATOM      5  C   UNL     1     -15.780  -8.023  -8.044  1.00  0.00     0.000 C 
BRANCH   5   6
ATOM      6  C   UNL     1     -14.649  -8.323  -7.050  1.00  0.00     0.006 C 
BRANCH   6   7
ATOM      7  C   UNL     1     -13.648  -9.348  -7.600  1.00  0.00     0.053 C 
BRANCH   7   8
ATOM      8  C   UNL     1     -12.480  -9.534  -6.682  1.00  0.00     0.041 C 
ATOM      9  O   UNL     1     -11.437  -8.847  -6.836  1.00  0.00    -0.550 OA
ATOM     10  O   UNL     1     -12.531 -10.491  -5.675  1.00  0.00    -0.550 OA
ENDBRANCH   7   8
ENDBRANCH   6   7
ENDBRANCH   5   6
ENDBRANCH   4   5
ENDBRANCH   3   4
ENDBRANCH   2   3
ENDBRANCH   1   2
BRANCH   1  11
ATOM     11  C   UNL     1     -15.604 -12.695  -8.078  1.00  0.00     0.000 C 
BRANCH  11  12
ATOM     12  C   UNL     1     -14.832 -12.095  -9.270  1.00  0.00    -0.000 C 
BRANCH  12  13
ATOM     13  C   UNL     1     -15.695 -11.768 -10.504  1.00  0.00    -0.000 C 
BRANCH  13  14
ATOM     14  C   UNL     1     -16.453 -10.430 -10.428  1.00  0.00    -0.000 C 
BRANCH  14  15
ATOM     15  C   UNL     1     -17.979 -10.567 -10.620  1.00  0.00    -0.000 C 
BRANCH  15  16
ATOM     16  C   UNL     1     -18.361 -11.837 -11.402  1.00  0.00    -0.000 C 
BRANCH  16  17
ATOM     17  C   UNL     1     -19.424 -11.568 -12.478  1.00  0.00    -0.003 C 
ATOM     18  C   UNL     1     -20.220 -10.290 -12.216  1.00  0.00     0.004 C 
ENDBRANCH  16  17
ENDBRANCH  15  16
ENDBRANCH  14  15
ENDBRANCH  13  14
ENDBRANCH  12  13
ENDBRANCH  11  12
ENDBRANCH   1  11
TORSDOF 14
ENDMDL
MODEL 9
REMARK VINA RESULT:    -5.379      3.571      5.244
REMARK INTER + INTRA:         -11.594
REMARK INTER:                 -10.583
REMARK INTRA:                  -1.011
REMARK UNBOUND:                -1.813
REMARK SMILES CCCCCCCCCCCCCCCC(=O)[O-]
REMARK SMILES IDX 9 1 10 2 11 3 12 4 13 5 14 6 15 7 16 8 17 9 18 10 8 11 7 12
REMARK SMILES IDX 6 13 5 14 4 15 3 16 2 17 1 18
REMARK H PARENT
REMARK Flexibility Score: inf
ROOT
ATOM      1  C   UNL     1     -14.120 -11.330  -7.057  1.00  0.00     0.000 C 
ENDROOT
BRANCH   1   2
ATOM      2  C   UNL     1     -15.624 -11.097  -6.829  1.00  0.00     0.000 C 
BRANCH   2   3
ATOM      3  C   UNL     1     -15.956  -9.637  -6.484  1.00  0.00     0.000 C 
BRANCH   3   4
ATOM      4  C   UNL     1     -17.124  -9.124  -7.334  1.00  0.00     0.000 C 
BRANCH   4   5
ATOM      5  C   UNL     1     -16.618  -8.310  -8.531  1.00  0.00     0.000 C 
BRANCH   5   6
ATOM      6  C   UNL     1     -16.658  -9.143  -9.821  1.00  0.00     0.006 C 
BRANCH   6   7
ATOM      7  C   UNL     1     -18.076  -9.623 -10.158  1.00  0.00     0.053 C 
BRANCH   7   8
ATOM      8  C   UNL     1     -18.060 -10.908 -10.927  1.00  0.00     0.041 C 
ATOM      9  O   UNL     1     -19.106 -11.320 -11.494  1.00  0.00    -0.550 OA
ATOM     10  O   UNL     1     -16.898 -11.668 -10.989  1.00  0.00    -0.550 OA
ENDBRANCH   7   8
ENDBRANCH   6   7
ENDBRANCH   5   6
ENDBRANCH   4   5
ENDBRANCH   3   4
ENDBRANCH   2   3
ENDBRANCH   1   2
BRANCH   1  11
ATOM     11  C   UNL     1     -13.239 -10.070  -6.943  1.00  0.00     0.000 C 
BRANCH  11  12
ATOM     12  C   UNL     1     -12.187 -10.105  -5.815  1.00  0.00    -0.000 C 
BRANCH  12  13
ATOM     13  C   UNL     1     -12.155 -11.411  -4.999  1.00  0.00    -0.000 C 
BRANCH  13  14
ATOM     14  C   UNL     1     -12.138 -11.219  -3.471  1.00  0.00    -0.000 C 
BRANCH  14  15
ATOM     15  C   UNL     1     -11.562 -12.426  -2.699  1.00  0.00    -0.000 C 
BRANCH  15  16
ATOM     16  C   UNL     1     -11.284 -12.101  -1.221  1.00  0.00    -0.000 C 
BRANCH  16  17
ATOM     17  C   UNL     1     -10.066 -12.859  -0.670  1.00  0.00    -0.003 C 
ATOM     18  C   UNL     1      -9.166 -13.412  -1.775  1.00  0.00     0.004 C 
ENDBRANCH  16  17
ENDBRANCH  15  16
ENDBRANCH  14  15
ENDBRANCH  13  14
ENDBRANCH  12  13
ENDBRANCH  11  12
ENDBRANCH   1  11
TORSDOF 14
ENDMDL
