MODEL 1
REMARK VINA RESULT:    -4.038      0.000      0.000
REMARK INTER + INTRA:          -6.645
REMARK INTER:                  -6.162
REMARK INTRA:                  -0.483
REMARK UNBOUND:                -0.483
REMARK SMILES CCCCCCCCCCC(=O)[O-]
REMARK SMILES IDX 7 1 8 2 9 3 10 4 11 5 12 6 13 7 6 8 5 9 4 10 3 11 2 12 1 13
REMARK H PARENT
REMARK Flexibility Score: inf
ROOT
ATOM      1  C   UNL     1       2.577  -7.121   4.934  1.00  0.00     0.000 C 
ENDROOT
BRANCH   1   2
ATOM      2  C   UNL     1       2.347  -8.460   4.208  1.00  0.00     0.000 C 
BRANCH   2   3
ATOM      3  C   UNL     1       0.890  -8.939   4.293  1.00  0.00     0.006 C 
BRANCH   3   4
ATOM      4  C   UNL     1      -0.035  -7.801   4.734  1.00  0.00     0.053 C 
BRANCH   4   5
ATOM      5  C   UNL     1      -1.454  -8.112   4.378  1.00  0.00     0.041 C 
ATOM      6  O   UNL     1      -1.913  -7.776   3.254  1.00  0.00    -0.550 OA
ATOM      7  O   UNL     1      -2.256  -8.814   5.267  1.00  0.00    -0.550 OA
ENDBRANCH   4   5
ENDBRANCH   3   4
ENDBRANCH   2   3
ENDBRANCH   1   2
BRANCH   1   8
ATOM      8  C   UNL     1       4.056  -6.724   5.120  1.00  0.00     0.000 C 
BRANCH   8   9
ATOM      9  C   UNL     1       5.078  -7.726   4.553  1.00  0.00    -0.000 C 
BRANCH   9  10
ATOM     10  C   UNL     1       6.492  -7.140   4.443  1.00  0.00    -0.000 C 
BRANCH  10  11
ATOM     11  C   UNL     1       6.488  -5.635   4.749  1.00  0.00    -0.000 C 
BRANCH  11  12
ATOM     12  C   UNL     1       7.283  -4.819   3.718  1.00  0.00    -0.003 C 
ATOM     13  C   UNL     1       7.886  -5.687   2.615  1.00  0.00     0.004 C 
ENDBRANCH  11  12
ENDBRANCH  10  11
ENDBRANCH   9  10
ENDBRANCH   8   9
ENDBRANCH   1   8
TORSDOF 9
ENDMDL
MODEL 2
REMARK VINA RESULT:    -3.887     18.093     19.887
REMARK INTER + INTRA:          -6.415
REMARK INTER:                  -5.874
REMARK INTRA:                  -0.541
REMARK UNBOUND:                -0.483
REMARK SMILES CCCCCCCCCCC(=O)[O-]
REMARK SMILES IDX 7 1 8 2 9 3 10 4 11 5 12 6 13 7 6 8 5 9 4 10 3 11 2 12 1 13
REMARK H PARENT
REMARK Flexibility Score: inf
ROOT
ATOM      1  C   UNL     1      -8.048   6.164  -2.610  1.00  0.00     0.000 C 
ENDROOT
BRANCH   1   2
ATOM      2  C   UNL     1      -7.073   6.315  -3.793  1.00  0.00     0.000 C 
BRANCH   2   3
ATOM      3  C   UNL     1      -5.646   5.863  -3.448  1.00  0.00     0.006 C 
BRANCH   3   4
ATOM      4  C   UNL     1      -4.793   7.050  -2.988  1.00  0.00     0.053 C 
BRANCH   4   5
ATOM      5  C   UNL     1      -4.861   8.162  -3.985  1.00  0.00     0.041 C 
ATOM      6  O   UNL     1      -5.357   9.273  -3.662  1.00  0.00    -0.550 OA
ATOM      7  O   UNL     1      -4.332   7.988  -5.257  1.00  0.00    -0.550 OA
ENDBRANCH   4   5
ENDBRANCH   3   4
ENDBRANCH   2   3
ENDBRANCH   1   2
BRANCH   1   8
ATOM      8  C   UNL     1      -8.661   7.482  -2.096  1.00  0.00     0.000 C 
BRANCH   8   9
ATOM      9  C   UNL     1      -9.911   7.319  -1.212  1.00  0.00    -0.000 C 
BRANCH   9  10
ATOM     10  C   UNL     1      -9.857   8.175   0.062  1.00  0.00    -0.000 C 
BRANCH  10  11
ATOM     11  C   UNL     1      -9.842   7.291   1.317  1.00  0.00    -0.000 C 
BRANCH  11  12
ATOM     12  C   UNL     1     -10.054   5.804   0.996  1.00  0.00    -0.003 C 
ATOM     13  C   UNL     1      -9.608   4.884   2.131  1.00  0.00     0.004 C 
ENDBRANCH  11  12
ENDBRANCH  10  11
ENDBRANCH   9  10
ENDBRANCH   8   9
ENDBRANCH   1   8
TORSDOF 9
ENDMDL
MODEL 3
REMARK VINA RESULT:    -3.782      1.708      2.325
REMARK INTER + INTRA:          -6.255
REMARK INTER:                  -5.872
REMARK INTRA:                  -0.384
REMARK UNBOUND:                -0.483
REMARK SMILES CCCCCCCCCCC(=O)[O-]
REMARK SMILES IDX 7 1 8 2 9 3 10 4 11 5 12 6 13 7 6 8 5 9 4 10 3 11 2 12 1 13
REMARK H PARENT
REMARK Flexibility Score: inf
ROOT
ATOM      1  C   UNL     1       3.016  -7.344   4.692  1.00  0.00     0.000 C 
ENDROOT
BRANCH   1   2
ATOM      2  C   UNL     1       2.564  -8.747   4.246  1.00  0.00     0.000 C 
BRANCH   2   3
ATOM      3  C   UNL     1       1.051  -8.833   3.993  1.00  0.00     0.006 C 
BRANCH   3   4
ATOM      4  C   UNL     1       0.319  -7.661   4.656  1.00  0.00     0.053 C 
BRANCH   4   5
ATOM      5  C   UNL     1      -1.161  -7.868   4.598  1.00  0.00     0.041 C 
ATOM      6  O   UNL     1      -1.818  -8.041   5.658  1.00  0.00    -0.550 OA
ATOM      7  O   UNL     1      -1.822  -7.823   3.378  1.00  0.00    -0.550 OA
ENDBRANCH   4   5
ENDBRANCH   3   4
ENDBRANCH   2   3
ENDBRANCH   1   2
BRANCH   1   8
ATOM      8  C   UNL     1       4.539  -7.171   4.862  1.00  0.00     0.000 C 
BRANCH   8   9
ATOM      9  C   UNL     1       4.978  -5.830   5.478  1.00  0.00    -0.000 C 
BRANCH   9  10
ATOM     10  C   UNL     1       6.127  -5.166   4.706  1.00  0.00    -0.000 C 
BRANCH  10  11
ATOM     11  C   UNL     1       6.007  -3.636   4.752  1.00  0.00    -0.000 C 
BRANCH  11  12
ATOM     12  C   UNL     1       4.702  -3.165   5.412  1.00  0.00    -0.003 C 
ATOM     13  C   UNL     1       4.168  -1.867   4.807  1.00  0.00     0.004 C 
ENDBRANCH  11  12
ENDBRANCH  10  11
ENDBRANCH   9  10
ENDBRANCH   8   9
ENDBRANCH   1   8
TORSDOF 9
ENDMDL
MODEL 4
REMARK VINA RESULT:    -3.758     18.571     19.799
REMARK INTER + INTRA:          -6.218
REMARK INTER:                  -5.308
REMARK INTRA:                  -0.910
REMARK UNBOUND:                -0.483
REMARK SMILES CCCCCCCCCCC(=O)[O-]
REMARK SMILES IDX 7 1 8 2 9 3 10 4 11 5 12 6 13 7 6 8 5 9 4 10 3 11 2 12 1 13
REMARK H PARENT
REMARK Flexibility Score: inf
ROOT
ATOM      1  C   UNL     1      -5.373   9.636  -1.449  1.00  0.00     0.000 C 
ENDROOT
BRANCH   1   2
ATOM      2  C   UNL     1      -6.607  10.072  -0.637  1.00  0.00     0.000 C 
BRANCH   2   3
ATOM      3  C   UNL     1      -7.920   9.907  -1.415  1.00  0.00     0.006 C 
BRANCH   3   4
ATOM      4  C   UNL     1      -8.778   8.791  -0.810  1.00  0.00     0.053 C 
BRANCH   4   5
ATOM      5  C   UNL     1      -9.346   7.923  -1.888  1.00  0.00     0.041 C 
ATOM      6  O   UNL     1      -9.269   6.670  -1.798  1.00  0.00    -0.550 OA
ATOM      7  O   UNL     1     -10.002   8.497  -2.969  1.00  0.00    -0.550 OA
ENDBRANCH   4   5
ENDBRANCH   3   4
ENDBRANCH   2   3
ENDBRANCH   1   2
BRANCH   1   8
ATOM      8  C   UNL     1      -5.402  10.022  -2.942  1.00  0.00     0.000 C 
BRANCH   8   9
ATOM      9  C   UNL     1      -5.124   8.867  -3.921  1.00  0.00    -0.000 C 
BRANCH   9  10
ATOM     10  C   UNL     1      -6.322   7.921  -4.084  1.00  0.00    -0.000 C 
BRANCH  10  11
ATOM     11  C   UNL     1      -6.088   6.605  -3.328  1.00  0.00    -0.000 C 
BRANCH  11  12
ATOM     12  C   UNL     1      -4.625   6.422  -2.898  1.00  0.00    -0.003 C 
ATOM     13  C   UNL     1      -3.812   5.603  -3.900  1.00  0.00     0.004 C 
ENDBRANCH  11  12
ENDBRANCH  10  11
ENDBRANCH   9  10
ENDBRANCH   8   9
ENDBRANCH   1   8
TORSDOF 9
ENDMDL
MODEL 5
REMARK VINA RESULT:    -3.755      4.100      6.556
REMARK INTER + INTRA:          -6.214
REMARK INTER:                  -5.403
REMARK INTRA:                  -0.810
REMARK UNBOUND:                -0.483
REMARK SMILES CCCCCCCCCCC(=O)[O-]
REMARK SMILES IDX 7 1 8 2 9 3 10 4 11 5 12 6 13 7 6 8 5 9 4 10 3 11 2 12 1 13
REMARK H PARENT
REMARK Flexibility Score: inf
ROOT
ATOM      1  C   UNL     1       7.417  -6.348   3.717  1.00  0.00     0.000 C 
ENDROOT
BRANCH   1   2
ATOM      2  C   UNL     1       7.094  -4.852   3.891  1.00  0.00     0.000 C 
BRANCH   2   3
ATOM      3  C   UNL     1       6.494  -4.530   5.267  1.00  0.00     0.006 C 
BRANCH   3   4
ATOM      4  C   UNL     1       5.162  -3.787   5.123  1.00  0.00     0.053 C 
BRANCH   4   5
ATOM      5  C   UNL     1       5.385  -2.308   5.116  1.00  0.00     0.041 C 
ATOM      6  O   UNL     1       5.759  -1.719   6.164  1.00  0.00    -0.550 OA
ATOM      7  O   UNL     1       5.226  -1.587   3.940  1.00  0.00    -0.550 OA
ENDBRANCH   4   5
ENDBRANCH   3   4
ENDBRANCH   2   3
ENDBRANCH   1   2
BRANCH   1   8
ATOM      8  C   UNL     1       6.495  -7.311   4.492  1.00  0.00     0.000 C 
BRANCH   8   9
ATOM      9  C   UNL     1       5.642  -8.246   3.615  1.00  0.00    -0.000 C 
BRANCH   9  10
ATOM     10  C   UNL     1       4.221  -8.445   4.159  1.00  0.00    -0.000 C 
BRANCH  10  11
ATOM     11  C   UNL     1       3.769  -7.223   4.972  1.00  0.00    -0.000 C 
BRANCH  11  12
ATOM     12  C   UNL     1       2.241  -7.055   4.988  1.00  0.00    -0.003 C 
ATOM     13  C   UNL     1       1.507  -8.260   4.402  1.00  0.00     0.004 C 
ENDBRANCH  11  12
ENDBRANCH  10  11
ENDBRANCH   9  10
ENDBRANCH   8   9
ENDBRANCH   1   8
TORSDOF 9
ENDMDL
MODEL 6
REMARK VINA RESULT:    -3.733     19.170     20.738
REMARK INTER + INTRA:          -6.180
REMARK INTER:                  -5.049
REMARK INTRA:                  -1.131
REMARK UNBOUND:                -0.483
REMARK SMILES CCCCCCCCCCC(=O)[O-]
REMARK SMILES IDX 7 1 8 2 9 3 10 4 11 5 12 6 13 7 6 8 5 9 4 10 3 11 2 12 1 13
REMARK H PARENT
REMARK Flexibility Score: inf
ROOT
ATOM      1  C   UNL     1      -4.954   6.529  -3.131  1.00  0.00     0.000 C 
ENDROOT
BRANCH   1   2
ATOM      2  C   UNL     1      -4.548   7.477  -4.275  1.00  0.00     0.000 C 
BRANCH   2   3
ATOM      3  C   UNL     1      -4.857   8.949  -3.965  1.00  0.00     0.006 C 
BRANCH   3   4
ATOM      4  C   UNL     1      -5.689   9.581  -5.086  1.00  0.00     0.053 C 
BRANCH   4   5
ATOM      5  C   UNL     1      -4.875   9.706  -6.335  1.00  0.00     0.041 C 
ATOM      6  O   UNL     1      -5.398   9.474  -7.457  1.00  0.00    -0.550 OA
ATOM      7  O   UNL     1      -3.553  10.124  -6.265  1.00  0.00    -0.550 OA
ENDBRANCH   4   5
ENDBRANCH   3   4
ENDBRANCH   2   3
ENDBRANCH   1   2
BRANCH   1   8
ATOM      8  C   UNL     1      -6.233   5.705  -3.386  1.00  0.00     0.000 C 
BRANCH   8   9
ATOM      9  C   UNL     1      -7.459   6.523  -3.830  1.00  0.00    -0.000 C 
BRANCH   9  10
ATOM     10  C   UNL     1      -8.151   7.242  -2.664  1.00  0.00    -0.000 C 
BRANCH  10  11
ATOM     11  C   UNL     1      -8.648   8.630  -3.094  1.00  0.00    -0.000 C 
BRANCH  11  12
ATOM     12  C   UNL     1      -8.517   9.677  -1.977  1.00  0.00    -0.003 C 
ATOM     13  C   UNL     1      -7.223   9.532  -1.178  1.00  0.00     0.004 C 
ENDBRANCH  11  12
ENDBRANCH  10  11
ENDBRANCH   9  10
ENDBRANCH   8   9
ENDBRANCH   1   8
TORSDOF 9
ENDMDL
MODEL 7
REMARK VINA RESULT:    -3.710     13.336     14.487
REMARK INTER + INTRA:          -6.144
REMARK INTER:                  -5.613
REMARK INTRA:                  -0.532
REMARK UNBOUND:                -0.483
REMARK SMILES CCCCCCCCCCC(=O)[O-]
REMARK SMILES IDX 7 1 8 2 9 3 10 4 11 5 12 6 13 7 6 8 5 9 4 10 3 11 2 12 1 13
REMARK H PARENT
REMARK Flexibility Score: inf
ROOT
ATOM      1  C   UNL     1       2.513   7.217   8.064  1.00  0.00     0.000 C 
ENDROOT
BRANCH   1   2
ATOM      2  C   UNL     1       2.198   8.227   6.946  1.00  0.00     0.000 C 
BRANCH   2   3
ATOM      3  C   UNL     1       0.815   8.878   7.104  1.00  0.00     0.006 C 
BRANCH   3   4
ATOM      4  C   UNL     1      -0.250   7.825   7.427  1.00  0.00     0.053 C 
BRANCH   4   5
ATOM      5  C   UNL     1      -1.581   8.244   6.886  1.00  0.00     0.041 C 
ATOM      6  O   UNL     1      -2.011   9.409   7.098  1.00  0.00    -0.550 OA
ATOM      7  O   UNL     1      -2.324   7.366   6.109  1.00  0.00    -0.550 OA
ENDBRANCH   4   5
ENDBRANCH   3   4
ENDBRANCH   2   3
ENDBRANCH   1   2
BRANCH   1   8
ATOM      8  C   UNL     1       3.632   6.207   7.737  1.00  0.00     0.000 C 
BRANCH   8   9
ATOM      9  C   UNL     1       4.084   6.187   6.265  1.00  0.00    -0.000 C 
BRANCH   9  10
ATOM     10  C   UNL     1       4.596   4.811   5.816  1.00  0.00    -0.000 C 
BRANCH  10  11
ATOM     11  C   UNL     1       3.752   4.263   4.656  1.00  0.00    -0.000 C 
BRANCH  11  12
ATOM     12  C   UNL     1       2.854   3.091   5.080  1.00  0.00    -0.003 C 
ATOM     13  C   UNL     1       3.492   2.215   6.157  1.00  0.00     0.004 C 
ENDBRANCH  11  12
ENDBRANCH  10  11
ENDBRANCH   9  10
ENDBRANCH   8   9
ENDBRANCH   1   8
TORSDOF 9
ENDMDL
MODEL 8
REMARK VINA RESULT:    -3.709      4.379      6.818
REMARK INTER + INTRA:          -6.143
REMARK INTER:                  -5.412
REMARK INTRA:                  -0.730
REMARK UNBOUND:                -0.483
REMARK SMILES CCCCCCCCCCC(=O)[O-]
REMARK SMILES IDX 7 1 8 2 9 3 10 4 11 5 12 6 13 7 6 8 5 9 4 10 3 11 2 12 1 13
REMARK H PARENT
REMARK Flexibility Score: inf
ROOT
ATOM      1  C   UNL     1       5.285  -8.981   3.206  1.00  0.00     0.000 C 
ENDROOT
BRANCH   1   2
ATOM      2  C   UNL     1       5.965  -8.223   4.361  1.00  0.00     0.000 C 
BRANCH   2   3
ATOM      3  C   UNL     1       6.217  -6.743   4.035  1.00  0.00     0.006 C 
BRANCH   3   4
ATOM      4  C   UNL     1       7.716  -6.427   4.054  1.00  0.00     0.053 C 
BRANCH   4   5
ATOM      5  C   UNL     1       8.076  -5.529   2.914  1.00  0.00     0.041 C 
ATOM      6  O   UNL     1       7.828  -5.878   1.730  1.00  0.00    -0.550 OA
ATOM      7  O   UNL     1       8.643  -4.285   3.160  1.00  0.00    -0.550 OA
ENDBRANCH   4   5
ENDBRANCH   3   4
ENDBRANCH   2   3
ENDBRANCH   1   2
BRANCH   1   8
ATOM      8  C   UNL     1       4.188  -9.978   3.633  1.00  0.00     0.000 C 
BRANCH   8   9
ATOM      9  C   UNL     1       2.752  -9.427   3.589  1.00  0.00    -0.000 C 
BRANCH   9  10
ATOM     10  C   UNL     1       2.284  -8.868   4.940  1.00  0.00    -0.000 C 
BRANCH  10  11
ATOM     11  C   UNL     1       1.828  -7.408   4.802  1.00  0.00    -0.000 C 
BRANCH  11  12
ATOM     12  C   UNL     1       2.859  -6.412   5.355  1.00  0.00    -0.003 C 
ATOM     13  C   UNL     1       2.216  -5.273   6.145  1.00  0.00     0.004 C 
ENDBRANCH  11  12
ENDBRANCH  10  11
ENDBRANCH   9  10
ENDBRANCH   8   9
ENDBRANCH   1   8
TORSDOF 9
ENDMDL
MODEL 9
REMARK VINA RESULT:    -3.695     19.067     20.301
REMARK INTER + INTRA:          -6.121
REMARK INTER:                  -5.182
REMARK INTRA:                  -0.940
REMARK UNBOUND:                -0.483
REMARK SMILES CCCCCCCCCCC(=O)[O-]
REMARK SMILES IDX 7 1 8 2 9 3 10 4 11 5 12 6 13 7 6 8 5 9 4 10 3 11 2 12 1 13
REMARK H PARENT
REMARK Flexibility Score: inf
ROOT
ATOM      1  C   UNL     1      -7.692  10.023  -1.603  1.00  0.00     0.000 C 
ENDROOT
BRANCH   1   2
ATOM      2  C   UNL     1      -8.653   8.825  -1.498  1.00  0.00     0.000 C 
BRANCH   2   3
ATOM      3  C   UNL     1      -9.303   8.465  -2.843  1.00  0.00     0.006 C 
BRANCH   3   4
ATOM      4  C   UNL     1      -8.745   9.338  -3.971  1.00  0.00     0.053 C 
BRANCH   4   5
ATOM      5  C   UNL     1      -8.173   8.486  -5.059  1.00  0.00     0.041 C 
ATOM      6  O   UNL     1      -8.133   7.234  -4.928  1.00  0.00    -0.550 OA
ATOM      7  O   UNL     1      -7.728   9.069  -6.238  1.00  0.00    -0.550 OA
ENDBRANCH   4   5
ENDBRANCH   3   4
ENDBRANCH   2   3
ENDBRANCH   1   2
BRANCH   1   8
ATOM      8  C   UNL     1      -6.398   9.899  -0.772  1.00  0.00     0.000 C 
BRANCH   8   9
ATOM      9  C   UNL     1      -5.095   9.899  -1.591  1.00  0.00    -0.000 C 
BRANCH   9  10
ATOM     10  C   UNL     1      -5.234   9.172  -2.936  1.00  0.00    -0.000 C 
BRANCH  10  11
ATOM     11  C   UNL     1      -5.269   7.650  -2.736  1.00  0.00    -0.000 C 
BRANCH  11  12
ATOM     12  C   UNL     1      -4.547   6.889  -3.860  1.00  0.00    -0.003 C 
ATOM     13  C   UNL     1      -3.907   5.589  -3.377  1.00  0.00     0.004 C 
ENDBRANCH  11  12
ENDBRANCH  10  11
ENDBRANCH   9  10
ENDBRANCH   8   9
ENDBRANCH   1   8
TORSDOF 9
ENDMDL
