MODEL 1
REMARK VINA RESULT:    -3.246      0.000      0.000
REMARK INTER + INTRA:          -4.131
REMARK INTER:                  -3.910
REMARK INTRA:                  -0.221
REMARK UNBOUND:                -0.221
REMARK SMILES OCC(O)CO
REMARK SMILES IDX 3 1 5 2 6 3 2 5 1 6 4 8
REMARK H PARENT 6 4 1 7 4 9
REMARK Flexibility Score: inf
ROOT
ATOM      1  C   UNL     1     146.072 153.922 130.877  1.00  0.00     0.165 C 
ENDROOT
BRANCH   1   2
ATOM      2  C   UNL     1     147.156 154.988 130.657  1.00  0.00     0.190 C 
BRANCH   2   3
ATOM      3  O   UNL     1     146.951 156.094 131.496  1.00  0.00    -0.394 OA
ATOM      4  H   UNL     1     146.747 155.732 132.398  1.00  0.00     0.210 HD
ENDBRANCH   2   3
ENDBRANCH   1   2
BRANCH   1   5
ATOM      5  C   UNL     1     144.867 154.126 129.941  1.00  0.00     0.190 C 
BRANCH   5   6
ATOM      6  O   UNL     1     144.726 155.476 129.582  1.00  0.00    -0.394 OA
ATOM      7  H   UNL     1     143.776 155.716 129.740  1.00  0.00     0.210 HD
ENDBRANCH   5   6
ENDBRANCH   1   5
BRANCH   1   8
ATOM      8  O   UNL     1     145.655 153.964 132.216  1.00  0.00    -0.388 OA
ATOM      9  H   UNL     1     145.395 154.904 132.407  1.00  0.00     0.211 HD
ENDBRANCH   1   8
TORSDOF 5
ENDMDL
MODEL 2
REMARK VINA RESULT:    -3.231      0.797      2.369
REMARK INTER + INTRA:          -4.113
REMARK INTER:                  -3.924
REMARK INTRA:                  -0.189
REMARK UNBOUND:                -0.221
REMARK SMILES OCC(O)CO
REMARK SMILES IDX 3 1 5 2 6 3 2 5 1 6 4 8
REMARK H PARENT 6 4 1 7 4 9
REMARK Flexibility Score: inf
ROOT
ATOM      1  C   UNL     1     146.995 154.825 130.552  1.00  0.00     0.165 C 
ENDROOT
BRANCH   1   2
ATOM      2  C   UNL     1     146.196 155.092 129.266  1.00  0.00     0.190 C 
BRANCH   2   3
ATOM      3  O   UNL     1     144.894 155.522 129.564  1.00  0.00    -0.394 OA
ATOM      4  H   UNL     1     144.958 156.075 130.386  1.00  0.00     0.210 HD
ENDBRANCH   2   3
ENDBRANCH   1   2
BRANCH   1   5
ATOM      5  C   UNL     1     146.500 153.565 131.284  1.00  0.00     0.190 C 
BRANCH   5   6
ATOM      6  O   UNL     1     145.460 153.872 132.176  1.00  0.00    -0.394 OA
ATOM      7  H   UNL     1     145.874 154.342 132.946  1.00  0.00     0.210 HD
ENDBRANCH   5   6
ENDBRANCH   1   5
BRANCH   1   8
ATOM      8  O   UNL     1     146.893 155.943 131.393  1.00  0.00    -0.388 OA
ATOM      9  H   UNL     1     145.955 155.973 131.719  1.00  0.00     0.211 HD
ENDBRANCH   1   8
TORSDOF 5
ENDMDL
MODEL 3
REMARK VINA RESULT:    -3.207      0.607      2.553
REMARK INTER + INTRA:          -4.083
REMARK INTER:                  -3.881
REMARK INTRA:                  -0.203
REMARK UNBOUND:                -0.221
REMARK SMILES OCC(O)CO
REMARK SMILES IDX 3 1 5 2 6 3 2 5 1 6 4 8
REMARK H PARENT 6 4 1 7 4 9
REMARK Flexibility Score: inf
ROOT
ATOM      1  C   UNL     1     145.969 154.476 129.988  1.00  0.00     0.165 C 
ENDROOT
BRANCH   1   2
ATOM      2  C   UNL     1     145.389 153.450 130.974  1.00  0.00     0.190 C 
BRANCH   2   3
ATOM      3  O   UNL     1     145.565 153.872 132.299  1.00  0.00    -0.394 OA
ATOM      4  H   UNL     1     146.452 153.534 132.591  1.00  0.00     0.210 HD
ENDBRANCH   2   3
ENDBRANCH   1   2
BRANCH   1   5
ATOM      5  C   UNL     1     147.259 155.122 130.524  1.00  0.00     0.190 C 
BRANCH   5   6
ATOM      6  O   UNL     1     146.973 156.111 131.478  1.00  0.00    -0.394 OA
ATOM      7  H   UNL     1     147.772 156.698 131.529  1.00  0.00     0.210 HD
ENDBRANCH   5   6
ENDBRANCH   1   5
BRANCH   1   8
ATOM      8  O   UNL     1     145.004 155.463 129.736  1.00  0.00    -0.388 OA
ATOM      9  H   UNL     1     144.141 154.992 129.593  1.00  0.00     0.211 HD
ENDBRANCH   1   8
TORSDOF 5
ENDMDL
MODEL 4
REMARK VINA RESULT:    -3.121      1.690      2.879
REMARK INTER + INTRA:          -3.980
REMARK INTER:                  -3.763
REMARK INTRA:                  -0.217
REMARK UNBOUND:                -0.221
REMARK SMILES OCC(O)CO
REMARK SMILES IDX 3 1 5 2 6 3 2 5 1 6 4 8
REMARK H PARENT 6 4 1 7 4 9
REMARK Flexibility Score: inf
ROOT
ATOM      1  C   UNL     1     146.960 154.976 129.199  1.00  0.00     0.165 C 
ENDROOT
BRANCH   1   2
ATOM      2  C   UNL     1     147.251 154.788 130.696  1.00  0.00     0.190 C 
BRANCH   2   3
ATOM      3  O   UNL     1     146.823 155.901 131.435  1.00  0.00    -0.394 OA
ATOM      4  H   UNL     1     147.458 156.638 131.235  1.00  0.00     0.210 HD
ENDBRANCH   2   3
ENDBRANCH   1   2
BRANCH   1   5
ATOM      5  C   UNL     1     148.001 155.886 128.522  1.00  0.00     0.190 C 
BRANCH   5   6
ATOM      6  O   UNL     1     148.761 156.583 129.473  1.00  0.00    -0.394 OA
ATOM      7  H   UNL     1     149.701 156.574 129.152  1.00  0.00     0.210 HD
ENDBRANCH   5   6
ENDBRANCH   1   5
BRANCH   1   8
ATOM      8  O   UNL     1     145.674 155.518 129.049  1.00  0.00    -0.388 OA
ATOM      9  H   UNL     1     145.764 156.502 129.150  1.00  0.00     0.211 HD
ENDBRANCH   1   8
TORSDOF 5
ENDMDL
MODEL 5
REMARK VINA RESULT:    -3.120      4.143      5.077
REMARK INTER + INTRA:          -3.979
REMARK INTER:                  -3.794
REMARK INTRA:                  -0.185
REMARK UNBOUND:                -0.221
REMARK SMILES OCC(O)CO
REMARK SMILES IDX 3 1 5 2 6 3 2 5 1 6 4 8
REMARK H PARENT 6 4 1 7 4 9
REMARK Flexibility Score: inf
ROOT
ATOM      1  C   UNL     1     149.155 156.295 127.294  1.00  0.00     0.165 C 
ENDROOT
BRANCH   1   2
ATOM      2  C   UNL     1     150.608 155.919 127.624  1.00  0.00     0.190 C 
BRANCH   2   3
ATOM      3  O   UNL     1     150.668 155.078 128.745  1.00  0.00    -0.394 OA
ATOM      4  H   UNL     1     151.234 154.303 128.490  1.00  0.00     0.210 HD
ENDBRANCH   2   3
ENDBRANCH   1   2
BRANCH   1   5
ATOM      5  C   UNL     1     148.194 155.930 128.441  1.00  0.00     0.190 C 
BRANCH   5   6
ATOM      6  O   UNL     1     148.576 156.553 129.640  1.00  0.00    -0.394 OA
ATOM      7  H   UNL     1     148.295 157.503 129.571  1.00  0.00     0.210 HD
ENDBRANCH   5   6
ENDBRANCH   1   5
BRANCH   1   8
ATOM      8  O   UNL     1     148.770 155.639 126.115  1.00  0.00    -0.388 OA
ATOM      9  H   UNL     1     147.790 155.774 126.018  1.00  0.00     0.211 HD
ENDBRANCH   1   8
TORSDOF 5
ENDMDL
MODEL 6
REMARK VINA RESULT:    -3.116      4.171      5.325
REMARK INTER + INTRA:          -3.974
REMARK INTER:                  -3.766
REMARK INTRA:                  -0.208
REMARK UNBOUND:                -0.221
REMARK SMILES OCC(O)CO
REMARK SMILES IDX 3 1 5 2 6 3 2 5 1 6 4 8
REMARK H PARENT 6 4 1 7 4 9
REMARK Flexibility Score: inf
ROOT
ATOM      1  C   UNL     1     149.116 155.349 127.308  1.00  0.00     0.165 C 
ENDROOT
BRANCH   1   2
ATOM      2  C   UNL     1     148.057 155.854 128.300  1.00  0.00     0.190 C 
BRANCH   2   3
ATOM      3  O   UNL     1     148.656 156.534 129.371  1.00  0.00    -0.394 OA
ATOM      4  H   UNL     1     148.202 157.415 129.437  1.00  0.00     0.210 HD
ENDBRANCH   2   3
ENDBRANCH   1   2
BRANCH   1   5
ATOM      5  C   UNL     1     150.536 155.779 127.715  1.00  0.00     0.190 C 
BRANCH   5   6
ATOM      6  O   UNL     1     150.977 155.071 128.844  1.00  0.00    -0.394 OA
ATOM      7  H   UNL     1     151.487 155.713 129.403  1.00  0.00     0.210 HD
ENDBRANCH   5   6
ENDBRANCH   1   5
BRANCH   1   8
ATOM      8  O   UNL     1     148.812 155.838 126.028  1.00  0.00    -0.388 OA
ATOM      9  H   UNL     1     148.089 156.510 126.141  1.00  0.00     0.211 HD
ENDBRANCH   1   8
TORSDOF 5
ENDMDL
MODEL 7
REMARK VINA RESULT:    -3.106      2.007      2.797
REMARK INTER + INTRA:          -3.962
REMARK INTER:                  -3.743
REMARK INTRA:                  -0.219
REMARK UNBOUND:                -0.221
REMARK SMILES OCC(O)CO
REMARK SMILES IDX 3 1 5 2 6 3 2 5 1 6 4 8
REMARK H PARENT 6 4 1 7 4 9
REMARK Flexibility Score: inf
ROOT
ATOM      1  C   UNL     1     147.898 154.610 129.697  1.00  0.00     0.165 C 
ENDROOT
BRANCH   1   2
ATOM      2  C   UNL     1     148.050 155.831 128.776  1.00  0.00     0.190 C 
BRANCH   2   3
ATOM      3  O   UNL     1     148.856 156.812 129.371  1.00  0.00    -0.394 OA
ATOM      4  H   UNL     1     148.362 157.141 130.168  1.00  0.00     0.210 HD
ENDBRANCH   2   3
ENDBRANCH   1   2
BRANCH   1   5
ATOM      5  C   UNL     1     146.724 154.774 130.679  1.00  0.00     0.190 C 
BRANCH   5   6
ATOM      6  O   UNL     1     146.869 155.935 131.454  1.00  0.00    -0.394 OA
ATOM      7  H   UNL     1     146.630 156.702 130.870  1.00  0.00     0.210 HD
ENDBRANCH   5   6
ENDBRANCH   1   5
BRANCH   1   8
ATOM      8  O   UNL     1     149.095 154.419 130.404  1.00  0.00    -0.388 OA
ATOM      9  H   UNL     1     149.280 155.266 130.890  1.00  0.00     0.211 HD
ENDBRANCH   1   8
TORSDOF 5
ENDMDL
MODEL 8
REMARK VINA RESULT:    -3.100      1.476      2.055
REMARK INTER + INTRA:          -3.954
REMARK INTER:                  -3.731
REMARK INTRA:                  -0.223
REMARK UNBOUND:                -0.221
REMARK SMILES OCC(O)CO
REMARK SMILES IDX 3 1 5 2 6 3 2 5 1 6 4 8
REMARK H PARENT 6 4 1 7 4 9
REMARK Flexibility Score: inf
ROOT
ATOM      1  C   UNL     1     146.862 154.929 130.182  1.00  0.00     0.165 C 
ENDROOT
BRANCH   1   2
ATOM      2  C   UNL     1     147.650 155.652 129.078  1.00  0.00     0.190 C 
BRANCH   2   3
ATOM      3  O   UNL     1     147.103 155.388 127.814  1.00  0.00    -0.394 OA
ATOM      4  H   UNL     1     147.788 154.878 127.308  1.00  0.00     0.210 HD
ENDBRANCH   2   3
ENDBRANCH   1   2
BRANCH   1   5
ATOM      5  C   UNL     1     145.451 154.532 129.712  1.00  0.00     0.190 C 
BRANCH   5   6
ATOM      6  O   UNL     1     144.685 155.663 129.392  1.00  0.00    -0.394 OA
ATOM      7  H   UNL     1     144.920 156.364 130.055  1.00  0.00     0.210 HD
ENDBRANCH   5   6
ENDBRANCH   1   5
BRANCH   1   8
ATOM      8  O   UNL     1     146.778 155.765 131.306  1.00  0.00    -0.388 OA
ATOM      9  H   UNL     1     147.220 156.621 131.061  1.00  0.00     0.211 HD
ENDBRANCH   1   8
TORSDOF 5
ENDMDL
MODEL 9
REMARK VINA RESULT:    -3.069      2.450      3.720
REMARK INTER + INTRA:          -3.917
REMARK INTER:                  -3.915
REMARK INTRA:                  -0.002
REMARK UNBOUND:                -0.221
REMARK SMILES OCC(O)CO
REMARK SMILES IDX 3 1 5 2 6 3 2 5 1 6 4 8
REMARK H PARENT 6 4 1 7 4 9
REMARK Flexibility Score: inf
ROOT
ATOM      1  C   UNL     1     148.259 154.687 129.760  1.00  0.00     0.165 C 
ENDROOT
BRANCH   1   2
ATOM      2  C   UNL     1     146.967 154.541 130.579  1.00  0.00     0.190 C 
BRANCH   2   3
ATOM      3  O   UNL     1     146.713 155.699 131.329  1.00  0.00    -0.394 OA
ATOM      4  H   UNL     1     146.873 156.470 130.724  1.00  0.00     0.210 HD
ENDBRANCH   2   3
ENDBRANCH   1   2
BRANCH   1   5
ATOM      5  C   UNL     1     149.346 153.699 130.221  1.00  0.00     0.190 C 
BRANCH   5   6
ATOM      6  O   UNL     1     150.589 154.009 129.647  1.00  0.00    -0.394 OA
ATOM      7  H   UNL     1     151.253 153.395 130.057  1.00  0.00     0.210 HD
ENDBRANCH   5   6
ENDBRANCH   1   5
BRANCH   1   8
ATOM      8  O   UNL     1     148.725 156.006 129.875  1.00  0.00    -0.388 OA
ATOM      9  H   UNL     1     148.264 156.406 130.658  1.00  0.00     0.211 HD
ENDBRANCH   1   8
TORSDOF 5
ENDMDL
