MODEL 1
REMARK VINA RESULT:    -5.600      0.000      0.000
REMARK INTER + INTRA:          -8.348
REMARK INTER:                  -7.400
REMARK INTRA:                  -0.948
REMARK UNBOUND:                -0.948
REMARK SMILES CC(C)=CCC[C@H](C(=O)[O-])[C@@H]1CC[C@]2(C)C3=C(CC[C@@]12C)[C@@]1(C)CC[C@H](O)C(C)(C)[C@@H]1CC3
REMARK SMILES IDX 6 1 7 2 8 3 9 4 10 5 11 6 12 7 20 8 13 9 14 10 19 11 21 12
REMARK SMILES IDX 15 13 16 14 18 15 17 16 33 17 22 18 32 19 31 20 24 21 23 22
REMARK SMILES IDX 28 23 25 24 26 25 29 26 30 27 27 28 5 30 4 31 2 32 1 33 3 34
REMARK H PARENT 27 29
REMARK Flexibility Score: inf
ROOT
ATOM      1  C   UNL     1      13.292  27.212  15.821  1.00  0.00     0.014 C 
ENDROOT
BRANCH   1   2
ATOM      2  C   UNL     1      12.675  27.127  14.407  1.00  0.00     0.039 C 
BRANCH   2   3
ATOM      3  C   UNL     1      13.575  27.727  13.347  1.00  0.00     0.045 C 
ATOM      4  O   UNL     1      13.403  28.898  12.923  1.00  0.00    -0.550 OA
ATOM      5  O   UNL     1      14.657  26.993  12.875  1.00  0.00    -0.550 OA
ENDBRANCH   2   3
BRANCH   2   6
ATOM      6  C   UNL     1      11.164  27.554  14.358  1.00  0.00     0.004 C 
ATOM      7  C   UNL     1      10.803  28.659  15.387  1.00  0.00     0.006 C 
ATOM      8  C   UNL     1      10.008  26.518  14.496  1.00  0.00    -0.020 C 
ATOM      9  C   UNL     1       9.342  28.428  15.812  1.00  0.00     0.012 C 
ATOM     10  C   UNL     1       8.781  27.440  14.773  1.00  0.00    -0.006 C 
ATOM     11  C   UNL     1       9.674  25.685  13.245  1.00  0.00     0.012 C 
ATOM     12  C   UNL     1      10.305  25.543  15.684  1.00  0.00     0.012 C 
ATOM     13  C   UNL     1       8.286  28.283  13.554  1.00  0.00     0.017 C 
ATOM     14  C   UNL     1       7.586  26.589  15.170  1.00  0.00    -0.064 C 
ATOM     15  C   UNL     1       8.346  24.901  13.424  1.00  0.00     0.032 C 
ATOM     16  C   UNL     1       7.309  25.451  14.441  1.00  0.00    -0.064 C 
ATOM     17  C   UNL     1       6.729  27.031  16.337  1.00  0.00     0.032 C 
ATOM     18  C   UNL     1       5.880  24.833  14.464  1.00  0.00    -0.008 C 
ATOM     19  C   UNL     1       5.273  26.603  16.219  1.00  0.00     0.009 C 
ATOM     20  C   UNL     1       5.195  25.107  15.856  1.00  0.00     0.007 C 
ATOM     21  C   UNL     1       5.917  23.281  14.203  1.00  0.00     0.014 C 
ATOM     22  C   UNL     1       5.142  25.534  13.288  1.00  0.00     0.016 C 
ATOM     23  C   UNL     1       3.767  24.452  16.097  1.00  0.00    -0.006 C 
ATOM     24  C   UNL     1       5.020  22.414  15.109  1.00  0.00     0.033 C 
ATOM     25  C   UNL     1       3.651  23.031  15.421  1.00  0.00     0.120 C 
ATOM     26  C   UNL     1       2.597  25.372  15.660  1.00  0.00     0.014 C 
ATOM     27  C   UNL     1       3.592  24.238  17.629  1.00  0.00     0.014 C 
BRANCH  25  28
ATOM     28  O   UNL     1       2.786  22.995  14.312  1.00  0.00    -0.393 OA
ATOM     29  H   UNL     1       3.188  22.441  13.592  1.00  0.00     0.210 HD
ENDBRANCH  25  28
ENDBRANCH   2   6
ENDBRANCH   1   2
BRANCH   1  30
ATOM     30  C   UNL     1      13.893  25.868  16.278  1.00  0.00     0.028 C 
BRANCH  30  31
ATOM     31  C   UNL     1      15.399  25.880  16.182  1.00  0.00    -0.028 C 
ATOM     32  C   UNL     1      16.130  24.949  15.526  1.00  0.00    -0.080 C 
ATOM     33  C   UNL     1      15.480  23.801  14.786  1.00  0.00     0.039 C 
ATOM     34  C   UNL     1      17.633  25.092  15.507  1.00  0.00     0.039 C 
ENDBRANCH  30  31
ENDBRANCH   1  30
TORSDOF 6
ENDMDL
MODEL 2
REMARK VINA RESULT:    -5.572      2.881      8.793
REMARK INTER + INTRA:          -8.312
REMARK INTER:                  -7.260
REMARK INTRA:                  -1.052
REMARK UNBOUND:                -0.948
REMARK SMILES CC(C)=CCC[C@H](C(=O)[O-])[C@@H]1CC[C@]2(C)C3=C(CC[C@@]12C)[C@@]1(C)CC[C@H](O)C(C)(C)[C@@H]1CC3
REMARK SMILES IDX 6 1 7 2 8 3 9 4 10 5 11 6 12 7 20 8 13 9 14 10 19 11 21 12
REMARK SMILES IDX 15 13 16 14 18 15 17 16 33 17 22 18 32 19 31 20 24 21 23 22
REMARK SMILES IDX 28 23 25 24 26 25 29 26 30 27 27 28 5 30 4 31 2 32 1 33 3 34
REMARK H PARENT 27 29
REMARK Flexibility Score: inf
ROOT
ATOM      1  C   UNL     1       3.321  28.530  16.984  1.00  0.00     0.014 C 
ENDROOT
BRANCH   1   2
ATOM      2  C   UNL     1       4.809  28.935  16.891  1.00  0.00     0.039 C 
BRANCH   2   3
ATOM      3  C   UNL     1       4.992  30.432  16.745  1.00  0.00     0.045 C 
ATOM      4  O   UNL     1       5.704  31.089  17.546  1.00  0.00    -0.550 OA
ATOM      5  O   UNL     1       4.413  31.088  15.664  1.00  0.00    -0.550 OA
ENDBRANCH   2   3
BRANCH   2   6
ATOM      6  C   UNL     1       5.642  28.033  15.911  1.00  0.00     0.004 C 
ATOM      7  C   UNL     1       5.327  26.520  16.050  1.00  0.00     0.006 C 
ATOM      8  C   UNL     1       7.197  28.092  15.854  1.00  0.00    -0.020 C 
ATOM      9  C   UNL     1       6.621  25.752  15.725  1.00  0.00     0.012 C 
ATOM     10  C   UNL     1       7.540  26.794  15.062  1.00  0.00    -0.006 C 
ATOM     11  C   UNL     1       7.817  29.271  15.082  1.00  0.00     0.012 C 
ATOM     12  C   UNL     1       7.784  28.080  17.306  1.00  0.00     0.012 C 
ATOM     13  C   UNL     1       7.183  26.823  13.541  1.00  0.00     0.017 C 
ATOM     14  C   UNL     1       9.040  26.553  15.105  1.00  0.00    -0.064 C 
ATOM     15  C   UNL     1       9.341  29.069  14.866  1.00  0.00     0.032 C 
ATOM     16  C   UNL     1       9.891  27.616  14.882  1.00  0.00    -0.064 C 
ATOM     17  C   UNL     1       9.548  25.152  15.371  1.00  0.00     0.032 C 
ATOM     18  C   UNL     1      11.359  27.364  14.428  1.00  0.00    -0.008 C 
ATOM     19  C   UNL     1      10.892  24.858  14.719  1.00  0.00     0.009 C 
ATOM     20  C   UNL     1      11.881  26.001  15.020  1.00  0.00     0.007 C 
ATOM     21  C   UNL     1      12.314  28.527  14.890  1.00  0.00     0.014 C 
ATOM     22  C   UNL     1      11.280  27.348  12.875  1.00  0.00     0.016 C 
ATOM     23  C   UNL     1      13.403  25.634  14.748  1.00  0.00    -0.006 C 
ATOM     24  C   UNL     1      13.675  28.102  15.476  1.00  0.00     0.033 C 
ATOM     25  C   UNL     1      14.328  26.912  14.763  1.00  0.00     0.120 C 
ATOM     26  C   UNL     1      13.605  24.817  13.444  1.00  0.00     0.014 C 
ATOM     27  C   UNL     1      13.888  24.713  15.906  1.00  0.00     0.014 C 
BRANCH  25  28
ATOM     28  O   UNL     1      14.837  27.264  13.499  1.00  0.00    -0.393 OA
ATOM     29  H   UNL     1      14.138  27.735  12.975  1.00  0.00     0.210 HD
ENDBRANCH  25  28
ENDBRANCH   2   6
ENDBRANCH   1   2
BRANCH   1  30
ATOM     30  C   UNL     1       2.518  28.965  15.743  1.00  0.00     0.028 C 
BRANCH  30  31
ATOM     31  C   UNL     1       2.139  27.779  14.891  1.00  0.00    -0.028 C 
ATOM     32  C   UNL     1       2.622  27.545  13.649  1.00  0.00    -0.080 C 
ATOM     33  C   UNL     1       3.635  28.462  13.002  1.00  0.00     0.039 C 
ATOM     34  C   UNL     1       2.158  26.310  12.913  1.00  0.00     0.039 C 
ENDBRANCH  30  31
ENDBRANCH   1  30
TORSDOF 6
ENDMDL
MODEL 3
REMARK VINA RESULT:    -5.495      2.755      4.416
REMARK INTER + INTRA:          -8.210
REMARK INTER:                  -7.309
REMARK INTRA:                  -0.901
REMARK UNBOUND:                -0.948
REMARK SMILES CC(C)=CCC[C@H](C(=O)[O-])[C@@H]1CC[C@]2(C)C3=C(CC[C@@]12C)[C@@]1(C)CC[C@H](O)C(C)(C)[C@@H]1CC3
REMARK SMILES IDX 6 1 7 2 8 3 9 4 10 5 11 6 12 7 20 8 13 9 14 10 19 11 21 12
REMARK SMILES IDX 15 13 16 14 18 15 17 16 33 17 22 18 32 19 31 20 24 21 23 22
REMARK SMILES IDX 28 23 25 24 26 25 29 26 30 27 27 28 5 30 4 31 2 32 1 33 3 34
REMARK H PARENT 27 29
REMARK Flexibility Score: inf
ROOT
ATOM      1  C   UNL     1      11.484  26.470  14.065  1.00  0.00     0.014 C 
ENDROOT
BRANCH   1   2
ATOM      2  C   UNL     1      10.425  27.589  14.186  1.00  0.00     0.039 C 
BRANCH   2   3
ATOM      3  C   UNL     1      11.047  28.948  14.431  1.00  0.00     0.045 C 
ATOM      4  O   UNL     1      10.853  29.577  15.502  1.00  0.00    -0.550 OA
ATOM      5  O   UNL     1      11.904  29.488  13.479  1.00  0.00    -0.550 OA
ENDBRANCH   2   3
BRANCH   2   6
ATOM      6  C   UNL     1       9.212  27.203  15.107  1.00  0.00     0.004 C 
ATOM      7  C   UNL     1       8.924  25.678  15.139  1.00  0.00     0.006 C 
ATOM      8  C   UNL     1       7.805  27.849  14.933  1.00  0.00    -0.020 C 
ATOM      9  C   UNL     1       7.408  25.503  15.336  1.00  0.00     0.012 C 
ATOM     10  C   UNL     1       6.905  26.892  15.772  1.00  0.00    -0.006 C 
ATOM     11  C   UNL     1       7.619  29.265  15.509  1.00  0.00     0.012 C 
ATOM     12  C   UNL     1       7.411  27.868  13.418  1.00  0.00     0.012 C 
ATOM     13  C   UNL     1       7.089  26.983  17.321  1.00  0.00     0.017 C 
ATOM     14  C   UNL     1       5.442  27.228  15.533  1.00  0.00    -0.064 C 
ATOM     15  C   UNL     1       6.123  29.681  15.519  1.00  0.00     0.032 C 
ATOM     16  C   UNL     1       5.055  28.553  15.542  1.00  0.00    -0.064 C 
ATOM     17  C   UNL     1       4.459  26.100  15.312  1.00  0.00     0.032 C 
ATOM     18  C   UNL     1       3.567  28.933  15.799  1.00  0.00    -0.008 C 
ATOM     19  C   UNL     1       3.047  26.421  15.785  1.00  0.00     0.009 C 
ATOM     20  C   UNL     1       2.618  27.801  15.251  1.00  0.00     0.007 C 
ATOM     21  C   UNL     1       3.193  30.299  15.110  1.00  0.00     0.014 C 
ATOM     22  C   UNL     1       3.475  29.093  17.343  1.00  0.00     0.016 C 
ATOM     23  C   UNL     1       1.054  28.072  15.330  1.00  0.00    -0.006 C 
ATOM     24  C   UNL     1       1.841  30.344  14.370  1.00  0.00     0.033 C 
ATOM     25  C   UNL     1       0.707  29.590  15.077  1.00  0.00     0.120 C 
ATOM     26  C   UNL     1       0.419  27.571  16.654  1.00  0.00     0.014 C 
ATOM     27  C   UNL     1       0.370  27.258  14.193  1.00  0.00     0.014 C 
BRANCH  25  28
ATOM     28  O   UNL     1       0.250  30.271  16.221  1.00  0.00    -0.393 OA
ATOM     29  H   UNL     1      -0.104  29.618  16.880  1.00  0.00     0.210 HD
ENDBRANCH  25  28
ENDBRANCH   2   6
ENDBRANCH   1   2
BRANCH   1  30
ATOM     30  C   UNL     1      12.422  26.417  15.286  1.00  0.00     0.028 C 
BRANCH  30  31
ATOM     31  C   UNL     1      13.386  25.260  15.188  1.00  0.00    -0.028 C 
ATOM     32  C   UNL     1      13.159  24.031  15.704  1.00  0.00    -0.080 C 
ATOM     33  C   UNL     1      11.869  23.691  16.416  1.00  0.00     0.039 C 
ATOM     34  C   UNL     1      14.214  22.964  15.523  1.00  0.00     0.039 C 
ENDBRANCH  30  31
ENDBRANCH   1  30
TORSDOF 6
ENDMDL
MODEL 4
REMARK VINA RESULT:    -5.386      2.847      4.625
REMARK INTER + INTRA:          -8.066
REMARK INTER:                  -7.716
REMARK INTRA:                  -0.350
REMARK UNBOUND:                -0.948
REMARK SMILES CC(C)=CCC[C@H](C(=O)[O-])[C@@H]1CC[C@]2(C)C3=C(CC[C@@]12C)[C@@]1(C)CC[C@H](O)C(C)(C)[C@@H]1CC3
REMARK SMILES IDX 6 1 7 2 8 3 9 4 10 5 11 6 12 7 20 8 13 9 14 10 19 11 21 12
REMARK SMILES IDX 15 13 16 14 18 15 17 16 33 17 22 18 32 19 31 20 24 21 23 22
REMARK SMILES IDX 28 23 25 24 26 25 29 26 30 27 27 28 5 30 4 31 2 32 1 33 3 34
REMARK H PARENT 27 29
REMARK Flexibility Score: inf
ROOT
ATOM      1  C   UNL     1      14.848  23.728  15.406  1.00  0.00     0.014 C 
ENDROOT
BRANCH   1   2
ATOM      2  C   UNL     1      15.567  24.951  14.794  1.00  0.00     0.039 C 
BRANCH   2   3
ATOM      3  C   UNL     1      16.755  25.396  15.621  1.00  0.00     0.045 C 
ATOM      4  O   UNL     1      16.721  25.396  16.877  1.00  0.00    -0.550 OA
ATOM      5  O   UNL     1      17.936  25.754  14.980  1.00  0.00    -0.550 OA
ENDBRANCH   2   3
BRANCH   2   6
ATOM      6  C   UNL     1      14.583  26.083  14.325  1.00  0.00     0.004 C 
ATOM      7  C   UNL     1      15.137  27.515  14.556  1.00  0.00     0.006 C 
ATOM      8  C   UNL     1      13.112  26.162  14.830  1.00  0.00    -0.020 C 
ATOM      9  C   UNL     1      13.933  28.430  14.837  1.00  0.00     0.012 C 
ATOM     10  C   UNL     1      12.704  27.607  14.411  1.00  0.00    -0.006 C 
ATOM     11  C   UNL     1      12.104  25.200  14.174  1.00  0.00     0.012 C 
ATOM     12  C   UNL     1      13.069  25.953  16.381  1.00  0.00     0.012 C 
ATOM     13  C   UNL     1      12.508  27.831  12.877  1.00  0.00     0.017 C 
ATOM     14  C   UNL     1      11.361  27.956  15.031  1.00  0.00    -0.064 C 
ATOM     15  C   UNL     1      10.644  25.560  14.559  1.00  0.00     0.032 C 
ATOM     16  C   UNL     1      10.344  27.025  14.983  1.00  0.00    -0.064 C 
ATOM     17  C   UNL     1      11.180  29.320  15.662  1.00  0.00     0.032 C 
ATOM     18  C   UNL     1       8.861  27.474  15.135  1.00  0.00    -0.008 C 
ATOM     19  C   UNL     1       9.749  29.837  15.593  1.00  0.00     0.009 C 
ATOM     20  C   UNL     1       8.774  28.742  16.066  1.00  0.00     0.007 C 
ATOM     21  C   UNL     1       7.969  26.326  15.740  1.00  0.00     0.014 C 
ATOM     22  C   UNL     1       8.401  27.770  13.679  1.00  0.00     0.016 C 
ATOM     23  C   UNL     1       7.319  29.275  16.421  1.00  0.00    -0.006 C 
ATOM     24  C   UNL     1       6.968  26.744  16.836  1.00  0.00     0.033 C 
ATOM     25  C   UNL     1       6.285  28.095  16.588  1.00  0.00     0.120 C 
ATOM     26  C   UNL     1       6.798  30.332  15.412  1.00  0.00     0.014 C 
ATOM     27  C   UNL     1       7.399  30.001  17.796  1.00  0.00     0.014 C 
BRANCH  25  28
ATOM     28  O   UNL     1       5.327  28.025  15.559  1.00  0.00    -0.393 OA
ATOM     29  H   UNL     1       5.781  28.037  14.676  1.00  0.00     0.210 HD
ENDBRANCH  25  28
ENDBRANCH   2   6
ENDBRANCH   1   2
BRANCH   1  30
ATOM     30  C   UNL     1      14.736  22.557  14.411  1.00  0.00     0.028 C 
BRANCH  30  31
ATOM     31  C   UNL     1      15.187  21.260  15.036  1.00  0.00    -0.028 C 
ATOM     32  C   UNL     1      16.379  20.668  14.793  1.00  0.00    -0.080 C 
ATOM     33  C   UNL     1      17.404  21.290  13.870  1.00  0.00     0.039 C 
ATOM     34  C   UNL     1      16.700  19.371  15.497  1.00  0.00     0.039 C 
ENDBRANCH  30  31
ENDBRANCH   1  30
TORSDOF 6
ENDMDL
MODEL 5
REMARK VINA RESULT:    -5.351      2.889      9.116
REMARK INTER + INTRA:          -8.019
REMARK INTER:                  -6.993
REMARK INTRA:                  -1.026
REMARK UNBOUND:                -0.948
REMARK SMILES CC(C)=CCC[C@H](C(=O)[O-])[C@@H]1CC[C@]2(C)C3=C(CC[C@@]12C)[C@@]1(C)CC[C@H](O)C(C)(C)[C@@H]1CC3
REMARK SMILES IDX 6 1 7 2 8 3 9 4 10 5 11 6 12 7 20 8 13 9 14 10 19 11 21 12
REMARK SMILES IDX 15 13 16 14 18 15 17 16 33 17 22 18 32 19 31 20 24 21 23 22
REMARK SMILES IDX 28 23 25 24 26 25 29 26 30 27 27 28 5 30 4 31 2 32 1 33 3 34
REMARK H PARENT 27 29
REMARK Flexibility Score: inf
ROOT
ATOM      1  C   UNL     1       3.952  27.109  16.431  1.00  0.00     0.014 C 
ENDROOT
BRANCH   1   2
ATOM      2  C   UNL     1       5.356  27.751  16.436  1.00  0.00     0.039 C 
BRANCH   2   3
ATOM      3  C   UNL     1       5.303  29.257  16.593  1.00  0.00     0.045 C 
ATOM      4  O   UNL     1       5.024  29.794  17.695  1.00  0.00    -0.550 OA
ATOM      5  O   UNL     1       5.630  30.068  15.513  1.00  0.00    -0.550 OA
ENDBRANCH   2   3
BRANCH   2   6
ATOM      6  C   UNL     1       6.298  27.203  15.305  1.00  0.00     0.004 C 
ATOM      7  C   UNL     1       5.840  25.836  14.730  1.00  0.00     0.006 C 
ATOM      8  C   UNL     1       7.831  27.028  15.518  1.00  0.00    -0.020 C 
ATOM      9  C   UNL     1       7.105  25.069  14.310  1.00  0.00     0.012 C 
ATOM     10  C   UNL     1       8.225  26.127  14.308  1.00  0.00    -0.006 C 
ATOM     11  C   UNL     1       8.691  28.302  15.431  1.00  0.00     0.012 C 
ATOM     12  C   UNL     1       8.101  26.333  16.895  1.00  0.00     0.012 C 
ATOM     13  C   UNL     1       8.193  26.828  12.912  1.00  0.00     0.017 C 
ATOM     14  C   UNL     1       9.658  25.650  14.473  1.00  0.00    -0.064 C 
ATOM     15  C   UNL     1      10.205  27.962  15.387  1.00  0.00     0.032 C 
ATOM     16  C   UNL     1      10.620  26.559  14.862  1.00  0.00    -0.064 C 
ATOM     17  C   UNL     1       9.984  24.200  14.187  1.00  0.00     0.032 C 
ATOM     18  C   UNL     1      12.125  26.280  14.575  1.00  0.00    -0.008 C 
ATOM     19  C   UNL     1      11.406  23.983  13.687  1.00  0.00     0.009 C 
ATOM     20  C   UNL     1      12.400  24.729  14.597  1.00  0.00     0.007 C 
ATOM     21  C   UNL     1      13.055  26.985  15.632  1.00  0.00     0.014 C 
ATOM     22  C   UNL     1      12.369  26.909  13.174  1.00  0.00     0.016 C 
ATOM     23  C   UNL     1      13.911  24.263  14.431  1.00  0.00    -0.006 C 
ATOM     24  C   UNL     1      14.226  26.144  16.181  1.00  0.00     0.033 C 
ATOM     25  C   UNL     1      14.913  25.258  15.135  1.00  0.00     0.120 C 
ATOM     26  C   UNL     1      14.311  24.026  12.951  1.00  0.00     0.014 C 
ATOM     27  C   UNL     1      14.068  22.887  15.141  1.00  0.00     0.014 C 
BRANCH  25  28
ATOM     28  O   UNL     1      15.700  26.005  14.239  1.00  0.00    -0.393 OA
ATOM     29  H   UNL     1      16.632  26.060  14.578  1.00  0.00     0.210 HD
ENDBRANCH  25  28
ENDBRANCH   2   6
ENDBRANCH   1   2
BRANCH   1  30
ATOM     30  C   UNL     1       2.947  27.906  15.576  1.00  0.00     0.028 C 
BRANCH  30  31
ATOM     31  C   UNL     1       1.794  28.408  16.410  1.00  0.00    -0.028 C 
ATOM     32  C   UNL     1       1.415  29.704  16.490  1.00  0.00    -0.080 C 
ATOM     33  C   UNL     1       2.115  30.789  15.702  1.00  0.00     0.039 C 
ATOM     34  C   UNL     1       0.234  30.061  17.362  1.00  0.00     0.039 C 
ENDBRANCH  30  31
ENDBRANCH   1  30
TORSDOF 6
ENDMDL
MODEL 6
REMARK VINA RESULT:    -5.277      2.274      9.008
REMARK INTER + INTRA:          -7.921
REMARK INTER:                  -7.279
REMARK INTRA:                  -0.642
REMARK UNBOUND:                -0.948
REMARK SMILES CC(C)=CCC[C@H](C(=O)[O-])[C@@H]1CC[C@]2(C)C3=C(CC[C@@]12C)[C@@]1(C)CC[C@H](O)C(C)(C)[C@@H]1CC3
REMARK SMILES IDX 6 1 7 2 8 3 9 4 10 5 11 6 12 7 20 8 13 9 14 10 19 11 21 12
REMARK SMILES IDX 15 13 16 14 18 15 17 16 33 17 22 18 32 19 31 20 24 21 23 22
REMARK SMILES IDX 28 23 25 24 26 25 29 26 30 27 27 28 5 30 4 31 2 32 1 33 3 34
REMARK H PARENT 27 29
REMARK Flexibility Score: inf
ROOT
ATOM      1  C   UNL     1       3.666  26.264  16.351  1.00  0.00     0.014 C 
ENDROOT
BRANCH   1   2
ATOM      2  C   UNL     1       4.954  27.114  16.406  1.00  0.00     0.039 C 
BRANCH   2   3
ATOM      3  C   UNL     1       4.667  28.587  16.605  1.00  0.00     0.045 C 
ATOM      4  O   UNL     1       3.543  29.081  16.334  1.00  0.00    -0.550 OA
ATOM      5  O   UNL     1       5.645  29.404  17.161  1.00  0.00    -0.550 OA
ENDBRANCH   2   3
BRANCH   2   6
ATOM      6  C   UNL     1       5.990  26.753  15.281  1.00  0.00     0.004 C 
ATOM      7  C   UNL     1       5.796  25.326  14.701  1.00  0.00     0.006 C 
ATOM      8  C   UNL     1       7.527  26.864  15.505  1.00  0.00    -0.020 C 
ATOM      9  C   UNL     1       7.186  24.808  14.289  1.00  0.00     0.012 C 
ATOM     10  C   UNL     1       8.089  26.055  14.297  1.00  0.00    -0.006 C 
ATOM     11  C   UNL     1       8.136  28.276  15.427  1.00  0.00     0.012 C 
ATOM     12  C   UNL     1       7.911  26.228  16.883  1.00  0.00     0.012 C 
ATOM     13  C   UNL     1       7.938  26.742  12.901  1.00  0.00     0.017 C 
ATOM     14  C   UNL     1       9.585  25.852  14.472  1.00  0.00    -0.064 C 
ATOM     15  C   UNL     1       9.687  28.223  15.392  1.00  0.00     0.032 C 
ATOM     16  C   UNL     1      10.359  26.923  14.869  1.00  0.00    -0.064 C 
ATOM     17  C   UNL     1      10.176  24.489  14.186  1.00  0.00     0.032 C 
ATOM     18  C   UNL     1      11.891  26.928  14.592  1.00  0.00    -0.008 C 
ATOM     19  C   UNL     1      11.617  24.541  13.696  1.00  0.00     0.009 C 
ATOM     20  C   UNL     1      12.449  25.455  14.614  1.00  0.00     0.007 C 
ATOM     21  C   UNL     1      12.667  27.791  15.657  1.00  0.00     0.014 C 
ATOM     22  C   UNL     1      12.024  27.596  13.194  1.00  0.00     0.016 C 
ATOM     23  C   UNL     1      14.021  25.279  14.458  1.00  0.00    -0.006 C 
ATOM     24  C   UNL     1      13.969  27.181  16.213  1.00  0.00     0.033 C 
ATOM     25  C   UNL     1      14.816  26.440  15.171  1.00  0.00     0.120 C 
ATOM     26  C   UNL     1      14.469  25.124  12.981  1.00  0.00     0.014 C 
ATOM     27  C   UNL     1      14.426  23.954  15.168  1.00  0.00     0.014 C 
BRANCH  25  28
ATOM     28  O   UNL     1      15.458  27.323  14.282  1.00  0.00    -0.393 OA
ATOM     29  H   UNL     1      15.815  26.817  13.506  1.00  0.00     0.210 HD
ENDBRANCH  25  28
ENDBRANCH   2   6
ENDBRANCH   1   2
BRANCH   1  30
ATOM     30  C   UNL     1       3.673  25.121  17.385  1.00  0.00     0.028 C 
BRANCH  30  31
ATOM     31  C   UNL     1       2.408  24.302  17.306  1.00  0.00    -0.028 C 
ATOM     32  C   UNL     1       1.972  23.474  18.283  1.00  0.00    -0.080 C 
ATOM     33  C   UNL     1       2.720  23.317  19.588  1.00  0.00     0.039 C 
ATOM     34  C   UNL     1       0.681  22.719  18.068  1.00  0.00     0.039 C 
ENDBRANCH  30  31
ENDBRANCH   1  30
TORSDOF 6
ENDMDL
MODEL 7
REMARK VINA RESULT:    -5.251      1.652      2.108
REMARK INTER + INTRA:          -7.887
REMARK INTER:                  -6.964
REMARK INTRA:                  -0.923
REMARK UNBOUND:                -0.948
REMARK SMILES CC(C)=CCC[C@H](C(=O)[O-])[C@@H]1CC[C@]2(C)C3=C(CC[C@@]12C)[C@@]1(C)CC[C@H](O)C(C)(C)[C@@H]1CC3
REMARK SMILES IDX 6 1 7 2 8 3 9 4 10 5 11 6 12 7 20 8 13 9 14 10 19 11 21 12
REMARK SMILES IDX 15 13 16 14 18 15 17 16 33 17 22 18 32 19 31 20 24 21 23 22
REMARK SMILES IDX 28 23 25 24 26 25 29 26 30 27 27 28 5 30 4 31 2 32 1 33 3 34
REMARK H PARENT 27 29
REMARK Flexibility Score: inf
ROOT
ATOM      1  C   UNL     1      12.215  27.523  15.441  1.00  0.00     0.014 C 
ENDROOT
BRANCH   1   2
ATOM      2  C   UNL     1      11.474  28.033  14.186  1.00  0.00     0.039 C 
BRANCH   2   3
ATOM      3  C   UNL     1      12.264  29.085  13.435  1.00  0.00     0.045 C 
ATOM      4  O   UNL     1      13.503  28.974  13.255  1.00  0.00    -0.550 OA
ATOM      5  O   UNL     1      11.597  30.169  12.875  1.00  0.00    -0.550 OA
ENDBRANCH   2   3
BRANCH   2   6
ATOM      6  C   UNL     1       9.957  28.354  14.443  1.00  0.00     0.004 C 
ATOM      7  C   UNL     1       9.715  29.192  15.727  1.00  0.00     0.006 C 
ATOM      8  C   UNL     1       8.876  27.235  14.512  1.00  0.00    -0.020 C 
ATOM      9  C   UNL     1       8.346  28.776  16.292  1.00  0.00     0.012 C 
ATOM     10  C   UNL     1       7.671  27.990  15.153  1.00  0.00    -0.006 C 
ATOM     11  C   UNL     1       8.388  26.661  13.170  1.00  0.00     0.012 C 
ATOM     12  C   UNL     1       9.387  26.055  15.407  1.00  0.00     0.012 C 
ATOM     13  C   UNL     1       6.966  29.033  14.227  1.00  0.00     0.017 C 
ATOM     14  C   UNL     1       6.583  26.995  15.518  1.00  0.00    -0.064 C 
ATOM     15  C   UNL     1       7.134  25.766  13.359  1.00  0.00     0.032 C 
ATOM     16  C   UNL     1       6.242  26.017  14.606  1.00  0.00    -0.064 C 
ATOM     17  C   UNL     1       5.898  27.122  16.862  1.00  0.00     0.032 C 
ATOM     18  C   UNL     1       4.858  25.310  14.694  1.00  0.00    -0.008 C 
ATOM     19  C   UNL     1       4.458  26.627  16.859  1.00  0.00     0.009 C 
ATOM     20  C   UNL     1       4.382  25.239  16.195  1.00  0.00     0.007 C 
ATOM     21  C   UNL     1       4.914  23.853  14.100  1.00  0.00     0.014 C 
ATOM     22  C   UNL     1       3.925  26.189  13.814  1.00  0.00     0.016 C 
ATOM     23  C   UNL     1       3.033  24.450  16.485  1.00  0.00    -0.006 C 
ATOM     24  C   UNL     1       4.198  22.755  14.913  1.00  0.00     0.033 C 
ATOM     25  C   UNL     1       2.870  23.197  15.540  1.00  0.00     0.120 C 
ATOM     26  C   UNL     1       1.776  25.357  16.427  1.00  0.00     0.014 C 
ATOM     27  C   UNL     1       3.101  23.909  17.943  1.00  0.00     0.014 C 
BRANCH  25  28
ATOM     28  O   UNL     1       1.849  23.334  14.582  1.00  0.00    -0.393 OA
ATOM     29  H   UNL     1       1.605  24.291  14.486  1.00  0.00     0.210 HD
ENDBRANCH  25  28
ENDBRANCH   2   6
ENDBRANCH   1   2
BRANCH   1  30
ATOM     30  C   UNL     1      13.232  26.413  15.110  1.00  0.00     0.028 C 
BRANCH  30  31
ATOM     31  C   UNL     1      12.604  25.326  14.274  1.00  0.00    -0.028 C 
ATOM     32  C   UNL     1      12.167  24.142  14.762  1.00  0.00    -0.080 C 
ATOM     33  C   UNL     1      12.244  23.810  16.236  1.00  0.00     0.039 C 
ATOM     34  C   UNL     1      11.552  23.148  13.805  1.00  0.00     0.039 C 
ENDBRANCH  30  31
ENDBRANCH   1  30
TORSDOF 6
ENDMDL
MODEL 8
REMARK VINA RESULT:    -5.238      4.725      9.887
REMARK INTER + INTRA:          -7.870
REMARK INTER:                  -6.535
REMARK INTRA:                  -1.336
REMARK UNBOUND:                -0.948
REMARK SMILES CC(C)=CCC[C@H](C(=O)[O-])[C@@H]1CC[C@]2(C)C3=C(CC[C@@]12C)[C@@]1(C)CC[C@H](O)C(C)(C)[C@@H]1CC3
REMARK SMILES IDX 6 1 7 2 8 3 9 4 10 5 11 6 12 7 20 8 13 9 14 10 19 11 21 12
REMARK SMILES IDX 15 13 16 14 18 15 17 16 33 17 22 18 32 19 31 20 24 21 23 22
REMARK SMILES IDX 28 23 25 24 26 25 29 26 30 27 27 28 5 30 4 31 2 32 1 33 3 34
REMARK H PARENT 27 29
REMARK Flexibility Score: inf
ROOT
ATOM      1  C   UNL     1       1.268  20.571  13.306  1.00  0.00     0.014 C 
ENDROOT
BRANCH   1   2
ATOM      2  C   UNL     1       1.369  21.262  14.684  1.00  0.00     0.039 C 
BRANCH   2   3
ATOM      3  C   UNL     1       0.396  20.686  15.692  1.00  0.00     0.045 C 
ATOM      4  O   UNL     1      -0.108  19.545  15.542  1.00  0.00    -0.550 OA
ATOM      5  O   UNL     1       0.100  21.407  16.843  1.00  0.00    -0.550 OA
ENDBRANCH   2   3
BRANCH   2   6
ATOM      6  C   UNL     1       1.429  22.830  14.593  1.00  0.00     0.004 C 
ATOM      7  C   UNL     1       1.207  23.372  13.155  1.00  0.00     0.006 C 
ATOM      8  C   UNL     1       2.650  23.642  15.118  1.00  0.00    -0.020 C 
ATOM      9  C   UNL     1       2.030  24.665  13.023  1.00  0.00     0.012 C 
ATOM     10  C   UNL     1       2.413  25.038  14.466  1.00  0.00    -0.006 C 
ATOM     11  C   UNL     1       2.732  23.861  16.640  1.00  0.00     0.012 C 
ATOM     12  C   UNL     1       3.982  22.974  14.635  1.00  0.00     0.012 C 
ATOM     13  C   UNL     1       1.226  25.863  15.060  1.00  0.00     0.017 C 
ATOM     14  C   UNL     1       3.638  25.912  14.677  1.00  0.00    -0.064 C 
ATOM     15  C   UNL     1       3.824  24.901  17.005  1.00  0.00     0.032 C 
ATOM     16  C   UNL     1       4.228  25.942  15.924  1.00  0.00    -0.064 C 
ATOM     17  C   UNL     1       4.157  26.735  13.517  1.00  0.00     0.032 C 
ATOM     18  C   UNL     1       5.133  27.140  16.336  1.00  0.00    -0.008 C 
ATOM     19  C   UNL     1       4.844  28.025  13.946  1.00  0.00     0.009 C 
ATOM     20  C   UNL     1       5.858  27.730  15.068  1.00  0.00     0.007 C 
ATOM     21  C   UNL     1       6.214  26.709  17.396  1.00  0.00     0.014 C 
ATOM     22  C   UNL     1       4.150  28.154  16.987  1.00  0.00     0.016 C 
ATOM     23  C   UNL     1       6.910  28.895  15.318  1.00  0.00    -0.006 C 
ATOM     24  C   UNL     1       7.643  27.243  17.170  1.00  0.00     0.033 C 
ATOM     25  C   UNL     1       7.706  28.689  16.664  1.00  0.00     0.120 C 
ATOM     26  C   UNL     1       6.273  30.309  15.261  1.00  0.00     0.014 C 
ATOM     27  C   UNL     1       7.954  28.851  14.165  1.00  0.00     0.014 C 
BRANCH  25  28
ATOM     28  O   UNL     1       7.381  29.618  17.669  1.00  0.00    -0.393 OA
ATOM     29  H   UNL     1       8.135  30.252  17.798  1.00  0.00     0.210 HD
ENDBRANCH  25  28
ENDBRANCH   2   6
ENDBRANCH   1   2
BRANCH   1  30
ATOM     30  C   UNL     1       2.601  19.926  12.876  1.00  0.00     0.028 C 
BRANCH  30  31
ATOM     31  C   UNL     1       3.245  19.183  14.020  1.00  0.00    -0.028 C 
ATOM     32  C   UNL     1       2.929  17.919  14.385  1.00  0.00    -0.080 C 
ATOM     33  C   UNL     1       1.895  17.109  13.637  1.00  0.00     0.039 C 
ATOM     34  C   UNL     1       3.663  17.298  15.550  1.00  0.00     0.039 C 
ENDBRANCH  30  31
ENDBRANCH   1  30
TORSDOF 6
ENDMDL
