MODEL 1
REMARK VINA RESULT:     6.313      0.000      0.000
REMARK INTER + INTRA:           6.909
REMARK INTER:                   6.682
REMARK INTRA:                   0.227
REMARK UNBOUND:                 0.227
REMARK SMILES C=C1CC[C@@H](C(C)C)[C@@H]2C=C(C)CC[C@@H]12
REMARK SMILES IDX 12 1 11 2 10 3 9 4 15 5 14 6 13 7 2 8 1 9 3 10 4 11 5 12
REMARK SMILES IDX 6 13 7 14 8 15
REMARK H PARENT
REMARK Flexibility Score: inf
ROOT
ATOM      1  C   UNL     1      10.362   8.552  14.998  1.00  0.00     0.039 C 
ATOM      2  C   UNL     1       9.128   8.594  14.138  1.00  0.00    -0.077 C 
ATOM      3  C   UNL     1       8.267   7.556  14.179  1.00  0.00    -0.024 C 
ATOM      4  C   UNL     1       7.037   7.478  13.298  1.00  0.00     0.022 C 
ATOM      5  C   UNL     1       6.525   8.895  12.938  1.00  0.00     0.022 C 
ATOM      6  C   UNL     1       7.688   9.713  12.344  1.00  0.00     0.013 C 
ATOM      7  C   UNL     1       8.825   9.863  13.365  1.00  0.00     0.031 C 
ATOM      8  C   UNL     1       5.298   8.746  12.043  1.00  0.00    -0.074 C 
ATOM      9  C   UNL     1       5.135   9.400  10.877  1.00  0.00     0.008 C 
ATOM     10  C   UNL     1       4.206   7.805  12.499  1.00  0.00     0.031 C 
ATOM     11  C   UNL     1       4.525   7.211  13.877  1.00  0.00     0.009 C 
ATOM     12  C   UNL     1       5.930   6.540  13.924  1.00  0.00    -0.001 C 
ENDROOT
BRANCH  12  13
ATOM     13  C   UNL     1       5.948   5.115  13.263  1.00  0.00    -0.014 C 
ATOM     14  C   UNL     1       4.691   4.875  12.407  1.00  0.00     0.007 C 
ATOM     15  C   UNL     1       7.189   4.876  12.381  1.00  0.00     0.007 C 
ENDBRANCH  12  13
TORSDOF 1
ENDMDL
