MODEL 1
REMARK VINA RESULT:    -5.588      0.000      0.000
REMARK INTER + INTRA:          -9.806
REMARK INTER:                  -8.529
REMARK INTRA:                  -1.277
REMARK UNBOUND:                -1.277
REMARK SMILES OC[C@H]1O[C@@](CO)(O[C@H]2O[C@H](CO)[C@@H](O)[C@@H](O)[C@H]2O)[C@@H](O)[C@@H]1O
REMARK SMILES IDX 8 1 9 2 11 3 14 4 10 5 16 6 18 7 12 8 13 9 15 11 17 13 19 15
REMARK SMILES IDX 5 17 20 18 4 19 22 20 3 21 6 22 7 23 21 25 23 27 2 29 1 30
REMARK H PARENT 13 10 15 12 17 14 19 16 7 24 21 26 23 28 1 31
REMARK Flexibility Score: inf
ROOT
ATOM      1  O   UNL     1      34.450   1.962  42.902  1.00  0.00    -0.313 OA
ENDROOT
BRANCH   1   2
ATOM      2  C   UNL     1      33.702   2.910  42.138  1.00  0.00     0.285 C 
ATOM      3  C   UNL     1      33.836   1.422  40.303  1.00  0.00     0.178 C 
ATOM      4  C   UNL     1      32.511   0.763  40.803  1.00  0.00     0.177 C 
ATOM      5  O   UNL     1      33.998   2.764  40.757  1.00  0.00    -0.341 OA
ATOM      6  C   UNL     1      31.540   1.858  41.281  1.00  0.00     0.179 C 
ATOM      7  C   UNL     1      32.179   2.740  42.386  1.00  0.00     0.202 C 
BRANCH   3   8
ATOM      8  C   UNL     1      33.909   1.437  38.769  1.00  0.00     0.191 C 
BRANCH   8   9
ATOM      9  O   UNL     1      35.013   2.187  38.327  1.00  0.00    -0.394 OA
ATOM     10  H   UNL     1      35.553   1.590  37.743  1.00  0.00     0.210 HD
ENDBRANCH   8   9
ENDBRANCH   3   8
BRANCH   4  11
ATOM     11  O   UNL     1      32.802  -0.124  41.854  1.00  0.00    -0.387 OA
ATOM     12  H   UNL     1      33.785  -0.134  41.970  1.00  0.00     0.211 HD
ENDBRANCH   4  11
BRANCH   6  13
ATOM     13  O   UNL     1      30.296   1.323  41.655  1.00  0.00    -0.387 OA
ATOM     14  H   UNL     1      30.002   1.782  42.489  1.00  0.00     0.211 HD
ENDBRANCH   6  13
BRANCH   7  15
ATOM     15  O   UNL     1      31.971   2.188  43.662  1.00  0.00    -0.385 OA
ATOM     16  H   UNL     1      32.140   2.907  44.326  1.00  0.00     0.211 HD
ENDBRANCH   7  15
ENDBRANCH   1   2
BRANCH   1  17
ATOM     17  C   UNL     1      35.394   2.516  43.815  1.00  0.00     0.224 C 
ATOM     18  C   UNL     1      36.809   2.510  43.219  1.00  0.00     0.208 C 
ATOM     19  O   UNL     1      35.078   3.844  44.185  1.00  0.00    -0.337 OA
ATOM     20  C   UNL     1      37.470   3.708  43.872  1.00  0.00     0.180 C 
ATOM     21  C   UNL     1      36.289   4.537  44.407  1.00  0.00     0.179 C 
BRANCH  17  22
ATOM     22  C   UNL     1      35.351   1.639  45.088  1.00  0.00     0.225 C 
BRANCH  22  23
ATOM     23  O   UNL     1      36.461   0.781  45.138  1.00  0.00    -0.391 OA
ATOM     24  H   UNL     1      36.520   0.340  44.249  1.00  0.00     0.210 HD
ENDBRANCH  22  23
ENDBRANCH  17  22
BRANCH  18  25
ATOM     25  O   UNL     1      36.773   2.694  41.829  1.00  0.00    -0.385 OA
ATOM     26  H   UNL     1      36.034   2.131  41.475  1.00  0.00     0.211 HD
ENDBRANCH  18  25
BRANCH  20  27
ATOM     27  O   UNL     1      38.287   3.299  44.940  1.00  0.00    -0.387 OA
ATOM     28  H   UNL     1      39.221   3.346  44.613  1.00  0.00     0.211 HD
ENDBRANCH  20  27
BRANCH  21  29
ATOM     29  C   UNL     1      36.215   5.919  43.740  1.00  0.00     0.191 C 
BRANCH  29  30
ATOM     30  O   UNL     1      35.934   5.792  42.372  1.00  0.00    -0.394 OA
ATOM     31  H   UNL     1      35.118   6.331  42.203  1.00  0.00     0.210 HD
ENDBRANCH  29  30
ENDBRANCH  21  29
ENDBRANCH   1  17
TORSDOF 13
ENDMDL
MODEL 2
REMARK VINA RESULT:    -5.532      1.954      2.938
REMARK INTER + INTRA:          -9.720
REMARK INTER:                  -8.846
REMARK INTRA:                  -0.874
REMARK UNBOUND:                -1.277
REMARK SMILES OC[C@H]1O[C@@](CO)(O[C@H]2O[C@H](CO)[C@@H](O)[C@@H](O)[C@H]2O)[C@@H](O)[C@@H]1O
REMARK SMILES IDX 8 1 9 2 11 3 14 4 10 5 16 6 18 7 12 8 13 9 15 11 17 13 19 15
REMARK SMILES IDX 5 17 20 18 4 19 22 20 3 21 6 22 7 23 21 25 23 27 2 29 1 30
REMARK H PARENT 13 10 15 12 17 14 19 16 7 24 21 26 23 28 1 31
REMARK Flexibility Score: inf
ROOT
ATOM      1  O   UNL     1      35.630   0.984  43.645  1.00  0.00    -0.313 OA
ENDROOT
BRANCH   1   2
ATOM      2  C   UNL     1      34.537   1.704  44.217  1.00  0.00     0.285 C 
ATOM      3  C   UNL     1      34.518   3.061  42.278  1.00  0.00     0.178 C 
ATOM      4  C   UNL     1      33.525   2.043  41.634  1.00  0.00     0.177 C 
ATOM      5  O   UNL     1      34.505   3.028  43.704  1.00  0.00    -0.341 OA
ATOM      6  C   UNL     1      32.497   1.590  42.686  1.00  0.00     0.179 C 
ATOM      7  C   UNL     1      33.192   0.982  43.933  1.00  0.00     0.202 C 
BRANCH   3   8
ATOM      8  C   UNL     1      34.205   4.501  41.844  1.00  0.00     0.191 C 
BRANCH   8   9
ATOM      9  O   UNL     1      35.375   5.278  41.800  1.00  0.00    -0.394 OA
ATOM     10  H   UNL     1      35.433   5.764  42.666  1.00  0.00     0.210 HD
ENDBRANCH   8   9
ENDBRANCH   3   8
BRANCH   4  11
ATOM     11  O   UNL     1      34.245   0.938  41.147  1.00  0.00    -0.387 OA
ATOM     12  H   UNL     1      33.992   0.815  40.198  1.00  0.00     0.211 HD
ENDBRANCH   4  11
BRANCH   6  13
ATOM     13  O   UNL     1      31.523   0.742  42.132  1.00  0.00    -0.387 OA
ATOM     14  H   UNL     1      31.097   0.236  42.876  1.00  0.00     0.211 HD
ENDBRANCH   6  13
BRANCH   7  15
ATOM     15  O   UNL     1      33.425  -0.394  43.766  1.00  0.00    -0.385 OA
ATOM     16  H   UNL     1      33.649  -0.542  42.809  1.00  0.00     0.211 HD
ENDBRANCH   7  15
ENDBRANCH   1   2
BRANCH   1  17
ATOM     17  C   UNL     1      36.824   0.960  44.423  1.00  0.00     0.224 C 
ATOM     18  C   UNL     1      37.945   0.204  43.695  1.00  0.00     0.208 C 
ATOM     19  O   UNL     1      37.298   2.257  44.733  1.00  0.00    -0.337 OA
ATOM     20  C   UNL     1      39.207   0.876  44.198  1.00  0.00     0.180 C 
ATOM     21  C   UNL     1      38.708   2.207  44.790  1.00  0.00     0.179 C 
BRANCH  17  22
ATOM     22  C   UNL     1      36.478   0.245  45.750  1.00  0.00     0.225 C 
BRANCH  22  23
ATOM     23  O   UNL     1      36.878  -1.100  45.708  1.00  0.00    -0.391 OA
ATOM     24  H   UNL     1      36.096  -1.619  45.381  1.00  0.00     0.210 HD
ENDBRANCH  22  23
ENDBRANCH  17  22
BRANCH  18  25
ATOM     25  O   UNL     1      37.847   0.373  42.306  1.00  0.00    -0.385 OA
ATOM     26  H   UNL     1      36.889   0.526  42.092  1.00  0.00     0.211 HD
ENDBRANCH  18  25
BRANCH  20  27
ATOM     27  O   UNL     1      39.808   0.103  45.207  1.00  0.00    -0.387 OA
ATOM     28  H   UNL     1      40.226  -0.673  44.755  1.00  0.00     0.211 HD
ENDBRANCH  20  27
BRANCH  21  29
ATOM     29  C   UNL     1      39.292   3.415  44.042  1.00  0.00     0.191 C 
BRANCH  29  30
ATOM     30  O   UNL     1      39.420   4.514  44.902  1.00  0.00    -0.394 OA
ATOM     31  H   UNL     1      39.021   4.240  45.769  1.00  0.00     0.210 HD
ENDBRANCH  29  30
ENDBRANCH  21  29
ENDBRANCH   1  17
TORSDOF 13
ENDMDL
MODEL 3
REMARK VINA RESULT:    -5.525      2.240      5.814
REMARK INTER + INTRA:          -9.709
REMARK INTER:                  -8.718
REMARK INTRA:                  -0.991
REMARK UNBOUND:                -1.277
REMARK SMILES OC[C@H]1O[C@@](CO)(O[C@H]2O[C@H](CO)[C@@H](O)[C@@H](O)[C@H]2O)[C@@H](O)[C@@H]1O
REMARK SMILES IDX 8 1 9 2 11 3 14 4 10 5 16 6 18 7 12 8 13 9 15 11 17 13 19 15
REMARK SMILES IDX 5 17 20 18 4 19 22 20 3 21 6 22 7 23 21 25 23 27 2 29 1 30
REMARK H PARENT 13 10 15 12 17 14 19 16 7 24 21 26 23 28 1 31
REMARK Flexibility Score: inf
ROOT
ATOM      1  O   UNL     1      36.702   2.365  43.784  1.00  0.00    -0.313 OA
ENDROOT
BRANCH   1   2
ATOM      2  C   UNL     1      36.690   1.009  44.235  1.00  0.00     0.285 C 
ATOM      3  C   UNL     1      39.003   0.908  43.744  1.00  0.00     0.178 C 
ATOM      4  C   UNL     1      39.284   1.401  45.199  1.00  0.00     0.177 C 
ATOM      5  O   UNL     1      37.731   0.278  43.604  1.00  0.00    -0.341 OA
ATOM      6  C   UNL     1      38.321   0.702  46.175  1.00  0.00     0.179 C 
ATOM      7  C   UNL     1      36.840   0.940  45.779  1.00  0.00     0.202 C 
BRANCH   3   8
ATOM      8  C   UNL     1      40.072  -0.091  43.276  1.00  0.00     0.191 C 
BRANCH   8   9
ATOM      9  O   UNL     1      40.045  -1.258  44.057  1.00  0.00    -0.394 OA
ATOM     10  H   UNL     1      39.118  -1.350  44.408  1.00  0.00     0.210 HD
ENDBRANCH   8   9
ENDBRANCH   3   8
BRANCH   4  11
ATOM     11  O   UNL     1      39.111   2.796  45.257  1.00  0.00    -0.387 OA
ATOM     12  H   UNL     1      40.011   3.204  45.308  1.00  0.00     0.211 HD
ENDBRANCH   4  11
BRANCH   6  13
ATOM     13  O   UNL     1      38.593   1.043  47.510  1.00  0.00    -0.387 OA
ATOM     14  H   UNL     1      39.349   0.476  47.824  1.00  0.00     0.211 HD
ENDBRANCH   6  13
BRANCH   7  15
ATOM     15  O   UNL     1      36.343   2.124  46.350  1.00  0.00    -0.385 OA
ATOM     16  H   UNL     1      36.426   2.840  45.667  1.00  0.00     0.211 HD
ENDBRANCH   7  15
ENDBRANCH   1   2
BRANCH   1  17
ATOM     17  C   UNL     1      35.432   2.902  43.421  1.00  0.00     0.224 C 
ATOM     18  C   UNL     1      35.214   2.827  41.903  1.00  0.00     0.208 C 
ATOM     19  O   UNL     1      34.358   2.234  44.053  1.00  0.00    -0.337 OA
ATOM     20  C   UNL     1      33.710   2.690  41.771  1.00  0.00     0.180 C 
ATOM     21  C   UNL     1      33.253   2.249  43.173  1.00  0.00     0.179 C 
BRANCH  17  22
ATOM     22  C   UNL     1      35.422   4.377  43.885  1.00  0.00     0.225 C 
BRANCH  22  23
ATOM     23  O   UNL     1      36.425   4.604  44.841  1.00  0.00    -0.391 OA
ATOM     24  H   UNL     1      36.973   5.362  44.504  1.00  0.00     0.210 HD
ENDBRANCH  22  23
ENDBRANCH  17  22
BRANCH  18  25
ATOM     25  O   UNL     1      35.837   1.695  41.358  1.00  0.00    -0.385 OA
ATOM     26  H   UNL     1      36.411   2.004  40.608  1.00  0.00     0.211 HD
ENDBRANCH  18  25
BRANCH  20  27
ATOM     27  O   UNL     1      33.128   3.929  41.449  1.00  0.00    -0.387 OA
ATOM     28  H   UNL     1      33.566   4.237  40.615  1.00  0.00     0.211 HD
ENDBRANCH  20  27
BRANCH  21  29
ATOM     29  C   UNL     1      32.603   0.857  43.146  1.00  0.00     0.191 C 
BRANCH  29  30
ATOM     30  O   UNL     1      32.084   0.530  44.407  1.00  0.00    -0.394 OA
ATOM     31  H   UNL     1      32.752  -0.063  44.840  1.00  0.00     0.210 HD
ENDBRANCH  29  30
ENDBRANCH  21  29
ENDBRANCH   1  17
TORSDOF 13
ENDMDL
MODEL 4
REMARK VINA RESULT:    -5.510      3.282      5.438
REMARK INTER + INTRA:          -9.685
REMARK INTER:                  -8.435
REMARK INTRA:                  -1.250
REMARK UNBOUND:                -1.277
REMARK SMILES OC[C@H]1O[C@@](CO)(O[C@H]2O[C@H](CO)[C@@H](O)[C@@H](O)[C@H]2O)[C@@H](O)[C@@H]1O
REMARK SMILES IDX 8 1 9 2 11 3 14 4 10 5 16 6 18 7 12 8 13 9 15 11 17 13 19 15
REMARK SMILES IDX 5 17 20 18 4 19 22 20 3 21 6 22 7 23 21 25 23 27 2 29 1 30
REMARK H PARENT 13 10 15 12 17 14 19 16 7 24 21 26 23 28 1 31
REMARK Flexibility Score: inf
ROOT
ATOM      1  O   UNL     1      36.896   2.956  43.354  1.00  0.00    -0.313 OA
ENDROOT
BRANCH   1   2
ATOM      2  C   UNL     1      38.132   2.283  43.595  1.00  0.00     0.285 C 
ATOM      3  C   UNL     1      37.178   1.406  45.576  1.00  0.00     0.178 C 
ATOM      4  C   UNL     1      36.669   0.193  44.736  1.00  0.00     0.177 C 
ATOM      5  O   UNL     1      38.301   2.060  44.987  1.00  0.00    -0.341 OA
ATOM      6  C   UNL     1      37.760  -0.239  43.740  1.00  0.00     0.179 C 
ATOM      7  C   UNL     1      38.188   0.937  42.822  1.00  0.00     0.202 C 
BRANCH   3   8
ATOM      8  C   UNL     1      37.582   0.976  46.995  1.00  0.00     0.191 C 
BRANCH   8   9
ATOM      9  O   UNL     1      36.823  -0.129  47.418  1.00  0.00    -0.394 OA
ATOM     10  H   UNL     1      36.027   0.232  47.892  1.00  0.00     0.210 HD
ENDBRANCH   8   9
ENDBRANCH   3   8
BRANCH   4  11
ATOM     11  O   UNL     1      35.499   0.563  44.049  1.00  0.00    -0.387 OA
ATOM     12  H   UNL     1      35.155  -0.245  43.592  1.00  0.00     0.211 HD
ENDBRANCH   4  11
BRANCH   6  13
ATOM     13  O   UNL     1      37.386  -1.387  43.022  1.00  0.00    -0.387 OA
ATOM     14  H   UNL     1      36.605  -1.152  42.451  1.00  0.00     0.211 HD
ENDBRANCH   6  13
BRANCH   7  15
ATOM     15  O   UNL     1      37.369   1.018  41.683  1.00  0.00    -0.385 OA
ATOM     16  H   UNL     1      36.451   0.758  41.959  1.00  0.00     0.211 HD
ENDBRANCH   7  15
ENDBRANCH   1   2
BRANCH   1  17
ATOM     17  C   UNL     1      37.007   4.324  42.968  1.00  0.00     0.224 C 
ATOM     18  C   UNL     1      36.278   5.240  43.963  1.00  0.00     0.208 C 
ATOM     19  O   UNL     1      38.350   4.756  42.876  1.00  0.00    -0.337 OA
ATOM     20  C   UNL     1      37.066   6.533  43.892  1.00  0.00     0.180 C 
ATOM     21  C   UNL     1      38.399   6.120  43.242  1.00  0.00     0.179 C 
BRANCH  17  22
ATOM     22  C   UNL     1      36.364   4.447  41.567  1.00  0.00     0.225 C 
BRANCH  22  23
ATOM     23  O   UNL     1      35.193   5.218  41.622  1.00  0.00    -0.391 OA
ATOM     24  H   UNL     1      34.746   5.122  40.739  1.00  0.00     0.210 HD
ENDBRANCH  22  23
ENDBRANCH  17  22
BRANCH  18  25
ATOM     25  O   UNL     1      36.341   4.723  45.265  1.00  0.00    -0.385 OA
ATOM     26  H   UNL     1      36.585   3.762  45.192  1.00  0.00     0.211 HD
ENDBRANCH  18  25
BRANCH  20  27
ATOM     27  O   UNL     1      36.408   7.467  43.074  1.00  0.00    -0.387 OA
ATOM     28  H   UNL     1      35.605   7.763  43.575  1.00  0.00     0.211 HD
ENDBRANCH  20  27
BRANCH  21  29
ATOM     29  C   UNL     1      39.588   6.353  44.186  1.00  0.00     0.191 C 
BRANCH  29  30
ATOM     30  O   UNL     1      39.864   5.196  44.928  1.00  0.00    -0.394 OA
ATOM     31  H   UNL     1      38.987   4.836  45.222  1.00  0.00     0.210 HD
ENDBRANCH  29  30
ENDBRANCH  21  29
ENDBRANCH   1  17
TORSDOF 13
ENDMDL
MODEL 5
REMARK VINA RESULT:    -5.448      2.480      4.455
REMARK INTER + INTRA:          -9.591
REMARK INTER:                  -8.285
REMARK INTRA:                  -1.306
REMARK UNBOUND:                -1.277
REMARK SMILES OC[C@H]1O[C@@](CO)(O[C@H]2O[C@H](CO)[C@@H](O)[C@@H](O)[C@H]2O)[C@@H](O)[C@@H]1O
REMARK SMILES IDX 8 1 9 2 11 3 14 4 10 5 16 6 18 7 12 8 13 9 15 11 17 13 19 15
REMARK SMILES IDX 5 17 20 18 4 19 22 20 3 21 6 22 7 23 21 25 23 27 2 29 1 30
REMARK H PARENT 13 10 15 12 17 14 19 16 7 24 21 26 23 28 1 31
REMARK Flexibility Score: inf
ROOT
ATOM      1  O   UNL     1      37.417   2.077  43.840  1.00  0.00    -0.313 OA
ENDROOT
BRANCH   1   2
ATOM      2  C   UNL     1      36.499   1.996  44.931  1.00  0.00     0.285 C 
ATOM      3  C   UNL     1      35.111   0.655  43.561  1.00  0.00     0.178 C 
ATOM      4  C   UNL     1      35.874  -0.598  44.097  1.00  0.00     0.177 C 
ATOM      5  O   UNL     1      35.184   1.773  44.444  1.00  0.00    -0.341 OA
ATOM      6  C   UNL     1      36.130  -0.438  45.606  1.00  0.00     0.179 C 
ATOM      7  C   UNL     1      36.909   0.867  45.916  1.00  0.00     0.202 C 
BRANCH   3   8
ATOM      8  C   UNL     1      33.625   0.345  43.323  1.00  0.00     0.191 C 
BRANCH   8   9
ATOM      9  O   UNL     1      32.824   0.941  44.312  1.00  0.00    -0.394 OA
ATOM     10  H   UNL     1      32.973   1.922  44.253  1.00  0.00     0.210 HD
ENDBRANCH   8   9
ENDBRANCH   3   8
BRANCH   4  11
ATOM     11  O   UNL     1      37.093  -0.728  43.406  1.00  0.00    -0.387 OA
ATOM     12  H   UNL     1      37.571  -1.505  43.792  1.00  0.00     0.211 HD
ENDBRANCH   4  11
BRANCH   6  13
ATOM     13  O   UNL     1      36.734  -1.582  46.156  1.00  0.00    -0.387 OA
ATOM     14  H   UNL     1      36.028  -2.113  46.614  1.00  0.00     0.211 HD
ENDBRANCH   6  13
BRANCH   7  15
ATOM     15  O   UNL     1      38.297   0.662  45.840  1.00  0.00    -0.385 OA
ATOM     16  H   UNL     1      38.703   1.503  45.501  1.00  0.00     0.211 HD
ENDBRANCH   7  15
ENDBRANCH   1   2
BRANCH   1  17
ATOM     17  C   UNL     1      37.900   3.384  43.539  1.00  0.00     0.224 C 
ATOM     18  C   UNL     1      37.447   3.833  42.143  1.00  0.00     0.208 C 
ATOM     19  O   UNL     1      37.466   4.353  44.474  1.00  0.00    -0.337 OA
ATOM     20  C   UNL     1      37.348   5.340  42.273  1.00  0.00     0.180 C 
ATOM     21  C   UNL     1      37.303   5.579  43.793  1.00  0.00     0.179 C 
BRANCH  17  22
ATOM     22  C   UNL     1      39.444   3.315  43.599  1.00  0.00     0.225 C 
BRANCH  22  23
ATOM     23  O   UNL     1      39.881   3.108  44.917  1.00  0.00    -0.391 OA
ATOM     24  H   UNL     1      40.862   3.272  44.920  1.00  0.00     0.210 HD
ENDBRANCH  22  23
ENDBRANCH  17  22
BRANCH  18  25
ATOM     25  O   UNL     1      36.186   3.306  41.827  1.00  0.00    -0.385 OA
ATOM     26  H   UNL     1      35.574   4.073  41.672  1.00  0.00     0.211 HD
ENDBRANCH  18  25
BRANCH  20  27
ATOM     27  O   UNL     1      38.488   5.958  41.728  1.00  0.00    -0.387 OA
ATOM     28  H   UNL     1      38.706   5.462  40.898  1.00  0.00     0.211 HD
ENDBRANCH  20  27
BRANCH  21  29
ATOM     29  C   UNL     1      35.982   6.232  44.226  1.00  0.00     0.191 C 
BRANCH  29  30
ATOM     30  O   UNL     1      35.571   5.736  45.471  1.00  0.00    -0.394 OA
ATOM     31  H   UNL     1      34.886   6.368  45.812  1.00  0.00     0.210 HD
ENDBRANCH  29  30
ENDBRANCH  21  29
ENDBRANCH   1  17
TORSDOF 13
ENDMDL
MODEL 6
REMARK VINA RESULT:    -5.446      1.851      3.891
REMARK INTER + INTRA:          -9.589
REMARK INTER:                  -8.135
REMARK INTRA:                  -1.454
REMARK UNBOUND:                -1.277
REMARK SMILES OC[C@H]1O[C@@](CO)(O[C@H]2O[C@H](CO)[C@@H](O)[C@@H](O)[C@H]2O)[C@@H](O)[C@@H]1O
REMARK SMILES IDX 8 1 9 2 11 3 14 4 10 5 16 6 18 7 12 8 13 9 15 11 17 13 19 15
REMARK SMILES IDX 5 17 20 18 4 19 22 20 3 21 6 22 7 23 21 25 23 27 2 29 1 30
REMARK H PARENT 13 10 15 12 17 14 19 16 7 24 21 26 23 28 1 31
REMARK Flexibility Score: inf
ROOT
ATOM      1  O   UNL     1      35.642   2.852  43.304  1.00  0.00    -0.313 OA
ENDROOT
BRANCH   1   2
ATOM      2  C   UNL     1      35.764   1.820  42.323  1.00  0.00     0.285 C 
ATOM      3  C   UNL     1      35.481   0.240  44.062  1.00  0.00     0.178 C 
ATOM      4  C   UNL     1      33.942   0.312  43.812  1.00  0.00     0.177 C 
ATOM      5  O   UNL     1      36.250   0.630  42.926  1.00  0.00    -0.341 OA
ATOM      6  C   UNL     1      33.668   0.363  42.298  1.00  0.00     0.179 C 
ATOM      7  C   UNL     1      34.400   1.556  41.628  1.00  0.00     0.202 C 
BRANCH   3   8
ATOM      8  C   UNL     1      35.919  -1.179  44.456  1.00  0.00     0.191 C 
BRANCH   8   9
ATOM      9  O   UNL     1      36.784  -1.148  45.563  1.00  0.00    -0.394 OA
ATOM     10  H   UNL     1      37.682  -1.423  45.236  1.00  0.00     0.210 HD
ENDBRANCH   8   9
ENDBRANCH   3   8
BRANCH   4  11
ATOM     11  O   UNL     1      33.423   1.457  44.441  1.00  0.00    -0.387 OA
ATOM     12  H   UNL     1      33.977   1.633  45.242  1.00  0.00     0.211 HD
ENDBRANCH   4  11
BRANCH   6  13
ATOM     13  O   UNL     1      32.292   0.336  42.016  1.00  0.00    -0.387 OA
ATOM     14  H   UNL     1      32.181   0.279  41.028  1.00  0.00     0.211 HD
ENDBRANCH   6  13
BRANCH   7  15
ATOM     15  O   UNL     1      33.619   2.723  41.672  1.00  0.00    -0.385 OA
ATOM     16  H   UNL     1      32.930   2.645  40.960  1.00  0.00     0.211 HD
ENDBRANCH   7  15
ENDBRANCH   1   2
BRANCH   1  17
ATOM     17  C   UNL     1      36.621   3.886  43.232  1.00  0.00     0.224 C 
ATOM     18  C   UNL     1      37.488   3.915  44.499  1.00  0.00     0.208 C 
ATOM     19  O   UNL     1      37.478   3.747  42.116  1.00  0.00    -0.337 OA
ATOM     20  C   UNL     1      38.819   4.442  44.002  1.00  0.00     0.180 C 
ATOM     21  C   UNL     1      38.752   4.239  42.477  1.00  0.00     0.179 C 
BRANCH  17  22
ATOM     22  C   UNL     1      35.852   5.219  43.086  1.00  0.00     0.225 C 
BRANCH  22  23
ATOM     23  O   UNL     1      35.253   5.311  41.820  1.00  0.00    -0.391 OA
ATOM     24  H   UNL     1      35.262   6.273  41.569  1.00  0.00     0.210 HD
ENDBRANCH  22  23
ENDBRANCH  17  22
BRANCH  18  25
ATOM     25  O   UNL     1      37.661   2.625  45.023  1.00  0.00    -0.385 OA
ATOM     26  H   UNL     1      36.990   2.507  45.747  1.00  0.00     0.211 HD
ENDBRANCH  18  25
BRANCH  20  27
ATOM     27  O   UNL     1      38.948   5.811  44.294  1.00  0.00    -0.387 OA
ATOM     28  H   UNL     1      38.030   6.184  44.298  1.00  0.00     0.211 HD
ENDBRANCH  20  27
BRANCH  21  29
ATOM     29  C   UNL     1      39.833   3.265  41.985  1.00  0.00     0.191 C 
BRANCH  29  30
ATOM     30  O   UNL     1      39.772   2.059  42.696  1.00  0.00    -0.394 OA
ATOM     31  H   UNL     1      39.409   1.382  42.068  1.00  0.00     0.210 HD
ENDBRANCH  29  30
ENDBRANCH  21  29
ENDBRANCH   1  17
TORSDOF 13
ENDMDL
MODEL 7
REMARK VINA RESULT:    -5.440      2.696      5.474
REMARK INTER + INTRA:          -9.579
REMARK INTER:                  -8.662
REMARK INTRA:                  -0.917
REMARK UNBOUND:                -1.277
REMARK SMILES OC[C@H]1O[C@@](CO)(O[C@H]2O[C@H](CO)[C@@H](O)[C@@H](O)[C@H]2O)[C@@H](O)[C@@H]1O
REMARK SMILES IDX 8 1 9 2 11 3 14 4 10 5 16 6 18 7 12 8 13 9 15 11 17 13 19 15
REMARK SMILES IDX 5 17 20 18 4 19 22 20 3 21 6 22 7 23 21 25 23 27 2 29 1 30
REMARK H PARENT 13 10 15 12 17 14 19 16 7 24 21 26 23 28 1 31
REMARK Flexibility Score: inf
ROOT
ATOM      1  O   UNL     1      37.634   2.876  44.419  1.00  0.00    -0.313 OA
ENDROOT
BRANCH   1   2
ATOM      2  C   UNL     1      38.093   3.514  43.226  1.00  0.00     0.285 C 
ATOM      3  C   UNL     1      35.914   4.396  42.954  1.00  0.00     0.178 C 
ATOM      4  C   UNL     1      36.360   5.631  43.798  1.00  0.00     0.177 C 
ATOM      5  O   UNL     1      37.006   3.718  42.335  1.00  0.00    -0.341 OA
ATOM      6  C   UNL     1      37.787   6.043  43.394  1.00  0.00     0.179 C 
ATOM      7  C   UNL     1      38.785   4.865  43.554  1.00  0.00     0.202 C 
BRANCH   3   8
ATOM      8  C   UNL     1      34.930   4.803  41.845  1.00  0.00     0.191 C 
BRANCH   8   9
ATOM      9  O   UNL     1      33.894   3.861  41.723  1.00  0.00    -0.394 OA
ATOM     10  H   UNL     1      34.323   2.966  41.653  1.00  0.00     0.210 HD
ENDBRANCH   8   9
ENDBRANCH   3   8
BRANCH   4  11
ATOM     11  O   UNL     1      36.316   5.299  45.164  1.00  0.00    -0.387 OA
ATOM     12  H   UNL     1      36.413   4.316  45.234  1.00  0.00     0.211 HD
ENDBRANCH   4  11
BRANCH   6  13
ATOM     13  O   UNL     1      38.203   7.207  44.061  1.00  0.00    -0.387 OA
ATOM     14  H   UNL     1      37.408   7.795  44.178  1.00  0.00     0.211 HD
ENDBRANCH   6  13
BRANCH   7  15
ATOM     15  O   UNL     1      39.313   4.817  44.855  1.00  0.00    -0.385 OA
ATOM     16  H   UNL     1      38.670   4.308  45.417  1.00  0.00     0.211 HD
ENDBRANCH   7  15
ENDBRANCH   1   2
BRANCH   1  17
ATOM     17  C   UNL     1      37.508   1.457  44.348  1.00  0.00     0.224 C 
ATOM     18  C   UNL     1      37.116   0.868  45.710  1.00  0.00     0.208 C 
ATOM     19  O   UNL     1      36.547   1.044  43.396  1.00  0.00    -0.337 OA
ATOM     20  C   UNL     1      36.325  -0.372  45.342  1.00  0.00     0.180 C 
ATOM     21  C   UNL     1      35.949  -0.147  43.866  1.00  0.00     0.179 C 
BRANCH  17  22
ATOM     22  C   UNL     1      38.886   0.908  43.909  1.00  0.00     0.225 C 
BRANCH  22  23
ATOM     23  O   UNL     1      39.565   0.341  44.999  1.00  0.00    -0.391 OA
ATOM     24  H   UNL     1      39.081   0.630  45.818  1.00  0.00     0.210 HD
ENDBRANCH  22  23
ENDBRANCH  17  22
BRANCH  18  25
ATOM     25  O   UNL     1      36.296   1.752  46.426  1.00  0.00    -0.385 OA
ATOM     26  H   UNL     1      35.697   2.198  45.770  1.00  0.00     0.211 HD
ENDBRANCH  18  25
BRANCH  20  27
ATOM     27  O   UNL     1      37.126  -1.521  45.458  1.00  0.00    -0.387 OA
ATOM     28  H   UNL     1      37.721  -1.371  46.237  1.00  0.00     0.211 HD
ENDBRANCH  20  27
BRANCH  21  29
ATOM     29  C   UNL     1      34.427  -0.063  43.674  1.00  0.00     0.191 C 
BRANCH  29  30
ATOM     30  O   UNL     1      33.898   1.022  44.385  1.00  0.00    -0.394 OA
ATOM     31  H   UNL     1      34.219   1.841  43.927  1.00  0.00     0.210 HD
ENDBRANCH  29  30
ENDBRANCH  21  29
ENDBRANCH   1  17
TORSDOF 13
ENDMDL
MODEL 8
REMARK VINA RESULT:    -5.431      1.741      5.693
REMARK INTER + INTRA:          -9.565
REMARK INTER:                  -8.207
REMARK INTRA:                  -1.358
REMARK UNBOUND:                -1.277
REMARK SMILES OC[C@H]1O[C@@](CO)(O[C@H]2O[C@H](CO)[C@@H](O)[C@@H](O)[C@H]2O)[C@@H](O)[C@@H]1O
REMARK SMILES IDX 8 1 9 2 11 3 14 4 10 5 16 6 18 7 12 8 13 9 15 11 17 13 19 15
REMARK SMILES IDX 5 17 20 18 4 19 22 20 3 21 6 22 7 23 21 25 23 27 2 29 1 30
REMARK H PARENT 13 10 15 12 17 14 19 16 7 24 21 26 23 28 1 31
REMARK Flexibility Score: inf
ROOT
ATOM      1  O   UNL     1      35.604   1.394  43.740  1.00  0.00    -0.313 OA
ENDROOT
BRANCH   1   2
ATOM      2  C   UNL     1      36.780   1.287  42.935  1.00  0.00     0.285 C 
ATOM      3  C   UNL     1      37.646   3.163  44.090  1.00  0.00     0.178 C 
ATOM      4  C   UNL     1      38.258   2.177  45.135  1.00  0.00     0.177 C 
ATOM      5  O   UNL     1      37.408   2.555  42.821  1.00  0.00    -0.341 OA
ATOM      6  C   UNL     1      38.839   0.951  44.407  1.00  0.00     0.179 C 
ATOM      7  C   UNL     1      37.766   0.247  43.535  1.00  0.00     0.202 C 
BRANCH   3   8
ATOM      8  C   UNL     1      38.561   4.375  43.862  1.00  0.00     0.191 C 
BRANCH   8   9
ATOM      9  O   UNL     1      39.523   4.477  44.881  1.00  0.00    -0.394 OA
ATOM     10  H   UNL     1      40.376   4.124  44.510  1.00  0.00     0.210 HD
ENDBRANCH   8   9
ENDBRANCH   3   8
BRANCH   4  11
ATOM     11  O   UNL     1      37.257   1.779  46.038  1.00  0.00    -0.387 OA
ATOM     12  H   UNL     1      36.393   1.808  45.556  1.00  0.00     0.211 HD
ENDBRANCH   4  11
BRANCH   6  13
ATOM     13  O   UNL     1      39.484   0.075  45.296  1.00  0.00    -0.387 OA
ATOM     14  H   UNL     1      38.851  -0.137  46.033  1.00  0.00     0.211 HD
ENDBRANCH   6  13
BRANCH   7  15
ATOM     15  O   UNL     1      37.048  -0.704  44.279  1.00  0.00    -0.385 OA
ATOM     16  H   UNL     1      36.353  -0.215  44.793  1.00  0.00     0.211 HD
ENDBRANCH   7  15
ENDBRANCH   1   2
BRANCH   1  17
ATOM     17  C   UNL     1      34.368   1.281  43.038  1.00  0.00     0.224 C 
ATOM     18  C   UNL     1      33.642   2.633  42.977  1.00  0.00     0.208 C 
ATOM     19  O   UNL     1      34.535   0.811  41.715  1.00  0.00    -0.337 OA
ATOM     20  C   UNL     1      32.862   2.553  41.680  1.00  0.00     0.180 C 
ATOM     21  C   UNL     1      33.538   1.405  40.909  1.00  0.00     0.179 C 
BRANCH  17  22
ATOM     22  C   UNL     1      33.509   0.253  43.810  1.00  0.00     0.225 C 
BRANCH  22  23
ATOM     23  O   UNL     1      32.445   0.889  44.469  1.00  0.00    -0.391 OA
ATOM     24  H   UNL     1      32.236   0.338  45.270  1.00  0.00     0.210 HD
ENDBRANCH  22  23
ENDBRANCH  17  22
BRANCH  18  25
ATOM     25  O   UNL     1      34.557   3.694  42.909  1.00  0.00    -0.385 OA
ATOM     26  H   UNL     1      34.450   4.121  42.019  1.00  0.00     0.211 HD
ENDBRANCH  18  25
BRANCH  20  27
ATOM     27  O   UNL     1      31.517   2.229  41.933  1.00  0.00    -0.387 OA
ATOM     28  H   UNL     1      31.090   2.094  41.048  1.00  0.00     0.211 HD
ENDBRANCH  20  27
BRANCH  21  29
ATOM     29  C   UNL     1      34.168   1.895  39.597  1.00  0.00     0.191 C 
BRANCH  29  30
ATOM     30  O   UNL     1      35.321   2.649  39.854  1.00  0.00    -0.394 OA
ATOM     31  H   UNL     1      35.594   3.047  38.987  1.00  0.00     0.210 HD
ENDBRANCH  29  30
ENDBRANCH  21  29
ENDBRANCH   1  17
TORSDOF 13
ENDMDL
MODEL 9
REMARK VINA RESULT:    -5.394      1.497      5.827
REMARK INTER + INTRA:          -9.510
REMARK INTER:                  -8.160
REMARK INTRA:                  -1.350
REMARK UNBOUND:                -1.277
REMARK SMILES OC[C@H]1O[C@@](CO)(O[C@H]2O[C@H](CO)[C@@H](O)[C@@H](O)[C@H]2O)[C@@H](O)[C@@H]1O
REMARK SMILES IDX 8 1 9 2 11 3 14 4 10 5 16 6 18 7 12 8 13 9 15 11 17 13 19 15
REMARK SMILES IDX 5 17 20 18 4 19 22 20 3 21 6 22 7 23 21 25 23 27 2 29 1 30
REMARK H PARENT 13 10 15 12 17 14 19 16 7 24 21 26 23 28 1 31
REMARK Flexibility Score: inf
ROOT
ATOM      1  O   UNL     1      35.304   2.735  42.341  1.00  0.00    -0.313 OA
ENDROOT
BRANCH   1   2
ATOM      2  C   UNL     1      35.081   3.303  43.633  1.00  0.00     0.285 C 
ATOM      3  C   UNL     1      37.048   2.211  44.366  1.00  0.00     0.178 C 
ATOM      4  C   UNL     1      37.854   3.477  43.936  1.00  0.00     0.177 C 
ATOM      5  O   UNL     1      35.674   2.487  44.632  1.00  0.00    -0.341 OA
ATOM      6  C   UNL     1      37.071   4.743  44.328  1.00  0.00     0.179 C 
ATOM      7  C   UNL     1      35.649   4.746  43.706  1.00  0.00     0.202 C 
BRANCH   3   8
ATOM      8  C   UNL     1      37.646   1.568  45.627  1.00  0.00     0.191 C 
BRANCH   8   9
ATOM      9  O   UNL     1      36.718   1.574  46.682  1.00  0.00    -0.394 OA
ATOM     10  H   UNL     1      36.528   0.624  46.906  1.00  0.00     0.210 HD
ENDBRANCH   8   9
ENDBRANCH   3   8
BRANCH   4  11
ATOM     11  O   UNL     1      38.064   3.443  42.546  1.00  0.00    -0.387 OA
ATOM     12  H   UNL     1      37.411   4.062  42.132  1.00  0.00     0.211 HD
ENDBRANCH   4  11
BRANCH   6  13
ATOM     13  O   UNL     1      37.796   5.913  44.045  1.00  0.00    -0.387 OA
ATOM     14  H   UNL     1      38.111   6.297  44.908  1.00  0.00     0.211 HD
ENDBRANCH   6  13
BRANCH   7  15
ATOM     15  O   UNL     1      35.656   5.312  42.420  1.00  0.00    -0.385 OA
ATOM     16  H   UNL     1      35.163   4.692  41.821  1.00  0.00     0.211 HD
ENDBRANCH   7  15
ENDBRANCH   1   2
BRANCH   1  17
ATOM     17  C   UNL     1      34.145   2.221  41.688  1.00  0.00     0.224 C 
ATOM     18  C   UNL     1      34.145   0.686  41.689  1.00  0.00     0.208 C 
ATOM     19  O   UNL     1      32.942   2.661  42.288  1.00  0.00    -0.337 OA
ATOM     20  C   UNL     1      32.671   0.334  41.697  1.00  0.00     0.180 C 
ATOM     21  C   UNL     1      31.982   1.634  42.150  1.00  0.00     0.179 C 
BRANCH  17  22
ATOM     22  C   UNL     1      34.180   2.750  40.235  1.00  0.00     0.225 C 
BRANCH  22  23
ATOM     23  O   UNL     1      34.451   1.709  39.334  1.00  0.00    -0.391 OA
ATOM     24  H   UNL     1      35.255   1.236  39.678  1.00  0.00     0.210 HD
ENDBRANCH  22  23
ENDBRANCH  17  22
BRANCH  18  25
ATOM     25  O   UNL     1      34.753   0.181  42.848  1.00  0.00    -0.385 OA
ATOM     26  H   UNL     1      35.607  -0.247  42.573  1.00  0.00     0.211 HD
ENDBRANCH  18  25
BRANCH  20  27
ATOM     27  O   UNL     1      32.238  -0.006  40.403  1.00  0.00    -0.387 OA
ATOM     28  H   UNL     1      31.419   0.526  40.232  1.00  0.00     0.211 HD
ENDBRANCH  20  27
BRANCH  21  29
ATOM     29  C   UNL     1      31.239   1.449  43.482  1.00  0.00     0.191 C 
BRANCH  29  30
ATOM     30  O   UNL     1      31.978   0.635  44.351  1.00  0.00    -0.394 OA
ATOM     31  H   UNL     1      32.775   0.332  43.842  1.00  0.00     0.210 HD
ENDBRANCH  29  30
ENDBRANCH  21  29
ENDBRANCH   1  17
TORSDOF 13
ENDMDL
