MODEL 1
REMARK VINA RESULT:    -2.993      0.000      0.000
REMARK INTER + INTRA:          -2.993
REMARK INTER:                  -2.993
REMARK INTRA:                   0.000
REMARK UNBOUND:                 0.000
REMARK SMILES CC(=O)[O-]
REMARK SMILES IDX 1 1 2 2 3 3 4 4
REMARK H PARENT
REMARK Flexibility Score: inf
ROOT
ATOM      1  C   UNL     1       8.009   1.378 -17.159  1.00  0.00     0.063 C 
ATOM      2  C   UNL     1       9.275   0.817 -16.604  1.00  0.00     0.038 C 
ATOM      3  O   UNL     1      10.377   1.363 -16.871  1.00  0.00    -0.550 OA
ATOM      4  O   UNL     1       9.236  -0.276 -15.749  1.00  0.00    -0.550 OA
ENDROOT
TORSDOF 0
ENDMDL
MODEL 2
REMARK VINA RESULT:    -2.992      1.716      2.007
REMARK INTER + INTRA:          -2.992
REMARK INTER:                  -2.992
REMARK INTRA:                   0.000
REMARK UNBOUND:                 0.000
REMARK SMILES CC(=O)[O-]
REMARK SMILES IDX 1 1 2 2 3 3 4 4
REMARK H PARENT
REMARK Flexibility Score: inf
ROOT
ATOM      1  C   UNL     1       9.247   2.810 -16.889  1.00  0.00     0.063 C 
ATOM      2  C   UNL     1       9.689   1.591 -17.626  1.00  0.00     0.038 C 
ATOM      3  O   UNL     1      10.763   1.016 -17.307  1.00  0.00    -0.550 OA
ATOM      4  O   UNL     1       8.893   1.057 -18.629  1.00  0.00    -0.550 OA
ENDROOT
TORSDOF 0
ENDMDL
MODEL 3
REMARK VINA RESULT:    -2.979      1.522      1.793
REMARK INTER + INTRA:          -2.979
REMARK INTER:                  -2.979
REMARK INTRA:                   0.000
REMARK UNBOUND:                 0.000
REMARK SMILES CC(=O)[O-]
REMARK SMILES IDX 1 1 2 2 3 3 4 4
REMARK H PARENT
REMARK Flexibility Score: inf
ROOT
ATOM      1  C   UNL     1       8.406   1.150 -18.232  1.00  0.00     0.063 C 
ATOM      2  C   UNL     1       9.485   1.820 -17.450  1.00  0.00     0.038 C 
ATOM      3  O   UNL     1       9.321   2.993 -17.025  1.00  0.00    -0.550 OA
ATOM      4  O   UNL     1      10.652   1.132 -17.143  1.00  0.00    -0.550 OA
ENDROOT
TORSDOF 0
ENDMDL
MODEL 4
REMARK VINA RESULT:    -2.908      1.721      1.823
REMARK INTER + INTRA:          -2.908
REMARK INTER:                  -2.908
REMARK INTRA:                   0.000
REMARK UNBOUND:                 0.000
REMARK SMILES CC(=O)[O-]
REMARK SMILES IDX 1 1 2 2 3 3 4 4
REMARK H PARENT
REMARK Flexibility Score: inf
ROOT
ATOM      1  C   UNL     1       9.270   2.669 -16.906  1.00  0.00     0.063 C 
ATOM      2  C   UNL     1       8.621   1.329 -16.804  1.00  0.00     0.038 C 
ATOM      3  O   UNL     1       7.463   1.152 -17.266  1.00  0.00    -0.550 OA
ATOM      4  O   UNL     1       9.312   0.262 -16.248  1.00  0.00    -0.550 OA
ENDROOT
TORSDOF 0
ENDMDL
MODEL 5
REMARK VINA RESULT:    -2.867      2.147      2.321
REMARK INTER + INTRA:          -2.867
REMARK INTER:                  -2.867
REMARK INTRA:                   0.000
REMARK UNBOUND:                 0.000
REMARK SMILES CC(=O)[O-]
REMARK SMILES IDX 1 1 2 2 3 3 4 4
REMARK H PARENT
REMARK Flexibility Score: inf
ROOT
ATOM      1  C   UNL     1       9.546   2.091 -16.968  1.00  0.00     0.063 C 
ATOM      2  C   UNL     1       8.330   1.495 -17.593  1.00  0.00     0.038 C 
ATOM      3  O   UNL     1       8.399   0.977 -18.739  1.00  0.00    -0.550 OA
ATOM      4  O   UNL     1       7.132   1.461 -16.893  1.00  0.00    -0.550 OA
ENDROOT
TORSDOF 0
ENDMDL
MODEL 6
REMARK VINA RESULT:    -2.782      9.279      9.762
REMARK INTER + INTRA:          -2.782
REMARK INTER:                  -2.782
REMARK INTRA:                   0.000
REMARK UNBOUND:                 0.000
REMARK SMILES CC(=O)[O-]
REMARK SMILES IDX 1 1 2 2 3 3 4 4
REMARK H PARENT
REMARK Flexibility Score: inf
ROOT
ATOM      1  C   UNL     1      16.793  -6.110 -18.626  1.00  0.00     0.063 C 
ATOM      2  C   UNL     1      16.694  -4.625 -18.723  1.00  0.00     0.038 C 
ATOM      3  O   UNL     1      15.627  -4.041 -18.400  1.00  0.00    -0.550 OA
ATOM      4  O   UNL     1      17.795  -3.878 -19.120  1.00  0.00    -0.550 OA
ENDROOT
TORSDOF 0
ENDMDL
MODEL 7
REMARK VINA RESULT:    -2.724      8.458      8.859
REMARK INTER + INTRA:          -2.724
REMARK INTER:                  -2.724
REMARK INTRA:                   0.000
REMARK UNBOUND:                 0.000
REMARK SMILES CC(=O)[O-]
REMARK SMILES IDX 1 1 2 2 3 3 4 4
REMARK H PARENT
REMARK Flexibility Score: inf
ROOT
ATOM      1  C   UNL     1       5.137  -6.939 -19.207  1.00  0.00     0.063 C 
ATOM      2  C   UNL     1       5.136  -5.848 -20.225  1.00  0.00     0.038 C 
ATOM      3  O   UNL     1       4.082  -5.579 -20.859  1.00  0.00    -0.550 OA
ATOM      4  O   UNL     1       6.280  -5.092 -20.437  1.00  0.00    -0.550 OA
ENDROOT
TORSDOF 0
ENDMDL
MODEL 8
REMARK VINA RESULT:    -2.571      8.837      9.141
REMARK INTER + INTRA:          -2.571
REMARK INTER:                  -2.571
REMARK INTRA:                   0.000
REMARK UNBOUND:                 0.000
REMARK SMILES CC(=O)[O-]
REMARK SMILES IDX 1 1 2 2 3 3 4 4
REMARK H PARENT
REMARK Flexibility Score: inf
ROOT
ATOM      1  C   UNL     1       2.462   6.082 -11.113  1.00  0.00     0.063 C 
ATOM      2  C   UNL     1       3.005   4.721 -11.390  1.00  0.00     0.038 C 
ATOM      3  O   UNL     1       3.973   4.278 -10.717  1.00  0.00    -0.550 OA
ATOM      4  O   UNL     1       2.412   3.918 -12.355  1.00  0.00    -0.550 OA
ENDROOT
TORSDOF 0
ENDMDL
MODEL 9
REMARK VINA RESULT:    -2.543     10.273     10.385
REMARK INTER + INTRA:          -2.543
REMARK INTER:                  -2.543
REMARK INTRA:                   0.000
REMARK UNBOUND:                 0.000
REMARK SMILES CC(=O)[O-]
REMARK SMILES IDX 1 1 2 2 3 3 4 4
REMARK H PARENT
REMARK Flexibility Score: inf
ROOT
ATOM      1  C   UNL     1       2.775   8.686 -19.920  1.00  0.00     0.063 C 
ATOM      2  C   UNL     1       2.050   7.382 -19.924  1.00  0.00     0.038 C 
ATOM      3  O   UNL     1       2.123   6.622 -20.925  1.00  0.00    -0.550 OA
ATOM      4  O   UNL     1       1.337   6.979 -18.803  1.00  0.00    -0.550 OA
ENDROOT
TORSDOF 0
ENDMDL
