MODEL 1
REMARK VINA RESULT:    -3.731      0.000      0.000
REMARK INTER + INTRA:          -5.159
REMARK INTER:                  -5.040
REMARK INTRA:                  -0.119
REMARK UNBOUND:                -0.119
REMARK SMILES [NH3+]CCCC[C@@H]([NH3+])C(=O)[O-]
REMARK SMILES IDX 4 1 3 2 2 3 1 4 5 8 6 9 7 10 8 14 9 15 10 16
REMARK H PARENT 1 5 1 6 1 7 7 11 7 12 7 13
REMARK Flexibility Score: inf
ROOT
ATOM      1  C   UNL     1     134.876 132.526 133.720  1.00  0.00     0.012 C 
ENDROOT
BRANCH   1   2
ATOM      2  C   UNL     1     135.298 132.419 135.193  1.00  0.00     0.061 C 
BRANCH   2   3
ATOM      3  C   UNL     1     136.789 132.738 135.363  1.00  0.00     0.258 C 
BRANCH   3   4
ATOM      4  N   UNL     1     137.349 133.299 134.134  1.00  0.00    -0.358 N 
ATOM      5  H   UNL     1     138.138 132.702 133.793  1.00  0.00     0.344 HD
ATOM      6  H   UNL     1     136.605 133.326 133.400  1.00  0.00     0.344 HD
ATOM      7  H   UNL     1     137.691 134.272 134.305  1.00  0.00     0.344 HD
ENDBRANCH   3   4
ENDBRANCH   2   3
ENDBRANCH   1   2
BRANCH   1   8
ATOM      8  C   UNL     1     133.908 131.406 133.291  1.00  0.00     0.072 C 
BRANCH   8   9
ATOM      9  C   UNL     1     133.112 131.712 132.002  1.00  0.00     0.227 C 
BRANCH   9  10
ATOM     10  N   UNL     1     133.194 130.577 131.073  1.00  0.00    -0.350 N 
ATOM     11  H   UNL     1     132.250 130.147 130.930  1.00  0.00     0.345 HD
ATOM     12  H   UNL     1     133.845 129.853 131.455  1.00  0.00     0.345 HD
ATOM     13  H   UNL     1     133.569 130.899 130.151  1.00  0.00     0.345 HD
ENDBRANCH   9  10
BRANCH   9  14
ATOM     14  C   UNL     1     131.670 132.018 132.310  1.00  0.00     0.099 C 
ATOM     15  O   UNL     1     130.755 131.556 131.578  1.00  0.00    -0.544 OA
ATOM     16  O   UNL     1     131.339 132.815 133.398  1.00  0.00    -0.544 OA
ENDBRANCH   9  14
ENDBRANCH   8   9
ENDBRANCH   1   8
TORSDOF 7
ENDMDL
MODEL 2
REMARK VINA RESULT:    -3.639     12.010     13.259
REMARK INTER + INTRA:          -5.035
REMARK INTER:                  -4.935
REMARK INTRA:                  -0.100
REMARK UNBOUND:                -0.119
REMARK SMILES [NH3+]CCCC[C@@H]([NH3+])C(=O)[O-]
REMARK SMILES IDX 4 1 3 2 2 3 1 4 5 8 6 9 7 10 8 14 9 15 10 16
REMARK H PARENT 1 5 1 6 1 7 7 11 7 12 7 13
REMARK Flexibility Score: inf
ROOT
ATOM      1  C   UNL     1     120.378 131.541 133.925  1.00  0.00     0.012 C 
ENDROOT
BRANCH   1   2
ATOM      2  C   UNL     1     120.396 132.216 135.304  1.00  0.00     0.061 C 
BRANCH   2   3
ATOM      3  C   UNL     1     119.086 132.969 135.566  1.00  0.00     0.258 C 
BRANCH   3   4
ATOM      4  N   UNL     1     118.570 133.568 134.336  1.00  0.00    -0.358 N 
ATOM      5  H   UNL     1     118.047 134.447 134.556  1.00  0.00     0.344 HD
ATOM      6  H   UNL     1     119.371 133.800 133.706  1.00  0.00     0.344 HD
ATOM      7  H   UNL     1     117.938 132.894 133.845  1.00  0.00     0.344 HD
ENDBRANCH   3   4
ENDBRANCH   2   3
ENDBRANCH   1   2
BRANCH   1   8
ATOM      8  C   UNL     1     121.784 131.382 133.317  1.00  0.00     0.072 C 
BRANCH   8   9
ATOM      9  C   UNL     1     121.833 130.502 132.047  1.00  0.00     0.227 C 
BRANCH   9  10
ATOM     10  N   UNL     1     122.707 131.114 131.037  1.00  0.00    -0.350 N 
ATOM     11  H   UNL     1     123.397 130.417 130.673  1.00  0.00     0.345 HD
ATOM     12  H   UNL     1     123.225 131.920 131.459  1.00  0.00     0.345 HD
ATOM     13  H   UNL     1     122.132 131.477 130.242  1.00  0.00     0.345 HD
ENDBRANCH   9  10
BRANCH   9  14
ATOM     14  C   UNL     1     122.316 129.111 132.364  1.00  0.00     0.099 C 
ATOM     15  O   UNL     1     123.189 128.564 131.640  1.00  0.00    -0.544 OA
ATOM     16  O   UNL     1     121.796 128.419 133.452  1.00  0.00    -0.544 OA
ENDBRANCH   9  14
ENDBRANCH   8   9
ENDBRANCH   1   8
TORSDOF 7
ENDMDL
MODEL 3
REMARK VINA RESULT:    -3.633      3.670      4.357
REMARK INTER + INTRA:          -5.027
REMARK INTER:                  -4.874
REMARK INTRA:                  -0.152
REMARK UNBOUND:                -0.119
REMARK SMILES [NH3+]CCCC[C@@H]([NH3+])C(=O)[O-]
REMARK SMILES IDX 4 1 3 2 2 3 1 4 5 8 6 9 7 10 8 14 9 15 10 16
REMARK H PARENT 1 5 1 6 1 7 7 11 7 12 7 13
REMARK Flexibility Score: inf
ROOT
ATOM      1  C   UNL     1     135.282 133.623 137.374  1.00  0.00     0.012 C 
ENDROOT
BRANCH   1   2
ATOM      2  C   UNL     1     135.494 132.813 136.086  1.00  0.00     0.061 C 
BRANCH   2   3
ATOM      3  C   UNL     1     136.984 132.730 135.727  1.00  0.00     0.258 C 
BRANCH   3   4
ATOM      4  N   UNL     1     137.230 133.264 134.387  1.00  0.00    -0.358 N 
ATOM      5  H   UNL     1     136.613 132.785 133.691  1.00  0.00     0.344 HD
ATOM      6  H   UNL     1     137.016 134.287 134.381  1.00  0.00     0.344 HD
ATOM      7  H   UNL     1     138.233 133.126 134.124  1.00  0.00     0.344 HD
ENDBRANCH   3   4
ENDBRANCH   2   3
ENDBRANCH   1   2
BRANCH   1   8
ATOM      8  C   UNL     1     133.939 133.314 138.061  1.00  0.00     0.072 C 
BRANCH   8   9
ATOM      9  C   UNL     1     132.800 132.931 137.089  1.00  0.00     0.227 C 
BRANCH   9  10
ATOM     10  N   UNL     1     132.037 131.795 137.622  1.00  0.00    -0.350 N 
ATOM     11  H   UNL     1     131.099 132.107 137.967  1.00  0.00     0.345 HD
ATOM     12  H   UNL     1     132.563 131.356 138.413  1.00  0.00     0.345 HD
ATOM     13  H   UNL     1     131.907 131.073 136.876  1.00  0.00     0.345 HD
ENDBRANCH   9  10
BRANCH   9  14
ATOM     14  C   UNL     1     131.877 134.096 136.844  1.00  0.00     0.099 C 
ATOM     15  O   UNL     1     131.265 134.198 135.748  1.00  0.00    -0.544 OA
ATOM     16  O   UNL     1     131.700 135.069 137.819  1.00  0.00    -0.544 OA
ENDBRANCH   9  14
ENDBRANCH   8   9
ENDBRANCH   1   8
TORSDOF 7
ENDMDL
MODEL 4
REMARK VINA RESULT:    -3.625      4.167      5.325
REMARK INTER + INTRA:          -5.016
REMARK INTER:                  -4.542
REMARK INTRA:                  -0.474
REMARK UNBOUND:                -0.119
REMARK SMILES [NH3+]CCCC[C@@H]([NH3+])C(=O)[O-]
REMARK SMILES IDX 4 1 3 2 2 3 1 4 5 8 6 9 7 10 8 14 9 15 10 16
REMARK H PARENT 1 5 1 6 1 7 7 11 7 12 7 13
REMARK Flexibility Score: inf
ROOT
ATOM      1  C   UNL     1     132.818 133.454 138.125  1.00  0.00     0.012 C 
ENDROOT
BRANCH   1   2
ATOM      2  C   UNL     1     132.138 134.787 137.777  1.00  0.00     0.061 C 
BRANCH   2   3
ATOM      3  C   UNL     1     131.024 134.583 136.743  1.00  0.00     0.258 C 
BRANCH   3   4
ATOM      4  N   UNL     1     131.477 133.728 135.646  1.00  0.00    -0.358 N 
ATOM      5  H   UNL     1     130.698 133.577 134.963  1.00  0.00     0.344 HD
ATOM      6  H   UNL     1     132.272 134.194 135.154  1.00  0.00     0.344 HD
ATOM      7  H   UNL     1     131.803 132.807 136.019  1.00  0.00     0.344 HD
ENDBRANCH   3   4
ENDBRANCH   2   3
ENDBRANCH   1   2
BRANCH   1   8
ATOM      8  C   UNL     1     134.314 133.432 137.760  1.00  0.00     0.072 C 
BRANCH   8   9
ATOM      9  C   UNL     1     134.752 132.195 136.943  1.00  0.00     0.227 C 
BRANCH   9  10
ATOM     10  N   UNL     1     133.690 131.180 136.948  1.00  0.00    -0.350 N 
ATOM     11  H   UNL     1     133.777 130.557 137.784  1.00  0.00     0.345 HD
ATOM     12  H   UNL     1     133.753 130.598 136.080  1.00  0.00     0.345 HD
ATOM     13  H   UNL     1     132.754 131.646 136.962  1.00  0.00     0.345 HD
ENDBRANCH   9  10
BRANCH   9  14
ATOM     14  C   UNL     1     135.092 132.571 135.524  1.00  0.00     0.099 C 
ATOM     15  O   UNL     1     134.184 132.930 134.730  1.00  0.00    -0.544 OA
ATOM     16  O   UNL     1     136.408 132.516 135.080  1.00  0.00    -0.544 OA
ENDBRANCH   9  14
ENDBRANCH   8   9
ENDBRANCH   1   8
TORSDOF 7
ENDMDL
MODEL 5
REMARK VINA RESULT:    -3.625     12.595     13.357
REMARK INTER + INTRA:          -5.015
REMARK INTER:                  -4.543
REMARK INTRA:                  -0.472
REMARK UNBOUND:                -0.119
REMARK SMILES [NH3+]CCCC[C@@H]([NH3+])C(=O)[O-]
REMARK SMILES IDX 4 1 3 2 2 3 1 4 5 8 6 9 7 10 8 14 9 15 10 16
REMARK H PARENT 1 5 1 6 1 7 7 11 7 12 7 13
REMARK Flexibility Score: inf
ROOT
ATOM      1  C   UNL     1     130.295 120.656 138.125  1.00  0.00     0.012 C 
ENDROOT
BRANCH   1   2
ATOM      2  C   UNL     1     131.771 120.511 137.724  1.00  0.00     0.061 C 
BRANCH   2   3
ATOM      3  C   UNL     1     132.148 121.523 136.634  1.00  0.00     0.258 C 
BRANCH   3   4
ATOM      4  N   UNL     1     131.172 121.506 135.544  1.00  0.00    -0.358 N 
ATOM      5  H   UNL     1     130.334 120.945 135.821  1.00  0.00     0.344 HD
ATOM      6  H   UNL     1     130.871 122.485 135.339  1.00  0.00     0.344 HD
ATOM      7  H   UNL     1     131.602 121.096 134.683  1.00  0.00     0.344 HD
ENDBRANCH   3   4
ENDBRANCH   2   3
ENDBRANCH   1   2
BRANCH   1   8
ATOM      8  C   UNL     1     129.470 119.388 137.837  1.00  0.00     0.072 C 
BRANCH   8   9
ATOM      9  C   UNL     1     128.176 119.640 137.029  1.00  0.00     0.227 C 
BRANCH   9  10
ATOM     10  N   UNL     1     127.867 121.075 136.999  1.00  0.00    -0.350 N 
ATOM     11  H   UNL     1     127.073 121.270 136.346  1.00  0.00     0.345 HD
ATOM     12  H   UNL     1     128.708 121.612 136.683  1.00  0.00     0.345 HD
ATOM     13  H   UNL     1     127.612 121.404 137.959  1.00  0.00     0.345 HD
ENDBRANCH   9  10
BRANCH   9  14
ATOM     14  C   UNL     1     128.301 119.114 135.622  1.00  0.00     0.099 C 
ATOM     15  O   UNL     1     129.059 119.689 134.797  1.00  0.00    -0.544 OA
ATOM     16  O   UNL     1     127.575 117.998 135.224  1.00  0.00    -0.544 OA
ENDBRANCH   9  14
ENDBRANCH   8   9
ENDBRANCH   1   8
TORSDOF 7
ENDMDL
MODEL 6
REMARK VINA RESULT:    -3.562      2.313      2.971
REMARK INTER + INTRA:          -4.931
REMARK INTER:                  -4.471
REMARK INTRA:                  -0.460
REMARK UNBOUND:                -0.119
REMARK SMILES [NH3+]CCCC[C@@H]([NH3+])C(=O)[O-]
REMARK SMILES IDX 4 1 3 2 2 3 1 4 5 8 6 9 7 10 8 14 9 15 10 16
REMARK H PARENT 1 5 1 6 1 7 7 11 7 12 7 13
REMARK Flexibility Score: inf
ROOT
ATOM      1  C   UNL     1     134.875 132.877 136.923  1.00  0.00     0.012 C 
ENDROOT
BRANCH   1   2
ATOM      2  C   UNL     1     136.226 133.480 136.512  1.00  0.00     0.061 C 
BRANCH   2   3
ATOM      3  C   UNL     1     136.969 132.555 135.539  1.00  0.00     0.258 C 
BRANCH   3   4
ATOM      4  N   UNL     1     137.305 133.258 134.301  1.00  0.00    -0.358 N 
ATOM      5  H   UNL     1     138.300 133.069 134.039  1.00  0.00     0.344 HD
ATOM      6  H   UNL     1     136.683 132.918 133.534  1.00  0.00     0.344 HD
ATOM      7  H   UNL     1     137.162 134.288 134.422  1.00  0.00     0.344 HD
ENDBRANCH   3   4
ENDBRANCH   2   3
ENDBRANCH   1   2
BRANCH   1   8
ATOM      8  C   UNL     1     134.492 131.640 136.089  1.00  0.00     0.072 C 
BRANCH   8   9
ATOM      9  C   UNL     1     133.275 131.851 135.160  1.00  0.00     0.227 C 
BRANCH   9  10
ATOM     10  N   UNL     1     132.782 133.230 135.272  1.00  0.00    -0.350 N 
ATOM     11  H   UNL     1     132.073 133.432 134.529  1.00  0.00     0.345 HD
ATOM     12  H   UNL     1     133.580 133.900 135.174  1.00  0.00     0.345 HD
ATOM     13  H   UNL     1     132.347 133.376 136.212  1.00  0.00     0.345 HD
ENDBRANCH   9  10
BRANCH   9  14
ATOM     14  C   UNL     1     133.623 131.548 133.726  1.00  0.00     0.099 C 
ATOM     15  O   UNL     1     134.611 132.110 133.183  1.00  0.00    -0.544 OA
ATOM     16  O   UNL     1     132.854 130.654 132.990  1.00  0.00    -0.544 OA
ENDBRANCH   9  14
ENDBRANCH   8   9
ENDBRANCH   1   8
TORSDOF 7
ENDMDL
MODEL 7
REMARK VINA RESULT:    -3.561     13.748     14.332
REMARK INTER + INTRA:          -4.929
REMARK INTER:                  -4.426
REMARK INTRA:                  -0.503
REMARK UNBOUND:                -0.119
REMARK SMILES [NH3+]CCCC[C@@H]([NH3+])C(=O)[O-]
REMARK SMILES IDX 4 1 3 2 2 3 1 4 5 8 6 9 7 10 8 14 9 15 10 16
REMARK H PARENT 1 5 1 6 1 7 7 11 7 12 7 13
REMARK Flexibility Score: inf
ROOT
ATOM      1  C   UNL     1     120.474 129.397 138.125  1.00  0.00     0.012 C 
ENDROOT
BRANCH   1   2
ATOM      2  C   UNL     1     119.753 128.094 137.747  1.00  0.00     0.061 C 
BRANCH   2   3
ATOM      3  C   UNL     1     120.542 127.317 136.684  1.00  0.00     0.258 C 
BRANCH   3   4
ATOM      4  N   UNL     1     121.629 128.131 136.139  1.00  0.00    -0.358 N 
ATOM      5  H   UNL     1     121.361 128.505 135.200  1.00  0.00     0.344 HD
ATOM      6  H   UNL     1     121.812 128.934 136.783  1.00  0.00     0.344 HD
ATOM      7  H   UNL     1     122.500 127.558 136.056  1.00  0.00     0.344 HD
ENDBRANCH   3   4
ENDBRANCH   2   3
ENDBRANCH   1   2
BRANCH   1   8
ATOM      8  C   UNL     1     119.667 130.656 137.756  1.00  0.00     0.072 C 
BRANCH   8   9
ATOM      9  C   UNL     1     120.480 131.734 137.002  1.00  0.00     0.227 C 
BRANCH   9  10
ATOM     10  N   UNL     1     121.918 131.533 137.220  1.00  0.00    -0.350 N 
ATOM     11  H   UNL     1     122.419 132.451 137.258  1.00  0.00     0.345 HD
ATOM     12  H   UNL     1     122.316 130.957 136.442  1.00  0.00     0.345 HD
ATOM     13  H   UNL     1     122.072 131.019 138.119  1.00  0.00     0.345 HD
ENDBRANCH   9  10
BRANCH   9  14
ATOM     14  C   UNL     1     120.179 131.712 135.526  1.00  0.00     0.099 C 
ATOM     15  O   UNL     1     119.745 132.746 134.953  1.00  0.00    -0.544 OA
ATOM     16  O   UNL     1     120.370 130.550 134.788  1.00  0.00    -0.544 OA
ENDBRANCH   9  14
ENDBRANCH   8   9
ENDBRANCH   1   8
TORSDOF 7
ENDMDL
MODEL 8
REMARK VINA RESULT:    -3.555     13.801     14.867
REMARK INTER + INTRA:          -4.922
REMARK INTER:                  -4.767
REMARK INTRA:                  -0.154
REMARK UNBOUND:                -0.119
REMARK SMILES [NH3+]CCCC[C@@H]([NH3+])C(=O)[O-]
REMARK SMILES IDX 4 1 3 2 2 3 1 4 5 8 6 9 7 10 8 14 9 15 10 16
REMARK H PARENT 1 5 1 6 1 7 7 11 7 12 7 13
REMARK Flexibility Score: inf
ROOT
ATOM      1  C   UNL     1     119.116 131.536 137.396  1.00  0.00     0.012 C 
ENDROOT
BRANCH   1   2
ATOM      2  C   UNL     1     119.729 132.047 136.084  1.00  0.00     0.061 C 
BRANCH   2   3
ATOM      3  C   UNL     1     119.096 133.379 135.663  1.00  0.00     0.258 C 
BRANCH   3   4
ATOM      4  N   UNL     1     118.705 133.351 134.253  1.00  0.00    -0.358 N 
ATOM      5  H   UNL     1     119.550 133.450 133.645  1.00  0.00     0.344 HD
ATOM      6  H   UNL     1     118.242 132.438 134.044  1.00  0.00     0.344 HD
ATOM      7  H   UNL     1     118.032 134.126 134.051  1.00  0.00     0.344 HD
ENDBRANCH   3   4
ENDBRANCH   2   3
ENDBRANCH   1   2
BRANCH   1   8
ATOM      8  C   UNL     1     119.982 130.463 138.084  1.00  0.00     0.072 C 
BRANCH   8   9
ATOM      9  C   UNL     1     120.895 129.669 137.122  1.00  0.00     0.227 C 
BRANCH   9  10
ATOM     10  N   UNL     1     122.278 129.671 137.617  1.00  0.00    -0.350 N 
ATOM     11  H   UNL     1     122.923 130.101 136.913  1.00  0.00     0.345 HD
ATOM     12  H   UNL     1     122.586 128.690 137.809  1.00  0.00     0.345 HD
ATOM     13  H   UNL     1     122.334 130.212 138.511  1.00  0.00     0.345 HD
ENDBRANCH   9  10
BRANCH   9  14
ATOM     14  C   UNL     1     120.413 128.251 136.958  1.00  0.00     0.099 C 
ATOM     15  O   UNL     1     120.834 127.547 136.002  1.00  0.00    -0.544 OA
ATOM     16  O   UNL     1     119.496 127.713 137.852  1.00  0.00    -0.544 OA
ENDBRANCH   9  14
ENDBRANCH   8   9
ENDBRANCH   1   8
TORSDOF 7
ENDMDL
MODEL 9
REMARK VINA RESULT:    -3.518     15.259     16.485
REMARK INTER + INTRA:          -4.871
REMARK INTER:                  -4.585
REMARK INTRA:                  -0.287
REMARK UNBOUND:                -0.119
REMARK SMILES [NH3+]CCCC[C@@H]([NH3+])C(=O)[O-]
REMARK SMILES IDX 4 1 3 2 2 3 1 4 5 8 6 9 7 10 8 14 9 15 10 16
REMARK H PARENT 1 5 1 6 1 7 7 11 7 12 7 13
REMARK Flexibility Score: inf
ROOT
ATOM      1  C   UNL     1     137.614 121.298 121.537  1.00  0.00     0.012 C 
ENDROOT
BRANCH   1   2
ATOM      2  C   UNL     1     137.465 122.226 122.751  1.00  0.00     0.061 C 
BRANCH   2   3
ATOM      3  C   UNL     1     138.117 123.589 122.485  1.00  0.00     0.258 C 
BRANCH   3   4
ATOM      4  N   UNL     1     137.103 124.626 122.291  1.00  0.00    -0.358 N 
ATOM      5  H   UNL     1     137.448 125.342 121.611  1.00  0.00     0.344 HD
ATOM      6  H   UNL     1     136.234 124.188 121.911  1.00  0.00     0.344 HD
ATOM      7  H   UNL     1     136.880 125.085 123.204  1.00  0.00     0.344 HD
ENDBRANCH   3   4
ENDBRANCH   2   3
ENDBRANCH   1   2
BRANCH   1   8
ATOM      8  C   UNL     1     136.264 120.951 120.880  1.00  0.00     0.072 C 
BRANCH   8   9
ATOM      9  C   UNL     1     135.958 121.752 119.593  1.00  0.00     0.227 C 
BRANCH   9  10
ATOM     10  N   UNL     1     135.132 122.924 119.909  1.00  0.00    -0.350 N 
ATOM     11  H   UNL     1     135.069 123.066 120.944  1.00  0.00     0.345 HD
ATOM     12  H   UNL     1     134.168 122.793 119.522  1.00  0.00     0.345 HD
ATOM     13  H   UNL     1     135.546 123.779 119.469  1.00  0.00     0.345 HD
ENDBRANCH   9  10
BRANCH   9  14
ATOM     14  C   UNL     1     137.226 122.189 118.907  1.00  0.00     0.099 C 
ATOM     15  O   UNL     1     137.585 123.395 118.952  1.00  0.00    -0.544 OA
ATOM     16  O   UNL     1     138.003 121.268 118.216  1.00  0.00    -0.544 OA
ENDBRANCH   9  14
ENDBRANCH   8   9
ENDBRANCH   1   8
TORSDOF 7
ENDMDL
