MODEL 1
REMARK VINA RESULT:    -2.902      0.000      0.000
REMARK INTER + INTRA:          -3.273
REMARK INTER:                  -3.241
REMARK INTRA:                  -0.032
REMARK UNBOUND:                -0.032
REMARK SMILES CCCC(=O)[O-]
REMARK SMILES IDX 3 1 4 2 5 3 6 4 2 5 1 6
REMARK H PARENT
REMARK Flexibility Score: inf
ROOT
ATOM      1  C   UNL     1      16.276  -6.186  18.196  1.00  0.00     0.052 C 
ENDROOT
BRANCH   1   2
ATOM      2  C   UNL     1      16.344  -6.090  16.704  1.00  0.00     0.041 C 
ATOM      3  O   UNL     1      17.372  -6.481  16.090  1.00  0.00    -0.550 OA
ATOM      4  O   UNL     1      15.253  -5.616  15.988  1.00  0.00    -0.550 OA
ENDBRANCH   1   2
BRANCH   1   5
ATOM      5  C   UNL     1      17.005  -5.005  18.841  1.00  0.00     0.003 C 
ATOM      6  C   UNL     1      16.017  -4.000  19.427  1.00  0.00     0.004 C 
ENDBRANCH   1   5
TORSDOF 2
ENDMDL
MODEL 2
REMARK VINA RESULT:    -2.777      7.362      8.444
REMARK INTER + INTRA:          -3.133
REMARK INTER:                  -3.105
REMARK INTRA:                  -0.029
REMARK UNBOUND:                -0.032
REMARK SMILES CCCC(=O)[O-]
REMARK SMILES IDX 3 1 4 2 5 3 6 4 2 5 1 6
REMARK H PARENT
REMARK Flexibility Score: inf
ROOT
ATOM      1  C   UNL     1      16.028 -12.344  12.249  1.00  0.00     0.052 C 
ENDROOT
BRANCH   1   2
ATOM      2  C   UNL     1      16.251 -10.885  12.493  1.00  0.00     0.041 C 
ATOM      3  O   UNL     1      17.422 -10.427  12.574  1.00  0.00    -0.550 OA
ATOM      4  O   UNL     1      15.167 -10.022  12.584  1.00  0.00    -0.550 OA
ENDBRANCH   1   2
BRANCH   1   5
ATOM      5  C   UNL     1      14.561 -12.611  11.906  1.00  0.00     0.003 C 
ATOM      6  C   UNL     1      13.985 -13.724  12.779  1.00  0.00     0.004 C 
ENDBRANCH   1   5
TORSDOF 2
ENDMDL
MODEL 3
REMARK VINA RESULT:    -2.761      3.956      5.121
REMARK INTER + INTRA:          -3.116
REMARK INTER:                  -3.079
REMARK INTRA:                  -0.037
REMARK UNBOUND:                -0.032
REMARK SMILES CCCC(=O)[O-]
REMARK SMILES IDX 3 1 4 2 5 3 6 4 2 5 1 6
REMARK H PARENT
REMARK Flexibility Score: inf
ROOT
ATOM      1  C   UNL     1      18.101  -7.767  13.334  1.00  0.00     0.052 C 
ENDROOT
BRANCH   1   2
ATOM      2  C   UNL     1      18.142  -9.226  13.663  1.00  0.00     0.041 C 
ATOM      3  O   UNL     1      17.737 -10.076  12.826  1.00  0.00    -0.550 OA
ATOM      4  O   UNL     1      18.672  -9.651  14.874  1.00  0.00    -0.550 OA
ENDBRANCH   1   2
BRANCH   1   5
ATOM      5  C   UNL     1      16.878  -7.108  13.975  1.00  0.00     0.003 C 
ATOM      6  C   UNL     1      17.242  -6.440  15.298  1.00  0.00     0.004 C 
ENDBRANCH   1   5
TORSDOF 2
ENDMDL
MODEL 4
REMARK VINA RESULT:    -2.707      5.585      6.368
REMARK INTER + INTRA:          -3.056
REMARK INTER:                  -3.022
REMARK INTRA:                  -0.034
REMARK UNBOUND:                -0.032
REMARK SMILES CCCC(=O)[O-]
REMARK SMILES IDX 3 1 4 2 5 3 6 4 2 5 1 6
REMARK H PARENT
REMARK Flexibility Score: inf
ROOT
ATOM      1  C   UNL     1      17.373 -10.267  12.706  1.00  0.00     0.052 C 
ENDROOT
BRANCH   1   2
ATOM      2  C   UNL     1      15.908  -9.969  12.653  1.00  0.00     0.041 C 
ATOM      3  O   UNL     1      15.075 -10.906  12.540  1.00  0.00    -0.550 OA
ATOM      4  O   UNL     1      15.460  -8.660  12.776  1.00  0.00    -0.550 OA
ENDBRANCH   1   2
BRANCH   1   5
ATOM      5  C   UNL     1      18.116  -9.166  13.467  1.00  0.00     0.003 C 
ATOM      6  C   UNL     1      18.542  -9.645  14.852  1.00  0.00     0.004 C 
ENDBRANCH   1   5
TORSDOF 2
ENDMDL
MODEL 5
REMARK VINA RESULT:    -2.687      7.169      8.118
REMARK INTER + INTRA:          -3.033
REMARK INTER:                  -3.020
REMARK INTRA:                  -0.013
REMARK UNBOUND:                -0.032
REMARK SMILES CCCC(=O)[O-]
REMARK SMILES IDX 3 1 4 2 5 3 6 4 2 5 1 6
REMARK H PARENT
REMARK Flexibility Score: inf
ROOT
ATOM      1  C   UNL     1      16.185 -11.729  11.980  1.00  0.00     0.052 C 
ENDROOT
BRANCH   1   2
ATOM      2  C   UNL     1      14.899 -12.359  12.410  1.00  0.00     0.041 C 
ATOM      3  O   UNL     1      14.820 -13.609  12.547  1.00  0.00    -0.550 OA
ATOM      4  O   UNL     1      13.800 -11.563  12.708  1.00  0.00    -0.550 OA
ENDBRANCH   1   2
BRANCH   1   5
ATOM      5  C   UNL     1      16.250 -10.272  12.445  1.00  0.00     0.003 C 
ATOM      6  C   UNL     1      17.624  -9.937  13.021  1.00  0.00     0.004 C 
ENDBRANCH   1   5
TORSDOF 2
ENDMDL
MODEL 6
REMARK VINA RESULT:    -2.664      1.196      2.038
REMARK INTER + INTRA:          -3.007
REMARK INTER:                  -2.988
REMARK INTRA:                  -0.020
REMARK UNBOUND:                -0.032
REMARK SMILES CCCC(=O)[O-]
REMARK SMILES IDX 3 1 4 2 5 3 6 4 2 5 1 6
REMARK H PARENT
REMARK Flexibility Score: inf
ROOT
ATOM      1  C   UNL     1      17.303  -6.082  16.647  1.00  0.00     0.052 C 
ENDROOT
BRANCH   1   2
ATOM      2  C   UNL     1      16.779  -6.283  15.260  1.00  0.00     0.041 C 
ATOM      3  O   UNL     1      15.636  -5.857  14.947  1.00  0.00    -0.550 OA
ATOM      4  O   UNL     1      17.572  -6.897  14.300  1.00  0.00    -0.550 OA
ENDBRANCH   1   2
BRANCH   1   5
ATOM      5  C   UNL     1      16.149  -5.870  17.630  1.00  0.00     0.003 C 
ATOM      6  C   UNL     1      16.564  -4.951  18.777  1.00  0.00     0.004 C 
ENDBRANCH   1   5
TORSDOF 2
ENDMDL
MODEL 7
REMARK VINA RESULT:    -2.638      7.355      8.399
REMARK INTER + INTRA:          -2.978
REMARK INTER:                  -2.957
REMARK INTRA:                  -0.021
REMARK UNBOUND:                -0.032
REMARK SMILES CCCC(=O)[O-]
REMARK SMILES IDX 3 1 4 2 5 3 6 4 2 5 1 6
REMARK H PARENT
REMARK Flexibility Score: inf
ROOT
ATOM      1  C   UNL     1      15.910 -12.151  12.245  1.00  0.00     0.052 C 
ENDROOT
BRANCH   1   2
ATOM      2  C   UNL     1      14.509 -12.527  12.613  1.00  0.00     0.041 C 
ATOM      3  O   UNL     1      13.621 -11.640  12.716  1.00  0.00    -0.550 OA
ATOM      4  O   UNL     1      14.173 -13.862  12.794  1.00  0.00    -0.550 OA
ENDBRANCH   1   2
BRANCH   1   5
ATOM      5  C   UNL     1      16.066 -10.628  12.220  1.00  0.00     0.003 C 
ATOM      6  C   UNL     1      17.363 -10.197  12.900  1.00  0.00     0.004 C 
ENDBRANCH   1   5
TORSDOF 2
ENDMDL
MODEL 8
REMARK VINA RESULT:    -2.627      7.489      8.529
REMARK INTER + INTRA:          -2.965
REMARK INTER:                  -2.929
REMARK INTRA:                  -0.037
REMARK UNBOUND:                -0.032
REMARK SMILES CCCC(=O)[O-]
REMARK SMILES IDX 3 1 4 2 5 3 6 4 2 5 1 6
REMARK H PARENT
REMARK Flexibility Score: inf
ROOT
ATOM      1  C   UNL     1      12.687 -11.568  12.112  1.00  0.00     0.052 C 
ENDROOT
BRANCH   1   2
ATOM      2  C   UNL     1      13.260 -10.299  12.660  1.00  0.00     0.041 C 
ATOM      3  O   UNL     1      14.507 -10.139  12.715  1.00  0.00    -0.550 OA
ATOM      4  O   UNL     1      12.415  -9.273  13.064  1.00  0.00    -0.550 OA
ENDBRANCH   1   2
BRANCH   1   5
ATOM      5  C   UNL     1      12.814 -12.698  13.136  1.00  0.00     0.003 C 
ATOM      6  C   UNL     1      13.948 -13.652  12.766  1.00  0.00     0.004 C 
ENDBRANCH   1   5
TORSDOF 2
ENDMDL
MODEL 9
REMARK VINA RESULT:    -2.585      3.966      5.003
REMARK INTER + INTRA:          -2.919
REMARK INTER:                  -2.878
REMARK INTRA:                  -0.040
REMARK UNBOUND:                -0.032
REMARK SMILES CCCC(=O)[O-]
REMARK SMILES IDX 3 1 4 2 5 3 6 4 2 5 1 6
REMARK H PARENT
REMARK Flexibility Score: inf
ROOT
ATOM      1  C   UNL     1      18.135  -7.506  13.315  1.00  0.00     0.052 C 
ENDROOT
BRANCH   1   2
ATOM      2  C   UNL     1      17.055  -6.883  14.142  1.00  0.00     0.041 C 
ATOM      3  O   UNL     1      17.340  -6.300  15.220  1.00  0.00    -0.550 OA
ATOM      4  O   UNL     1      15.740  -6.904  13.697  1.00  0.00    -0.550 OA
ENDBRANCH   1   2
BRANCH   1   5
ATOM      5  C   UNL     1      18.058  -9.033  13.395  1.00  0.00     0.003 C 
ATOM      6  C   UNL     1      18.501  -9.535  14.766  1.00  0.00     0.004 C 
ENDBRANCH   1   5
TORSDOF 2
ENDMDL
