MODEL 1
REMARK VINA RESULT:    -5.635      0.000      0.000
REMARK INTER + INTRA:          -5.965
REMARK INTER:                  -5.965
REMARK INTRA:                   0.000
REMARK UNBOUND:                 0.000
REMARK SMILES O=c1ccc2cc(O)c(O)cc2o1
REMARK SMILES IDX 4 1 3 2 2 3 1 4 13 5 12 6 11 7 9 8 7 9 6 10 5 11 8 12 10 14
REMARK H PARENT 8 13 10 15
REMARK Flexibility Score: inf
ROOT
ATOM      1  C   UNL     1      -2.882  -0.831  -5.959  1.00  0.00     0.019 A 
ATOM      2  C   UNL     1      -2.509  -2.098  -5.513  1.00  0.00     0.094 A 
ATOM      3  C   UNL     1      -3.274  -2.720  -4.519  1.00  0.00     0.336 A 
ATOM      4  O   UNL     1      -2.953  -3.864  -4.104  1.00  0.00    -0.246 OA
ATOM      5  O   UNL     1      -4.341  -2.109  -4.009  1.00  0.00    -0.423 OA
ATOM      6  C   UNL     1      -4.731  -0.900  -4.406  1.00  0.00     0.142 A 
ATOM      7  C   UNL     1      -5.861  -0.307  -3.835  1.00  0.00     0.098 A 
ATOM      8  C   UNL     1      -6.278   0.964  -4.246  1.00  0.00     0.161 A 
ATOM      9  C   UNL     1      -5.558   1.652  -5.241  1.00  0.00     0.158 A 
ATOM     10  C   UNL     1      -4.424   1.061  -5.819  1.00  0.00     0.062 A 
ATOM     11  C   UNL     1      -4.008  -0.212  -5.405  1.00  0.00     0.022 A 
ENDROOT
BRANCH   9  12
ATOM     12  O   UNL     1      -5.972   2.918  -5.653  1.00  0.00    -0.504 OA
ATOM     13  H   UNL     1      -6.719   3.412  -5.178  1.00  0.00     0.293 HD
ENDBRANCH   9  12
BRANCH   8  14
ATOM     14  O   UNL     1      -7.409   1.529  -3.657  1.00  0.00    -0.504 OA
ATOM     15  H   UNL     1      -8.282   1.023  -3.577  1.00  0.00     0.293 HD
ENDBRANCH   8  14
TORSDOF 2
ENDMDL
MODEL 2
REMARK VINA RESULT:    -5.529     15.399     17.374
REMARK INTER + INTRA:          -5.852
REMARK INTER:                  -5.852
REMARK INTRA:                   0.000
REMARK UNBOUND:                 0.000
REMARK SMILES O=c1ccc2cc(O)c(O)cc2o1
REMARK SMILES IDX 4 1 3 2 2 3 1 4 13 5 12 6 11 7 9 8 7 9 6 10 5 11 8 12 10 14
REMARK H PARENT 8 13 10 15
REMARK Flexibility Score: inf
ROOT
ATOM      1  C   UNL     1       2.765  -9.125  10.700  1.00  0.00     0.019 A 
ATOM      2  C   UNL     1       4.142  -9.012  10.512  1.00  0.00     0.094 A 
ATOM      3  C   UNL     1       4.621  -8.446   9.325  1.00  0.00     0.336 A 
ATOM      4  O   UNL     1       5.860  -8.335   9.137  1.00  0.00    -0.246 OA
ATOM      5  O   UNL     1       3.772  -8.023   8.390  1.00  0.00    -0.423 OA
ATOM      6  C   UNL     1       2.452  -8.112   8.529  1.00  0.00     0.142 A 
ATOM      7  C   UNL     1       1.609  -7.651   7.515  1.00  0.00     0.098 A 
ATOM      8  C   UNL     1       0.219  -7.741   7.652  1.00  0.00     0.161 A 
ATOM      9  C   UNL     1      -0.336  -8.299   8.819  1.00  0.00     0.158 A 
ATOM     10  C   UNL     1       0.505  -8.763   9.842  1.00  0.00     0.062 A 
ATOM     11  C   UNL     1       1.897  -8.672   9.701  1.00  0.00     0.022 A 
ENDROOT
BRANCH   9  12
ATOM     12  O   UNL     1      -1.721  -8.389   8.959  1.00  0.00    -0.504 OA
ATOM     13  H   UNL     1      -2.300  -7.563   9.052  1.00  0.00     0.293 HD
ENDBRANCH   9  12
BRANCH   8  14
ATOM     14  O   UNL     1      -0.596  -7.272   6.622  1.00  0.00    -0.504 OA
ATOM     15  H   UNL     1      -1.211  -7.884   6.102  1.00  0.00     0.293 HD
ENDBRANCH   8  14
TORSDOF 2
ENDMDL
MODEL 3
REMARK VINA RESULT:    -5.511      1.301      5.076
REMARK INTER + INTRA:          -5.833
REMARK INTER:                  -5.833
REMARK INTRA:                   0.000
REMARK UNBOUND:                 0.000
REMARK SMILES O=c1ccc2cc(O)c(O)cc2o1
REMARK SMILES IDX 4 1 3 2 2 3 1 4 13 5 12 6 11 7 9 8 7 9 6 10 5 11 8 12 10 14
REMARK H PARENT 8 13 10 15
REMARK Flexibility Score: inf
ROOT
ATOM      1  C   UNL     1      -6.236  -0.888  -3.770  1.00  0.00     0.019 A 
ATOM      2  C   UNL     1      -6.456   0.482  -3.901  1.00  0.00     0.094 A 
ATOM      3  C   UNL     1      -5.483   1.269  -4.527  1.00  0.00     0.336 A 
ATOM      4  O   UNL     1      -5.664   2.508  -4.655  1.00  0.00    -0.246 OA
ATOM      5  O   UNL     1      -4.364   0.715  -4.989  1.00  0.00    -0.423 OA
ATOM      6  C   UNL     1      -4.115  -0.588  -4.885  1.00  0.00     0.142 A 
ATOM      7  C   UNL     1      -2.922  -1.114  -5.390  1.00  0.00     0.098 A 
ATOM      8  C   UNL     1      -2.651  -2.483  -5.285  1.00  0.00     0.161 A 
ATOM      9  C   UNL     1      -3.584  -3.338  -4.667  1.00  0.00     0.158 A 
ATOM     10  C   UNL     1      -4.783  -2.815  -4.159  1.00  0.00     0.062 A 
ATOM     11  C   UNL     1      -5.051  -1.444  -4.266  1.00  0.00     0.022 A 
ENDROOT
BRANCH   9  12
ATOM     12  O   UNL     1      -3.317  -4.702  -4.561  1.00  0.00    -0.504 OA
ATOM     13  H   UNL     1      -4.034  -5.398  -4.730  1.00  0.00     0.293 HD
ENDBRANCH   9  12
BRANCH   8  14
ATOM     14  O   UNL     1      -1.453  -2.978  -5.798  1.00  0.00    -0.504 OA
ATOM     15  H   UNL     1      -0.557  -2.758  -5.380  1.00  0.00     0.293 HD
ENDBRANCH   8  14
TORSDOF 2
ENDMDL
MODEL 4
REMARK VINA RESULT:    -5.453     14.324     15.909
REMARK INTER + INTRA:          -5.772
REMARK INTER:                  -5.772
REMARK INTRA:                   0.000
REMARK UNBOUND:                 0.000
REMARK SMILES O=c1ccc2cc(O)c(O)cc2o1
REMARK SMILES IDX 4 1 3 2 2 3 1 4 13 5 12 6 11 7 9 8 7 9 6 10 5 11 8 12 10 14
REMARK H PARENT 8 13 10 15
REMARK Flexibility Score: inf
ROOT
ATOM      1  C   UNL     1       3.337  -8.999   6.615  1.00  0.00     0.019 A 
ATOM      2  C   UNL     1       3.260  -9.124   5.228  1.00  0.00     0.094 A 
ATOM      3  C   UNL     1       2.034  -8.892   4.593  1.00  0.00     0.336 A 
ATOM      4  O   UNL     1       1.945  -9.000   3.342  1.00  0.00    -0.246 OA
ATOM      5  O   UNL     1       0.960  -8.558   5.304  1.00  0.00    -0.423 OA
ATOM      6  C   UNL     1       0.990  -8.428   6.628  1.00  0.00     0.142 A 
ATOM      7  C   UNL     1      -0.171  -8.074   7.322  1.00  0.00     0.098 A 
ATOM      8  C   UNL     1      -0.149  -7.936   8.715  1.00  0.00     0.161 A 
ATOM      9  C   UNL     1       1.048  -8.153   9.423  1.00  0.00     0.158 A 
ATOM     10  C   UNL     1       2.216  -8.507   8.731  1.00  0.00     0.062 A 
ATOM     11  C   UNL     1       2.191  -8.646   7.337  1.00  0.00     0.022 A 
ENDROOT
BRANCH   9  12
ATOM     12  O   UNL     1       1.073  -8.015  10.810  1.00  0.00    -0.504 OA
ATOM     13  H   UNL     1       0.582  -8.662  11.417  1.00  0.00     0.293 HD
ENDBRANCH   9  12
BRANCH   8  14
ATOM     14  O   UNL     1      -1.323  -7.581   9.379  1.00  0.00    -0.504 OA
ATOM     15  H   UNL     1      -1.538  -7.919  10.308  1.00  0.00     0.293 HD
ENDBRANCH   8  14
TORSDOF 2
ENDMDL
MODEL 5
REMARK VINA RESULT:    -5.402      1.760      5.440
REMARK INTER + INTRA:          -5.718
REMARK INTER:                  -5.718
REMARK INTRA:                   0.000
REMARK UNBOUND:                 0.000
REMARK SMILES O=c1ccc2cc(O)c(O)cc2o1
REMARK SMILES IDX 4 1 3 2 2 3 1 4 13 5 12 6 11 7 9 8 7 9 6 10 5 11 8 12 10 14
REMARK H PARENT 8 13 10 15
REMARK Flexibility Score: inf
ROOT
ATOM      1  C   UNL     1      -7.998   1.885  -4.261  1.00  0.00     0.019 A 
ATOM      2  C   UNL     1      -8.191   3.099  -4.918  1.00  0.00     0.094 A 
ATOM      3  C   UNL     1      -7.176   3.592  -5.746  1.00  0.00     0.336 A 
ATOM      4  O   UNL     1      -7.333   4.686  -6.348  1.00  0.00    -0.246 OA
ATOM      5  O   UNL     1      -6.044   2.910  -5.903  1.00  0.00    -0.423 OA
ATOM      6  C   UNL     1      -5.818   1.748  -5.294  1.00  0.00     0.142 A 
ATOM      7  C   UNL     1      -4.610   1.075  -5.497  1.00  0.00     0.098 A 
ATOM      8  C   UNL     1      -4.364  -0.147  -4.861  1.00  0.00     0.161 A 
ATOM      9  C   UNL     1      -5.339  -0.705  -4.012  1.00  0.00     0.158 A 
ATOM     10  C   UNL     1      -6.554  -0.035  -3.807  1.00  0.00     0.062 A 
ATOM     11  C   UNL     1      -6.797   1.189  -4.444  1.00  0.00     0.022 A 
ENDROOT
BRANCH   9  12
ATOM     12  O   UNL     1      -5.097  -1.923  -3.378  1.00  0.00    -0.504 OA
ATOM     13  H   UNL     1      -5.854  -2.499  -3.027  1.00  0.00     0.293 HD
ENDBRANCH   9  12
BRANCH   8  14
ATOM     14  O   UNL     1      -3.149  -0.794  -5.083  1.00  0.00    -0.504 OA
ATOM     15  H   UNL     1      -2.488  -0.471  -5.779  1.00  0.00     0.293 HD
ENDBRANCH   8  14
TORSDOF 2
ENDMDL
MODEL 6
REMARK VINA RESULT:    -5.397      1.782      5.022
REMARK INTER + INTRA:          -5.712
REMARK INTER:                  -5.712
REMARK INTRA:                   0.000
REMARK UNBOUND:                 0.000
REMARK SMILES O=c1ccc2cc(O)c(O)cc2o1
REMARK SMILES IDX 4 1 3 2 2 3 1 4 13 5 12 6 11 7 9 8 7 9 6 10 5 11 8 12 10 14
REMARK H PARENT 8 13 10 15
REMARK Flexibility Score: inf
ROOT
ATOM      1  C   UNL     1      -6.308   2.888  -5.836  1.00  0.00     0.019 A 
ATOM      2  C   UNL     1      -7.543   3.473  -5.562  1.00  0.00     0.094 A 
ATOM      3  C   UNL     1      -8.419   2.829  -4.682  1.00  0.00     0.336 A 
ATOM      4  O   UNL     1      -9.539   3.342  -4.422  1.00  0.00    -0.246 OA
ATOM      5  O   UNL     1      -8.076   1.675  -4.114  1.00  0.00    -0.423 OA
ATOM      6  C   UNL     1      -6.907   1.082  -4.348  1.00  0.00     0.142 A 
ATOM      7  C   UNL     1      -6.601  -0.129  -3.722  1.00  0.00     0.098 A 
ATOM      8  C   UNL     1      -5.374  -0.760  -3.962  1.00  0.00     0.161 A 
ATOM      9  C   UNL     1      -4.442  -0.171  -4.837  1.00  0.00     0.158 A 
ATOM     10  C   UNL     1      -4.744   1.045  -5.466  1.00  0.00     0.062 A 
ATOM     11  C   UNL     1      -5.973   1.674  -5.225  1.00  0.00     0.022 A 
ENDROOT
BRANCH   9  12
ATOM     12  O   UNL     1      -3.219  -0.797  -5.077  1.00  0.00    -0.504 OA
ATOM     13  H   UNL     1      -2.700  -1.251  -4.334  1.00  0.00     0.293 HD
ENDBRANCH   9  12
BRANCH   8  14
ATOM     14  O   UNL     1      -5.098  -1.968  -3.323  1.00  0.00    -0.504 OA
ATOM     15  H   UNL     1      -5.831  -2.558  -2.948  1.00  0.00     0.293 HD
ENDBRANCH   8  14
TORSDOF 2
ENDMDL
MODEL 7
REMARK VINA RESULT:    -5.356      1.667      2.400
REMARK INTER + INTRA:          -5.669
REMARK INTER:                  -5.669
REMARK INTRA:                   0.000
REMARK UNBOUND:                 0.000
REMARK SMILES O=c1ccc2cc(O)c(O)cc2o1
REMARK SMILES IDX 4 1 3 2 2 3 1 4 13 5 12 6 11 7 9 8 7 9 6 10 5 11 8 12 10 14
REMARK H PARENT 8 13 10 15
REMARK Flexibility Score: inf
ROOT
ATOM      1  C   UNL     1      -2.119  -3.401  -5.986  1.00  0.00     0.019 A 
ATOM      2  C   UNL     1      -2.242  -4.730  -5.582  1.00  0.00     0.094 A 
ATOM      3  C   UNL     1      -3.224  -5.066  -4.643  1.00  0.00     0.336 A 
ATOM      4  O   UNL     1      -3.351  -6.260  -4.267  1.00  0.00    -0.246 OA
ATOM      5  O   UNL     1      -4.027  -4.129  -4.143  1.00  0.00    -0.423 OA
ATOM      6  C   UNL     1      -3.943  -2.849  -4.501  1.00  0.00     0.142 A 
ATOM      7  C   UNL     1      -4.814  -1.909  -3.944  1.00  0.00     0.098 A 
ATOM      8  C   UNL     1      -4.732  -0.562  -4.314  1.00  0.00     0.161 A 
ATOM      9  C   UNL     1      -3.769  -0.148  -5.253  1.00  0.00     0.158 A 
ATOM     10  C   UNL     1      -2.893  -1.089  -5.817  1.00  0.00     0.062 A 
ATOM     11  C   UNL     1      -2.976  -2.437  -5.444  1.00  0.00     0.022 A 
ENDROOT
BRANCH   9  12
ATOM     12  O   UNL     1      -3.686   1.193  -5.624  1.00  0.00    -0.504 OA
ATOM     13  H   UNL     1      -3.186   1.484  -6.456  1.00  0.00     0.293 HD
ENDBRANCH   9  12
BRANCH   8  14
ATOM     14  O   UNL     1      -5.615   0.353  -3.740  1.00  0.00    -0.504 OA
ATOM     15  H   UNL     1      -5.453   0.755  -2.825  1.00  0.00     0.293 HD
ENDBRANCH   8  14
TORSDOF 2
ENDMDL
MODEL 8
REMARK VINA RESULT:    -5.255      2.382      4.049
REMARK INTER + INTRA:          -5.562
REMARK INTER:                  -5.562
REMARK INTRA:                   0.000
REMARK UNBOUND:                 0.000
REMARK SMILES O=c1ccc2cc(O)c(O)cc2o1
REMARK SMILES IDX 4 1 3 2 2 3 1 4 13 5 12 6 11 7 9 8 7 9 6 10 5 11 8 12 10 14
REMARK H PARENT 8 13 10 15
REMARK Flexibility Score: inf
ROOT
ATOM      1  C   UNL     1      -2.918  -5.271  -4.917  1.00  0.00     0.019 A 
ATOM      2  C   UNL     1      -1.844  -5.715  -5.688  1.00  0.00     0.094 A 
ATOM      3  C   UNL     1      -1.081  -4.776  -6.392  1.00  0.00     0.336 A 
ATOM      4  O   UNL     1      -0.108  -5.158  -7.093  1.00  0.00    -0.246 OA
ATOM      5  O   UNL     1      -1.377  -3.480  -6.325  1.00  0.00    -0.423 OA
ATOM      6  C   UNL     1      -2.392  -3.015  -5.601  1.00  0.00     0.142 A 
ATOM      7  C   UNL     1      -2.655  -1.643  -5.567  1.00  0.00     0.098 A 
ATOM      8  C   UNL     1      -3.721  -1.144  -4.809  1.00  0.00     0.161 A 
ATOM      9  C   UNL     1      -4.534  -2.028  -4.074  1.00  0.00     0.158 A 
ATOM     10  C   UNL     1      -4.273  -3.406  -4.104  1.00  0.00     0.062 A 
ATOM     11  C   UNL     1      -3.206  -3.903  -4.864  1.00  0.00     0.022 A 
ENDROOT
BRANCH   9  12
ATOM     12  O   UNL     1      -5.596  -1.534  -3.318  1.00  0.00    -0.504 OA
ATOM     13  H   UNL     1      -6.149  -2.138  -2.720  1.00  0.00     0.293 HD
ENDBRANCH   9  12
BRANCH   8  14
ATOM     14  O   UNL     1      -3.958   0.230  -4.796  1.00  0.00    -0.504 OA
ATOM     15  H   UNL     1      -4.523   0.671  -4.081  1.00  0.00     0.293 HD
ENDBRANCH   8  14
TORSDOF 2
ENDMDL
MODEL 9
REMARK VINA RESULT:    -5.031     15.524     17.361
REMARK INTER + INTRA:          -5.325
REMARK INTER:                  -5.325
REMARK INTRA:                   0.000
REMARK UNBOUND:                 0.000
REMARK SMILES O=c1ccc2cc(O)c(O)cc2o1
REMARK SMILES IDX 4 1 3 2 2 3 1 4 13 5 12 6 11 7 9 8 7 9 6 10 5 11 8 12 10 14
REMARK H PARENT 8 13 10 15
REMARK Flexibility Score: inf
ROOT
ATOM      1  C   UNL     1       3.807  -7.881   8.498  1.00  0.00     0.019 A 
ATOM      2  C   UNL     1       4.575  -8.268   9.596  1.00  0.00     0.094 A 
ATOM      3  C   UNL     1       3.930  -8.771  10.732  1.00  0.00     0.336 A 
ATOM      4  O   UNL     1       4.607  -9.125  11.732  1.00  0.00    -0.246 OA
ATOM      5  O   UNL     1       2.604  -8.878  10.761  1.00  0.00    -0.423 OA
ATOM      6  C   UNL     1       1.834  -8.521   9.736  1.00  0.00     0.142 A 
ATOM      7  C   UNL     1       0.446  -8.657   9.824  1.00  0.00     0.098 A 
ATOM      8  C   UNL     1      -0.372  -8.283   8.751  1.00  0.00     0.161 A 
ATOM      9  C   UNL     1       0.205  -7.768   7.574  1.00  0.00     0.158 A 
ATOM     10  C   UNL     1       1.598  -7.631   7.481  1.00  0.00     0.062 A 
ATOM     11  C   UNL     1       2.414  -8.005   8.557  1.00  0.00     0.022 A 
ENDROOT
BRANCH   9  12
ATOM     12  O   UNL     1      -0.607  -7.396   6.504  1.00  0.00    -0.504 OA
ATOM     13  H   UNL     1      -1.375  -7.980   6.193  1.00  0.00     0.293 HD
ENDBRANCH   9  12
BRANCH   8  14
ATOM     14  O   UNL     1      -1.754  -8.431   8.869  1.00  0.00    -0.504 OA
ATOM     15  H   UNL     1      -2.170  -9.132   9.468  1.00  0.00     0.293 HD
ENDBRANCH   8  14
TORSDOF 2
ENDMDL
