MODEL 1
REMARK VINA RESULT:    -3.907      0.000      0.000
REMARK INTER + INTRA:          -5.890
REMARK INTER:                  -5.278
REMARK INTRA:                  -0.612
REMARK UNBOUND:                -0.612
REMARK SMILES O=C[C@H](O)[C@@H](O)[C@@H](O)CO
REMARK SMILES IDX 7 1 9 2 10 3 5 5 3 6 2 7 1 8 4 9 6 11 8 13
REMARK H PARENT 10 4 4 10 6 12 8 14
REMARK Flexibility Score: inf
ROOT
ATOM      1  C   UNL     1      26.024  26.728  22.575  1.00  0.00     0.171 C 
ENDROOT
BRANCH   1   2
ATOM      2  C   UNL     1      25.379  27.679  23.600  1.00  0.00     0.190 C 
BRANCH   2   3
ATOM      3  O   UNL     1      25.120  28.926  23.018  1.00  0.00    -0.394 OA
ATOM      4  H   UNL     1      25.149  28.783  22.036  1.00  0.00     0.210 HD
ENDBRANCH   2   3
ENDBRANCH   1   2
BRANCH   1   5
ATOM      5  C   UNL     1      27.554  26.594  22.799  1.00  0.00     0.181 C 
BRANCH   5   6
ATOM      6  C   UNL     1      28.294  26.124  21.517  1.00  0.00     0.209 C 
BRANCH   6   7
ATOM      7  C   UNL     1      29.588  26.861  21.311  1.00  0.00     0.258 C 
ATOM      8  O   UNL     1      30.531  26.686  22.067  1.00  0.00    -0.300 OA
ENDBRANCH   6   7
BRANCH   6   9
ATOM      9  O   UNL     1      27.487  26.335  20.387  1.00  0.00    -0.383 OA
ATOM     10  H   UNL     1      26.843  27.055  20.616  1.00  0.00     0.211 HD
ENDBRANCH   6   9
ENDBRANCH   5   6
BRANCH   5  11
ATOM     11  O   UNL     1      28.070  27.844  23.188  1.00  0.00    -0.387 OA
ATOM     12  H   UNL     1      27.440  28.537  22.860  1.00  0.00     0.211 HD
ENDBRANCH   5  11
ENDBRANCH   1   5
BRANCH   1  13
ATOM     13  O   UNL     1      25.418  25.467  22.692  1.00  0.00    -0.388 OA
ATOM     14  H   UNL     1      25.125  25.371  23.636  1.00  0.00     0.211 HD
ENDBRANCH   1  13
TORSDOF 8
ENDMDL
MODEL 2
REMARK VINA RESULT:    -3.906      6.356      7.786
REMARK INTER + INTRA:          -5.887
REMARK INTER:                  -5.321
REMARK INTRA:                  -0.567
REMARK UNBOUND:                -0.612
REMARK SMILES O=C[C@H](O)[C@@H](O)[C@@H](O)CO
REMARK SMILES IDX 7 1 9 2 10 3 5 5 3 6 2 7 1 8 4 9 6 11 8 13
REMARK H PARENT 10 4 4 10 6 12 8 14
REMARK Flexibility Score: inf
ROOT
ATOM      1  C   UNL     1      21.882  21.479  22.708  1.00  0.00     0.171 C 
ENDROOT
BRANCH   1   2
ATOM      2  C   UNL     1      23.044  21.432  21.699  1.00  0.00     0.190 C 
BRANCH   2   3
ATOM      3  O   UNL     1      24.144  22.150  22.185  1.00  0.00    -0.394 OA
ATOM      4  H   UNL     1      24.502  22.661  21.414  1.00  0.00     0.210 HD
ENDBRANCH   2   3
ENDBRANCH   1   2
BRANCH   1   5
ATOM      5  C   UNL     1      21.415  22.934  22.981  1.00  0.00     0.181 C 
BRANCH   5   6
ATOM      6  C   UNL     1      21.814  23.420  24.400  1.00  0.00     0.209 C 
BRANCH   6   7
ATOM      7  C   UNL     1      20.747  24.278  25.022  1.00  0.00     0.258 C 
ATOM      8  O   UNL     1      19.980  24.921  24.323  1.00  0.00    -0.300 OA
ENDBRANCH   6   7
BRANCH   6   9
ATOM      9  O   UNL     1      22.998  24.173  24.340  1.00  0.00    -0.383 OA
ATOM     10  H   UNL     1      23.640  23.665  23.778  1.00  0.00     0.211 HD
ENDBRANCH   6   9
ENDBRANCH   5   6
BRANCH   5  11
ATOM     11  O   UNL     1      22.000  23.787  22.027  1.00  0.00    -0.387 OA
ATOM     12  H   UNL     1      22.861  23.376  21.754  1.00  0.00     0.211 HD
ENDBRANCH   5  11
ENDBRANCH   1   5
BRANCH   1  13
ATOM     13  O   UNL     1      20.812  20.729  22.193  1.00  0.00    -0.388 OA
ATOM     14  H   UNL     1      20.012  20.949  22.739  1.00  0.00     0.211 HD
ENDBRANCH   1  13
TORSDOF 8
ENDMDL
MODEL 3
REMARK VINA RESULT:    -3.811     10.057     11.833
REMARK INTER + INTRA:          -5.760
REMARK INTER:                  -5.227
REMARK INTRA:                  -0.533
REMARK UNBOUND:                -0.612
REMARK SMILES O=C[C@H](O)[C@@H](O)[C@@H](O)CO
REMARK SMILES IDX 7 1 9 2 10 3 5 5 3 6 2 7 1 8 4 9 6 11 8 13
REMARK H PARENT 10 4 4 10 6 12 8 14
REMARK Flexibility Score: inf
ROOT
ATOM      1  C   UNL     1      20.740  18.522  22.183  1.00  0.00     0.171 C 
ENDROOT
BRANCH   1   2
ATOM      2  C   UNL     1      21.147  19.992  21.972  1.00  0.00     0.190 C 
BRANCH   2   3
ATOM      3  O   UNL     1      22.182  20.345  22.847  1.00  0.00    -0.394 OA
ATOM      4  H   UNL     1      21.753  20.820  23.605  1.00  0.00     0.210 HD
ENDBRANCH   2   3
ENDBRANCH   1   2
BRANCH   1   5
ATOM      5  C   UNL     1      19.654  18.378  23.283  1.00  0.00     0.181 C 
BRANCH   5   6
ATOM      6  C   UNL     1      19.359  16.892  23.623  1.00  0.00     0.209 C 
BRANCH   6   7
ATOM      7  C   UNL     1      20.598  16.155  24.050  1.00  0.00     0.258 C 
ATOM      8  O   UNL     1      20.638  15.576  25.125  1.00  0.00    -0.300 OA
ENDBRANCH   6   7
BRANCH   6   9
ATOM      9  O   UNL     1      18.826  16.235  22.502  1.00  0.00    -0.383 OA
ATOM     10  H   UNL     1      18.335  16.915  21.969  1.00  0.00     0.211 HD
ENDBRANCH   6   9
ENDBRANCH   5   6
BRANCH   5  11
ATOM     11  O   UNL     1      20.096  19.031  24.449  1.00  0.00    -0.387 OA
ATOM     12  H   UNL     1      21.013  19.366  24.269  1.00  0.00     0.211 HD
ENDBRANCH   5  11
ENDBRANCH   1   5
BRANCH   1  13
ATOM     13  O   UNL     1      20.251  18.015  20.968  1.00  0.00    -0.388 OA
ATOM     14  H   UNL     1      19.307  17.748  21.124  1.00  0.00     0.211 HD
ENDBRANCH   1  13
TORSDOF 8
ENDMDL
MODEL 4
REMARK VINA RESULT:    -3.763      1.047      1.688
REMARK INTER + INTRA:          -5.695
REMARK INTER:                  -5.126
REMARK INTRA:                  -0.569
REMARK UNBOUND:                -0.612
REMARK SMILES O=C[C@H](O)[C@@H](O)[C@@H](O)CO
REMARK SMILES IDX 7 1 9 2 10 3 5 5 3 6 2 7 1 8 4 9 6 11 8 13
REMARK H PARENT 10 4 4 10 6 12 8 14
REMARK Flexibility Score: inf
ROOT
ATOM      1  C   UNL     1      26.674  26.881  23.639  1.00  0.00     0.171 C 
ENDROOT
BRANCH   1   2
ATOM      2  C   UNL     1      25.913  25.544  23.707  1.00  0.00     0.190 C 
BRANCH   2   3
ATOM      3  O   UNL     1      25.023  25.431  22.631  1.00  0.00    -0.394 OA
ATOM      4  H   UNL     1      25.315  24.635  22.115  1.00  0.00     0.210 HD
ENDBRANCH   2   3
ENDBRANCH   1   2
BRANCH   1   5
ATOM      5  C   UNL     1      28.144  26.684  23.181  1.00  0.00     0.181 C 
BRANCH   5   6
ATOM      6  C   UNL     1      28.247  25.785  21.919  1.00  0.00     0.209 C 
BRANCH   6   7
ATOM      7  C   UNL     1      29.672  25.598  21.476  1.00  0.00     0.258 C 
ATOM      8  O   UNL     1      30.587  25.659  22.283  1.00  0.00    -0.300 OA
ENDBRANCH   6   7
BRANCH   6   9
ATOM      9  O   UNL     1      27.532  26.358  20.855  1.00  0.00    -0.383 OA
ATOM     10  H   UNL     1      28.194  26.608  20.158  1.00  0.00     0.211 HD
ENDBRANCH   6   9
ENDBRANCH   5   6
BRANCH   5  11
ATOM     11  O   UNL     1      28.704  27.941  22.889  1.00  0.00    -0.387 OA
ATOM     12  H   UNL     1      29.137  27.871  21.999  1.00  0.00     0.211 HD
ENDBRANCH   5  11
ENDBRANCH   1   5
BRANCH   1  13
ATOM     13  O   UNL     1      26.008  27.729  22.739  1.00  0.00    -0.388 OA
ATOM     14  H   UNL     1      25.881  28.600  23.200  1.00  0.00     0.211 HD
ENDBRANCH   1  13
TORSDOF 8
ENDMDL
MODEL 5
REMARK VINA RESULT:    -3.699      2.531      4.110
REMARK INTER + INTRA:          -5.609
REMARK INTER:                  -5.104
REMARK INTRA:                  -0.505
REMARK UNBOUND:                -0.612
REMARK SMILES O=C[C@H](O)[C@@H](O)[C@@H](O)CO
REMARK SMILES IDX 7 1 9 2 10 3 5 5 3 6 2 7 1 8 4 9 6 11 8 13
REMARK H PARENT 10 4 4 10 6 12 8 14
REMARK Flexibility Score: inf
ROOT
ATOM      1  C   UNL     1      25.460  25.131  22.979  1.00  0.00     0.171 C 
ENDROOT
BRANCH   1   2
ATOM      2  C   UNL     1      24.362  24.064  23.150  1.00  0.00     0.190 C 
BRANCH   2   3
ATOM      3  O   UNL     1      24.630  22.951  22.343  1.00  0.00    -0.394 OA
ATOM      4  H   UNL     1      23.748  22.557  22.116  1.00  0.00     0.210 HD
ENDBRANCH   2   3
ENDBRANCH   1   2
BRANCH   1   5
ATOM      5  C   UNL     1      25.572  26.046  24.228  1.00  0.00     0.181 C 
BRANCH   5   6
ATOM      6  C   UNL     1      26.329  27.366  23.919  1.00  0.00     0.209 C 
BRANCH   6   7
ATOM      7  C   UNL     1      25.525  28.578  24.303  1.00  0.00     0.258 C 
ATOM      8  O   UNL     1      24.745  29.084  23.510  1.00  0.00    -0.300 OA
ENDBRANCH   6   7
BRANCH   6   9
ATOM      9  O   UNL     1      26.617  27.451  22.547  1.00  0.00    -0.383 OA
ATOM     10  H   UNL     1      27.328  26.785  22.355  1.00  0.00     0.211 HD
ENDBRANCH   6   9
ENDBRANCH   5   6
BRANCH   5  11
ATOM     11  O   UNL     1      24.278  26.359  24.682  1.00  0.00    -0.387 OA
ATOM     12  H   UNL     1      23.655  26.203  23.926  1.00  0.00     0.211 HD
ENDBRANCH   5  11
ENDBRANCH   1   5
BRANCH   1  13
ATOM     13  O   UNL     1      26.684  24.480  22.759  1.00  0.00    -0.388 OA
ATOM     14  H   UNL     1      27.403  25.139  22.949  1.00  0.00     0.211 HD
ENDBRANCH   1  13
TORSDOF 8
ENDMDL
MODEL 6
REMARK VINA RESULT:    -3.684     10.440     12.115
REMARK INTER + INTRA:          -5.588
REMARK INTER:                  -5.089
REMARK INTRA:                  -0.499
REMARK UNBOUND:                -0.612
REMARK SMILES O=C[C@H](O)[C@@H](O)[C@@H](O)CO
REMARK SMILES IDX 7 1 9 2 10 3 5 5 3 6 2 7 1 8 4 9 6 11 8 13
REMARK H PARENT 10 4 4 10 6 12 8 14
REMARK Flexibility Score: inf
ROOT
ATOM      1  C   UNL     1      20.121  16.418  23.655  1.00  0.00     0.171 C 
ENDROOT
BRANCH   1   2
ATOM      2  C   UNL     1      19.916  16.965  25.080  1.00  0.00     0.190 C 
BRANCH   2   3
ATOM      3  O   UNL     1      19.966  18.365  25.080  1.00  0.00    -0.394 OA
ATOM      4  H   UNL     1      20.924  18.607  24.985  1.00  0.00     0.210 HD
ENDBRANCH   2   3
ENDBRANCH   1   2
BRANCH   1   5
ATOM      5  C   UNL     1      19.264  17.187  22.614  1.00  0.00     0.181 C 
BRANCH   5   6
ATOM      6  C   UNL     1      20.135  17.845  21.510  1.00  0.00     0.209 C 
BRANCH   6   7
ATOM      7  C   UNL     1      20.308  19.322  21.735  1.00  0.00     0.258 C 
ATOM      8  O   UNL     1      21.093  19.736  22.574  1.00  0.00    -0.300 OA
ENDBRANCH   6   7
BRANCH   6   9
ATOM      9  O   UNL     1      19.541  17.663  20.251  1.00  0.00    -0.383 OA
ATOM     10  H   UNL     1      18.654  17.240  20.403  1.00  0.00     0.211 HD
ENDBRANCH   6   9
ENDBRANCH   5   6
BRANCH   5  11
ATOM     11  O   UNL     1      18.366  16.288  22.009  1.00  0.00    -0.387 OA
ATOM     12  H   UNL     1      17.509  16.771  21.880  1.00  0.00     0.211 HD
ENDBRANCH   5  11
ENDBRANCH   1   5
BRANCH   1  13
ATOM     13  O   UNL     1      21.481  16.533  23.324  1.00  0.00    -0.388 OA
ATOM     14  H   UNL     1      21.999  16.167  24.089  1.00  0.00     0.211 HD
ENDBRANCH   1  13
TORSDOF 8
ENDMDL
MODEL 7
REMARK VINA RESULT:    -3.601      1.541      2.171
REMARK INTER + INTRA:          -5.475
REMARK INTER:                  -4.997
REMARK INTRA:                  -0.478
REMARK UNBOUND:                -0.612
REMARK SMILES O=C[C@H](O)[C@@H](O)[C@@H](O)CO
REMARK SMILES IDX 7 1 9 2 10 3 5 5 3 6 2 7 1 8 4 9 6 11 8 13
REMARK H PARENT 10 4 4 10 6 12 8 14
REMARK Flexibility Score: inf
ROOT
ATOM      1  C   UNL     1      25.628  25.500  23.155  1.00  0.00     0.171 C 
ENDROOT
BRANCH   1   2
ATOM      2  C   UNL     1      24.970  25.317  24.535  1.00  0.00     0.190 C 
BRANCH   2   3
ATOM      3  O   UNL     1      23.840  24.495  24.435  1.00  0.00    -0.394 OA
ATOM      4  H   UNL     1      23.634  24.196  25.358  1.00  0.00     0.210 HD
ENDBRANCH   2   3
ENDBRANCH   1   2
BRANCH   1   5
ATOM      5  C   UNL     1      26.706  26.617  23.175  1.00  0.00     0.181 C 
BRANCH   5   6
ATOM      6  C   UNL     1      27.899  26.295  22.235  1.00  0.00     0.209 C 
BRANCH   6   7
ATOM      7  C   UNL     1      29.037  27.260  22.420  1.00  0.00     0.258 C 
ATOM      8  O   UNL     1      29.049  28.035  23.364  1.00  0.00    -0.300 OA
ENDBRANCH   6   7
BRANCH   6   9
ATOM      9  O   UNL     1      27.489  26.357  20.893  1.00  0.00    -0.383 OA
ATOM     10  H   UNL     1      26.959  25.537  20.710  1.00  0.00     0.211 HD
ENDBRANCH   6   9
ENDBRANCH   5   6
BRANCH   5  11
ATOM     11  O   UNL     1      26.117  27.827  22.764  1.00  0.00    -0.387 OA
ATOM     12  H   UNL     1      26.608  28.134  21.958  1.00  0.00     0.211 HD
ENDBRANCH   5  11
ENDBRANCH   1   5
BRANCH   1  13
ATOM     13  O   UNL     1      26.216  24.283  22.776  1.00  0.00    -0.388 OA
ATOM     14  H   UNL     1      25.647  23.896  22.059  1.00  0.00     0.211 HD
ENDBRANCH   1  13
TORSDOF 8
ENDMDL
MODEL 8
REMARK VINA RESULT:    -3.595      9.694     11.387
REMARK INTER + INTRA:          -5.468
REMARK INTER:                  -4.943
REMARK INTRA:                  -0.525
REMARK UNBOUND:                -0.612
REMARK SMILES O=C[C@H](O)[C@@H](O)[C@@H](O)CO
REMARK SMILES IDX 7 1 9 2 10 3 5 5 3 6 2 7 1 8 4 9 6 11 8 13
REMARK H PARENT 10 4 4 10 6 12 8 14
REMARK Flexibility Score: inf
ROOT
ATOM      1  C   UNL     1      19.235  17.265  22.700  1.00  0.00     0.171 C 
ENDROOT
BRANCH   1   2
ATOM      2  C   UNL     1      19.664  16.202  23.729  1.00  0.00     0.190 C 
BRANCH   2   3
ATOM      3  O   UNL     1      20.212  16.812  24.864  1.00  0.00    -0.394 OA
ATOM      4  H   UNL     1      21.098  17.164  24.587  1.00  0.00     0.210 HD
ENDBRANCH   2   3
ENDBRANCH   1   2
BRANCH   1   5
ATOM      5  C   UNL     1      20.453  18.039  22.130  1.00  0.00     0.181 C 
BRANCH   5   6
ATOM      6  C   UNL     1      20.440  19.536  22.542  1.00  0.00     0.209 C 
BRANCH   6   7
ATOM      7  C   UNL     1      21.623  20.282  21.990  1.00  0.00     0.258 C 
ATOM      8  O   UNL     1      21.960  21.354  22.469  1.00  0.00    -0.300 OA
ENDBRANCH   6   7
BRANCH   6   9
ATOM      9  O   UNL     1      20.464  19.654  23.941  1.00  0.00    -0.383 OA
ATOM     10  H   UNL     1      20.129  20.562  24.165  1.00  0.00     0.211 HD
ENDBRANCH   6   9
ENDBRANCH   5   6
BRANCH   5  11
ATOM     11  O   UNL     1      21.636  17.446  22.610  1.00  0.00    -0.387 OA
ATOM     12  H   UNL     1      22.195  18.172  22.990  1.00  0.00     0.211 HD
ENDBRANCH   5  11
ENDBRANCH   1   5
BRANCH   1  13
ATOM     13  O   UNL     1      18.551  16.623  21.654  1.00  0.00    -0.388 OA
ATOM     14  H   UNL     1      18.451  17.287  20.922  1.00  0.00     0.211 HD
ENDBRANCH   1  13
TORSDOF 8
ENDMDL
MODEL 9
REMARK VINA RESULT:    -3.562      7.910      9.888
REMARK INTER + INTRA:          -5.423
REMARK INTER:                  -4.670
REMARK INTRA:                  -0.753
REMARK UNBOUND:                -0.612
REMARK SMILES O=C[C@H](O)[C@@H](O)[C@@H](O)CO
REMARK SMILES IDX 7 1 9 2 10 3 5 5 3 6 2 7 1 8 4 9 6 11 8 13
REMARK H PARENT 10 4 4 10 6 12 8 14
REMARK Flexibility Score: inf
ROOT
ATOM      1  C   UNL     1      22.312  20.911  22.363  1.00  0.00     0.171 C 
ENDROOT
BRANCH   1   2
ATOM      2  C   UNL     1      21.810  22.310  22.765  1.00  0.00     0.190 C 
BRANCH   2   3
ATOM      3  O   UNL     1      21.145  22.256  23.997  1.00  0.00    -0.394 OA
ATOM      4  H   UNL     1      21.095  21.296  24.242  1.00  0.00     0.210 HD
ENDBRANCH   2   3
ENDBRANCH   1   2
BRANCH   1   5
ATOM      5  C   UNL     1      21.163  20.020  21.822  1.00  0.00     0.181 C 
BRANCH   5   6
ATOM      6  C   UNL     1      20.794  18.879  22.808  1.00  0.00     0.209 C 
BRANCH   6   7
ATOM      7  C   UNL     1      19.756  17.954  22.236  1.00  0.00     0.258 C 
ATOM      8  O   UNL     1      19.391  18.070  21.076  1.00  0.00    -0.300 OA
ENDBRANCH   6   7
BRANCH   6   9
ATOM      9  O   UNL     1      20.288  19.415  24.003  1.00  0.00    -0.383 OA
ATOM     10  H   UNL     1      21.066  19.721  24.540  1.00  0.00     0.211 HD
ENDBRANCH   6   9
ENDBRANCH   5   6
BRANCH   5  11
ATOM     11  O   UNL     1      20.026  20.821  21.609  1.00  0.00    -0.387 OA
ATOM     12  H   UNL     1      19.614  20.988  22.496  1.00  0.00     0.211 HD
ENDBRANCH   5  11
ENDBRANCH   1   5
BRANCH   1  13
ATOM     13  O   UNL     1      23.300  21.059  21.375  1.00  0.00    -0.388 OA
ATOM     14  H   UNL     1      24.137  21.325  21.839  1.00  0.00     0.211 HD
ENDBRANCH   1  13
TORSDOF 8
ENDMDL
