MODEL 1
REMARK VINA RESULT:    -7.094      0.000      0.000
REMARK INTER + INTRA:          -7.542
REMARK INTER:                  -7.509
REMARK INTRA:                  -0.033
REMARK UNBOUND:                -0.033
REMARK SMILES COc1ccc2ccc(=O)oc2c1
REMARK SMILES IDX 3 1 13 2 12 3 6 4 5 5 4 6 7 7 8 8 9 9 10 10 11 11 2 12 1 13
REMARK H PARENT
REMARK Flexibility Score: inf
ROOT
ATOM      1  C   UNL     1      14.207 -13.631  27.890  1.00  0.00     0.122 A 
ATOM      2  C   UNL     1      14.304 -12.569  28.810  1.00  0.00     0.094 A 
ATOM      3  C   UNL     1      13.214 -11.717  29.022  1.00  0.00     0.142 A 
ATOM      4  C   UNL     1      12.013 -11.924  28.311  1.00  0.00     0.018 A 
ATOM      5  C   UNL     1      11.915 -12.980  27.397  1.00  0.00     0.016 A 
ATOM      6  C   UNL     1      13.009 -13.827  27.191  1.00  0.00     0.047 A 
ATOM      7  C   UNL     1      10.941 -11.056  28.544  1.00  0.00     0.019 A 
ATOM      8  C   UNL     1      11.088 -10.020  29.466  1.00  0.00     0.094 A 
ATOM      9  C   UNL     1      12.309  -9.875  30.133  1.00  0.00     0.336 A 
ATOM     10  O   UNL     1      12.462  -8.945  30.968  1.00  0.00    -0.246 OA
ATOM     11  O   UNL     1      13.313 -10.715  29.892  1.00  0.00    -0.423 OA
ENDROOT
BRANCH   1  12
ATOM     12  O   UNL     1      15.272 -14.511  27.644  1.00  0.00    -0.497 OA
ATOM     13  C   UNL     1      15.403 -15.800  28.232  1.00  0.00     0.278 C 
ENDBRANCH   1  12
TORSDOF 1
ENDMDL
MODEL 2
REMARK VINA RESULT:    -6.432      1.490      2.232
REMARK INTER + INTRA:          -6.841
REMARK INTER:                  -6.808
REMARK INTRA:                  -0.033
REMARK UNBOUND:                -0.033
REMARK SMILES COc1ccc2ccc(=O)oc2c1
REMARK SMILES IDX 3 1 13 2 12 3 6 4 5 5 4 6 7 7 8 8 9 9 10 10 11 11 2 12 1 13
REMARK H PARENT
REMARK Flexibility Score: inf
ROOT
ATOM      1  C   UNL     1      14.308 -13.759  28.233  1.00  0.00     0.122 A 
ATOM      2  C   UNL     1      12.963 -13.363  28.085  1.00  0.00     0.094 A 
ATOM      3  C   UNL     1      12.491 -12.215  28.731  1.00  0.00     0.142 A 
ATOM      4  C   UNL     1      13.364 -11.452  29.533  1.00  0.00     0.018 A 
ATOM      5  C   UNL     1      14.700 -11.844  29.681  1.00  0.00     0.016 A 
ATOM      6  C   UNL     1      15.165 -12.993  29.032  1.00  0.00     0.047 A 
ATOM      7  C   UNL     1      12.863 -10.309  30.166  1.00  0.00     0.019 A 
ATOM      8  C   UNL     1      11.525  -9.961  29.987  1.00  0.00     0.094 A 
ATOM      9  C   UNL     1      10.717 -10.766  29.177  1.00  0.00     0.336 A 
ATOM     10  O   UNL     1       9.506 -10.468  29.004  1.00  0.00    -0.246 OA
ATOM     11  O   UNL     1      11.220 -11.848  28.587  1.00  0.00    -0.423 OA
ENDROOT
BRANCH   1  12
ATOM     12  O   UNL     1      14.827 -14.902  27.605  1.00  0.00    -0.497 OA
ATOM     13  C   UNL     1      15.444 -15.986  28.292  1.00  0.00     0.278 C 
ENDBRANCH   1  12
TORSDOF 1
ENDMDL
MODEL 3
REMARK VINA RESULT:    -6.405     10.380     12.552
REMARK INTER + INTRA:          -6.813
REMARK INTER:                  -6.780
REMARK INTRA:                  -0.033
REMARK UNBOUND:                -0.033
REMARK SMILES COc1ccc2ccc(=O)oc2c1
REMARK SMILES IDX 3 1 13 2 12 3 6 4 5 5 4 6 7 7 8 8 9 9 10 10 11 11 2 12 1 13
REMARK H PARENT
REMARK Flexibility Score: inf
ROOT
ATOM      1  C   UNL     1      15.510   0.471  26.134  1.00  0.00     0.122 A 
ATOM      2  C   UNL     1      15.352  -0.153  27.387  1.00  0.00     0.094 A 
ATOM      3  C   UNL     1      16.219  -1.179  27.780  1.00  0.00     0.142 A 
ATOM      4  C   UNL     1      17.256  -1.590  26.917  1.00  0.00     0.018 A 
ATOM      5  C   UNL     1      17.415  -0.970  25.671  1.00  0.00     0.016 A 
ATOM      6  C   UNL     1      16.544   0.054  25.286  1.00  0.00     0.047 A 
ATOM      7  C   UNL     1      18.107  -2.618  27.337  1.00  0.00     0.019 A 
ATOM      8  C   UNL     1      17.907  -3.202  28.587  1.00  0.00     0.094 A 
ATOM      9  C   UNL     1      16.857  -2.743  29.390  1.00  0.00     0.336 A 
ATOM     10  O   UNL     1      16.660  -3.259  30.521  1.00  0.00    -0.246 OA
ATOM     11  O   UNL     1      16.062  -1.764  28.965  1.00  0.00    -0.423 OA
ENDROOT
BRANCH   1  12
ATOM     12  O   UNL     1      14.666   1.503  25.696  1.00  0.00    -0.497 OA
ATOM     13  C   UNL     1      14.842   2.878  26.021  1.00  0.00     0.278 C 
ENDBRANCH   1  12
TORSDOF 1
ENDMDL
MODEL 4
REMARK VINA RESULT:    -6.362     10.135     11.708
REMARK INTER + INTRA:          -6.768
REMARK INTER:                  -6.730
REMARK INTRA:                  -0.038
REMARK UNBOUND:                -0.033
REMARK SMILES COc1ccc2ccc(=O)oc2c1
REMARK SMILES IDX 3 1 13 2 12 3 6 4 5 5 4 6 7 7 8 8 9 9 10 10 11 11 2 12 1 13
REMARK H PARENT
REMARK Flexibility Score: inf
ROOT
ATOM      1  C   UNL     1      17.379  -2.956  29.126  1.00  0.00     0.122 A 
ATOM      2  C   UNL     1      16.351  -2.154  28.591  1.00  0.00     0.094 A 
ATOM      3  C   UNL     1      16.535  -1.493  27.372  1.00  0.00     0.142 A 
ATOM      4  C   UNL     1      17.755  -1.630  26.676  1.00  0.00     0.018 A 
ATOM      5  C   UNL     1      18.776  -2.427  27.207  1.00  0.00     0.016 A 
ATOM      6  C   UNL     1      18.585  -3.085  28.426  1.00  0.00     0.047 A 
ATOM      7  C   UNL     1      17.909  -0.956  25.459  1.00  0.00     0.019 A 
ATOM      8  C   UNL     1      16.861  -0.175  24.973  1.00  0.00     0.094 A 
ATOM      9  C   UNL     1      15.680  -0.085  25.718  1.00  0.00     0.336 A 
ATOM     10  O   UNL     1      14.724   0.615  25.296  1.00  0.00    -0.246 OA
ATOM     11  O   UNL     1      15.561  -0.736  26.873  1.00  0.00    -0.423 OA
ENDROOT
BRANCH   1  12
ATOM     12  O   UNL     1      17.241  -3.639  30.345  1.00  0.00    -0.497 OA
ATOM     13  C   UNL     1      16.351  -3.253  31.386  1.00  0.00     0.278 C 
ENDBRANCH   1  12
TORSDOF 1
ENDMDL
MODEL 5
REMARK VINA RESULT:    -6.056      1.082      4.629
REMARK INTER + INTRA:          -6.444
REMARK INTER:                  -6.408
REMARK INTRA:                  -0.036
REMARK UNBOUND:                -0.033
REMARK SMILES COc1ccc2ccc(=O)oc2c1
REMARK SMILES IDX 3 1 13 2 12 3 6 4 5 5 4 6 7 7 8 8 9 9 10 10 11 11 2 12 1 13
REMARK H PARENT
REMARK Flexibility Score: inf
ROOT
ATOM      1  C   UNL     1      12.505 -10.013  30.272  1.00  0.00     0.122 A 
ATOM      2  C   UNL     1      13.505 -10.905  29.837  1.00  0.00     0.094 A 
ATOM      3  C   UNL     1      13.219 -11.863  28.857  1.00  0.00     0.142 A 
ATOM      4  C   UNL     1      11.923 -11.935  28.304  1.00  0.00     0.018 A 
ATOM      5  C   UNL     1      10.928 -11.049  28.737  1.00  0.00     0.016 A 
ATOM      6  C   UNL     1      11.222 -10.095  29.716  1.00  0.00     0.047 A 
ATOM      7  C   UNL     1      11.666 -12.903  27.328  1.00  0.00     0.019 A 
ATOM      8  C   UNL     1      12.691 -13.762  26.931  1.00  0.00     0.094 A 
ATOM      9  C   UNL     1      13.952 -13.632  27.524  1.00  0.00     0.336 A 
ATOM     10  O   UNL     1      14.889 -14.398  27.179  1.00  0.00    -0.246 OA
ATOM     11  O   UNL     1      14.168 -12.702  28.451  1.00  0.00    -0.423 OA
ENDROOT
BRANCH   1  12
ATOM     12  O   UNL     1      12.745  -9.036  31.251  1.00  0.00    -0.497 OA
ATOM     13  C   UNL     1      13.492  -9.258  32.442  1.00  0.00     0.278 C 
ENDBRANCH   1  12
TORSDOF 1
ENDMDL
MODEL 6
REMARK VINA RESULT:    -5.986     10.130     11.693
REMARK INTER + INTRA:          -6.369
REMARK INTER:                  -6.331
REMARK INTRA:                  -0.038
REMARK UNBOUND:                -0.033
REMARK SMILES COc1ccc2ccc(=O)oc2c1
REMARK SMILES IDX 3 1 13 2 12 3 6 4 5 5 4 6 7 7 8 8 9 9 10 10 11 11 2 12 1 13
REMARK H PARENT
REMARK Flexibility Score: inf
ROOT
ATOM      1  C   UNL     1      16.801  -2.860  29.612  1.00  0.00     0.122 A 
ATOM      2  C   UNL     1      17.796  -2.791  28.617  1.00  0.00     0.094 A 
ATOM      3  C   UNL     1      17.612  -1.983  27.489  1.00  0.00     0.142 A 
ATOM      4  C   UNL     1      16.424  -1.234  27.348  1.00  0.00     0.018 A 
ATOM      5  C   UNL     1      15.435  -1.302  28.337  1.00  0.00     0.016 A 
ATOM      6  C   UNL     1      15.626  -2.112  29.461  1.00  0.00     0.047 A 
ATOM      7  C   UNL     1      16.269  -0.436  26.210  1.00  0.00     0.019 A 
ATOM      8  C   UNL     1      17.284  -0.403  25.255  1.00  0.00     0.094 A 
ATOM      9  C   UNL     1      18.435  -1.172  25.461  1.00  0.00     0.336 A 
ATOM     10  O   UNL     1      19.362  -1.156  24.610  1.00  0.00    -0.246 OA
ATOM     11  O   UNL     1      18.556  -1.923  26.553  1.00  0.00    -0.423 OA
ENDROOT
BRANCH   1  12
ATOM     12  O   UNL     1      16.940  -3.655  30.759  1.00  0.00    -0.497 OA
ATOM     13  C   UNL     1      16.275  -3.410  31.993  1.00  0.00     0.278 C 
ENDBRANCH   1  12
TORSDOF 1
ENDMDL
MODEL 7
REMARK VINA RESULT:    -5.751      1.807      5.284
REMARK INTER + INTRA:          -6.121
REMARK INTER:                  -6.082
REMARK INTRA:                  -0.039
REMARK UNBOUND:                -0.033
REMARK SMILES COc1ccc2ccc(=O)oc2c1
REMARK SMILES IDX 3 1 13 2 12 3 6 4 5 5 4 6 7 7 8 8 9 9 10 10 11 11 2 12 1 13
REMARK H PARENT
REMARK Flexibility Score: inf
ROOT
ATOM      1  C   UNL     1      13.740 -11.577  29.955  1.00  0.00     0.122 A 
ATOM      2  C   UNL     1      14.009 -12.932  30.231  1.00  0.00     0.094 A 
ATOM      3  C   UNL     1      14.557 -13.758  29.243  1.00  0.00     0.142 A 
ATOM      4  C   UNL     1      14.841 -13.230  27.965  1.00  0.00     0.018 A 
ATOM      5  C   UNL     1      14.574 -11.883  27.691  1.00  0.00     0.016 A 
ATOM      6  C   UNL     1      14.026 -11.064  28.684  1.00  0.00     0.047 A 
ATOM      7  C   UNL     1      15.388 -14.079  26.998  1.00  0.00     0.019 A 
ATOM      8  C   UNL     1      15.635 -15.413  27.321  1.00  0.00     0.094 A 
ATOM      9  C   UNL     1      15.328 -15.867  28.609  1.00  0.00     0.336 A 
ATOM     10  O   UNL     1      15.543 -17.068  28.919  1.00  0.00    -0.246 OA
ATOM     11  O   UNL     1      14.808 -15.037  29.509  1.00  0.00    -0.423 OA
ENDROOT
BRANCH   1  12
ATOM     12  O   UNL     1      13.191 -10.710  30.913  1.00  0.00    -0.497 OA
ATOM     13  C   UNL     1      12.480  -9.517  30.604  1.00  0.00     0.278 C 
ENDBRANCH   1  12
TORSDOF 1
ENDMDL
MODEL 8
REMARK VINA RESULT:    -5.706     10.771     12.948
REMARK INTER + INTRA:          -6.073
REMARK INTER:                  -6.035
REMARK INTRA:                  -0.038
REMARK UNBOUND:                -0.033
REMARK SMILES COc1ccc2ccc(=O)oc2c1
REMARK SMILES IDX 3 1 13 2 12 3 6 4 5 5 4 6 7 7 8 8 9 9 10 10 11 11 2 12 1 13
REMARK H PARENT
REMARK Flexibility Score: inf
ROOT
ATOM      1  C   UNL     1      15.741   0.866  26.307  1.00  0.00     0.122 A 
ATOM      2  C   UNL     1      16.867   0.072  26.011  1.00  0.00     0.094 A 
ATOM      3  C   UNL     1      17.181  -1.034  26.809  1.00  0.00     0.142 A 
ATOM      4  C   UNL     1      16.365  -1.356  27.914  1.00  0.00     0.018 A 
ATOM      5  C   UNL     1      15.245  -0.567  28.209  1.00  0.00     0.016 A 
ATOM      6  C   UNL     1      14.939   0.536  27.407  1.00  0.00     0.047 A 
ATOM      7  C   UNL     1      16.703  -2.467  28.693  1.00  0.00     0.019 A 
ATOM      8  C   UNL     1      17.828  -3.220  28.358  1.00  0.00     0.094 A 
ATOM      9  C   UNL     1      18.591  -2.841  27.247  1.00  0.00     0.336 A 
ATOM     10  O   UNL     1      19.610  -3.508  26.929  1.00  0.00    -0.246 OA
ATOM     11  O   UNL     1      18.246  -1.779  26.524  1.00  0.00    -0.423 OA
ENDROOT
BRANCH   1  12
ATOM     12  O   UNL     1      15.387   1.984  25.537  1.00  0.00    -0.497 OA
ATOM     13  C   UNL     1      14.649   3.097  26.027  1.00  0.00     0.278 C 
ENDBRANCH   1  12
TORSDOF 1
ENDMDL
MODEL 9
REMARK VINA RESULT:    -4.361     10.471     12.235
REMARK INTER + INTRA:          -4.649
REMARK INTER:                  -4.616
REMARK INTRA:                  -0.033
REMARK UNBOUND:                -0.033
REMARK SMILES COc1ccc2ccc(=O)oc2c1
REMARK SMILES IDX 3 1 13 2 12 3 6 4 5 5 4 6 7 7 8 8 9 9 10 10 11 11 2 12 1 13
REMARK H PARENT
REMARK Flexibility Score: inf
ROOT
ATOM      1  C   UNL     1      15.858  -1.910  28.730  1.00  0.00     0.122 A 
ATOM      2  C   UNL     1      15.707  -0.520  28.556  1.00  0.00     0.094 A 
ATOM      3  C   UNL     1      15.426   0.007  27.290  1.00  0.00     0.142 A 
ATOM      4  C   UNL     1      15.293  -0.859  26.184  1.00  0.00     0.018 A 
ATOM      5  C   UNL     1      15.443  -2.241  26.356  1.00  0.00     0.016 A 
ATOM      6  C   UNL     1      15.724  -2.759  27.624  1.00  0.00     0.047 A 
ATOM      7  C   UNL     1      15.012  -0.304  24.931  1.00  0.00     0.019 A 
ATOM      8  C   UNL     1      14.872   1.079  24.812  1.00  0.00     0.094 A 
ATOM      9  C   UNL     1      15.017   1.875  25.954  1.00  0.00     0.336 A 
ATOM     10  O   UNL     1      14.895   3.125  25.866  1.00  0.00    -0.246 OA
ATOM     11  O   UNL     1      15.285   1.320  27.133  1.00  0.00    -0.423 OA
ENDROOT
BRANCH   1  12
ATOM     12  O   UNL     1      16.140  -2.484  29.979  1.00  0.00    -0.497 OA
ATOM     13  C   UNL     1      17.279  -3.292  30.253  1.00  0.00     0.278 C 
ENDBRANCH   1  12
TORSDOF 1
ENDMDL
