MODEL 1
REMARK VINA RESULT:    -2.399      0.000      0.000
REMARK INTER + INTRA:          -4.905
REMARK INTER:                  -4.362
REMARK INTRA:                  -0.542
REMARK UNBOUND:                -0.542
REMARK SMILES CCCCCCCCCCCCCC[C@@H](C)C(=O)[O-]
REMARK SMILES IDX 9 1 10 2 11 3 12 4 13 5 14 6 15 7 16 8 17 9 18 10 19 11 8 12
REMARK SMILES IDX 7 13 6 14 5 15 4 16 3 17 2 18 1 19
REMARK H PARENT
REMARK Flexibility Score: inf
ROOT
ATOM      1  C   UNL     1      -6.630 -23.021  17.832  1.00  0.00     0.000 C 
ENDROOT
BRANCH   1   2
ATOM      2  C   UNL     1      -8.011 -22.349  17.871  1.00  0.00     0.000 C 
BRANCH   2   3
ATOM      3  C   UNL     1      -8.728 -22.645  19.197  1.00  0.00     0.000 C 
BRANCH   3   4
ATOM      4  C   UNL     1     -10.257 -22.720  19.046  1.00  0.00     0.000 C 
BRANCH   4   5
ATOM      5  C   UNL     1     -11.044 -21.650  19.830  1.00  0.00     0.001 C 
BRANCH   5   6
ATOM      6  C   UNL     1     -10.445 -20.229  19.783  1.00  0.00     0.009 C 
BRANCH   6   7
ATOM      7  C   UNL     1     -10.820 -19.342  20.991  1.00  0.00     0.032 C 
ATOM      8  C   UNL     1     -10.286 -19.954  22.291  1.00  0.00     0.014 C 
BRANCH   7   9
ATOM      9  C   UNL     1     -10.286 -17.944  20.833  1.00  0.00     0.044 C 
ATOM     10  O   UNL     1     -10.768 -17.178  19.957  1.00  0.00    -0.550 OA
ATOM     11  O   UNL     1      -9.259 -17.487  21.651  1.00  0.00    -0.550 OA
ENDBRANCH   7   9
ENDBRANCH   6   7
ENDBRANCH   5   6
ENDBRANCH   4   5
ENDBRANCH   3   4
ENDBRANCH   2   3
ENDBRANCH   1   2
BRANCH   1  12
ATOM     12  C   UNL     1      -5.712 -22.424  16.753  1.00  0.00     0.000 C 
BRANCH  12  13
ATOM     13  C   UNL     1      -4.341 -23.121  16.693  1.00  0.00    -0.000 C 
BRANCH  13  14
ATOM     14  C   UNL     1      -3.348 -22.395  15.772  1.00  0.00    -0.000 C 
BRANCH  14  15
ATOM     15  C   UNL     1      -1.891 -22.821  16.022  1.00  0.00    -0.000 C 
BRANCH  15  16
ATOM     16  C   UNL     1      -0.918 -21.630  16.021  1.00  0.00    -0.000 C 
BRANCH  16  17
ATOM     17  C   UNL     1       0.553 -22.070  16.130  1.00  0.00    -0.000 C 
BRANCH  17  18
ATOM     18  C   UNL     1       1.008 -22.904  14.920  1.00  0.00    -0.003 C 
ATOM     19  C   UNL     1       2.528 -23.027  14.823  1.00  0.00     0.004 C 
ENDBRANCH  17  18
ENDBRANCH  16  17
ENDBRANCH  15  16
ENDBRANCH  14  15
ENDBRANCH  13  14
ENDBRANCH  12  13
ENDBRANCH   1  12
TORSDOF 14
ENDMDL
MODEL 2
REMARK VINA RESULT:    -2.097      7.140     14.190
REMARK INTER + INTRA:          -4.355
REMARK INTER:                  -4.007
REMARK INTRA:                  -0.348
REMARK UNBOUND:                -0.542
REMARK SMILES CCCCCCCCCCCCCC[C@@H](C)C(=O)[O-]
REMARK SMILES IDX 9 1 10 2 11 3 12 4 13 5 14 6 15 7 16 8 17 9 18 10 19 11 8 12
REMARK SMILES IDX 7 13 6 14 5 15 4 16 3 17 2 18 1 19
REMARK H PARENT
REMARK Flexibility Score: inf
ROOT
ATOM      1  C   UNL     1       1.809 -22.124  15.139  1.00  0.00     0.000 C 
ENDROOT
BRANCH   1   2
ATOM      2  C   UNL     1       3.173 -22.831  15.146  1.00  0.00     0.000 C 
BRANCH   2   3
ATOM      3  C   UNL     1       3.759 -22.905  13.729  1.00  0.00     0.000 C 
BRANCH   3   4
ATOM      4  C   UNL     1       5.285 -23.107  13.722  1.00  0.00     0.000 C 
BRANCH   4   5
ATOM      5  C   UNL     1       6.055 -22.233  12.712  1.00  0.00     0.001 C 
BRANCH   5   6
ATOM      6  C   UNL     1       7.538 -22.608  12.516  1.00  0.00     0.009 C 
BRANCH   6   7
ATOM      7  C   UNL     1       8.416 -21.462  11.964  1.00  0.00     0.032 C 
ATOM      8  C   UNL     1       8.115 -21.225  10.480  1.00  0.00     0.014 C 
BRANCH   7   9
ATOM      9  C   UNL     1       8.204 -20.187  12.734  1.00  0.00     0.044 C 
ATOM     10  O   UNL     1       7.898 -19.126  12.129  1.00  0.00    -0.550 OA
ATOM     11  O   UNL     1       8.344 -20.170  14.118  1.00  0.00    -0.550 OA
ENDBRANCH   7   9
ENDBRANCH   6   7
ENDBRANCH   5   6
ENDBRANCH   4   5
ENDBRANCH   3   4
ENDBRANCH   2   3
ENDBRANCH   1   2
BRANCH   1  12
ATOM     12  C   UNL     1       0.667 -23.039  15.612  1.00  0.00     0.000 C 
BRANCH  12  13
ATOM     13  C   UNL     1      -0.626 -22.259  15.914  1.00  0.00    -0.000 C 
BRANCH  13  14
ATOM     14  C   UNL     1      -1.888 -23.124  15.763  1.00  0.00    -0.000 C 
BRANCH  14  15
ATOM     15  C   UNL     1      -3.183 -22.308  15.913  1.00  0.00    -0.000 C 
BRANCH  15  16
ATOM     16  C   UNL     1      -4.271 -23.064  16.695  1.00  0.00    -0.000 C 
BRANCH  16  17
ATOM     17  C   UNL     1      -5.481 -22.175  17.030  1.00  0.00    -0.000 C 
BRANCH  17  18
ATOM     18  C   UNL     1      -6.765 -22.992  17.257  1.00  0.00    -0.003 C 
ATOM     19  C   UNL     1      -8.022 -22.124  17.288  1.00  0.00     0.004 C 
ENDBRANCH  17  18
ENDBRANCH  16  17
ENDBRANCH  15  16
ENDBRANCH  14  15
ENDBRANCH  13  14
ENDBRANCH  12  13
ENDBRANCH   1  12
TORSDOF 14
ENDMDL
MODEL 3
REMARK VINA RESULT:    -1.665      7.061     13.627
REMARK INTER + INTRA:          -3.571
REMARK INTER:                  -3.176
REMARK INTRA:                  -0.394
REMARK UNBOUND:                -0.542
REMARK SMILES CCCCCCCCCCCCCC[C@@H](C)C(=O)[O-]
REMARK SMILES IDX 9 1 10 2 11 3 12 4 13 5 14 6 15 7 16 8 17 9 18 10 19 11 8 12
REMARK SMILES IDX 7 13 6 14 5 15 4 16 3 17 2 18 1 19
REMARK H PARENT
REMARK Flexibility Score: inf
ROOT
ATOM      1  C   UNL     1       0.514 -22.259  15.004  1.00  0.00     0.000 C 
ENDROOT
BRANCH   1   2
ATOM      2  C   UNL     1       1.915 -22.772  15.370  1.00  0.00     0.000 C 
BRANCH   2   3
ATOM      3  C   UNL     1       2.811 -22.854  14.126  1.00  0.00     0.000 C 
BRANCH   3   4
ATOM      4  C   UNL     1       4.293 -23.081  14.471  1.00  0.00     0.000 C 
BRANCH   4   5
ATOM      5  C   UNL     1       5.290 -22.684  13.364  1.00  0.00     0.001 C 
BRANCH   5   6
ATOM      6  C   UNL     1       6.778 -22.763  13.760  1.00  0.00     0.009 C 
BRANCH   6   7
ATOM      7  C   UNL     1       7.283 -21.554  14.580  1.00  0.00     0.032 C 
ATOM      8  C   UNL     1       7.725 -22.002  15.977  1.00  0.00     0.014 C 
BRANCH   7   9
ATOM      9  C   UNL     1       8.423 -20.857  13.887  1.00  0.00     0.044 C 
ATOM     10  O   UNL     1       9.125 -21.477  13.046  1.00  0.00    -0.550 OA
ATOM     11  O   UNL     1       8.708 -19.526  14.169  1.00  0.00    -0.550 OA
ENDBRANCH   7   9
ENDBRANCH   6   7
ENDBRANCH   5   6
ENDBRANCH   4   5
ENDBRANCH   3   4
ENDBRANCH   2   3
ENDBRANCH   1   2
BRANCH   1  12
ATOM     12  C   UNL     1      -0.606 -23.049  15.702  1.00  0.00     0.000 C 
BRANCH  12  13
ATOM     13  C   UNL     1      -1.845 -22.183  15.993  1.00  0.00    -0.000 C 
BRANCH  13  14
ATOM     14  C   UNL     1      -3.129 -23.016  16.138  1.00  0.00    -0.000 C 
BRANCH  14  15
ATOM     15  C   UNL     1      -4.399 -22.149  16.127  1.00  0.00    -0.000 C 
BRANCH  15  16
ATOM     16  C   UNL     1      -5.514 -22.722  17.019  1.00  0.00    -0.000 C 
BRANCH  16  17
ATOM     17  C   UNL     1      -6.902 -22.166  16.657  1.00  0.00    -0.000 C 
BRANCH  17  18
ATOM     18  C   UNL     1      -8.007 -22.693  17.588  1.00  0.00    -0.003 C 
ATOM     19  C   UNL     1      -7.540 -22.850  19.034  1.00  0.00     0.004 C 
ENDBRANCH  17  18
ENDBRANCH  16  17
ENDBRANCH  15  16
ENDBRANCH  14  15
ENDBRANCH  13  14
ENDBRANCH  12  13
ENDBRANCH   1  12
TORSDOF 14
ENDMDL
MODEL 4
REMARK VINA RESULT:    -1.647      4.823     10.539
REMARK INTER + INTRA:          -3.538
REMARK INTER:                  -3.063
REMARK INTRA:                  -0.475
REMARK UNBOUND:                -0.542
REMARK SMILES CCCCCCCCCCCCCC[C@@H](C)C(=O)[O-]
REMARK SMILES IDX 9 1 10 2 11 3 12 4 13 5 14 6 15 7 16 8 17 9 18 10 19 11 8 12
REMARK SMILES IDX 7 13 6 14 5 15 4 16 3 17 2 18 1 19
REMARK H PARENT
REMARK Flexibility Score: inf
ROOT
ATOM      1  C   UNL     1      -6.835 -23.101  17.417  1.00  0.00     0.000 C 
ENDROOT
BRANCH   1   2
ATOM      2  C   UNL     1      -5.353 -22.820  17.709  1.00  0.00     0.000 C 
BRANCH   2   3
ATOM      3  C   UNL     1      -4.633 -22.308  16.452  1.00  0.00     0.000 C 
BRANCH   3   4
ATOM      4  C   UNL     1      -3.289 -23.015  16.203  1.00  0.00     0.000 C 
BRANCH   4   5
ATOM      5  C   UNL     1      -2.102 -22.076  15.912  1.00  0.00     0.001 C 
BRANCH   5   6
ATOM      6  C   UNL     1      -0.707 -22.681  16.169  1.00  0.00     0.009 C 
BRANCH   6   7
ATOM      7  C   UNL     1       0.467 -21.805  15.679  1.00  0.00     0.032 C 
ATOM      8  C   UNL     1       1.046 -20.989  16.840  1.00  0.00     0.014 C 
BRANCH   7   9
ATOM      9  C   UNL     1       1.552 -22.638  15.054  1.00  0.00     0.044 C 
ATOM     10  O   UNL     1       1.396 -23.120  13.901  1.00  0.00    -0.550 OA
ATOM     11  O   UNL     1       2.736 -22.883  15.743  1.00  0.00    -0.550 OA
ENDBRANCH   7   9
ENDBRANCH   6   7
ENDBRANCH   5   6
ENDBRANCH   4   5
ENDBRANCH   3   4
ENDBRANCH   2   3
ENDBRANCH   1   2
BRANCH   1  12
ATOM     12  C   UNL     1      -7.728 -22.907  18.654  1.00  0.00     0.000 C 
BRANCH  12  13
ATOM     13  C   UNL     1      -9.119 -22.354  18.295  1.00  0.00    -0.000 C 
BRANCH  13  14
ATOM     14  C   UNL     1      -9.700 -21.453  19.397  1.00  0.00    -0.000 C 
BRANCH  14  15
ATOM     15  C   UNL     1     -10.215 -20.110  18.850  1.00  0.00    -0.000 C 
BRANCH  15  16
ATOM     16  C   UNL     1     -10.397 -19.054  19.953  1.00  0.00    -0.000 C 
BRANCH  16  17
ATOM     17  C   UNL     1     -10.509 -19.679  21.355  1.00  0.00    -0.000 C 
BRANCH  17  18
ATOM     18  C   UNL     1     -10.457 -18.626  22.474  1.00  0.00    -0.003 C 
ATOM     19  C   UNL     1      -9.075 -17.994  22.631  1.00  0.00     0.004 C 
ENDBRANCH  17  18
ENDBRANCH  16  17
ENDBRANCH  15  16
ENDBRANCH  14  15
ENDBRANCH  13  14
ENDBRANCH  12  13
ENDBRANCH   1  12
TORSDOF 14
ENDMDL
MODEL 5
REMARK VINA RESULT:    -1.615      2.932      5.793
REMARK INTER + INTRA:          -3.478
REMARK INTER:                  -3.119
REMARK INTRA:                  -0.360
REMARK UNBOUND:                -0.542
REMARK SMILES CCCCCCCCCCCCCC[C@@H](C)C(=O)[O-]
REMARK SMILES IDX 9 1 10 2 11 3 12 4 13 5 14 6 15 7 16 8 17 9 18 10 19 11 8 12
REMARK SMILES IDX 7 13 6 14 5 15 4 16 3 17 2 18 1 19
REMARK H PARENT
REMARK Flexibility Score: inf
ROOT
ATOM      1  C   UNL     1      -1.037 -23.048  16.018  1.00  0.00     0.000 C 
ENDROOT
BRANCH   1   2
ATOM      2  C   UNL     1      -2.314 -22.245  15.727  1.00  0.00     0.000 C 
BRANCH   2   3
ATOM      3  C   UNL     1      -3.567 -23.077  16.037  1.00  0.00     0.000 C 
BRANCH   3   4
ATOM      4  C   UNL     1      -4.800 -22.209  16.344  1.00  0.00     0.000 C 
BRANCH   4   5
ATOM      5  C   UNL     1      -6.017 -22.976  16.899  1.00  0.00     0.001 C 
BRANCH   5   6
ATOM      6  C   UNL     1      -6.737 -22.298  18.082  1.00  0.00     0.009 C 
BRANCH   6   7
ATOM      7  C   UNL     1      -7.996 -23.047  18.575  1.00  0.00     0.032 C 
ATOM      8  C   UNL     1      -8.058 -23.038  20.106  1.00  0.00     0.014 C 
BRANCH   7   9
ATOM      9  C   UNL     1      -9.252 -22.439  18.012  1.00  0.00     0.044 C 
ATOM     10  O   UNL     1      -9.183 -21.574  17.100  1.00  0.00    -0.550 OA
ATOM     11  O   UNL     1     -10.497 -22.828  18.493  1.00  0.00    -0.550 OA
ENDBRANCH   7   9
ENDBRANCH   6   7
ENDBRANCH   5   6
ENDBRANCH   4   5
ENDBRANCH   3   4
ENDBRANCH   2   3
ENDBRANCH   1   2
BRANCH   1  12
ATOM     12  C   UNL     1       0.242 -22.281  15.643  1.00  0.00     0.000 C 
BRANCH  12  13
ATOM     13  C   UNL     1       1.139 -23.070  14.672  1.00  0.00    -0.000 C 
BRANCH  13  14
ATOM     14  C   UNL     1       2.630 -22.735  14.839  1.00  0.00    -0.000 C 
BRANCH  14  15
ATOM     15  C   UNL     1       3.449 -23.045  13.574  1.00  0.00    -0.000 C 
BRANCH  15  16
ATOM     16  C   UNL     1       4.962 -23.098  13.847  1.00  0.00    -0.000 C 
BRANCH  16  17
ATOM     17  C   UNL     1       5.794 -22.578  12.662  1.00  0.00    -0.000 C 
BRANCH  17  18
ATOM     18  C   UNL     1       7.137 -21.975  13.106  1.00  0.00    -0.003 C 
ATOM     19  C   UNL     1       7.345 -22.039  14.619  1.00  0.00     0.004 C 
ENDBRANCH  17  18
ENDBRANCH  16  17
ENDBRANCH  15  16
ENDBRANCH  14  15
ENDBRANCH  13  14
ENDBRANCH  12  13
ENDBRANCH   1  12
TORSDOF 14
ENDMDL
MODEL 6
REMARK VINA RESULT:    -1.587      5.150     10.091
REMARK INTER + INTRA:          -3.429
REMARK INTER:                  -2.802
REMARK INTRA:                  -0.627
REMARK UNBOUND:                -0.542
REMARK SMILES CCCCCCCCCCCCCC[C@@H](C)C(=O)[O-]
REMARK SMILES IDX 9 1 10 2 11 3 12 4 13 5 14 6 15 7 16 8 17 9 18 10 19 11 8 12
REMARK SMILES IDX 7 13 6 14 5 15 4 16 3 17 2 18 1 19
REMARK H PARENT
REMARK Flexibility Score: inf
ROOT
ATOM      1  C   UNL     1      -6.656 -22.821  17.877  1.00  0.00     0.000 C 
ENDROOT
BRANCH   1   2
ATOM      2  C   UNL     1      -5.144 -22.992  17.665  1.00  0.00     0.000 C 
BRANCH   2   3
ATOM      3  C   UNL     1      -4.678 -22.242  16.409  1.00  0.00     0.000 C 
BRANCH   3   4
ATOM      4  C   UNL     1      -3.414 -22.854  15.780  1.00  0.00     0.000 C 
BRANCH   4   5
ATOM      5  C   UNL     1      -2.091 -22.166  16.173  1.00  0.00     0.001 C 
BRANCH   5   6
ATOM      6  C   UNL     1      -0.813 -22.861  15.661  1.00  0.00     0.009 C 
BRANCH   6   7
ATOM      7  C   UNL     1       0.404 -21.921  15.508  1.00  0.00     0.032 C 
ATOM      8  C   UNL     1       0.720 -21.234  16.841  1.00  0.00     0.014 C 
BRANCH   7   9
ATOM      9  C   UNL     1       1.617 -22.666  15.022  1.00  0.00     0.044 C 
ATOM     10  O   UNL     1       2.582 -22.881  15.802  1.00  0.00    -0.550 OA
ATOM     11  O   UNL     1       1.682 -23.124  13.711  1.00  0.00    -0.550 OA
ENDBRANCH   7   9
ENDBRANCH   6   7
ENDBRANCH   5   6
ENDBRANCH   4   5
ENDBRANCH   3   4
ENDBRANCH   2   3
ENDBRANCH   1   2
BRANCH   1  12
ATOM     12  C   UNL     1      -7.066 -22.972  19.351  1.00  0.00     0.000 C 
BRANCH  12  13
ATOM     13  C   UNL     1      -8.574 -22.750  19.569  1.00  0.00    -0.000 C 
BRANCH  13  14
ATOM     14  C   UNL     1      -9.183 -21.777  18.546  1.00  0.00    -0.000 C 
BRANCH  14  15
ATOM     15  C   UNL     1     -10.640 -22.126  18.195  1.00  0.00    -0.000 C 
BRANCH  15  16
ATOM     16  C   UNL     1     -11.002 -21.758  16.746  1.00  0.00    -0.000 C 
BRANCH  16  17
ATOM     17  C   UNL     1     -10.558 -20.334  16.371  1.00  0.00    -0.000 C 
BRANCH  17  18
ATOM     18  C   UNL     1     -10.615 -20.080  14.855  1.00  0.00    -0.003 C 
ATOM     19  C   UNL     1      -9.321 -20.467  14.140  1.00  0.00     0.004 C 
ENDBRANCH  17  18
ENDBRANCH  16  17
ENDBRANCH  15  16
ENDBRANCH  14  15
ENDBRANCH  13  14
ENDBRANCH  12  13
ENDBRANCH   1  12
TORSDOF 14
ENDMDL
MODEL 7
REMARK VINA RESULT:    -1.498      5.178     11.215
REMARK INTER + INTRA:          -3.266
REMARK INTER:                  -2.780
REMARK INTRA:                  -0.486
REMARK UNBOUND:                -0.542
REMARK SMILES CCCCCCCCCCCCCC[C@@H](C)C(=O)[O-]
REMARK SMILES IDX 9 1 10 2 11 3 12 4 13 5 14 6 15 7 16 8 17 9 18 10 19 11 8 12
REMARK SMILES IDX 7 13 6 14 5 15 4 16 3 17 2 18 1 19
REMARK H PARENT
REMARK Flexibility Score: inf
ROOT
ATOM      1  C   UNL     1      -5.329 -22.430  16.010  1.00  0.00     0.000 C 
ENDROOT
BRANCH   1   2
ATOM      2  C   UNL     1      -3.971 -21.748  15.791  1.00  0.00     0.000 C 
BRANCH   2   3
ATOM      3  C   UNL     1      -2.817 -22.722  16.071  1.00  0.00     0.000 C 
BRANCH   3   4
ATOM      4  C   UNL     1      -1.435 -22.048  16.001  1.00  0.00     0.000 C 
BRANCH   4   5
ATOM      5  C   UNL     1      -0.283 -22.966  15.547  1.00  0.00     0.001 C 
BRANCH   5   6
ATOM      6  C   UNL     1       1.116 -22.316  15.554  1.00  0.00     0.009 C 
BRANCH   6   7
ATOM      7  C   UNL     1       2.197 -23.125  14.802  1.00  0.00     0.032 C 
ATOM      8  C   UNL     1       1.937 -23.089  13.293  1.00  0.00     0.014 C 
BRANCH   7   9
ATOM      9  C   UNL     1       3.577 -22.600  15.092  1.00  0.00     0.044 C 
ATOM     10  O   UNL     1       4.479 -22.676  14.216  1.00  0.00    -0.550 OA
ATOM     11  O   UNL     1       3.868 -22.029  16.326  1.00  0.00    -0.550 OA
ENDBRANCH   7   9
ENDBRANCH   6   7
ENDBRANCH   5   6
ENDBRANCH   4   5
ENDBRANCH   3   4
ENDBRANCH   2   3
ENDBRANCH   1   2
BRANCH   1  12
ATOM     12  C   UNL     1      -5.634 -22.677  17.497  1.00  0.00     0.000 C 
BRANCH  12  13
ATOM     13  C   UNL     1      -7.117 -22.447  17.840  1.00  0.00    -0.000 C 
BRANCH  13  14
ATOM     14  C   UNL     1      -7.440 -22.763  19.310  1.00  0.00    -0.000 C 
BRANCH  14  15
ATOM     15  C   UNL     1      -8.907 -22.467  19.668  1.00  0.00    -0.000 C 
BRANCH  15  16
ATOM     16  C   UNL     1      -9.454 -21.227  18.942  1.00  0.00    -0.000 C 
BRANCH  16  17
ATOM     17  C   UNL     1     -10.613 -20.561  19.705  1.00  0.00    -0.000 C 
BRANCH  17  18
ATOM     18  C   UNL     1     -10.271 -19.133  20.161  1.00  0.00    -0.003 C 
ATOM     19  C   UNL     1     -10.039 -19.030  21.667  1.00  0.00     0.004 C 
ENDBRANCH  17  18
ENDBRANCH  16  17
ENDBRANCH  15  16
ENDBRANCH  14  15
ENDBRANCH  13  14
ENDBRANCH  12  13
ENDBRANCH   1  12
TORSDOF 14
ENDMDL
