MODEL 1
REMARK VINA RESULT:    -4.548      0.000      0.000
REMARK INTER + INTRA:          -9.908
REMARK INTER:                  -8.802
REMARK INTRA:                  -1.106
REMARK UNBOUND:                -1.106
REMARK SMILES CCCCCCCCCCCCCCCCCC(=O)[O-]
REMARK SMILES IDX 10 1 11 2 12 3 13 4 14 5 15 6 16 7 17 8 18 9 19 10 20 11
REMARK SMILES IDX 9 12 8 13 7 14 6 15 5 16 4 17 3 18 2 19 1 20
REMARK H PARENT
REMARK Flexibility Score: inf
ROOT
ATOM      1  C   UNL     1       1.461  21.252  34.483  1.00  0.00     0.000 C 
ENDROOT
BRANCH   1   2
ATOM      2  C   UNL     1       0.220  22.158  34.614  1.00  0.00     0.000 C 
BRANCH   2   3
ATOM      3  C   UNL     1      -0.408  22.495  33.248  1.00  0.00     0.000 C 
BRANCH   3   4
ATOM      4  C   UNL     1       0.178  21.676  32.077  1.00  0.00     0.000 C 
BRANCH   4   5
ATOM      5  C   UNL     1      -0.796  20.626  31.513  1.00  0.00     0.000 C 
BRANCH   5   6
ATOM      6  C   UNL     1      -0.996  20.768  29.996  1.00  0.00     0.000 C 
BRANCH   6   7
ATOM      7  C   UNL     1      -1.628  19.500  29.400  1.00  0.00     0.006 C 
BRANCH   7   8
ATOM      8  C   UNL     1      -1.700  19.552  27.864  1.00  0.00     0.053 C 
BRANCH   8   9
ATOM      9  C   UNL     1      -3.111  19.699  27.379  1.00  0.00     0.041 C 
ATOM     10  O   UNL     1      -3.684  18.738  26.811  1.00  0.00    -0.550 OA
ATOM     11  O   UNL     1      -3.779  20.909  27.522  1.00  0.00    -0.550 OA
ENDBRANCH   8   9
ENDBRANCH   7   8
ENDBRANCH   6   7
ENDBRANCH   5   6
ENDBRANCH   4   5
ENDBRANCH   3   4
ENDBRANCH   2   3
ENDBRANCH   1   2
BRANCH   1  12
ATOM     12  C   UNL     1       1.165  19.774  34.800  1.00  0.00     0.000 C 
BRANCH  12  13
ATOM     13  C   UNL     1       2.254  18.779  34.358  1.00  0.00    -0.000 C 
BRANCH  13  14
ATOM     14  C   UNL     1       2.924  19.172  33.031  1.00  0.00    -0.000 C 
BRANCH  14  15
ATOM     15  C   UNL     1       4.413  18.772  32.986  1.00  0.00    -0.000 C 
BRANCH  15  16
ATOM     16  C   UNL     1       4.964  18.302  34.345  1.00  0.00    -0.000 C 
BRANCH  16  17
ATOM     17  C   UNL     1       5.933  17.119  34.219  1.00  0.00    -0.000 C 
BRANCH  17  18
ATOM     18  C   UNL     1       5.889  16.525  32.807  1.00  0.00    -0.000 C 
BRANCH  18  19
ATOM     19  C   UNL     1       7.283  16.523  32.169  1.00  0.00    -0.003 C 
ATOM     20  C   UNL     1       7.531  15.230  31.400  1.00  0.00     0.004 C 
ENDBRANCH  18  19
ENDBRANCH  17  18
ENDBRANCH  16  17
ENDBRANCH  15  16
ENDBRANCH  14  15
ENDBRANCH  13  14
ENDBRANCH  12  13
ENDBRANCH   1  12
TORSDOF 16
ENDMDL
MODEL 2
REMARK VINA RESULT:    -4.537      1.241      1.779
REMARK INTER + INTRA:          -9.886
REMARK INTER:                  -9.128
REMARK INTRA:                  -0.758
REMARK UNBOUND:                -1.106
REMARK SMILES CCCCCCCCCCCCCCCCCC(=O)[O-]
REMARK SMILES IDX 10 1 11 2 12 3 13 4 14 5 15 6 16 7 17 8 18 9 19 10 20 11
REMARK SMILES IDX 9 12 8 13 7 14 6 15 5 16 4 17 3 18 2 19 1 20
REMARK H PARENT
REMARK Flexibility Score: inf
ROOT
ATOM      1  C   UNL     1       2.137  19.965  32.276  1.00  0.00     0.000 C 
ENDROOT
BRANCH   1   2
ATOM      2  C   UNL     1       1.214  20.358  33.447  1.00  0.00     0.000 C 
BRANCH   2   3
ATOM      3  C   UNL     1      -0.106  20.992  32.969  1.00  0.00     0.000 C 
BRANCH   3   4
ATOM      4  C   UNL     1      -0.205  21.132  31.434  1.00  0.00     0.000 C 
BRANCH   4   5
ATOM      5  C   UNL     1      -1.288  20.239  30.803  1.00  0.00     0.000 C 
BRANCH   5   6
ATOM      6  C   UNL     1      -1.246  20.263  29.268  1.00  0.00     0.000 C 
BRANCH   6   7
ATOM      7  C   UNL     1      -1.782  18.949  28.678  1.00  0.00     0.006 C 
BRANCH   7   8
ATOM      8  C   UNL     1      -3.009  19.171  27.777  1.00  0.00     0.053 C 
BRANCH   8   9
ATOM      9  C   UNL     1      -2.934  20.480  27.050  1.00  0.00     0.041 C 
ATOM     10  O   UNL     1      -3.844  21.332  27.192  1.00  0.00    -0.550 OA
ATOM     11  O   UNL     1      -1.876  20.744  26.188  1.00  0.00    -0.550 OA
ENDBRANCH   8   9
ENDBRANCH   7   8
ENDBRANCH   6   7
ENDBRANCH   5   6
ENDBRANCH   4   5
ENDBRANCH   3   4
ENDBRANCH   2   3
ENDBRANCH   1   2
BRANCH   1  12
ATOM     12  C   UNL     1       3.524  19.478  32.738  1.00  0.00     0.000 C 
BRANCH  12  13
ATOM     13  C   UNL     1       3.715  19.397  34.264  1.00  0.00    -0.000 C 
BRANCH  13  14
ATOM     14  C   UNL     1       3.676  17.955  34.797  1.00  0.00    -0.000 C 
BRANCH  14  15
ATOM     15  C   UNL     1       4.910  17.138  34.364  1.00  0.00    -0.000 C 
BRANCH  15  16
ATOM     16  C   UNL     1       6.182  17.988  34.189  1.00  0.00    -0.000 C 
BRANCH  16  17
ATOM     17  C   UNL     1       6.839  17.805  32.815  1.00  0.00    -0.000 C 
BRANCH  17  18
ATOM     18  C   UNL     1       6.538  16.415  32.247  1.00  0.00    -0.000 C 
BRANCH  18  19
ATOM     19  C   UNL     1       7.798  15.786  31.640  1.00  0.00    -0.003 C 
ATOM     20  C   UNL     1       7.454  14.531  30.846  1.00  0.00     0.004 C 
ENDBRANCH  18  19
ENDBRANCH  17  18
ENDBRANCH  16  17
ENDBRANCH  15  16
ENDBRANCH  14  15
ENDBRANCH  13  14
ENDBRANCH  12  13
ENDBRANCH   1  12
TORSDOF 16
ENDMDL
MODEL 3
REMARK VINA RESULT:    -4.509      4.258      8.737
REMARK INTER + INTRA:          -9.832
REMARK INTER:                  -9.228
REMARK INTRA:                  -0.603
REMARK UNBOUND:                -1.106
REMARK SMILES CCCCCCCCCCCCCCCCCC(=O)[O-]
REMARK SMILES IDX 10 1 11 2 12 3 13 4 14 5 15 6 16 7 17 8 18 9 19 10 20 11
REMARK SMILES IDX 9 12 8 13 7 14 6 15 5 16 4 17 3 18 2 19 1 20
REMARK H PARENT
REMARK Flexibility Score: inf
ROOT
ATOM      1  C   UNL     1       2.304  19.950  33.005  1.00  0.00     0.000 C 
ENDROOT
BRANCH   1   2
ATOM      2  C   UNL     1       3.213  20.270  34.209  1.00  0.00     0.000 C 
BRANCH   2   3
ATOM      3  C   UNL     1       3.427  19.050  35.125  1.00  0.00     0.000 C 
BRANCH   3   4
ATOM      4  C   UNL     1       3.891  17.783  34.371  1.00  0.00     0.000 C 
BRANCH   4   5
ATOM      5  C   UNL     1       5.213  17.201  34.901  1.00  0.00     0.000 C 
BRANCH   5   6
ATOM      6  C   UNL     1       6.441  17.949  34.361  1.00  0.00     0.000 C 
BRANCH   6   7
ATOM      7  C   UNL     1       6.644  17.671  32.863  1.00  0.00     0.006 C 
BRANCH   7   8
ATOM      8  C   UNL     1       6.403  16.194  32.506  1.00  0.00     0.053 C 
BRANCH   8   9
ATOM      9  C   UNL     1       7.464  15.664  31.589  1.00  0.00     0.041 C 
ATOM     10  O   UNL     1       8.451  16.379  31.289  1.00  0.00    -0.550 OA
ATOM     11  O   UNL     1       7.346  14.393  31.039  1.00  0.00    -0.550 OA
ENDBRANCH   8   9
ENDBRANCH   7   8
ENDBRANCH   6   7
ENDBRANCH   5   6
ENDBRANCH   4   5
ENDBRANCH   3   4
ENDBRANCH   2   3
ENDBRANCH   1   2
BRANCH   1  12
ATOM     12  C   UNL     1       0.827  20.308  33.252  1.00  0.00     0.000 C 
BRANCH  12  13
ATOM     13  C   UNL     1       0.364  21.641  32.637  1.00  0.00    -0.000 C 
BRANCH  13  14
ATOM     14  C   UNL     1      -0.832  21.479  31.683  1.00  0.00    -0.000 C 
BRANCH  14  15
ATOM     15  C   UNL     1      -0.604  20.361  30.645  1.00  0.00    -0.000 C 
BRANCH  15  16
ATOM     16  C   UNL     1      -1.556  20.439  29.437  1.00  0.00    -0.000 C 
BRANCH  16  17
ATOM     17  C   UNL     1      -1.758  19.085  28.747  1.00  0.00    -0.000 C 
BRANCH  17  18
ATOM     18  C   UNL     1      -2.785  19.195  27.616  1.00  0.00    -0.000 C 
BRANCH  18  19
ATOM     19  C   UNL     1      -2.675  20.549  26.905  1.00  0.00    -0.003 C 
ATOM     20  C   UNL     1      -1.337  20.682  26.187  1.00  0.00     0.004 C 
ENDBRANCH  18  19
ENDBRANCH  17  18
ENDBRANCH  16  17
ENDBRANCH  15  16
ENDBRANCH  14  15
ENDBRANCH  13  14
ENDBRANCH  12  13
ENDBRANCH   1  12
TORSDOF 16
ENDMDL
MODEL 4
REMARK VINA RESULT:    -4.476     15.545     18.964
REMARK INTER + INTRA:          -9.768
REMARK INTER:                  -9.128
REMARK INTRA:                  -0.640
REMARK UNBOUND:                -1.106
REMARK SMILES CCCCCCCCCCCCCCCCCC(=O)[O-]
REMARK SMILES IDX 10 1 11 2 12 3 13 4 14 5 15 6 16 7 17 8 18 9 19 10 20 11
REMARK SMILES IDX 9 12 8 13 7 14 6 15 5 16 4 17 3 18 2 19 1 20
REMARK H PARENT
REMARK Flexibility Score: inf
ROOT
ATOM      1  C   UNL     1       3.038   9.295  16.133  1.00  0.00     0.000 C 
ENDROOT
BRANCH   1   2
ATOM      2  C   UNL     1       3.971  10.005  15.132  1.00  0.00     0.000 C 
BRANCH   2   3
ATOM      3  C   UNL     1       5.407   9.446  15.167  1.00  0.00     0.000 C 
BRANCH   3   4
ATOM      4  C   UNL     1       6.366  10.257  16.066  1.00  0.00     0.000 C 
BRANCH   4   5
ATOM      5  C   UNL     1       6.616  11.690  15.564  1.00  0.00     0.000 C 
BRANCH   5   6
ATOM      6  C   UNL     1       8.101  12.079  15.619  1.00  0.00     0.000 C 
BRANCH   6   7
ATOM      7  C   UNL     1       8.688  11.828  17.018  1.00  0.00     0.006 C 
BRANCH   7   8
ATOM      8  C   UNL     1       8.004  12.683  18.099  1.00  0.00     0.053 C 
BRANCH   8   9
ATOM      9  C   UNL     1       8.999  13.488  18.881  1.00  0.00     0.041 C 
ATOM     10  O   UNL     1       8.704  14.643  19.274  1.00  0.00    -0.550 OA
ATOM     11  O   UNL     1      10.264  12.976  19.144  1.00  0.00    -0.550 OA
ENDBRANCH   8   9
ENDBRANCH   7   8
ENDBRANCH   6   7
ENDBRANCH   5   6
ENDBRANCH   4   5
ENDBRANCH   3   4
ENDBRANCH   2   3
ENDBRANCH   1   2
BRANCH   1  12
ATOM     12  C   UNL     1       2.002   8.383  15.449  1.00  0.00     0.000 C 
BRANCH  12  13
ATOM     13  C   UNL     1       0.538   8.640  15.850  1.00  0.00    -0.000 C 
BRANCH  13  14
ATOM     14  C   UNL     1       0.401   9.303  17.231  1.00  0.00    -0.000 C 
BRANCH  14  15
ATOM     15  C   UNL     1      -1.073   9.533  17.626  1.00  0.00    -0.000 C 
BRANCH  15  16
ATOM     16  C   UNL     1      -1.268  10.684  18.630  1.00  0.00    -0.000 C 
BRANCH  16  17
ATOM     17  C   UNL     1      -2.690  10.743  19.201  1.00  0.00    -0.000 C 
BRANCH  17  18
ATOM     18  C   UNL     1      -2.862   9.737  20.344  1.00  0.00    -0.000 C 
BRANCH  18  19
ATOM     19  C   UNL     1      -1.537   9.512  21.081  1.00  0.00    -0.003 C 
ATOM     20  C   UNL     1      -1.649   8.352  22.064  1.00  0.00     0.004 C 
ENDBRANCH  18  19
ENDBRANCH  17  18
ENDBRANCH  16  17
ENDBRANCH  15  16
ENDBRANCH  14  15
ENDBRANCH  13  14
ENDBRANCH  12  13
ENDBRANCH   1  12
TORSDOF 16
ENDMDL
MODEL 5
REMARK VINA RESULT:    -4.335     14.564     17.685
REMARK INTER + INTRA:          -9.496
REMARK INTER:                  -8.746
REMARK INTRA:                  -0.749
REMARK UNBOUND:                -1.106
REMARK SMILES CCCCCCCCCCCCCCCCCC(=O)[O-]
REMARK SMILES IDX 10 1 11 2 12 3 13 4 14 5 15 6 16 7 17 8 18 9 19 10 20 11
REMARK SMILES IDX 9 12 8 13 7 14 6 15 5 16 4 17 3 18 2 19 1 20
REMARK H PARENT
REMARK Flexibility Score: inf
ROOT
ATOM      1  C   UNL     1       3.579   9.541  15.026  1.00  0.00     0.000 C 
ENDROOT
BRANCH   1   2
ATOM      2  C   UNL     1       2.558   9.128  16.106  1.00  0.00     0.000 C 
BRANCH   2   3
ATOM      3  C   UNL     1       1.374   8.333  15.524  1.00  0.00     0.000 C 
BRANCH   3   4
ATOM      4  C   UNL     1       0.072   8.471  16.344  1.00  0.00     0.000 C 
BRANCH   4   5
ATOM      5  C   UNL     1       0.208   9.403  17.561  1.00  0.00     0.000 C 
BRANCH   5   6
ATOM      6  C   UNL     1      -1.117  10.089  17.925  1.00  0.00     0.000 C 
BRANCH   6   7
ATOM      7  C   UNL     1      -0.937  11.050  19.111  1.00  0.00     0.006 C 
BRANCH   7   8
ATOM      8  C   UNL     1      -2.132  11.012  20.079  1.00  0.00     0.053 C 
BRANCH   8   9
ATOM      9  C   UNL     1      -2.456   9.612  20.507  1.00  0.00     0.041 C 
ATOM     10  O   UNL     1      -3.517   9.066  20.120  1.00  0.00    -0.550 OA
ATOM     11  O   UNL     1      -1.602   8.924  21.361  1.00  0.00    -0.550 OA
ENDBRANCH   8   9
ENDBRANCH   7   8
ENDBRANCH   6   7
ENDBRANCH   5   6
ENDBRANCH   4   5
ENDBRANCH   3   4
ENDBRANCH   2   3
ENDBRANCH   1   2
BRANCH   1  12
ATOM     12  C   UNL     1       4.919  10.022  15.614  1.00  0.00     0.000 C 
BRANCH  12  13
ATOM     13  C   UNL     1       5.571  11.204  14.875  1.00  0.00    -0.000 C 
BRANCH  13  14
ATOM     14  C   UNL     1       7.074  11.342  15.173  1.00  0.00    -0.000 C 
BRANCH  14  15
ATOM     15  C   UNL     1       7.593  10.222  16.097  1.00  0.00    -0.000 C 
BRANCH  15  16
ATOM     16  C   UNL     1       8.595  10.714  17.158  1.00  0.00    -0.000 C 
BRANCH  16  17
ATOM     17  C   UNL     1       8.458  12.211  17.460  1.00  0.00    -0.000 C 
BRANCH  17  18
ATOM     18  C   UNL     1       9.278  12.597  18.695  1.00  0.00    -0.000 C 
BRANCH  18  19
ATOM     19  C   UNL     1       9.304  14.118  18.884  1.00  0.00    -0.003 C 
ATOM     20  C   UNL     1       8.469  14.533  20.090  1.00  0.00     0.004 C 
ENDBRANCH  18  19
ENDBRANCH  17  18
ENDBRANCH  16  17
ENDBRANCH  15  16
ENDBRANCH  14  15
ENDBRANCH  13  14
ENDBRANCH  12  13
ENDBRANCH   1  12
TORSDOF 16
ENDMDL
MODEL 6
REMARK VINA RESULT:    -4.328     16.764     20.572
REMARK INTER + INTRA:          -9.481
REMARK INTER:                  -8.815
REMARK INTRA:                  -0.666
REMARK UNBOUND:                -1.106
REMARK SMILES CCCCCCCCCCCCCCCCCC(=O)[O-]
REMARK SMILES IDX 10 1 11 2 12 3 13 4 14 5 15 6 16 7 17 8 18 9 19 10 20 11
REMARK SMILES IDX 9 12 8 13 7 14 6 15 5 16 4 17 3 18 2 19 1 20
REMARK H PARENT
REMARK Flexibility Score: inf
ROOT
ATOM      1  C   UNL     1       5.261  10.076  15.815  1.00  0.00     0.000 C 
ENDROOT
BRANCH   1   2
ATOM      2  C   UNL     1       5.967  11.299  15.195  1.00  0.00     0.000 C 
BRANCH   2   3
ATOM      3  C   UNL     1       7.248  11.688  15.958  1.00  0.00     0.000 C 
BRANCH   3   4
ATOM      4  C   UNL     1       8.488  11.839  15.049  1.00  0.00     0.000 C 
BRANCH   4   5
ATOM      5  C   UNL     1       9.352  10.568  14.972  1.00  0.00     0.000 C 
BRANCH   5   6
ATOM      6  C   UNL     1       9.360   9.783  16.293  1.00  0.00     0.000 C 
BRANCH   6   7
ATOM      7  C   UNL     1      10.660   8.978  16.451  1.00  0.00     0.006 C 
BRANCH   7   8
ATOM      8  C   UNL     1      11.160   8.958  17.906  1.00  0.00     0.053 C 
BRANCH   8   9
ATOM      9  C   UNL     1      12.427   8.168  18.047  1.00  0.00     0.041 C 
ATOM     10  O   UNL     1      13.049   8.168  19.137  1.00  0.00    -0.550 OA
ATOM     11  O   UNL     1      12.938   7.463  16.964  1.00  0.00    -0.550 OA
ENDBRANCH   8   9
ENDBRANCH   7   8
ENDBRANCH   6   7
ENDBRANCH   5   6
ENDBRANCH   4   5
ENDBRANCH   3   4
ENDBRANCH   2   3
ENDBRANCH   1   2
BRANCH   1  12
ATOM     12  C   UNL     1       3.904   9.764  15.155  1.00  0.00     0.000 C 
BRANCH  12  13
ATOM     13  C   UNL     1       2.804   9.281  16.117  1.00  0.00    -0.000 C 
BRANCH  13  14
ATOM     14  C   UNL     1       1.791   8.339  15.446  1.00  0.00    -0.000 C 
BRANCH  14  15
ATOM     15  C   UNL     1       0.401   8.405  16.111  1.00  0.00    -0.000 C 
BRANCH  15  16
ATOM     16  C   UNL     1       0.289   9.492  17.196  1.00  0.00    -0.000 C 
BRANCH  16  17
ATOM     17  C   UNL     1      -1.052   9.458  17.940  1.00  0.00    -0.000 C 
BRANCH  17  18
ATOM     18  C   UNL     1      -1.272  10.751  18.730  1.00  0.00    -0.000 C 
BRANCH  18  19
ATOM     19  C   UNL     1      -1.750  10.449  20.155  1.00  0.00    -0.003 C 
ATOM     20  C   UNL     1      -3.113   9.766  20.142  1.00  0.00     0.004 C 
ENDBRANCH  18  19
ENDBRANCH  17  18
ENDBRANCH  16  17
ENDBRANCH  15  16
ENDBRANCH  14  15
ENDBRANCH  13  14
ENDBRANCH  12  13
ENDBRANCH   1  12
TORSDOF 16
ENDMDL
MODEL 7
REMARK VINA RESULT:    -4.153     15.111     18.977
REMARK INTER + INTRA:          -9.142
REMARK INTER:                  -8.481
REMARK INTRA:                  -0.661
REMARK UNBOUND:                -1.106
REMARK SMILES CCCCCCCCCCCCCCCCCC(=O)[O-]
REMARK SMILES IDX 10 1 11 2 12 3 13 4 14 5 15 6 16 7 17 8 18 9 19 10 20 11
REMARK SMILES IDX 9 12 8 13 7 14 6 15 5 16 4 17 3 18 2 19 1 20
REMARK H PARENT
REMARK Flexibility Score: inf
ROOT
ATOM      1  C   UNL     1       5.058  10.019  16.411  1.00  0.00     0.000 C 
ENDROOT
BRANCH   1   2
ATOM      2  C   UNL     1       6.350  10.116  15.575  1.00  0.00     0.000 C 
BRANCH   2   3
ATOM      3  C   UNL     1       6.746  11.574  15.270  1.00  0.00     0.000 C 
BRANCH   3   4
ATOM      4  C   UNL     1       8.266  11.832  15.351  1.00  0.00     0.000 C 
BRANCH   4   5
ATOM      5  C   UNL     1       8.996  10.906  16.340  1.00  0.00     0.000 C 
BRANCH   5   6
ATOM      6  C   UNL     1       8.697  11.262  17.804  1.00  0.00     0.000 C 
BRANCH   6   7
ATOM      7  C   UNL     1       8.522  12.778  17.982  1.00  0.00     0.006 C 
BRANCH   7   8
ATOM      8  C   UNL     1       9.510  13.363  19.006  1.00  0.00     0.053 C 
BRANCH   8   9
ATOM      9  C   UNL     1       8.939  14.559  19.708  1.00  0.00     0.041 C 
ATOM     10  O   UNL     1       8.817  14.555  20.957  1.00  0.00    -0.550 OA
ATOM     11  O   UNL     1       8.509  15.661  18.980  1.00  0.00    -0.550 OA
ENDBRANCH   8   9
ENDBRANCH   7   8
ENDBRANCH   6   7
ENDBRANCH   5   6
ENDBRANCH   4   5
ENDBRANCH   3   4
ENDBRANCH   2   3
ENDBRANCH   1   2
BRANCH   1  12
ATOM     12  C   UNL     1       3.815   9.685  15.564  1.00  0.00     0.000 C 
BRANCH  12  13
ATOM     13  C   UNL     1       2.523   9.441  16.365  1.00  0.00    -0.000 C 
BRANCH  13  14
ATOM     14  C   UNL     1       1.485   8.610  15.592  1.00  0.00    -0.000 C 
BRANCH  14  15
ATOM     15  C   UNL     1       0.154   8.476  16.360  1.00  0.00    -0.000 C 
BRANCH  15  16
ATOM     16  C   UNL     1       0.117   9.281  17.672  1.00  0.00    -0.000 C 
BRANCH  16  17
ATOM     17  C   UNL     1      -1.273   9.850  17.984  1.00  0.00    -0.000 C 
BRANCH  17  18
ATOM     18  C   UNL     1      -1.200  10.883  19.113  1.00  0.00    -0.000 C 
BRANCH  18  19
ATOM     19  C   UNL     1      -2.336  10.677  20.121  1.00  0.00    -0.003 C 
ATOM     20  C   UNL     1      -3.447   9.820  19.525  1.00  0.00     0.004 C 
ENDBRANCH  18  19
ENDBRANCH  17  18
ENDBRANCH  16  17
ENDBRANCH  15  16
ENDBRANCH  14  15
ENDBRANCH  13  14
ENDBRANCH  12  13
ENDBRANCH   1  12
TORSDOF 16
ENDMDL
MODEL 8
REMARK VINA RESULT:    -4.023     13.281     17.271
REMARK INTER + INTRA:          -8.891
REMARK INTER:                  -8.163
REMARK INTRA:                  -0.727
REMARK UNBOUND:                -1.106
REMARK SMILES CCCCCCCCCCCCCCCCCC(=O)[O-]
REMARK SMILES IDX 10 1 11 2 12 3 13 4 14 5 15 6 16 7 17 8 18 9 19 10 20 11
REMARK SMILES IDX 9 12 8 13 7 14 6 15 5 16 4 17 3 18 2 19 1 20
REMARK H PARENT
REMARK Flexibility Score: inf
ROOT
ATOM      1  C   UNL     1       8.580  12.125  18.300  1.00  0.00     0.000 C 
ENDROOT
BRANCH   1   2
ATOM      2  C   UNL     1       9.495  13.110  19.055  1.00  0.00     0.000 C 
BRANCH   2   3
ATOM      3  C   UNL     1       8.820  14.474  19.295  1.00  0.00     0.000 C 
BRANCH   3   4
ATOM      4  C   UNL     1       8.479  14.742  20.778  1.00  0.00     0.000 C 
BRANCH   4   5
ATOM      5  C   UNL     1       9.576  14.285  21.755  1.00  0.00     0.000 C 
BRANCH   5   6
ATOM      6  C   UNL     1       9.550  15.070  23.075  1.00  0.00     0.000 C 
BRANCH   6   7
ATOM      7  C   UNL     1       8.802  14.291  24.168  1.00  0.00     0.006 C 
BRANCH   7   8
ATOM      8  C   UNL     1       7.797  15.173  24.929  1.00  0.00     0.053 C 
BRANCH   8   9
ATOM      9  C   UNL     1       6.382  14.863  24.543  1.00  0.00     0.041 C 
ATOM     10  O   UNL     1       6.128  13.851  23.846  1.00  0.00    -0.550 OA
ATOM     11  O   UNL     1       5.349  15.712  24.922  1.00  0.00    -0.550 OA
ENDBRANCH   8   9
ENDBRANCH   7   8
ENDBRANCH   6   7
ENDBRANCH   5   6
ENDBRANCH   4   5
ENDBRANCH   3   4
ENDBRANCH   2   3
ENDBRANCH   1   2
BRANCH   1  12
ATOM     12  C   UNL     1       8.536  12.384  16.782  1.00  0.00     0.000 C 
BRANCH  12  13
ATOM     13  C   UNL     1       7.285  11.848  16.062  1.00  0.00    -0.000 C 
BRANCH  13  14
ATOM     14  C   UNL     1       7.534  10.513  15.339  1.00  0.00    -0.000 C 
BRANCH  14  15
ATOM     15  C   UNL     1       6.221   9.819  14.925  1.00  0.00    -0.000 C 
BRANCH  15  16
ATOM     16  C   UNL     1       5.144   9.831  16.026  1.00  0.00    -0.000 C 
BRANCH  16  17
ATOM     17  C   UNL     1       3.716   9.833  15.465  1.00  0.00    -0.000 C 
BRANCH  17  18
ATOM     18  C   UNL     1       2.725   9.277  16.492  1.00  0.00    -0.000 C 
BRANCH  18  19
ATOM     19  C   UNL     1       1.584   8.523  15.800  1.00  0.00    -0.003 C 
ATOM     20  C   UNL     1       0.249   8.807  16.480  1.00  0.00     0.004 C 
ENDBRANCH  18  19
ENDBRANCH  17  18
ENDBRANCH  16  17
ENDBRANCH  15  16
ENDBRANCH  14  15
ENDBRANCH  13  14
ENDBRANCH  12  13
ENDBRANCH   1  12
TORSDOF 16
ENDMDL
