MODEL 1
REMARK VINA RESULT:    -3.117      0.000      0.000
REMARK INTER + INTRA:         -11.651
REMARK INTER:                  -7.126
REMARK INTRA:                  -4.525
REMARK UNBOUND:                -4.525
REMARK SMILES CCCCCCCCCCCCCCCCCCCCCCCC(=O)[O-]
REMARK SMILES IDX 13 1 14 2 15 3 16 4 17 5 18 6 19 7 20 8 21 9 22 10 23 11
REMARK SMILES IDX 24 12 25 13 26 14 12 15 11 16 10 17 9 18 8 19 7 20 6 21 5 22
REMARK SMILES IDX 4 23 3 24 2 25 1 26
REMARK H PARENT
REMARK Flexibility Score: inf
ROOT
ATOM      1  C   UNL     1      30.967  -0.049 -34.902  1.00  0.00     0.000 C 
ENDROOT
BRANCH   1   2
ATOM      2  C   UNL     1      31.325  -1.540 -34.744  1.00  0.00     0.000 C 
BRANCH   2   3
ATOM      3  C   UNL     1      30.560  -2.508 -35.668  1.00  0.00     0.000 C 
BRANCH   3   4
ATOM      4  C   UNL     1      31.081  -3.953 -35.589  1.00  0.00     0.000 C 
BRANCH   4   5
ATOM      5  C   UNL     1      32.209  -4.242 -36.597  1.00  0.00     0.000 C 
BRANCH   5   6
ATOM      6  C   UNL     1      31.780  -5.001 -37.867  1.00  0.00     0.000 C 
BRANCH   6   7
ATOM      7  C   UNL     1      30.308  -5.447 -37.895  1.00  0.00     0.000 C 
BRANCH   7   8
ATOM      8  C   UNL     1      29.464  -4.667 -38.919  1.00  0.00     0.000 C 
BRANCH   8   9
ATOM      9  C   UNL     1      28.327  -3.867 -38.248  1.00  0.00     0.000 C 
BRANCH   9  10
ATOM     10  C   UNL     1      27.530  -4.683 -37.216  1.00  0.00     0.006 C 
BRANCH  10  11
ATOM     11  C   UNL     1      27.309  -3.931 -35.899  1.00  0.00     0.053 C 
BRANCH  11  12
ATOM     12  C   UNL     1      25.920  -3.378 -35.842  1.00  0.00     0.041 C 
ATOM     13  O   UNL     1      25.030  -3.821 -36.614  1.00  0.00    -0.550 OA
ATOM     14  O   UNL     1      25.619  -2.345 -34.962  1.00  0.00    -0.550 OA
ENDBRANCH  11  12
ENDBRANCH  10  11
ENDBRANCH   9  10
ENDBRANCH   8   9
ENDBRANCH   7   8
ENDBRANCH   6   7
ENDBRANCH   5   6
ENDBRANCH   4   5
ENDBRANCH   3   4
ENDBRANCH   2   3
ENDBRANCH   1   2
BRANCH   1  15
ATOM     15  C   UNL     1      32.122   0.793 -35.473  1.00  0.00     0.000 C 
BRANCH  15  16
ATOM     16  C   UNL     1      33.482   0.083 -35.370  1.00  0.00     0.000 C 
BRANCH  16  17
ATOM     17  C   UNL     1      34.103  -0.219 -36.745  1.00  0.00     0.000 C 
BRANCH  17  18
ATOM     18  C   UNL     1      33.104  -0.021 -37.899  1.00  0.00    -0.000 C 
BRANCH  18  19
ATOM     19  C   UNL     1      32.770  -1.296 -38.699  1.00  0.00    -0.000 C 
BRANCH  19  20
ATOM     20  C   UNL     1      31.273  -1.436 -39.048  1.00  0.00    -0.000 C 
BRANCH  20  21
ATOM     21  C   UNL     1      30.511  -0.106 -38.898  1.00  0.00    -0.000 C 
BRANCH  21  22
ATOM     22  C   UNL     1      29.152  -0.280 -38.201  1.00  0.00    -0.000 C 
BRANCH  22  23
ATOM     23  C   UNL     1      28.521   1.061 -37.793  1.00  0.00    -0.000 C 
BRANCH  23  24
ATOM     24  C   UNL     1      29.420   2.237 -38.200  1.00  0.00    -0.000 C 
BRANCH  24  25
ATOM     25  C   UNL     1      28.636   3.374 -38.874  1.00  0.00    -0.003 C 
ATOM     26  C   UNL     1      27.470   2.867 -39.722  1.00  0.00     0.004 C 
ENDBRANCH  24  25
ENDBRANCH  23  24
ENDBRANCH  22  23
ENDBRANCH  21  22
ENDBRANCH  20  21
ENDBRANCH  19  20
ENDBRANCH  18  19
ENDBRANCH  17  18
ENDBRANCH  16  17
ENDBRANCH  15  16
ENDBRANCH   1  15
TORSDOF 22
ENDMDL
MODEL 2
REMARK VINA RESULT:    -3.101      1.923      5.724
REMARK INTER + INTRA:         -11.615
REMARK INTER:                  -6.931
REMARK INTRA:                  -4.684
REMARK UNBOUND:                -4.525
REMARK SMILES CCCCCCCCCCCCCCCCCCCCCCCC(=O)[O-]
REMARK SMILES IDX 13 1 14 2 15 3 16 4 17 5 18 6 19 7 20 8 21 9 22 10 23 11
REMARK SMILES IDX 24 12 25 13 26 14 12 15 11 16 10 17 9 18 8 19 7 20 6 21 5 22
REMARK SMILES IDX 4 23 3 24 2 25 1 26
REMARK H PARENT
REMARK Flexibility Score: inf
ROOT
ATOM      1  C   UNL     1      33.087  -0.072 -37.868  1.00  0.00     0.000 C 
ENDROOT
BRANCH   1   2
ATOM      2  C   UNL     1      33.870  -0.288 -36.558  1.00  0.00     0.000 C 
BRANCH   2   3
ATOM      3  C   UNL     1      33.107  -1.028 -35.442  1.00  0.00     0.000 C 
BRANCH   3   4
ATOM      4  C   UNL     1      33.009  -0.215 -34.140  1.00  0.00     0.000 C 
BRANCH   4   5
ATOM      5  C   UNL     1      33.423   1.258 -34.318  1.00  0.00     0.000 C 
BRANCH   5   6
ATOM      6  C   UNL     1      32.360   2.296 -33.908  1.00  0.00     0.000 C 
BRANCH   6   7
ATOM      7  C   UNL     1      30.922   1.962 -34.339  1.00  0.00     0.000 C 
BRANCH   7   8
ATOM      8  C   UNL     1      30.732   1.990 -35.866  1.00  0.00     0.000 C 
BRANCH   8   9
ATOM      9  C   UNL     1      29.774   0.882 -36.354  1.00  0.00     0.000 C 
BRANCH   9  10
ATOM     10  C   UNL     1      29.300  -0.056 -35.231  1.00  0.00     0.006 C 
BRANCH  10  11
ATOM     11  C   UNL     1      29.484  -1.539 -35.572  1.00  0.00     0.053 C 
BRANCH  11  12
ATOM     12  C   UNL     1      28.302  -2.330 -35.109  1.00  0.00     0.041 C 
ATOM     13  O   UNL     1      28.408  -3.567 -34.902  1.00  0.00    -0.550 OA
ATOM     14  O   UNL     1      27.071  -1.707 -34.943  1.00  0.00    -0.550 OA
ENDBRANCH  11  12
ENDBRANCH  10  11
ENDBRANCH   9  10
ENDBRANCH   8   9
ENDBRANCH   7   8
ENDBRANCH   6   7
ENDBRANCH   5   6
ENDBRANCH   4   5
ENDBRANCH   3   4
ENDBRANCH   2   3
ENDBRANCH   1   2
BRANCH   1  15
ATOM     15  C   UNL     1      33.083  -1.310 -38.781  1.00  0.00     0.000 C 
BRANCH  15  16
ATOM     16  C   UNL     1      31.736  -2.050 -38.773  1.00  0.00     0.000 C 
BRANCH  16  17
ATOM     17  C   UNL     1      30.578  -1.189 -39.306  1.00  0.00     0.000 C 
BRANCH  17  18
ATOM     18  C   UNL     1      29.226  -1.922 -39.256  1.00  0.00    -0.000 C 
BRANCH  18  19
ATOM     19  C   UNL     1      29.296  -3.439 -39.525  1.00  0.00    -0.000 C 
BRANCH  19  20
ATOM     20  C   UNL     1      28.808  -4.302 -38.343  1.00  0.00    -0.000 C 
BRANCH  20  21
ATOM     21  C   UNL     1      29.574  -5.634 -38.237  1.00  0.00    -0.000 C 
BRANCH  21  22
ATOM     22  C   UNL     1      31.052  -5.437 -37.864  1.00  0.00    -0.000 C 
BRANCH  22  23
ATOM     23  C   UNL     1      31.232  -4.633 -36.565  1.00  0.00    -0.000 C 
BRANCH  23  24
ATOM     24  C   UNL     1      32.698  -4.650 -36.108  1.00  0.00    -0.000 C 
BRANCH  24  25
ATOM     25  C   UNL     1      33.682  -4.763 -37.283  1.00  0.00    -0.003 C 
ATOM     26  C   UNL     1      34.962  -3.957 -37.063  1.00  0.00     0.004 C 
ENDBRANCH  24  25
ENDBRANCH  23  24
ENDBRANCH  22  23
ENDBRANCH  21  22
ENDBRANCH  20  21
ENDBRANCH  19  20
ENDBRANCH  18  19
ENDBRANCH  17  18
ENDBRANCH  16  17
ENDBRANCH  15  16
ENDBRANCH   1  15
TORSDOF 22
ENDMDL
MODEL 3
REMARK VINA RESULT:    -3.092      3.626      7.159
REMARK INTER + INTRA:         -11.594
REMARK INTER:                  -8.230
REMARK INTRA:                  -3.364
REMARK UNBOUND:                -4.525
REMARK SMILES CCCCCCCCCCCCCCCCCCCCCCCC(=O)[O-]
REMARK SMILES IDX 13 1 14 2 15 3 16 4 17 5 18 6 19 7 20 8 21 9 22 10 23 11
REMARK SMILES IDX 24 12 25 13 26 14 12 15 11 16 10 17 9 18 8 19 7 20 6 21 5 22
REMARK SMILES IDX 4 23 3 24 2 25 1 26
REMARK H PARENT
REMARK Flexibility Score: inf
ROOT
ATOM      1  C   UNL     1      29.849  -0.301 -36.650  1.00  0.00     0.000 C 
ENDROOT
BRANCH   1   2
ATOM      2  C   UNL     1      29.919   0.417 -38.012  1.00  0.00     0.000 C 
BRANCH   2   3
ATOM      3  C   UNL     1      31.330   0.837 -38.470  1.00  0.00     0.000 C 
BRANCH   3   4
ATOM      4  C   UNL     1      32.267  -0.359 -38.708  1.00  0.00     0.000 C 
BRANCH   4   5
ATOM      5  C   UNL     1      33.627  -0.208 -38.001  1.00  0.00     0.000 C 
BRANCH   5   6
ATOM      6  C   UNL     1      33.688  -0.758 -36.563  1.00  0.00     0.000 C 
BRANCH   6   7
ATOM      7  C   UNL     1      33.919   0.298 -35.470  1.00  0.00     0.000 C 
BRANCH   7   8
ATOM      8  C   UNL     1      32.723   0.442 -34.512  1.00  0.00     0.000 C 
BRANCH   8   9
ATOM      9  C   UNL     1      32.081   1.844 -34.588  1.00  0.00     0.000 C 
BRANCH   9  10
ATOM     10  C   UNL     1      32.482   2.765 -33.423  1.00  0.00     0.006 C 
BRANCH  10  11
ATOM     11  C   UNL     1      33.918   3.289 -33.541  1.00  0.00     0.053 C 
BRANCH  11  12
ATOM     12  C   UNL     1      33.974   4.740 -33.182  1.00  0.00     0.041 C 
ATOM     13  O   UNL     1      34.964   5.439 -33.521  1.00  0.00    -0.550 OA
ATOM     14  O   UNL     1      32.948   5.311 -32.439  1.00  0.00    -0.550 OA
ENDBRANCH  11  12
ENDBRANCH  10  11
ENDBRANCH   9  10
ENDBRANCH   8   9
ENDBRANCH   7   8
ENDBRANCH   6   7
ENDBRANCH   5   6
ENDBRANCH   4   5
ENDBRANCH   3   4
ENDBRANCH   2   3
ENDBRANCH   1   2
BRANCH   1  15
ATOM     15  C   UNL     1      30.055  -1.823 -36.758  1.00  0.00     0.000 C 
BRANCH  15  16
ATOM     16  C   UNL     1      30.662  -2.431 -35.484  1.00  0.00     0.000 C 
BRANCH  16  17
ATOM     17  C   UNL     1      31.464  -3.715 -35.759  1.00  0.00     0.000 C 
BRANCH  17  18
ATOM     18  C   UNL     1      31.756  -3.917 -37.257  1.00  0.00    -0.000 C 
BRANCH  18  19
ATOM     19  C   UNL     1      31.159  -5.199 -37.871  1.00  0.00    -0.000 C 
BRANCH  19  20
ATOM     20  C   UNL     1      29.840  -4.965 -38.637  1.00  0.00    -0.000 C 
BRANCH  20  21
ATOM     21  C   UNL     1      28.630  -5.588 -37.919  1.00  0.00    -0.000 C 
BRANCH  21  22
ATOM     22  C   UNL     1      27.663  -4.530 -37.364  1.00  0.00    -0.000 C 
BRANCH  22  23
ATOM     23  C   UNL     1      26.425  -5.151 -36.696  1.00  0.00    -0.000 C 
BRANCH  23  24
ATOM     24  C   UNL     1      26.152  -4.500 -35.333  1.00  0.00    -0.000 C 
BRANCH  24  25
ATOM     25  C   UNL     1      27.250  -3.508 -34.922  1.00  0.00    -0.003 C 
ATOM     26  C   UNL     1      27.916  -3.877 -33.597  1.00  0.00     0.004 C 
ENDBRANCH  24  25
ENDBRANCH  23  24
ENDBRANCH  22  23
ENDBRANCH  21  22
ENDBRANCH  20  21
ENDBRANCH  19  20
ENDBRANCH  18  19
ENDBRANCH  17  18
ENDBRANCH  16  17
ENDBRANCH  15  16
ENDBRANCH   1  15
TORSDOF 22
ENDMDL
MODEL 4
REMARK VINA RESULT:    -3.037      1.434      2.594
REMARK INTER + INTRA:         -11.469
REMARK INTER:                  -7.690
REMARK INTRA:                  -3.779
REMARK UNBOUND:                -4.525
REMARK SMILES CCCCCCCCCCCCCCCCCCCCCCCC(=O)[O-]
REMARK SMILES IDX 13 1 14 2 15 3 16 4 17 5 18 6 19 7 20 8 21 9 22 10 23 11
REMARK SMILES IDX 24 12 25 13 26 14 12 15 11 16 10 17 9 18 8 19 7 20 6 21 5 22
REMARK SMILES IDX 4 23 3 24 2 25 1 26
REMARK H PARENT
REMARK Flexibility Score: inf
ROOT
ATOM      1  C   UNL     1      31.108  -1.862 -34.593  1.00  0.00     0.000 C 
ENDROOT
BRANCH   1   2
ATOM      2  C   UNL     1      30.414  -3.058 -35.275  1.00  0.00     0.000 C 
BRANCH   2   3
ATOM      3  C   UNL     1      31.327  -3.954 -36.135  1.00  0.00     0.000 C 
BRANCH   3   4
ATOM      4  C   UNL     1      30.836  -4.097 -37.585  1.00  0.00     0.000 C 
BRANCH   4   5
ATOM      5  C   UNL     1      30.331  -5.515 -37.912  1.00  0.00     0.000 C 
BRANCH   5   6
ATOM      6  C   UNL     1      28.836  -5.615 -38.275  1.00  0.00     0.000 C 
BRANCH   6   7
ATOM      7  C   UNL     1      27.931  -4.568 -37.606  1.00  0.00     0.000 C 
BRANCH   7   8
ATOM      8  C   UNL     1      26.748  -5.194 -36.848  1.00  0.00     0.000 C 
BRANCH   8   9
ATOM      9  C   UNL     1      26.203  -4.261 -35.745  1.00  0.00     0.000 C 
BRANCH   9  10
ATOM     10  C   UNL     1      25.176  -3.239 -36.260  1.00  0.00     0.006 C 
BRANCH  10  11
ATOM     11  C   UNL     1      23.801  -3.386 -35.598  1.00  0.00     0.053 C 
BRANCH  11  12
ATOM     12  C   UNL     1      23.914  -3.211 -34.117  1.00  0.00     0.041 C 
ATOM     13  O   UNL     1      24.303  -2.115 -33.637  1.00  0.00    -0.550 OA
ATOM     14  O   UNL     1      23.628  -4.274 -33.268  1.00  0.00    -0.550 OA
ENDBRANCH  11  12
ENDBRANCH  10  11
ENDBRANCH   9  10
ENDBRANCH   8   9
ENDBRANCH   7   8
ENDBRANCH   6   7
ENDBRANCH   5   6
ENDBRANCH   4   5
ENDBRANCH   3   4
ENDBRANCH   2   3
ENDBRANCH   1   2
BRANCH   1  15
ATOM     15  C   UNL     1      32.605  -1.757 -34.934  1.00  0.00     0.000 C 
BRANCH  15  16
ATOM     16  C   UNL     1      32.989  -0.381 -35.501  1.00  0.00     0.000 C 
BRANCH  16  17
ATOM     17  C   UNL     1      33.958  -0.476 -36.693  1.00  0.00     0.000 C 
BRANCH  17  18
ATOM     18  C   UNL     1      33.306  -0.046 -38.019  1.00  0.00    -0.000 C 
BRANCH  18  19
ATOM     19  C   UNL     1      32.246  -1.019 -38.571  1.00  0.00    -0.000 C 
BRANCH  19  20
ATOM     20  C   UNL     1      31.001  -0.317 -39.153  1.00  0.00    -0.000 C 
BRANCH  20  21
ATOM     21  C   UNL     1      31.016   1.202 -38.902  1.00  0.00    -0.000 C 
BRANCH  21  22
ATOM     22  C   UNL     1      29.838   1.667 -38.030  1.00  0.00    -0.000 C 
BRANCH  22  23
ATOM     23  C   UNL     1      29.813   0.980 -36.655  1.00  0.00    -0.000 C 
BRANCH  23  24
ATOM     24  C   UNL     1      28.424   0.398 -36.358  1.00  0.00    -0.000 C 
BRANCH  24  25
ATOM     25  C   UNL     1      28.186  -0.948 -37.060  1.00  0.00    -0.003 C 
ATOM     26  C   UNL     1      27.215  -0.839 -38.236  1.00  0.00     0.004 C 
ENDBRANCH  24  25
ENDBRANCH  23  24
ENDBRANCH  22  23
ENDBRANCH  21  22
ENDBRANCH  20  21
ENDBRANCH  19  20
ENDBRANCH  18  19
ENDBRANCH  17  18
ENDBRANCH  16  17
ENDBRANCH  15  16
ENDBRANCH   1  15
TORSDOF 22
ENDMDL
MODEL 5
REMARK VINA RESULT:    -3.010      1.889      4.405
REMARK INTER + INTRA:         -11.407
REMARK INTER:                  -7.597
REMARK INTRA:                  -3.810
REMARK UNBOUND:                -4.525
REMARK SMILES CCCCCCCCCCCCCCCCCCCCCCCC(=O)[O-]
REMARK SMILES IDX 13 1 14 2 15 3 16 4 17 5 18 6 19 7 20 8 21 9 22 10 23 11
REMARK SMILES IDX 24 12 25 13 26 14 12 15 11 16 10 17 9 18 8 19 7 20 6 21 5 22
REMARK SMILES IDX 4 23 3 24 2 25 1 26
REMARK H PARENT
REMARK Flexibility Score: inf
ROOT
ATOM      1  C   UNL     1      32.904   0.123 -38.039  1.00  0.00     0.000 C 
ENDROOT
BRANCH   1   2
ATOM      2  C   UNL     1      31.591   0.636 -38.664  1.00  0.00     0.000 C 
BRANCH   2   3
ATOM      3  C   UNL     1      30.297   0.161 -37.976  1.00  0.00     0.000 C 
BRANCH   3   4
ATOM      4  C   UNL     1      29.584  -0.964 -38.746  1.00  0.00     0.000 C 
BRANCH   4   5
ATOM      5  C   UNL     1      28.985  -2.039 -37.820  1.00  0.00     0.000 C 
BRANCH   5   6
ATOM      6  C   UNL     1      28.827  -3.437 -38.450  1.00  0.00     0.000 C 
BRANCH   6   7
ATOM      7  C   UNL     1      28.277  -4.519 -37.505  1.00  0.00     0.000 C 
BRANCH   7   8
ATOM      8  C   UNL     1      26.905  -4.154 -36.909  1.00  0.00     0.000 C 
BRANCH   8   9
ATOM      9  C   UNL     1      26.938  -4.092 -35.367  1.00  0.00     0.000 C 
BRANCH   9  10
ATOM     10  C   UNL     1      25.742  -4.791 -34.700  1.00  0.00     0.006 C 
BRANCH  10  11
ATOM     11  C   UNL     1      25.808  -4.762 -33.169  1.00  0.00     0.053 C 
BRANCH  11  12
ATOM     12  C   UNL     1      24.431  -4.824 -32.587  1.00  0.00     0.041 C 
ATOM     13  O   UNL     1      23.519  -4.082 -33.036  1.00  0.00    -0.550 OA
ATOM     14  O   UNL     1      24.165  -5.676 -31.522  1.00  0.00    -0.550 OA
ENDBRANCH  11  12
ENDBRANCH  10  11
ENDBRANCH   9  10
ENDBRANCH   8   9
ENDBRANCH   7   8
ENDBRANCH   6   7
ENDBRANCH   5   6
ENDBRANCH   4   5
ENDBRANCH   3   4
ENDBRANCH   2   3
ENDBRANCH   1   2
BRANCH   1  15
ATOM     15  C   UNL     1      33.476  -1.109 -38.761  1.00  0.00     0.000 C 
BRANCH  15  16
ATOM     16  C   UNL     1      33.416  -2.382 -37.902  1.00  0.00     0.000 C 
BRANCH  16  17
ATOM     17  C   UNL     1      32.584  -3.502 -38.552  1.00  0.00     0.000 C 
BRANCH  17  18
ATOM     18  C   UNL     1      32.125  -4.561 -37.535  1.00  0.00    -0.000 C 
BRANCH  18  19
ATOM     19  C   UNL     1      33.049  -4.738 -36.313  1.00  0.00    -0.000 C 
BRANCH  19  20
ATOM     20  C   UNL     1      32.383  -4.368 -34.972  1.00  0.00    -0.000 C 
BRANCH  20  21
ATOM     21  C   UNL     1      31.071  -3.587 -35.166  1.00  0.00    -0.000 C 
BRANCH  21  22
ATOM     22  C   UNL     1      31.224  -2.089 -34.858  1.00  0.00    -0.000 C 
BRANCH  22  23
ATOM     23  C   UNL     1      32.622  -1.734 -34.327  1.00  0.00    -0.000 C 
BRANCH  23  24
ATOM     24  C   UNL     1      32.917  -0.239 -34.512  1.00  0.00    -0.000 C 
BRANCH  24  25
ATOM     25  C   UNL     1      31.639   0.607 -34.611  1.00  0.00    -0.003 C 
ATOM     26  C   UNL     1      31.905   2.103 -34.449  1.00  0.00     0.004 C 
ENDBRANCH  24  25
ENDBRANCH  23  24
ENDBRANCH  22  23
ENDBRANCH  21  22
ENDBRANCH  20  21
ENDBRANCH  19  20
ENDBRANCH  18  19
ENDBRANCH  17  18
ENDBRANCH  16  17
ENDBRANCH  15  16
ENDBRANCH   1  15
TORSDOF 22
ENDMDL
MODEL 6
REMARK VINA RESULT:    -2.966      2.069      4.340
REMARK INTER + INTRA:         -11.305
REMARK INTER:                  -7.467
REMARK INTRA:                  -3.838
REMARK UNBOUND:                -4.525
REMARK SMILES CCCCCCCCCCCCCCCCCCCCCCCC(=O)[O-]
REMARK SMILES IDX 13 1 14 2 15 3 16 4 17 5 18 6 19 7 20 8 21 9 22 10 23 11
REMARK SMILES IDX 24 12 25 13 26 14 12 15 11 16 10 17 9 18 8 19 7 20 6 21 5 22
REMARK SMILES IDX 4 23 3 24 2 25 1 26
REMARK H PARENT
REMARK Flexibility Score: inf
ROOT
ATOM      1  C   UNL     1      31.112  -1.314 -35.024  1.00  0.00     0.000 C 
ENDROOT
BRANCH   1   2
ATOM      2  C   UNL     1      30.024  -1.936 -35.920  1.00  0.00     0.000 C 
BRANCH   2   3
ATOM      3  C   UNL     1      30.235  -3.416 -36.293  1.00  0.00     0.000 C 
BRANCH   3   4
ATOM      4  C   UNL     1      29.820  -3.739 -37.738  1.00  0.00     0.000 C 
BRANCH   4   5
ATOM      5  C   UNL     1      28.293  -3.806 -37.925  1.00  0.00     0.000 C 
BRANCH   5   6
ATOM      6  C   UNL     1      27.636  -5.138 -37.513  1.00  0.00     0.000 C 
BRANCH   6   7
ATOM      7  C   UNL     1      26.529  -5.018 -36.452  1.00  0.00     0.000 C 
BRANCH   7   8
ATOM      8  C   UNL     1      26.387  -3.591 -35.892  1.00  0.00     0.000 C 
BRANCH   8   9
ATOM      9  C   UNL     1      26.844  -3.496 -34.420  1.00  0.00     0.000 C 
BRANCH   9  10
ATOM     10  C   UNL     1      26.097  -4.460 -33.483  1.00  0.00     0.006 C 
BRANCH  10  11
ATOM     11  C   UNL     1      24.592  -4.178 -33.411  1.00  0.00     0.053 C 
BRANCH  11  12
ATOM     12  C   UNL     1      24.072  -4.474 -32.040  1.00  0.00     0.041 C 
ATOM     13  O   UNL     1      23.679  -3.538 -31.296  1.00  0.00    -0.550 OA
ATOM     14  O   UNL     1      24.060  -5.782 -31.569  1.00  0.00    -0.550 OA
ENDBRANCH  11  12
ENDBRANCH  10  11
ENDBRANCH   9  10
ENDBRANCH   8   9
ENDBRANCH   7   8
ENDBRANCH   6   7
ENDBRANCH   5   6
ENDBRANCH   4   5
ENDBRANCH   3   4
ENDBRANCH   2   3
ENDBRANCH   1   2
BRANCH   1  15
ATOM     15  C   UNL     1      30.667  -0.002 -34.354  1.00  0.00     0.000 C 
BRANCH  15  16
ATOM     16  C   UNL     1      31.553   1.193 -34.740  1.00  0.00     0.000 C 
BRANCH  16  17
ATOM     17  C   UNL     1      30.748   2.373 -35.312  1.00  0.00     0.000 C 
BRANCH  17  18
ATOM     18  C   UNL     1      29.486   1.915 -36.064  1.00  0.00    -0.000 C 
BRANCH  18  19
ATOM     19  C   UNL     1      29.594   1.947 -37.602  1.00  0.00    -0.000 C 
BRANCH  19  20
ATOM     20  C   UNL     1      29.495   0.555 -38.260  1.00  0.00    -0.000 C 
BRANCH  20  21
ATOM     21  C   UNL     1      30.778   0.177 -39.023  1.00  0.00    -0.000 C 
BRANCH  21  22
ATOM     22  C   UNL     1      32.052   0.661 -38.311  1.00  0.00    -0.000 C 
BRANCH  22  23
ATOM     23  C   UNL     1      33.165  -0.400 -38.305  1.00  0.00    -0.000 C 
BRANCH  23  24
ATOM     24  C   UNL     1      32.632  -1.758 -38.781  1.00  0.00    -0.000 C 
BRANCH  24  25
ATOM     25  C   UNL     1      33.468  -2.937 -38.257  1.00  0.00    -0.003 C 
ATOM     26  C   UNL     1      33.996  -2.706 -36.841  1.00  0.00     0.004 C 
ENDBRANCH  24  25
ENDBRANCH  23  24
ENDBRANCH  22  23
ENDBRANCH  21  22
ENDBRANCH  20  21
ENDBRANCH  19  20
ENDBRANCH  18  19
ENDBRANCH  17  18
ENDBRANCH  16  17
ENDBRANCH  15  16
ENDBRANCH   1  15
TORSDOF 22
ENDMDL
MODEL 7
REMARK VINA RESULT:    -2.952      1.749      4.393
REMARK INTER + INTRA:         -11.274
REMARK INTER:                  -7.213
REMARK INTRA:                  -4.061
REMARK UNBOUND:                -4.525
REMARK SMILES CCCCCCCCCCCCCCCCCCCCCCCC(=O)[O-]
REMARK SMILES IDX 13 1 14 2 15 3 16 4 17 5 18 6 19 7 20 8 21 9 22 10 23 11
REMARK SMILES IDX 24 12 25 13 26 14 12 15 11 16 10 17 9 18 8 19 7 20 6 21 5 22
REMARK SMILES IDX 4 23 3 24 2 25 1 26
REMARK H PARENT
REMARK Flexibility Score: inf
ROOT
ATOM      1  C   UNL     1      30.834   1.118 -37.288  1.00  0.00     0.000 C 
ENDROOT
BRANCH   1   2
ATOM      2  C   UNL     1      29.507   0.356 -37.106  1.00  0.00     0.000 C 
BRANCH   2   3
ATOM      3  C   UNL     1      28.729   0.057 -38.402  1.00  0.00     0.000 C 
BRANCH   3   4
ATOM      4  C   UNL     1      27.844  -1.196 -38.298  1.00  0.00     0.000 C 
BRANCH   4   5
ATOM      5  C   UNL     1      28.455  -2.291 -37.404  1.00  0.00     0.000 C 
BRANCH   5   6
ATOM      6  C   UNL     1      28.250  -3.737 -37.898  1.00  0.00     0.000 C 
BRANCH   6   7
ATOM      7  C   UNL     1      27.276  -4.581 -37.058  1.00  0.00     0.000 C 
BRANCH   7   8
ATOM      8  C   UNL     1      27.135  -4.072 -35.613  1.00  0.00     0.000 C 
BRANCH   8   9
ATOM      9  C   UNL     1      26.136  -4.918 -34.793  1.00  0.00     0.000 C 
BRANCH   9  10
ATOM     10  C   UNL     1      25.077  -4.077 -34.062  1.00  0.00     0.006 C 
BRANCH  10  11
ATOM     11  C   UNL     1      25.007  -2.631 -34.567  1.00  0.00     0.053 C 
BRANCH  11  12
ATOM     12  C   UNL     1      23.680  -2.027 -34.232  1.00  0.00     0.041 C 
ATOM     13  O   UNL     1      23.079  -2.361 -33.178  1.00  0.00    -0.550 OA
ATOM     14  O   UNL     1      23.088  -1.123 -35.107  1.00  0.00    -0.550 OA
ENDBRANCH  11  12
ENDBRANCH  10  11
ENDBRANCH   9  10
ENDBRANCH   8   9
ENDBRANCH   7   8
ENDBRANCH   6   7
ENDBRANCH   5   6
ENDBRANCH   4   5
ENDBRANCH   3   4
ENDBRANCH   2   3
ENDBRANCH   1   2
BRANCH   1  15
ATOM     15  C   UNL     1      31.595   0.712 -38.562  1.00  0.00     0.000 C 
BRANCH  15  16
ATOM     16  C   UNL     1      32.994   0.149 -38.264  1.00  0.00     0.000 C 
BRANCH  16  17
ATOM     17  C   UNL     1      33.143  -1.327 -38.674  1.00  0.00     0.000 C 
BRANCH  17  18
ATOM     18  C   UNL     1      31.796  -1.975 -39.042  1.00  0.00    -0.000 C 
BRANCH  18  19
ATOM     19  C   UNL     1      31.733  -3.504 -38.851  1.00  0.00    -0.000 C 
BRANCH  19  20
ATOM     20  C   UNL     1      33.035  -4.114 -38.291  1.00  0.00    -0.000 C 
BRANCH  20  21
ATOM     21  C   UNL     1      32.844  -4.703 -36.881  1.00  0.00    -0.000 C 
BRANCH  21  22
ATOM     22  C   UNL     1      31.424  -4.479 -36.335  1.00  0.00    -0.000 C 
BRANCH  22  23
ATOM     23  C   UNL     1      31.414  -3.664 -35.031  1.00  0.00    -0.000 C 
BRANCH  23  24
ATOM     24  C   UNL     1      31.585  -2.166 -35.318  1.00  0.00    -0.000 C 
BRANCH  24  25
ATOM     25  C   UNL     1      32.978  -1.646 -34.931  1.00  0.00    -0.003 C 
ATOM     26  C   UNL     1      32.974  -0.163 -34.559  1.00  0.00     0.004 C 
ENDBRANCH  24  25
ENDBRANCH  23  24
ENDBRANCH  22  23
ENDBRANCH  21  22
ENDBRANCH  20  21
ENDBRANCH  19  20
ENDBRANCH  18  19
ENDBRANCH  17  18
ENDBRANCH  16  17
ENDBRANCH  15  16
ENDBRANCH   1  15
TORSDOF 22
ENDMDL
MODEL 8
REMARK VINA RESULT:    -2.949      4.371      8.026
REMARK INTER + INTRA:         -11.267
REMARK INTER:                  -7.191
REMARK INTRA:                  -4.076
REMARK UNBOUND:                -4.525
REMARK SMILES CCCCCCCCCCCCCCCCCCCCCCCC(=O)[O-]
REMARK SMILES IDX 13 1 14 2 15 3 16 4 17 5 18 6 19 7 20 8 21 9 22 10 23 11
REMARK SMILES IDX 24 12 25 13 26 14 12 15 11 16 10 17 9 18 8 19 7 20 6 21 5 22
REMARK SMILES IDX 4 23 3 24 2 25 1 26
REMARK H PARENT
REMARK Flexibility Score: inf
ROOT
ATOM      1  C   UNL     1      32.796  -0.598 -38.634  1.00  0.00     0.000 C 
ENDROOT
BRANCH   1   2
ATOM      2  C   UNL     1      32.096   0.611 -37.982  1.00  0.00     0.000 C 
BRANCH   2   3
ATOM      3  C   UNL     1      30.602   0.776 -38.320  1.00  0.00     0.000 C 
BRANCH   3   4
ATOM      4  C   UNL     1      29.750   1.176 -37.104  1.00  0.00     0.000 C 
BRANCH   4   5
ATOM      5  C   UNL     1      30.562   1.899 -36.013  1.00  0.00     0.000 C 
BRANCH   5   6
ATOM      6  C   UNL     1      30.332   1.392 -34.575  1.00  0.00     0.000 C 
BRANCH   6   7
ATOM      7  C   UNL     1      31.535   1.548 -33.630  1.00  0.00     0.000 C 
BRANCH   7   8
ATOM      8  C   UNL     1      32.874   1.676 -34.378  1.00  0.00     0.000 C 
BRANCH   8   9
ATOM      9  C   UNL     1      33.928   2.448 -33.557  1.00  0.00     0.000 C 
BRANCH   9  10
ATOM     10  C   UNL     1      33.565   3.925 -33.328  1.00  0.00     0.006 C 
BRANCH  10  11
ATOM     11  C   UNL     1      34.300   4.545 -32.134  1.00  0.00     0.053 C 
BRANCH  11  12
ATOM     12  C   UNL     1      35.391   5.451 -32.607  1.00  0.00     0.041 C 
ATOM     13  O   UNL     1      35.698   5.490 -33.828  1.00  0.00    -0.550 OA
ATOM     14  O   UNL     1      36.097   6.225 -31.694  1.00  0.00    -0.550 OA
ENDBRANCH  11  12
ENDBRANCH  10  11
ENDBRANCH   9  10
ENDBRANCH   8   9
ENDBRANCH   7   8
ENDBRANCH   6   7
ENDBRANCH   5   6
ENDBRANCH   4   5
ENDBRANCH   3   4
ENDBRANCH   2   3
ENDBRANCH   1   2
BRANCH   1  15
ATOM     15  C   UNL     1      33.382  -1.584 -37.608  1.00  0.00     0.000 C 
BRANCH  15  16
ATOM     16  C   UNL     1      32.983  -1.243 -36.163  1.00  0.00     0.000 C 
BRANCH  16  17
ATOM     17  C   UNL     1      32.304  -2.419 -35.438  1.00  0.00     0.000 C 
BRANCH  17  18
ATOM     18  C   UNL     1      30.866  -2.089 -35.000  1.00  0.00    -0.000 C 
BRANCH  18  19
ATOM     19  C   UNL     1      29.780  -3.025 -35.565  1.00  0.00    -0.000 C 
BRANCH  19  20
ATOM     20  C   UNL     1      29.023  -2.439 -36.775  1.00  0.00    -0.000 C 
BRANCH  20  21
ATOM     21  C   UNL     1      29.782  -2.651 -38.098  1.00  0.00    -0.000 C 
BRANCH  21  22
ATOM     22  C   UNL     1      29.677  -4.096 -38.613  1.00  0.00    -0.000 C 
BRANCH  22  23
ATOM     23  C   UNL     1      31.049  -4.707 -38.943  1.00  0.00    -0.000 C 
BRANCH  23  24
ATOM     24  C   UNL     1      31.656  -5.391 -37.710  1.00  0.00    -0.000 C 
BRANCH  24  25
ATOM     25  C   UNL     1      33.181  -5.222 -37.632  1.00  0.00    -0.003 C 
ATOM     26  C   UNL     1      33.772  -5.771 -36.334  1.00  0.00     0.004 C 
ENDBRANCH  24  25
ENDBRANCH  23  24
ENDBRANCH  22  23
ENDBRANCH  21  22
ENDBRANCH  20  21
ENDBRANCH  19  20
ENDBRANCH  18  19
ENDBRANCH  17  18
ENDBRANCH  16  17
ENDBRANCH  15  16
ENDBRANCH   1  15
TORSDOF 22
ENDMDL
MODEL 9
REMARK VINA RESULT:    -2.933      2.933      5.529
REMARK INTER + INTRA:         -11.229
REMARK INTER:                  -7.355
REMARK INTRA:                  -3.875
REMARK UNBOUND:                -4.525
REMARK SMILES CCCCCCCCCCCCCCCCCCCCCCCC(=O)[O-]
REMARK SMILES IDX 13 1 14 2 15 3 16 4 17 5 18 6 19 7 20 8 21 9 22 10 23 11
REMARK SMILES IDX 24 12 25 13 26 14 12 15 11 16 10 17 9 18 8 19 7 20 6 21 5 22
REMARK SMILES IDX 4 23 3 24 2 25 1 26
REMARK H PARENT
REMARK Flexibility Score: inf
ROOT
ATOM      1  C   UNL     1      29.445  -3.200 -34.566  1.00  0.00     0.000 C 
ENDROOT
BRANCH   1   2
ATOM      2  C   UNL     1      27.925  -3.136 -34.318  1.00  0.00     0.000 C 
BRANCH   2   3
ATOM      3  C   UNL     1      27.155  -4.446 -34.568  1.00  0.00     0.000 C 
BRANCH   3   4
ATOM      4  C   UNL     1      26.400  -4.454 -35.909  1.00  0.00     0.000 C 
BRANCH   4   5
ATOM      5  C   UNL     1      26.010  -3.044 -36.387  1.00  0.00     0.000 C 
BRANCH   5   6
ATOM      6  C   UNL     1      24.595  -2.579 -35.988  1.00  0.00     0.000 C 
BRANCH   6   7
ATOM      7  C   UNL     1      24.520  -1.764 -34.687  1.00  0.00     0.000 C 
BRANCH   7   8
ATOM      8  C   UNL     1      23.613  -2.410 -33.625  1.00  0.00     0.000 C 
BRANCH   8   9
ATOM      9  C   UNL     1      23.505  -3.939 -33.805  1.00  0.00     0.000 C 
BRANCH   9  10
ATOM     10  C   UNL     1      24.091  -4.737 -32.627  1.00  0.00     0.006 C 
BRANCH  10  11
ATOM     11  C   UNL     1      24.098  -3.946 -31.313  1.00  0.00     0.053 C 
BRANCH  11  12
ATOM     12  C   UNL     1      23.816  -4.854 -30.159  1.00  0.00     0.041 C 
ATOM     13  O   UNL     1      23.660  -6.089 -30.347  1.00  0.00    -0.550 OA
ATOM     14  O   UNL     1      23.685  -4.329 -28.878  1.00  0.00    -0.550 OA
ENDBRANCH  11  12
ENDBRANCH  10  11
ENDBRANCH   9  10
ENDBRANCH   8   9
ENDBRANCH   7   8
ENDBRANCH   6   7
ENDBRANCH   5   6
ENDBRANCH   4   5
ENDBRANCH   3   4
ENDBRANCH   2   3
ENDBRANCH   1   2
BRANCH   1  15
ATOM     15  C   UNL     1      29.832  -2.903 -36.025  1.00  0.00     0.000 C 
BRANCH  15  16
ATOM     16  C   UNL     1      30.346  -4.147 -36.768  1.00  0.00     0.000 C 
BRANCH  16  17
ATOM     17  C   UNL     1      29.797  -4.255 -38.202  1.00  0.00     0.000 C 
BRANCH  17  18
ATOM     18  C   UNL     1      29.042  -2.987 -38.641  1.00  0.00    -0.000 C 
BRANCH  18  19
ATOM     19  C   UNL     1      29.494  -2.392 -39.989  1.00  0.00    -0.000 C 
BRANCH  19  20
ATOM     20  C   UNL     1      29.328  -0.860 -40.079  1.00  0.00    -0.000 C 
BRANCH  20  21
ATOM     21  C   UNL     1      29.406  -0.182 -38.699  1.00  0.00    -0.000 C 
BRANCH  21  22
ATOM     22  C   UNL     1      30.431   0.964 -38.663  1.00  0.00    -0.000 C 
BRANCH  22  23
ATOM     23  C   UNL     1      31.881   0.459 -38.578  1.00  0.00    -0.000 C 
BRANCH  23  24
ATOM     24  C   UNL     1      32.110  -0.339 -37.287  1.00  0.00    -0.000 C 
BRANCH  24  25
ATOM     25  C   UNL     1      33.226  -1.385 -37.429  1.00  0.00    -0.003 C 
ATOM     26  C   UNL     1      33.023  -2.307 -38.632  1.00  0.00     0.004 C 
ENDBRANCH  24  25
ENDBRANCH  23  24
ENDBRANCH  22  23
ENDBRANCH  21  22
ENDBRANCH  20  21
ENDBRANCH  19  20
ENDBRANCH  18  19
ENDBRANCH  17  18
ENDBRANCH  16  17
ENDBRANCH  15  16
ENDBRANCH   1  15
TORSDOF 22
ENDMDL
