MODEL 1
REMARK VINA RESULT:    -3.255      0.000      0.000
REMARK INTER + INTRA:          -3.540
REMARK INTER:                  -3.540
REMARK INTRA:                   0.000
REMARK UNBOUND:                 0.000
REMARK SMILES [NH3+]CC(=O)[O-]
REMARK SMILES IDX 2 1 1 2 3 6 4 7 5 8
REMARK H PARENT 1 3 1 4 1 5
REMARK Flexibility Score: inf
ROOT
ATOM      1  C   UNL     1      21.728   3.265  34.558  1.00  0.00     0.312 C 
ENDROOT
BRANCH   1   2
ATOM      2  N   UNL     1      22.902   4.099  34.304  1.00  0.00    -0.353 N 
ATOM      3  H   UNL     1      23.504   4.141  35.158  1.00  0.00     0.344 HD
ATOM      4  H   UNL     1      23.451   3.710  33.503  1.00  0.00     0.344 HD
ATOM      5  H   UNL     1      22.588   5.066  34.062  1.00  0.00     0.344 HD
ENDBRANCH   1   2
BRANCH   1   6
ATOM      6  C   UNL     1      20.680   3.495  33.514  1.00  0.00     0.096 C 
ATOM      7  O   UNL     1      19.463   3.514  33.833  1.00  0.00    -0.544 OA
ATOM      8  O   UNL     1      21.046   3.636  32.182  1.00  0.00    -0.544 OA
ENDBRANCH   1   6
TORSDOF 2
ENDMDL
MODEL 2
REMARK VINA RESULT:    -3.236      2.354      2.843
REMARK INTER + INTRA:          -3.520
REMARK INTER:                  -3.520
REMARK INTRA:                   0.000
REMARK UNBOUND:                 0.000
REMARK SMILES [NH3+]CC(=O)[O-]
REMARK SMILES IDX 2 1 1 2 3 6 4 7 5 8
REMARK H PARENT 1 3 1 4 1 5
REMARK Flexibility Score: inf
ROOT
ATOM      1  C   UNL     1      20.815   3.663  32.963  1.00  0.00     0.312 C 
ENDROOT
BRANCH   1   2
ATOM      2  N   UNL     1      19.484   3.329  33.468  1.00  0.00    -0.353 N 
ATOM      3  H   UNL     1      18.958   4.203  33.700  1.00  0.00     0.344 HD
ATOM      4  H   UNL     1      18.957   2.779  32.751  1.00  0.00     0.344 HD
ATOM      5  H   UNL     1      19.581   2.751  34.333  1.00  0.00     0.344 HD
ENDBRANCH   1   2
BRANCH   1   6
ATOM      6  C   UNL     1      21.822   3.634  34.071  1.00  0.00     0.096 C 
ATOM      7  O   UNL     1      22.877   4.315  33.984  1.00  0.00    -0.544 OA
ATOM      8  O   UNL     1      21.620   2.814  35.173  1.00  0.00    -0.544 OA
ENDBRANCH   1   6
TORSDOF 2
ENDMDL
MODEL 3
REMARK VINA RESULT:    -3.236      2.264      2.442
REMARK INTER + INTRA:          -3.519
REMARK INTER:                  -3.519
REMARK INTRA:                   0.000
REMARK UNBOUND:                 0.000
REMARK SMILES [NH3+]CC(=O)[O-]
REMARK SMILES IDX 2 1 1 2 3 6 4 7 5 8
REMARK H PARENT 1 3 1 4 1 5
REMARK Flexibility Score: inf
ROOT
ATOM      1  C   UNL     1      20.601   3.128  33.563  1.00  0.00     0.312 C 
ENDROOT
BRANCH   1   2
ATOM      2  N   UNL     1      20.209   4.343  32.850  1.00  0.00    -0.353 N 
ATOM      3  H   UNL     1      19.177   4.490  32.932  1.00  0.00     0.344 HD
ATOM      4  H   UNL     1      20.717   5.169  33.243  1.00  0.00     0.344 HD
ATOM      5  H   UNL     1      20.458   4.242  31.840  1.00  0.00     0.344 HD
ENDBRANCH   1   2
BRANCH   1   6
ATOM      6  C   UNL     1      21.817   3.377  34.400  1.00  0.00     0.096 C 
ATOM      7  O   UNL     1      21.926   2.839  35.533  1.00  0.00    -0.544 OA
ATOM      8  O   UNL     1      22.806   4.242  33.951  1.00  0.00    -0.544 OA
ENDBRANCH   1   6
TORSDOF 2
ENDMDL
MODEL 4
REMARK VINA RESULT:    -3.173      2.355      2.476
REMARK INTER + INTRA:          -3.451
REMARK INTER:                  -3.451
REMARK INTRA:                   0.000
REMARK UNBOUND:                 0.000
REMARK SMILES [NH3+]CC(=O)[O-]
REMARK SMILES IDX 2 1 1 2 3 6 4 7 5 8
REMARK H PARENT 1 3 1 4 1 5
REMARK Flexibility Score: inf
ROOT
ATOM      1  C   UNL     1      20.739   2.831  33.638  1.00  0.00     0.312 C 
ENDROOT
BRANCH   1   2
ATOM      2  N   UNL     1      19.620   3.604  33.102  1.00  0.00    -0.353 N 
ATOM      3  H   UNL     1      19.226   4.227  33.844  1.00  0.00     0.344 HD
ATOM      4  H   UNL     1      19.939   4.178  32.288  1.00  0.00     0.344 HD
ATOM      5  H   UNL     1      18.874   2.946  32.780  1.00  0.00     0.344 HD
ENDBRANCH   1   2
BRANCH   1   6
ATOM      6  C   UNL     1      21.797   3.741  34.181  1.00  0.00     0.096 C 
ATOM      7  O   UNL     1      21.476   4.825  34.734  1.00  0.00    -0.544 OA
ATOM      8  O   UNL     1      23.139   3.415  34.031  1.00  0.00    -0.544 OA
ENDBRANCH   1   6
TORSDOF 2
ENDMDL
MODEL 5
REMARK VINA RESULT:    -2.695     12.733     12.920
REMARK INTER + INTRA:          -2.931
REMARK INTER:                  -2.931
REMARK INTRA:                   0.000
REMARK UNBOUND:                 0.000
REMARK SMILES [NH3+]CC(=O)[O-]
REMARK SMILES IDX 2 1 1 2 3 6 4 7 5 8
REMARK H PARENT 1 3 1 4 1 5
REMARK Flexibility Score: inf
ROOT
ATOM      1  C   UNL     1      30.985   4.830  41.415  1.00  0.00     0.312 C 
ENDROOT
BRANCH   1   2
ATOM      2  N   UNL     1      30.222   5.172  40.216  1.00  0.00    -0.353 N 
ATOM      3  H   UNL     1      29.600   4.375  39.947  1.00  0.00     0.344 HD
ATOM      4  H   UNL     1      29.646   6.028  40.390  1.00  0.00     0.344 HD
ATOM      5  H   UNL     1      30.886   5.365  39.432  1.00  0.00     0.344 HD
ENDBRANCH   1   2
BRANCH   1   6
ATOM      6  C   UNL     1      30.502   5.620  42.592  1.00  0.00     0.096 C 
ATOM      7  O   UNL     1      30.747   6.852  42.670  1.00  0.00    -0.544 OA
ATOM      8  O   UNL     1      29.826   4.985  43.626  1.00  0.00    -0.544 OA
ENDBRANCH   1   6
TORSDOF 2
ENDMDL
MODEL 6
REMARK VINA RESULT:    -2.484      8.471      8.727
REMARK INTER + INTRA:          -2.702
REMARK INTER:                  -2.702
REMARK INTRA:                   0.000
REMARK UNBOUND:                 0.000
REMARK SMILES [NH3+]CC(=O)[O-]
REMARK SMILES IDX 2 1 1 2 3 6 4 7 5 8
REMARK H PARENT 1 3 1 4 1 5
REMARK Flexibility Score: inf
ROOT
ATOM      1  C   UNL     1      14.343   9.455  32.990  1.00  0.00     0.312 C 
ENDROOT
BRANCH   1   2
ATOM      2  N   UNL     1      14.725   8.242  32.269  1.00  0.00    -0.353 N 
ATOM      3  H   UNL     1      15.482   8.457  31.581  1.00  0.00     0.344 HD
ATOM      4  H   UNL     1      15.055   7.514  32.943  1.00  0.00     0.344 HD
ATOM      5  H   UNL     1      13.893   7.874  31.754  1.00  0.00     0.344 HD
ENDBRANCH   1   2
BRANCH   1   6
ATOM      6  C   UNL     1      15.435   9.884  33.920  1.00  0.00     0.096 C 
ATOM      7  O   UNL     1      15.623   9.268  35.001  1.00  0.00    -0.544 OA
ATOM      8  O   UNL     1      16.211  10.995  33.615  1.00  0.00    -0.544 OA
ENDBRANCH   1   6
TORSDOF 2
ENDMDL
MODEL 7
REMARK VINA RESULT:    -2.366     12.386     12.590
REMARK INTER + INTRA:          -2.574
REMARK INTER:                  -2.574
REMARK INTRA:                   0.000
REMARK UNBOUND:                 0.000
REMARK SMILES [NH3+]CC(=O)[O-]
REMARK SMILES IDX 2 1 1 2 3 6 4 7 5 8
REMARK H PARENT 1 3 1 4 1 5
REMARK Flexibility Score: inf
ROOT
ATOM      1  C   UNL     1      11.250  -1.958  28.693  1.00  0.00     0.312 C 
ENDROOT
BRANCH   1   2
ATOM      2  N   UNL     1      12.208  -0.933  29.105  1.00  0.00    -0.353 N 
ATOM      3  H   UNL     1      12.262  -0.892  30.148  1.00  0.00     0.344 HD
ATOM      4  H   UNL     1      13.153  -1.147  28.710  1.00  0.00     0.344 HD
ATOM      5  H   UNL     1      11.892  -0.005  28.744  1.00  0.00     0.344 HD
ENDBRANCH   1   2
BRANCH   1   6
ATOM      6  C   UNL     1      11.827  -2.815  27.608  1.00  0.00     0.096 C 
ATOM      7  O   UNL     1      11.632  -2.521  26.400  1.00  0.00    -0.544 OA
ATOM      8  O   UNL     1      12.535  -3.965  27.932  1.00  0.00    -0.544 OA
ENDBRANCH   1   6
TORSDOF 2
ENDMDL
MODEL 8
REMARK VINA RESULT:    -2.346      8.630      9.000
REMARK INTER + INTRA:          -2.551
REMARK INTER:                  -2.551
REMARK INTRA:                   0.000
REMARK UNBOUND:                 0.000
REMARK SMILES [NH3+]CC(=O)[O-]
REMARK SMILES IDX 2 1 1 2 3 6 4 7 5 8
REMARK H PARENT 1 3 1 4 1 5
REMARK Flexibility Score: inf
ROOT
ATOM      1  C   UNL     1      15.249   9.707  34.130  1.00  0.00     0.312 C 
ENDROOT
BRANCH   1   2
ATOM      2  N   UNL     1      16.500  10.403  33.830  1.00  0.00    -0.353 N 
ATOM      3  H   UNL     1      16.821  10.939  34.668  1.00  0.00     0.344 HD
ATOM      4  H   UNL     1      17.234   9.713  33.548  1.00  0.00     0.344 HD
ATOM      5  H   UNL     1      16.340  11.069  33.041  1.00  0.00     0.344 HD
ENDBRANCH   1   2
BRANCH   1   6
ATOM      6  C   UNL     1      14.341   9.715  32.939  1.00  0.00     0.096 C 
ATOM      7  O   UNL     1      14.025  10.804  32.392  1.00  0.00    -0.544 OA
ATOM      8  O   UNL     1      13.804   8.525  32.466  1.00  0.00    -0.544 OA
ENDBRANCH   1   6
TORSDOF 2
ENDMDL
MODEL 9
REMARK VINA RESULT:    -2.267      8.327      8.684
REMARK INTER + INTRA:          -2.466
REMARK INTER:                  -2.466
REMARK INTRA:                   0.000
REMARK UNBOUND:                 0.000
REMARK SMILES [NH3+]CC(=O)[O-]
REMARK SMILES IDX 2 1 1 2 3 6 4 7 5 8
REMARK H PARENT 1 3 1 4 1 5
REMARK Flexibility Score: inf
ROOT
ATOM      1  C   UNL     1      27.229   8.496  28.285  1.00  0.00     0.312 C 
ENDROOT
BRANCH   1   2
ATOM      2  N   UNL     1      27.022   7.391  27.350  1.00  0.00    -0.353 N 
ATOM      3  H   UNL     1      27.133   6.477  27.845  1.00  0.00     0.344 HD
ATOM      4  H   UNL     1      26.066   7.453  26.930  1.00  0.00     0.344 HD
ATOM      5  H   UNL     1      27.732   7.453  26.586  1.00  0.00     0.344 HD
ENDBRANCH   1   2
BRANCH   1   6
ATOM      6  C   UNL     1      26.361   8.335  29.495  1.00  0.00     0.096 C 
ATOM      7  O   UNL     1      25.441   9.162  29.727  1.00  0.00    -0.544 OA
ATOM      8  O   UNL     1      26.602   7.302  30.391  1.00  0.00    -0.544 OA
ENDBRANCH   1   6
TORSDOF 2
ENDMDL
