MODEL 1
REMARK VINA RESULT:    -6.838      0.000      0.000
REMARK INTER + INTRA:          -8.558
REMARK INTER:                  -8.237
REMARK INTRA:                  -0.321
REMARK UNBOUND:                -0.321
REMARK SMILES O=c1c(O)c(-c2ccc(O)c(O)c2)oc2cc(O)cc(O)c12
REMARK SMILES IDX 5 1 3 2 2 3 1 4 22 5 20 6 19 7 17 8 16 9 15 10 14 11 6 12
REMARK SMILES IDX 7 13 8 14 9 15 13 16 11 17 10 18 12 20 4 22 21 24 18 26
REMARK H PARENT 10 19 12 21 4 23 21 25 18 27
REMARK Flexibility Score: inf
ROOT
ATOM      1  C   UNL     1      48.459  -3.709   0.474  1.00  0.00     0.180 A 
ATOM      2  C   UNL     1      49.154  -4.737   1.133  1.00  0.00     0.208 A 
ATOM      3  C   UNL     1      50.497  -4.534   1.486  1.00  0.00     0.238 A 
ATOM      4  O   UNL     1      51.098  -5.436   2.125  1.00  0.00    -0.285 OA
ATOM      5  C   UNL     1      51.134  -3.312   1.160  1.00  0.00     0.111 A 
ATOM      6  C   UNL     1      52.503  -3.013   1.434  1.00  0.00     0.134 A 
ATOM      7  C   UNL     1      52.992  -1.724   1.185  1.00  0.00     0.093 A 
ATOM      8  C   UNL     1      52.178  -0.744   0.612  1.00  0.00     0.123 A 
ATOM      9  C   UNL     1      50.857  -1.043   0.287  1.00  0.00     0.094 A 
ATOM     10  C   UNL     1      50.331  -2.309   0.556  1.00  0.00     0.146 A 
ATOM     11  O   UNL     1      49.064  -2.550   0.240  1.00  0.00    -0.452 OA
ENDROOT
BRANCH   1  12
ATOM     12  C   UNL     1      47.049  -3.858   0.047  1.00  0.00     0.025 A 
ATOM     13  C   UNL     1      46.764  -4.371  -1.228  1.00  0.00     0.016 A 
ATOM     14  C   UNL     1      45.440  -4.541  -1.645  1.00  0.00     0.051 A 
ATOM     15  C   UNL     1      44.384  -4.214  -0.785  1.00  0.00     0.157 A 
ATOM     16  C   UNL     1      45.985  -3.552   0.914  1.00  0.00     0.062 A 
ATOM     17  C   UNL     1      44.656  -3.723   0.497  1.00  0.00     0.158 A 
BRANCH  15  18
ATOM     18  O   UNL     1      43.062  -4.379  -1.196  1.00  0.00    -0.504 OA
ATOM     19  H   UNL     1      42.564  -3.645  -1.688  1.00  0.00     0.293 HD
ENDBRANCH  15  18
BRANCH  17  20
ATOM     20  O   UNL     1      43.602  -3.412   1.355  1.00  0.00    -0.504 OA
ATOM     21  H   UNL     1      42.858  -4.074   1.544  1.00  0.00     0.293 HD
ENDBRANCH  17  20
ENDBRANCH   1  12
BRANCH   2  22
ATOM     22  O   UNL     1      48.499  -5.927   1.464  1.00  0.00    -0.502 OA
ATOM     23  H   UNL     1      48.992  -6.737   1.822  1.00  0.00     0.293 HD
ENDBRANCH   2  22
BRANCH   6  24
ATOM     24  O   UNL     1      53.423  -3.947   1.919  1.00  0.00    -0.507 OA
ATOM     25  H   UNL     1      53.791  -3.957   2.858  1.00  0.00     0.293 HD
ENDBRANCH   6  24
BRANCH   8  26
ATOM     26  O   UNL     1      52.676   0.531   0.354  1.00  0.00    -0.508 OA
ATOM     27  H   UNL     1      52.908   1.172   1.104  1.00  0.00     0.293 HD
ENDBRANCH   8  26
TORSDOF 6
ENDMDL
MODEL 2
REMARK VINA RESULT:    -6.439      3.239      5.500
REMARK INTER + INTRA:          -8.077
REMARK INTER:                  -7.759
REMARK INTRA:                  -0.318
REMARK UNBOUND:                -0.321
REMARK SMILES O=c1c(O)c(-c2ccc(O)c(O)c2)oc2cc(O)cc(O)c12
REMARK SMILES IDX 5 1 3 2 2 3 1 4 22 5 20 6 19 7 17 8 16 9 15 10 14 11 6 12
REMARK SMILES IDX 7 13 8 14 9 15 13 16 11 17 10 18 12 20 4 22 21 24 18 26
REMARK H PARENT 10 19 12 21 4 23 21 25 18 27
REMARK Flexibility Score: inf
ROOT
ATOM      1  C   UNL     1      44.294  -2.094   0.290  1.00  0.00     0.180 A 
ATOM      2  C   UNL     1      44.105  -3.178  -0.584  1.00  0.00     0.208 A 
ATOM      3  C   UNL     1      45.202  -3.991  -0.909  1.00  0.00     0.238 A 
ATOM      4  O   UNL     1      45.015  -4.993  -1.648  1.00  0.00    -0.285 OA
ATOM      5  C   UNL     1      46.478  -3.701  -0.369  1.00  0.00     0.111 A 
ATOM      6  C   UNL     1      47.667  -4.434  -0.661  1.00  0.00     0.134 A 
ATOM      7  C   UNL     1      48.849  -4.139   0.031  1.00  0.00     0.093 A 
ATOM      8  C   UNL     1      48.898  -3.094   0.958  1.00  0.00     0.123 A 
ATOM      9  C   UNL     1      47.758  -2.335   1.206  1.00  0.00     0.094 A 
ATOM     10  C   UNL     1      46.556  -2.629   0.557  1.00  0.00     0.146 A 
ATOM     11  O   UNL     1      45.489  -1.886   0.831  1.00  0.00    -0.452 OA
ENDROOT
BRANCH   1  12
ATOM     12  C   UNL     1      43.192  -1.177   0.658  1.00  0.00     0.025 A 
ATOM     13  C   UNL     1      42.363  -1.495   1.746  1.00  0.00     0.016 A 
ATOM     14  C   UNL     1      41.329  -0.635   2.125  1.00  0.00     0.051 A 
ATOM     15  C   UNL     1      41.120   0.564   1.431  1.00  0.00     0.157 A 
ATOM     16  C   UNL     1      42.990   0.037  -0.023  1.00  0.00     0.062 A 
ATOM     17  C   UNL     1      41.954   0.902   0.359  1.00  0.00     0.158 A 
BRANCH  15  18
ATOM     18  O   UNL     1      40.088   1.424   1.803  1.00  0.00    -0.504 OA
ATOM     19  H   UNL     1      39.272   1.558   1.217  1.00  0.00     0.293 HD
ENDBRANCH  15  18
BRANCH  17  20
ATOM     20  O   UNL     1      41.750   2.102  -0.322  1.00  0.00    -0.504 OA
ATOM     21  H   UNL     1      41.238   2.136  -1.196  1.00  0.00     0.293 HD
ENDBRANCH  17  20
ENDBRANCH   1  12
BRANCH   2  22
ATOM     22  O   UNL     1      42.831  -3.460  -1.088  1.00  0.00    -0.502 OA
ATOM     23  H   UNL     1      42.052  -3.705  -0.489  1.00  0.00     0.293 HD
ENDBRANCH   2  22
BRANCH   6  24
ATOM     24  O   UNL     1      47.748  -5.435  -1.635  1.00  0.00    -0.507 OA
ATOM     25  H   UNL     1      47.105  -6.206  -1.721  1.00  0.00     0.293 HD
ENDBRANCH   6  24
BRANCH   8  26
ATOM     26  O   UNL     1      50.081  -2.797   1.630  1.00  0.00    -0.508 OA
ATOM     27  H   UNL     1      50.351  -3.291   2.473  1.00  0.00     0.293 HD
ENDBRANCH   8  26
TORSDOF 6
ENDMDL
MODEL 3
REMARK VINA RESULT:    -6.429      1.883      6.896
REMARK INTER + INTRA:          -8.065
REMARK INTER:                  -7.759
REMARK INTRA:                  -0.306
REMARK UNBOUND:                -0.321
REMARK SMILES O=c1c(O)c(-c2ccc(O)c(O)c2)oc2cc(O)cc(O)c12
REMARK SMILES IDX 5 1 3 2 2 3 1 4 22 5 20 6 19 7 17 8 16 9 15 10 14 11 6 12
REMARK SMILES IDX 7 13 8 14 9 15 13 16 11 17 10 18 12 20 4 22 21 24 18 26
REMARK H PARENT 10 19 12 21 4 23 21 25 18 27
REMARK Flexibility Score: inf
ROOT
ATOM      1  C   UNL     1      47.872  -3.186   0.402  1.00  0.00     0.180 A 
ATOM      2  C   UNL     1      47.298  -3.996  -0.592  1.00  0.00     0.208 A 
ATOM      3  C   UNL     1      45.944  -3.818  -0.917  1.00  0.00     0.238 A 
ATOM      4  O   UNL     1      45.450  -4.509  -1.847  1.00  0.00    -0.285 OA
ATOM      5  C   UNL     1      45.177  -2.844  -0.234  1.00  0.00     0.111 A 
ATOM      6  C   UNL     1      43.787  -2.606  -0.454  1.00  0.00     0.134 A 
ATOM      7  C   UNL     1      43.161  -1.529   0.187  1.00  0.00     0.093 A 
ATOM      8  C   UNL     1      43.860  -0.723   1.088  1.00  0.00     0.123 A 
ATOM      9  C   UNL     1      45.201  -0.984   1.355  1.00  0.00     0.094 A 
ATOM     10  C   UNL     1      45.862  -2.029   0.705  1.00  0.00     0.146 A 
ATOM     11  O   UNL     1      47.144  -2.237   0.980  1.00  0.00    -0.452 OA
ENDROOT
BRANCH   1  12
ATOM     12  C   UNL     1      49.286  -3.332   0.817  1.00  0.00     0.025 A 
ATOM     13  C   UNL     1      49.637  -4.336   1.734  1.00  0.00     0.016 A 
ATOM     14  C   UNL     1      50.968  -4.506   2.125  1.00  0.00     0.051 A 
ATOM     15  C   UNL     1      51.969  -3.683   1.592  1.00  0.00     0.157 A 
ATOM     16  C   UNL     1      50.298  -2.522   0.270  1.00  0.00     0.062 A 
ATOM     17  C   UNL     1      51.634  -2.693   0.661  1.00  0.00     0.158 A 
BRANCH  15  18
ATOM     18  O   UNL     1      53.297  -3.847   1.981  1.00  0.00    -0.504 OA
ATOM     19  H   UNL     1      53.790  -4.720   1.832  1.00  0.00     0.293 HD
ENDBRANCH  15  18
BRANCH  17  20
ATOM     20  O   UNL     1      52.635  -1.885   0.124  1.00  0.00    -0.504 OA
ATOM     21  H   UNL     1      52.890  -1.937  -0.856  1.00  0.00     0.293 HD
ENDBRANCH  17  20
ENDBRANCH   1  12
BRANCH   2  22
ATOM     22  O   UNL     1      48.079  -4.936  -1.270  1.00  0.00    -0.502 OA
ATOM     23  H   UNL     1      48.813  -5.465  -0.812  1.00  0.00     0.293 HD
ENDBRANCH   2  22
BRANCH   6  24
ATOM     24  O   UNL     1      42.977  -3.408  -1.263  1.00  0.00    -0.507 OA
ATOM     25  H   UNL     1      42.014  -3.211  -1.487  1.00  0.00     0.293 HD
ENDBRANCH   6  24
BRANCH   8  26
ATOM     26  O   UNL     1      43.225   0.337   1.733  1.00  0.00    -0.508 OA
ATOM     27  H   UNL     1      42.458   0.183   2.377  1.00  0.00     0.293 HD
ENDBRANCH   8  26
TORSDOF 6
ENDMDL
MODEL 4
REMARK VINA RESULT:    -6.152      2.683      7.171
REMARK INTER + INTRA:          -7.732
REMARK INTER:                  -7.456
REMARK INTRA:                  -0.276
REMARK UNBOUND:                -0.321
REMARK SMILES O=c1c(O)c(-c2ccc(O)c(O)c2)oc2cc(O)cc(O)c12
REMARK SMILES IDX 5 1 3 2 2 3 1 4 22 5 20 6 19 7 17 8 16 9 15 10 14 11 6 12
REMARK SMILES IDX 7 13 8 14 9 15 13 16 11 17 10 18 12 20 4 22 21 24 18 26
REMARK H PARENT 10 19 12 21 4 23 21 25 18 27
REMARK Flexibility Score: inf
ROOT
ATOM      1  C   UNL     1      45.779  -3.141   0.512  1.00  0.00     0.180 A 
ATOM      2  C   UNL     1      44.729  -3.740  -0.205  1.00  0.00     0.208 A 
ATOM      3  C   UNL     1      43.511  -3.054  -0.331  1.00  0.00     0.238 A 
ATOM      4  O   UNL     1      42.594  -3.570  -1.021  1.00  0.00    -0.285 OA
ATOM      5  C   UNL     1      43.352  -1.784   0.275  1.00  0.00     0.111 A 
ATOM      6  C   UNL     1      42.149  -1.017   0.246  1.00  0.00     0.134 A 
ATOM      7  C   UNL     1      42.145   0.283   0.769  1.00  0.00     0.093 A 
ATOM      8  C   UNL     1      43.284   0.818   1.377  1.00  0.00     0.123 A 
ATOM      9  C   UNL     1      44.445   0.054   1.463  1.00  0.00     0.094 A 
ATOM     10  C   UNL     1      44.490  -1.232   0.920  1.00  0.00     0.146 A 
ATOM     11  O   UNL     1      45.621  -1.921   1.014  1.00  0.00    -0.452 OA
ENDROOT
BRANCH   1  12
ATOM     12  C   UNL     1      47.083  -3.813   0.709  1.00  0.00     0.025 A 
ATOM     13  C   UNL     1      47.187  -4.860   1.640  1.00  0.00     0.016 A 
ATOM     14  C   UNL     1      48.402  -5.523   1.828  1.00  0.00     0.051 A 
ATOM     15  C   UNL     1      49.527  -5.159   1.077  1.00  0.00     0.157 A 
ATOM     16  C   UNL     1      48.210  -3.466  -0.057  1.00  0.00     0.062 A 
ATOM     17  C   UNL     1      49.430  -4.133   0.130  1.00  0.00     0.158 A 
BRANCH  15  18
ATOM     18  O   UNL     1      50.743  -5.816   1.263  1.00  0.00    -0.504 OA
ATOM     19  H   UNL     1      50.810  -6.827   1.228  1.00  0.00     0.293 HD
ENDBRANCH  15  18
BRANCH  17  20
ATOM     20  O   UNL     1      50.548  -3.783  -0.626  1.00  0.00    -0.504 OA
ATOM     21  H   UNL     1      51.458  -4.192  -0.447  1.00  0.00     0.293 HD
ENDBRANCH  17  20
ENDBRANCH   1  12
BRANCH   2  22
ATOM     22  O   UNL     1      44.916  -4.984  -0.815  1.00  0.00    -0.502 OA
ATOM     23  H   UNL     1      44.274  -5.756  -0.681  1.00  0.00     0.293 HD
ENDBRANCH   2  22
BRANCH   6  24
ATOM     24  O   UNL     1      40.933  -1.492  -0.255  1.00  0.00    -0.507 OA
ATOM     25  H   UNL     1      40.549  -2.405  -0.063  1.00  0.00     0.293 HD
ENDBRANCH   6  24
BRANCH   8  26
ATOM     26  O   UNL     1      43.267   2.106   1.907  1.00  0.00    -0.508 OA
ATOM     27  H   UNL     1      42.403   2.546   2.202  1.00  0.00     0.293 HD
ENDBRANCH   8  26
TORSDOF 6
ENDMDL
MODEL 5
REMARK VINA RESULT:    -6.014     16.171     17.854
REMARK INTER + INTRA:          -7.566
REMARK INTER:                  -7.235
REMARK INTRA:                  -0.331
REMARK UNBOUND:                -0.321
REMARK SMILES O=c1c(O)c(-c2ccc(O)c(O)c2)oc2cc(O)cc(O)c12
REMARK SMILES IDX 5 1 3 2 2 3 1 4 22 5 20 6 19 7 17 8 16 9 15 10 14 11 6 12
REMARK SMILES IDX 7 13 8 14 9 15 13 16 11 17 10 18 12 20 4 22 21 24 18 26
REMARK H PARENT 10 19 12 21 4 23 21 25 18 27
REMARK Flexibility Score: inf
ROOT
ATOM      1  C   UNL     1      41.395   9.849  -8.213  1.00  0.00     0.180 A 
ATOM      2  C   UNL     1      41.521  10.485  -9.459  1.00  0.00     0.208 A 
ATOM      3  C   UNL     1      42.324   9.896 -10.448  1.00  0.00     0.238 A 
ATOM      4  O   UNL     1      42.389  10.442 -11.580  1.00  0.00    -0.285 OA
ATOM      5  C   UNL     1      43.004   8.685 -10.172  1.00  0.00     0.111 A 
ATOM      6  C   UNL     1      43.876   8.020 -11.086  1.00  0.00     0.134 A 
ATOM      7  C   UNL     1      44.394   6.761 -10.755  1.00  0.00     0.093 A 
ATOM      8  C   UNL     1      44.121   6.173  -9.517  1.00  0.00     0.123 A 
ATOM      9  C   UNL     1      43.320   6.842  -8.595  1.00  0.00     0.094 A 
ATOM     10  C   UNL     1      42.761   8.083  -8.911  1.00  0.00     0.146 A 
ATOM     11  O   UNL     1      41.993   8.681  -8.007  1.00  0.00    -0.452 OA
ENDROOT
BRANCH   1  12
ATOM     12  C   UNL     1      40.587  10.422  -7.113  1.00  0.00     0.025 A 
ATOM     13  C   UNL     1      39.267   9.982  -6.923  1.00  0.00     0.016 A 
ATOM     14  C   UNL     1      38.492  10.495  -5.879  1.00  0.00     0.051 A 
ATOM     15  C   UNL     1      39.032  11.443  -5.001  1.00  0.00     0.157 A 
ATOM     16  C   UNL     1      41.130  11.359  -6.216  1.00  0.00     0.062 A 
ATOM     17  C   UNL     1      40.354  11.873  -5.167  1.00  0.00     0.158 A 
BRANCH  15  18
ATOM     18  O   UNL     1      38.262  11.959  -3.959  1.00  0.00    -0.504 OA
ATOM     19  H   UNL     1      38.260  12.949  -3.742  1.00  0.00     0.293 HD
ENDBRANCH  15  18
BRANCH  17  20
ATOM     20  O   UNL     1      40.892  12.807  -4.283  1.00  0.00    -0.504 OA
ATOM     21  H   UNL     1      41.697  12.590  -3.707  1.00  0.00     0.293 HD
ENDBRANCH  17  20
ENDBRANCH   1  12
BRANCH   2  22
ATOM     22  O   UNL     1      40.822  11.669  -9.717  1.00  0.00    -0.502 OA
ATOM     23  H   UNL     1      40.828  12.116 -10.626  1.00  0.00     0.293 HD
ENDBRANCH   2  22
BRANCH   6  24
ATOM     24  O   UNL     1      44.286   8.561 -12.308  1.00  0.00    -0.507 OA
ATOM     25  H   UNL     1      43.895   9.390 -12.730  1.00  0.00     0.293 HD
ENDBRANCH   6  24
BRANCH   8  26
ATOM     26  O   UNL     1      44.652   4.928  -9.189  1.00  0.00    -0.508 OA
ATOM     27  H   UNL     1      44.602   4.145  -9.831  1.00  0.00     0.293 HD
ENDBRANCH   8  26
TORSDOF 6
ENDMDL
MODEL 6
REMARK VINA RESULT:    -5.919      6.695     10.300
REMARK INTER + INTRA:          -7.451
REMARK INTER:                  -7.171
REMARK INTRA:                  -0.280
REMARK UNBOUND:                -0.321
REMARK SMILES O=c1c(O)c(-c2ccc(O)c(O)c2)oc2cc(O)cc(O)c12
REMARK SMILES IDX 5 1 3 2 2 3 1 4 22 5 20 6 19 7 17 8 16 9 15 10 14 11 6 12
REMARK SMILES IDX 7 13 8 14 9 15 13 16 11 17 10 18 12 20 4 22 21 24 18 26
REMARK H PARENT 10 19 12 21 4 23 21 25 18 27
REMARK Flexibility Score: inf
ROOT
ATOM      1  C   UNL     1      41.444   0.668   0.478  1.00  0.00     0.180 A 
ATOM      2  C   UNL     1      40.432   0.671  -0.497  1.00  0.00     0.208 A 
ATOM      3  C   UNL     1      39.799   1.881  -0.819  1.00  0.00     0.238 A 
ATOM      4  O   UNL     1      38.933   1.886  -1.732  1.00  0.00    -0.285 OA
ATOM      5  C   UNL     1      40.175   3.072  -0.152  1.00  0.00     0.111 A 
ATOM      6  C   UNL     1      39.574   4.348  -0.371  1.00  0.00     0.134 A 
ATOM      7  C   UNL     1      40.113   5.482   0.251  1.00  0.00     0.093 A 
ATOM      8  C   UNL     1      41.191   5.374   1.133  1.00  0.00     0.123 A 
ATOM      9  C   UNL     1      41.747   4.125   1.399  1.00  0.00     0.094 A 
ATOM     10  C   UNL     1      41.253   2.981   0.767  1.00  0.00     0.146 A 
ATOM     11  O   UNL     1      41.819   1.812   1.040  1.00  0.00    -0.452 OA
ENDROOT
BRANCH   1  12
ATOM     12  C   UNL     1      42.138  -0.573   0.890  1.00  0.00     0.025 A 
ATOM     13  C   UNL     1      41.485  -1.481   1.739  1.00  0.00     0.016 A 
ATOM     14  C   UNL     1      42.113  -2.668   2.125  1.00  0.00     0.051 A 
ATOM     15  C   UNL     1      43.396  -2.972   1.653  1.00  0.00     0.157 A 
ATOM     16  C   UNL     1      43.418  -0.893   0.403  1.00  0.00     0.062 A 
ATOM     17  C   UNL     1      44.048  -2.085   0.788  1.00  0.00     0.158 A 
BRANCH  15  18
ATOM     18  O   UNL     1      44.027  -4.154   2.037  1.00  0.00    -0.504 OA
ATOM     19  H   UNL     1      44.755  -4.575   1.470  1.00  0.00     0.293 HD
ENDBRANCH  15  18
BRANCH  17  20
ATOM     20  O   UNL     1      45.320  -2.398   0.310  1.00  0.00    -0.504 OA
ATOM     21  H   UNL     1      46.049  -1.697   0.245  1.00  0.00     0.293 HD
ENDBRANCH  17  20
ENDBRANCH   1  12
BRANCH   2  22
ATOM     22  O   UNL     1      40.092  -0.513  -1.159  1.00  0.00    -0.502 OA
ATOM     23  H   UNL     1      40.789  -1.165  -1.499  1.00  0.00     0.293 HD
ENDBRANCH   2  22
BRANCH   6  24
ATOM     24  O   UNL     1      38.437   4.550  -1.160  1.00  0.00    -0.507 OA
ATOM     25  H   UNL     1      37.758   3.839  -1.382  1.00  0.00     0.293 HD
ENDBRANCH   6  24
BRANCH   8  26
ATOM     26  O   UNL     1      41.712   6.505   1.759  1.00  0.00    -0.508 OA
ATOM     27  H   UNL     1      41.298   6.881   2.604  1.00  0.00     0.293 HD
ENDBRANCH   8  26
TORSDOF 6
ENDMDL
MODEL 7
REMARK VINA RESULT:    -5.916      4.448      8.022
REMARK INTER + INTRA:          -7.447
REMARK INTER:                  -7.114
REMARK INTRA:                  -0.333
REMARK UNBOUND:                -0.321
REMARK SMILES O=c1c(O)c(-c2ccc(O)c(O)c2)oc2cc(O)cc(O)c12
REMARK SMILES IDX 5 1 3 2 2 3 1 4 22 5 20 6 19 7 17 8 16 9 15 10 14 11 6 12
REMARK SMILES IDX 7 13 8 14 9 15 13 16 11 17 10 18 12 20 4 22 21 24 18 26
REMARK H PARENT 10 19 12 21 4 23 21 25 18 27
REMARK Flexibility Score: inf
ROOT
ATOM      1  C   UNL     1      43.511  -1.723   0.388  1.00  0.00     0.180 A 
ATOM      2  C   UNL     1      42.135  -2.010   0.401  1.00  0.00     0.208 A 
ATOM      3  C   UNL     1      41.236  -1.017   0.822  1.00  0.00     0.238 A 
ATOM      4  O   UNL     1      40.002  -1.261   0.779  1.00  0.00    -0.285 OA
ATOM      5  C   UNL     1      41.725   0.244   1.241  1.00  0.00     0.111 A 
ATOM      6  C   UNL     1      40.908   1.310   1.725  1.00  0.00     0.134 A 
ATOM      7  C   UNL     1      41.486   2.558   1.989  1.00  0.00     0.093 A 
ATOM      8  C   UNL     1      42.862   2.759   1.846  1.00  0.00     0.123 A 
ATOM      9  C   UNL     1      43.676   1.708   1.431  1.00  0.00     0.094 A 
ATOM     10  C   UNL     1      43.123   0.462   1.127  1.00  0.00     0.146 A 
ATOM     11  O   UNL     1      43.934  -0.510   0.725  1.00  0.00    -0.452 OA
ENDROOT
BRANCH   1  12
ATOM     12  C   UNL     1      44.521  -2.727  -0.018  1.00  0.00     0.025 A 
ATOM     13  C   UNL     1      44.954  -2.770  -1.353  1.00  0.00     0.016 A 
ATOM     14  C   UNL     1      45.921  -3.695  -1.755  1.00  0.00     0.051 A 
ATOM     15  C   UNL     1      46.480  -4.579  -0.824  1.00  0.00     0.157 A 
ATOM     16  C   UNL     1      45.100  -3.603   0.917  1.00  0.00     0.062 A 
ATOM     17  C   UNL     1      46.073  -4.530   0.514  1.00  0.00     0.158 A 
BRANCH  15  18
ATOM     18  O   UNL     1      47.444  -5.505  -1.221  1.00  0.00    -0.504 OA
ATOM     19  H   UNL     1      47.862  -6.151  -0.561  1.00  0.00     0.293 HD
ENDBRANCH  15  18
BRANCH  17  20
ATOM     20  O   UNL     1      46.641  -5.403   1.440  1.00  0.00    -0.504 OA
ATOM     21  H   UNL     1      47.123  -6.246   1.149  1.00  0.00     0.293 HD
ENDBRANCH  17  20
ENDBRANCH   1  12
BRANCH   2  22
ATOM     22  O   UNL     1      41.672  -3.254  -0.037  1.00  0.00    -0.502 OA
ATOM     23  H   UNL     1      40.698  -3.525   0.027  1.00  0.00     0.293 HD
ENDBRANCH   2  22
BRANCH   6  24
ATOM     24  O   UNL     1      39.541   1.187   1.989  1.00  0.00    -0.507 OA
ATOM     25  H   UNL     1      38.820   1.746   1.560  1.00  0.00     0.293 HD
ENDBRANCH   6  24
BRANCH   8  26
ATOM     26  O   UNL     1      43.431   4.000   2.125  1.00  0.00    -0.508 OA
ATOM     27  H   UNL     1      44.276   4.084   2.678  1.00  0.00     0.293 HD
ENDBRANCH   8  26
TORSDOF 6
ENDMDL
MODEL 8
REMARK VINA RESULT:    -5.892      1.868      6.834
REMARK INTER + INTRA:          -7.419
REMARK INTER:                  -7.370
REMARK INTRA:                  -0.049
REMARK UNBOUND:                -0.321
REMARK SMILES O=c1c(O)c(-c2ccc(O)c(O)c2)oc2cc(O)cc(O)c12
REMARK SMILES IDX 5 1 3 2 2 3 1 4 22 5 20 6 19 7 17 8 16 9 15 10 14 11 6 12
REMARK SMILES IDX 7 13 8 14 9 15 13 16 11 17 10 18 12 20 4 22 21 24 18 26
REMARK H PARENT 10 19 12 21 4 23 21 25 18 27
REMARK Flexibility Score: inf
ROOT
ATOM      1  C   UNL     1      50.318  -2.937   1.015  1.00  0.00     0.180 A 
ATOM      2  C   UNL     1      49.846  -4.209   0.649  1.00  0.00     0.208 A 
ATOM      3  C   UNL     1      48.467  -4.464   0.696  1.00  0.00     0.238 A 
ATOM      4  O   UNL     1      48.046  -5.588   0.315  1.00  0.00    -0.285 OA
ATOM      5  C   UNL     1      47.577  -3.449   1.123  1.00  0.00     0.111 A 
ATOM      6  C   UNL     1      46.164  -3.610   1.248  1.00  0.00     0.134 A 
ATOM      7  C   UNL     1      45.367  -2.499   1.555  1.00  0.00     0.093 A 
ATOM      8  C   UNL     1      45.940  -1.249   1.805  1.00  0.00     0.123 A 
ATOM      9  C   UNL     1      47.322  -1.097   1.744  1.00  0.00     0.094 A 
ATOM     10  C   UNL     1      48.140  -2.178   1.406  1.00  0.00     0.146 A 
ATOM     11  O   UNL     1      49.453  -1.986   1.349  1.00  0.00    -0.452 OA
ENDROOT
BRANCH   1  12
ATOM     12  C   UNL     1      51.760  -2.602   1.016  1.00  0.00     0.025 A 
ATOM     13  C   UNL     1      52.654  -3.399   1.748  1.00  0.00     0.016 A 
ATOM     14  C   UNL     1      54.022  -3.113   1.747  1.00  0.00     0.051 A 
ATOM     15  C   UNL     1      54.517  -2.036   1.000  1.00  0.00     0.157 A 
ATOM     16  C   UNL     1      52.264  -1.534   0.251  1.00  0.00     0.062 A 
ATOM     17  C   UNL     1      53.637  -1.248   0.249  1.00  0.00     0.158 A 
BRANCH  15  18
ATOM     18  O   UNL     1      55.880  -1.746   0.998  1.00  0.00    -0.504 OA
ATOM     19  H   UNL     1      56.578  -2.475   1.100  1.00  0.00     0.293 HD
ENDBRANCH  15  18
BRANCH  17  20
ATOM     20  O   UNL     1      54.135  -0.185  -0.504  1.00  0.00    -0.504 OA
ATOM     21  H   UNL     1      53.662   0.142  -1.338  1.00  0.00     0.293 HD
ENDBRANCH  17  20
ENDBRANCH   1  12
BRANCH   2  22
ATOM     22  O   UNL     1      50.740  -5.190   0.209  1.00  0.00    -0.502 OA
ATOM     23  H   UNL     1      51.136  -5.884   0.833  1.00  0.00     0.293 HD
ENDBRANCH   2  22
BRANCH   6  24
ATOM     24  O   UNL     1      45.503  -4.833   1.109  1.00  0.00    -0.507 OA
ATOM     25  H   UNL     1      45.283  -5.458   1.870  1.00  0.00     0.293 HD
ENDBRANCH   6  24
BRANCH   8  26
ATOM     26  O   UNL     1      45.141  -0.153   2.124  1.00  0.00    -0.508 OA
ATOM     27  H   UNL     1      45.187   0.289   3.035  1.00  0.00     0.293 HD
ENDBRANCH   8  26
TORSDOF 6
ENDMDL
MODEL 9
REMARK VINA RESULT:    -5.863      4.854      8.022
REMARK INTER + INTRA:          -7.384
REMARK INTER:                  -7.625
REMARK INTRA:                   0.241
REMARK UNBOUND:                -0.321
REMARK SMILES O=c1c(O)c(-c2ccc(O)c(O)c2)oc2cc(O)cc(O)c12
REMARK SMILES IDX 5 1 3 2 2 3 1 4 22 5 20 6 19 7 17 8 16 9 15 10 14 11 6 12
REMARK SMILES IDX 7 13 8 14 9 15 13 16 11 17 10 18 12 20 4 22 21 24 18 26
REMARK H PARENT 10 19 12 21 4 23 21 25 18 27
REMARK Flexibility Score: inf
ROOT
ATOM      1  C   UNL     1      42.806  -0.179   0.459  1.00  0.00     0.180 A 
ATOM      2  C   UNL     1      41.837  -1.120   0.071  1.00  0.00     0.208 A 
ATOM      3  C   UNL     1      42.251  -2.403  -0.320  1.00  0.00     0.238 A 
ATOM      4  O   UNL     1      41.375  -3.257  -0.613  1.00  0.00    -0.285 OA
ATOM      5  C   UNL     1      43.630  -2.724  -0.334  1.00  0.00     0.111 A 
ATOM      6  C   UNL     1      44.164  -3.981  -0.750  1.00  0.00     0.134 A 
ATOM      7  C   UNL     1      45.534  -4.233  -0.599  1.00  0.00     0.093 A 
ATOM      8  C   UNL     1      46.397  -3.250  -0.107  1.00  0.00     0.123 A 
ATOM      9  C   UNL     1      45.893  -2.001   0.246  1.00  0.00     0.094 A 
ATOM     10  C   UNL     1      44.526  -1.732   0.140  1.00  0.00     0.146 A 
ATOM     11  O   UNL     1      44.087  -0.531   0.498  1.00  0.00    -0.452 OA
ENDROOT
BRANCH   1  12
ATOM     12  C   UNL     1      42.449   1.201   0.859  1.00  0.00     0.025 A 
ATOM     13  C   UNL     1      43.281   1.899   1.749  1.00  0.00     0.016 A 
ATOM     14  C   UNL     1      42.975   3.210   2.125  1.00  0.00     0.051 A 
ATOM     15  C   UNL     1      41.841   3.846   1.603  1.00  0.00     0.157 A 
ATOM     16  C   UNL     1      41.323   1.851   0.323  1.00  0.00     0.062 A 
ATOM     17  C   UNL     1      41.017   3.167   0.698  1.00  0.00     0.158 A 
BRANCH  15  18
ATOM     18  O   UNL     1      41.530   5.153   1.977  1.00  0.00    -0.504 OA
ATOM     19  H   UNL     1      41.525   5.439   2.950  1.00  0.00     0.293 HD
ENDBRANCH  15  18
BRANCH  17  20
ATOM     20  O   UNL     1      39.896   3.808   0.171  1.00  0.00    -0.504 OA
ATOM     21  H   UNL     1      39.556   4.682   0.555  1.00  0.00     0.293 HD
ENDBRANCH  17  20
ENDBRANCH   1  12
BRANCH   2  22
ATOM     22  O   UNL     1      40.480  -0.788   0.114  1.00  0.00    -0.502 OA
ATOM     23  H   UNL     1      39.761  -1.467   0.334  1.00  0.00     0.293 HD
ENDBRANCH   2  22
BRANCH   6  24
ATOM     24  O   UNL     1      43.404  -4.995  -1.340  1.00  0.00    -0.507 OA
ATOM     25  H   UNL     1      43.743  -5.924  -1.541  1.00  0.00     0.293 HD
ENDBRANCH   6  24
BRANCH   8  26
ATOM     26  O   UNL     1      47.760  -3.503   0.026  1.00  0.00    -0.508 OA
ATOM     27  H   UNL     1      48.120  -4.448   0.091  1.00  0.00     0.293 HD
ENDBRANCH   8  26
TORSDOF 6
ENDMDL
