MODEL 1
REMARK VINA RESULT:    -2.685      0.000      0.000
REMARK INTER + INTRA:          -3.036
REMARK INTER:                  -2.999
REMARK INTRA:                  -0.037
REMARK UNBOUND:                -0.037
REMARK SMILES CCCC(=O)[O-]
REMARK SMILES IDX 3 1 4 2 5 3 6 4 2 5 1 6
REMARK H PARENT
REMARK Flexibility Score: inf
ROOT
ATOM      1  C   UNL     1      20.115  -8.824  44.300  1.00  0.00     0.052 C 
ENDROOT
BRANCH   1   2
ATOM      2  C   UNL     1      19.750  -7.529  43.647  1.00  0.00     0.041 C 
ATOM      3  O   UNL     1      20.631  -6.846  43.059  1.00  0.00    -0.550 OA
ATOM      4  O   UNL     1      18.430  -7.099  43.642  1.00  0.00    -0.550 OA
ENDBRANCH   1   2
BRANCH   1   5
ATOM      5  C   UNL     1      20.496  -9.867  43.246  1.00  0.00     0.003 C 
ATOM      6  C   UNL     1      22.000 -10.125  43.247  1.00  0.00     0.004 C 
ENDBRANCH   1   5
TORSDOF 2
ENDMDL
MODEL 2
REMARK VINA RESULT:    -2.639      3.522      3.924
REMARK INTER + INTRA:          -2.984
REMARK INTER:                  -2.923
REMARK INTRA:                  -0.061
REMARK UNBOUND:                -0.037
REMARK SMILES CCCC(=O)[O-]
REMARK SMILES IDX 3 1 4 2 5 3 6 4 2 5 1 6
REMARK H PARENT
REMARK Flexibility Score: inf
ROOT
ATOM      1  C   UNL     1      19.419  -5.742  43.254  1.00  0.00     0.052 C 
ENDROOT
BRANCH   1   2
ATOM      2  C   UNL     1      19.095  -4.350  43.694  1.00  0.00     0.041 C 
ATOM      3  O   UNL     1      18.131  -3.729  43.172  1.00  0.00    -0.550 OA
ATOM      4  O   UNL     1      19.824  -3.755  44.715  1.00  0.00    -0.550 OA
ENDBRANCH   1   2
BRANCH   1   5
ATOM      5  C   UNL     1      18.300  -6.706  43.656  1.00  0.00     0.003 C 
ATOM      6  C   UNL     1      18.416  -7.101  45.125  1.00  0.00     0.004 C 
ENDBRANCH   1   5
TORSDOF 2
ENDMDL
MODEL 3
REMARK VINA RESULT:    -2.623      2.991      3.690
REMARK INTER + INTRA:          -2.967
REMARK INTER:                  -2.937
REMARK INTRA:                  -0.030
REMARK UNBOUND:                -0.037
REMARK SMILES CCCC(=O)[O-]
REMARK SMILES IDX 3 1 4 2 5 3 6 4 2 5 1 6
REMARK H PARENT
REMARK Flexibility Score: inf
ROOT
ATOM      1  C   UNL     1      19.937  -5.098  42.558  1.00  0.00     0.052 C 
ENDROOT
BRANCH   1   2
ATOM      2  C   UNL     1      19.201  -4.152  43.453  1.00  0.00     0.041 C 
ATOM      3  O   UNL     1      18.035  -3.777  43.157  1.00  0.00    -0.550 OA
ATOM      4  O   UNL     1      19.782  -3.721  44.638  1.00  0.00    -0.550 OA
ENDBRANCH   1   2
BRANCH   1   5
ATOM      5  C   UNL     1      20.123  -6.452  43.249  1.00  0.00     0.003 C 
ATOM      6  C   UNL     1      21.593  -6.859  43.274  1.00  0.00     0.004 C 
ENDBRANCH   1   5
TORSDOF 2
ENDMDL
MODEL 4
REMARK VINA RESULT:    -2.620      2.649      3.272
REMARK INTER + INTRA:          -2.963
REMARK INTER:                  -2.903
REMARK INTRA:                  -0.061
REMARK UNBOUND:                -0.037
REMARK SMILES CCCC(=O)[O-]
REMARK SMILES IDX 3 1 4 2 5 3 6 4 2 5 1 6
REMARK H PARENT
REMARK Flexibility Score: inf
ROOT
ATOM      1  C   UNL     1      17.973  -6.516  43.576  1.00  0.00     0.052 C 
ENDROOT
BRANCH   1   2
ATOM      2  C   UNL     1      18.809  -5.368  43.107  1.00  0.00     0.041 C 
ATOM      3  O   UNL     1      19.943  -5.575  42.601  1.00  0.00    -0.550 OA
ATOM      4  O   UNL     1      18.315  -4.072  43.183  1.00  0.00    -0.550 OA
ENDBRANCH   1   2
BRANCH   1   5
ATOM      5  C   UNL     1      18.802  -7.458  44.454  1.00  0.00     0.003 C 
ATOM      6  C   UNL     1      19.040  -6.856  45.835  1.00  0.00     0.004 C 
ENDBRANCH   1   5
TORSDOF 2
ENDMDL
MODEL 5
REMARK VINA RESULT:    -2.608      2.728      4.200
REMARK INTER + INTRA:          -2.950
REMARK INTER:                  -2.880
REMARK INTRA:                  -0.070
REMARK UNBOUND:                -0.037
REMARK SMILES CCCC(=O)[O-]
REMARK SMILES IDX 3 1 4 2 5 3 6 4 2 5 1 6
REMARK H PARENT
REMARK Flexibility Score: inf
ROOT
ATOM      1  C   UNL     1      19.656  -4.877  42.478  1.00  0.00     0.052 C 
ENDROOT
BRANCH   1   2
ATOM      2  C   UNL     1      20.102  -6.202  43.011  1.00  0.00     0.041 C 
ATOM      3  O   UNL     1      21.311  -6.546  42.925  1.00  0.00    -0.550 OA
ATOM      4  O   UNL     1      19.193  -7.037  43.648  1.00  0.00    -0.550 OA
ENDBRANCH   1   2
BRANCH   1   5
ATOM      5  C   UNL     1      18.995  -4.050  43.584  1.00  0.00     0.003 C 
ATOM      6  C   UNL     1      19.987  -3.729  44.698  1.00  0.00     0.004 C 
ENDBRANCH   1   5
TORSDOF 2
ENDMDL
MODEL 6
REMARK VINA RESULT:    -2.600     10.783     12.143
REMARK INTER + INTRA:          -2.941
REMARK INTER:                  -2.913
REMARK INTRA:                  -0.028
REMARK UNBOUND:                -0.037
REMARK SMILES CCCC(=O)[O-]
REMARK SMILES IDX 3 1 4 2 5 3 6 4 2 5 1 6
REMARK H PARENT
REMARK Flexibility Score: inf
ROOT
ATOM      1  C   UNL     1       9.533  -3.252  46.480  1.00  0.00     0.052 C 
ENDROOT
BRANCH   1   2
ATOM      2  C   UNL     1      10.554  -3.649  45.462  1.00  0.00     0.041 C 
ATOM      3  O   UNL     1      11.690  -4.053  45.827  1.00  0.00    -0.550 OA
ATOM      4  O   UNL     1      10.236  -3.619  44.110  1.00  0.00    -0.550 OA
ENDBRANCH   1   2
BRANCH   1   5
ATOM      5  C   UNL     1       9.888  -1.896  47.095  1.00  0.00     0.003 C 
ATOM      6  C   UNL     1       8.957  -0.800  46.586  1.00  0.00     0.004 C 
ENDBRANCH   1   5
TORSDOF 2
ENDMDL
MODEL 7
REMARK VINA RESULT:    -2.545      2.684      4.096
REMARK INTER + INTRA:          -2.879
REMARK INTER:                  -2.811
REMARK INTRA:                  -0.068
REMARK UNBOUND:                -0.037
REMARK SMILES CCCC(=O)[O-]
REMARK SMILES IDX 3 1 4 2 5 3 6 4 2 5 1 6
REMARK H PARENT
REMARK Flexibility Score: inf
ROOT
ATOM      1  C   UNL     1      19.426  -5.105  44.231  1.00  0.00     0.052 C 
ENDROOT
BRANCH   1   2
ATOM      2  C   UNL     1      19.230  -6.466  43.643  1.00  0.00     0.041 C 
ATOM      3  O   UNL     1      20.220  -7.130  43.236  1.00  0.00    -0.550 OA
ATOM      4  O   UNL     1      17.959  -7.023  43.588  1.00  0.00    -0.550 OA
ENDBRANCH   1   2
BRANCH   1   5
ATOM      5  C   UNL     1      18.651  -4.057  43.428  1.00  0.00     0.003 C 
ATOM      6  C   UNL     1      19.127  -4.011  41.979  1.00  0.00     0.004 C 
ENDBRANCH   1   5
TORSDOF 2
ENDMDL
MODEL 8
REMARK VINA RESULT:    -2.497      2.068      3.057
REMARK INTER + INTRA:          -2.826
REMARK INTER:                  -2.754
REMARK INTRA:                  -0.072
REMARK UNBOUND:                -0.037
REMARK SMILES CCCC(=O)[O-]
REMARK SMILES IDX 3 1 4 2 5 3 6 4 2 5 1 6
REMARK H PARENT
REMARK Flexibility Score: inf
ROOT
ATOM      1  C   UNL     1      19.326  -7.915  43.978  1.00  0.00     0.052 C 
ENDROOT
BRANCH   1   2
ATOM      2  C   UNL     1      20.381  -7.043  43.376  1.00  0.00     0.041 C 
ATOM      3  O   UNL     1      20.062  -5.974  42.791  1.00  0.00    -0.550 OA
ATOM      4  O   UNL     1      21.721  -7.384  43.502  1.00  0.00    -0.550 OA
ENDBRANCH   1   2
BRANCH   1   5
ATOM      5  C   UNL     1      18.503  -7.131  45.003  1.00  0.00     0.003 C 
ATOM      6  C   UNL     1      19.345  -6.769  46.223  1.00  0.00     0.004 C 
ENDBRANCH   1   5
TORSDOF 2
ENDMDL
MODEL 9
REMARK VINA RESULT:    -2.481      5.779      6.389
REMARK INTER + INTRA:          -2.808
REMARK INTER:                  -2.769
REMARK INTRA:                  -0.039
REMARK UNBOUND:                -0.037
REMARK SMILES CCCC(=O)[O-]
REMARK SMILES IDX 3 1 4 2 5 3 6 4 2 5 1 6
REMARK H PARENT
REMARK Flexibility Score: inf
ROOT
ATOM      1  C   UNL     1      20.274  -7.471  49.998  1.00  0.00     0.052 C 
ENDROOT
BRANCH   1   2
ATOM      2  C   UNL     1      20.372  -7.212  48.528  1.00  0.00     0.041 C 
ATOM      3  O   UNL     1      19.618  -6.363  47.983  1.00  0.00    -0.550 OA
ATOM      4  O   UNL     1      21.327  -7.873  47.767  1.00  0.00    -0.550 OA
ENDBRANCH   1   2
BRANCH   1   5
ATOM      5  C   UNL     1      21.418  -6.776  50.741  1.00  0.00     0.003 C 
ATOM      6  C   UNL     1      22.499  -7.774  51.145  1.00  0.00     0.004 C 
ENDBRANCH   1   5
TORSDOF 2
ENDMDL
