MODEL 1
REMARK VINA RESULT:    -3.167      0.000      0.000
REMARK INTER + INTRA:          -7.154
REMARK INTER:                  -6.129
REMARK INTRA:                  -1.024
REMARK UNBOUND:                -1.024
REMARK SMILES CCCCCCCCCCCCCCCC(=O)OCC
REMARK SMILES IDX 10 1 9 2 8 3 7 4 6 5 5 6 4 7 3 8 2 9 1 10 11 11 12 12 13 13
REMARK SMILES IDX 14 14 15 15 16 16 17 17 18 18 19 19 20 20
REMARK H PARENT
REMARK Flexibility Score: inf
ROOT
ATOM      1  C   UNL     1      39.747  66.217  98.593  1.00  0.00     0.000 C 
ENDROOT
BRANCH   1   2
ATOM      2  C   UNL     1      38.746  66.208  99.760  1.00  0.00     0.000 C 
BRANCH   2   3
ATOM      3  C   UNL     1      38.500  64.791 100.308  1.00  0.00     0.000 C 
BRANCH   3   4
ATOM      4  C   UNL     1      37.020  64.382 100.243  1.00  0.00    -0.000 C 
BRANCH   4   5
ATOM      5  C   UNL     1      36.734  63.065 100.985  1.00  0.00    -0.000 C 
BRANCH   5   6
ATOM      6  C   UNL     1      37.207  63.096 102.447  1.00  0.00    -0.000 C 
BRANCH   6   7
ATOM      7  C   UNL     1      36.049  62.960 103.446  1.00  0.00    -0.000 C 
BRANCH   7   8
ATOM      8  C   UNL     1      36.265  63.870 104.665  1.00  0.00    -0.000 C 
BRANCH   8   9
ATOM      9  C   UNL     1      34.943  64.312 105.313  1.00  0.00    -0.003 C 
ATOM     10  C   UNL     1      33.890  63.205 105.324  1.00  0.00     0.004 C 
ENDBRANCH   8   9
ENDBRANCH   7   8
ENDBRANCH   6   7
ENDBRANCH   5   6
ENDBRANCH   4   5
ENDBRANCH   3   4
ENDBRANCH   2   3
ENDBRANCH   1   2
BRANCH   1  11
ATOM     11  C   UNL     1      40.071  64.799  98.091  1.00  0.00     0.000 C 
BRANCH  11  12
ATOM     12  C   UNL     1      39.977  64.671  96.562  1.00  0.00     0.000 C 
BRANCH  12  13
ATOM     13  C   UNL     1      38.751  63.861  96.107  1.00  0.00     0.001 C 
BRANCH  13  14
ATOM     14  C   UNL     1      37.465  64.287  96.833  1.00  0.00     0.012 C 
BRANCH  14  15
ATOM     15  C   UNL     1      36.301  63.317  96.591  1.00  0.00     0.123 C 
BRANCH  15  16
ATOM     16  C   UNL     1      35.529  63.724  95.377  1.00  0.00     0.305 C 
ATOM     17  O   UNL     1      34.274  63.837  95.441  1.00  0.00    -0.252 OA
BRANCH  16  18
ATOM     18  O   UNL     1      36.204  63.923  94.168  1.00  0.00    -0.466 OA
BRANCH  18  19
ATOM     19  C   UNL     1      36.852  62.875  93.450  1.00  0.00     0.229 C 
ATOM     20  C   UNL     1      37.734  63.445  92.346  1.00  0.00     0.049 C 
ENDBRANCH  18  19
ENDBRANCH  16  18
ENDBRANCH  15  16
ENDBRANCH  14  15
ENDBRANCH  13  14
ENDBRANCH  12  13
ENDBRANCH  11  12
ENDBRANCH   1  11
TORSDOF 16
ENDMDL
MODEL 2
REMARK VINA RESULT:    -3.030      3.335      7.832
REMARK INTER + INTRA:          -6.889
REMARK INTER:                  -5.643
REMARK INTRA:                  -1.246
REMARK UNBOUND:                -1.024
REMARK SMILES CCCCCCCCCCCCCCCC(=O)OCC
REMARK SMILES IDX 10 1 9 2 8 3 7 4 6 5 5 6 4 7 3 8 2 9 1 10 11 11 12 12 13 13
REMARK SMILES IDX 14 14 15 15 16 16 17 17 18 18 19 19 20 20
REMARK H PARENT
REMARK Flexibility Score: inf
ROOT
ATOM      1  C   UNL     1      38.875  63.750  97.811  1.00  0.00     0.000 C 
ENDROOT
BRANCH   1   2
ATOM      2  C   UNL     1      39.712  63.878  96.527  1.00  0.00     0.000 C 
BRANCH   2   3
ATOM      3  C   UNL     1      38.847  64.197  95.294  1.00  0.00     0.000 C 
BRANCH   3   4
ATOM      4  C   UNL     1      38.391  62.933  94.550  1.00  0.00    -0.000 C 
BRANCH   4   5
ATOM      5  C   UNL     1      37.175  63.184  93.642  1.00  0.00    -0.000 C 
BRANCH   5   6
ATOM      6  C   UNL     1      36.141  64.123  94.285  1.00  0.00    -0.000 C 
BRANCH   6   7
ATOM      7  C   UNL     1      34.897  63.377  94.790  1.00  0.00    -0.000 C 
BRANCH   7   8
ATOM      8  C   UNL     1      34.602  63.733  96.255  1.00  0.00    -0.000 C 
BRANCH   8   9
ATOM      9  C   UNL     1      35.445  62.911  97.243  1.00  0.00    -0.003 C 
ATOM     10  C   UNL     1      35.253  63.352  98.693  1.00  0.00     0.004 C 
ENDBRANCH   8   9
ENDBRANCH   7   8
ENDBRANCH   6   7
ENDBRANCH   5   6
ENDBRANCH   4   5
ENDBRANCH   3   4
ENDBRANCH   2   3
ENDBRANCH   1   2
BRANCH   1  11
ATOM     11  C   UNL     1      39.678  64.121  99.070  1.00  0.00     0.000 C 
BRANCH  11  12
ATOM     12  C   UNL     1      39.470  63.126 100.223  1.00  0.00     0.000 C 
BRANCH  12  13
ATOM     13  C   UNL     1      39.012  63.810 101.523  1.00  0.00     0.001 C 
BRANCH  13  14
ATOM     14  C   UNL     1      37.917  63.013 102.250  1.00  0.00     0.012 C 
BRANCH  14  15
ATOM     15  C   UNL     1      38.186  62.876 103.754  1.00  0.00     0.123 C 
BRANCH  15  16
ATOM     16  C   UNL     1      37.105  63.549 104.539  1.00  0.00     0.305 C 
ATOM     17  O   UNL     1      37.409  64.322 105.488  1.00  0.00    -0.252 OA
BRANCH  16  18
ATOM     18  O   UNL     1      35.767  63.269 104.245  1.00  0.00    -0.466 OA
BRANCH  18  19
ATOM     19  C   UNL     1      34.670  63.930 104.872  1.00  0.00     0.229 C 
ATOM     20  C   UNL     1      33.610  62.924 105.304  1.00  0.00     0.049 C 
ENDBRANCH  18  19
ENDBRANCH  16  18
ENDBRANCH  15  16
ENDBRANCH  14  15
ENDBRANCH  13  14
ENDBRANCH  12  13
ENDBRANCH  11  12
ENDBRANCH   1  11
TORSDOF 16
ENDMDL
MODEL 3
REMARK VINA RESULT:    -2.893      3.923      8.900
REMARK INTER + INTRA:          -6.624
REMARK INTER:                  -5.553
REMARK INTRA:                  -1.071
REMARK UNBOUND:                -1.024
REMARK SMILES CCCCCCCCCCCCCCCC(=O)OCC
REMARK SMILES IDX 10 1 9 2 8 3 7 4 6 5 5 6 4 7 3 8 2 9 1 10 11 11 12 12 13 13
REMARK SMILES IDX 14 14 15 15 16 16 17 17 18 18 19 19 20 20
REMARK H PARENT
REMARK Flexibility Score: inf
ROOT
ATOM      1  C   UNL     1      37.670  63.484  98.733  1.00  0.00     0.000 C 
ENDROOT
BRANCH   1   2
ATOM      2  C   UNL     1      38.776  64.498  98.396  1.00  0.00     0.000 C 
BRANCH   2   3
ATOM      3  C   UNL     1      39.861  63.898  97.484  1.00  0.00     0.000 C 
BRANCH   3   4
ATOM      4  C   UNL     1      39.277  62.988  96.392  1.00  0.00    -0.000 C 
BRANCH   4   5
ATOM      5  C   UNL     1      38.689  63.779  95.211  1.00  0.00    -0.000 C 
BRANCH   5   6
ATOM      6  C   UNL     1      37.980  62.875  94.189  1.00  0.00    -0.000 C 
BRANCH   6   7
ATOM      7  C   UNL     1      36.756  63.550  93.551  1.00  0.00    -0.000 C 
BRANCH   7   8
ATOM      8  C   UNL     1      36.015  64.422  94.575  1.00  0.00    -0.000 C 
BRANCH   8   9
ATOM      9  C   UNL     1      34.785  63.717  95.170  1.00  0.00    -0.003 C 
ATOM     10  C   UNL     1      35.107  62.943  96.448  1.00  0.00     0.004 C 
ENDBRANCH   8   9
ENDBRANCH   7   8
ENDBRANCH   6   7
ENDBRANCH   5   6
ENDBRANCH   4   5
ENDBRANCH   3   4
ENDBRANCH   2   3
ENDBRANCH   1   2
BRANCH   1  11
ATOM     11  C   UNL     1      36.678  64.028  99.776  1.00  0.00     0.000 C 
BRANCH  11  12
ATOM     12  C   UNL     1      37.282  64.106 101.188  1.00  0.00     0.000 C 
BRANCH  12  13
ATOM     13  C   UNL     1      36.651  63.096 102.162  1.00  0.00     0.001 C 
BRANCH  13  14
ATOM     14  C   UNL     1      37.033  63.375 103.624  1.00  0.00     0.012 C 
BRANCH  14  15
ATOM     15  C   UNL     1      35.836  63.268 104.578  1.00  0.00     0.123 C 
BRANCH  15  16
ATOM     16  C   UNL     1      36.182  63.846 105.913  1.00  0.00     0.305 C 
ATOM     17  O   UNL     1      35.978  65.071 106.137  1.00  0.00    -0.252 OA
BRANCH  16  18
ATOM     18  O   UNL     1      36.778  63.031 106.881  1.00  0.00    -0.466 OA
BRANCH  18  19
ATOM     19  C   UNL     1      38.182  63.002 107.126  1.00  0.00     0.229 C 
ATOM     20  C   UNL     1      38.468  63.062 108.622  1.00  0.00     0.049 C 
ENDBRANCH  18  19
ENDBRANCH  16  18
ENDBRANCH  15  16
ENDBRANCH  14  15
ENDBRANCH  13  14
ENDBRANCH  12  13
ENDBRANCH  11  12
ENDBRANCH   1  11
TORSDOF 16
ENDMDL
MODEL 4
REMARK VINA RESULT:    -2.850      1.518      2.035
REMARK INTER + INTRA:          -6.540
REMARK INTER:                  -5.645
REMARK INTRA:                  -0.895
REMARK UNBOUND:                -1.024
REMARK SMILES CCCCCCCCCCCCCCCC(=O)OCC
REMARK SMILES IDX 10 1 9 2 8 3 7 4 6 5 5 6 4 7 3 8 2 9 1 10 11 11 12 12 13 13
REMARK SMILES IDX 14 14 15 15 16 16 17 17 18 18 19 19 20 20
REMARK H PARENT
REMARK Flexibility Score: inf
ROOT
ATOM      1  C   UNL     1      38.078  65.412  98.313  1.00  0.00     0.000 C 
ENDROOT
BRANCH   1   2
ATOM      2  C   UNL     1      38.746  65.190  99.681  1.00  0.00     0.000 C 
BRANCH   2   3
ATOM      3  C   UNL     1      38.302  63.872 100.341  1.00  0.00     0.000 C 
BRANCH   3   4
ATOM      4  C   UNL     1      36.837  63.909 100.805  1.00  0.00    -0.000 C 
BRANCH   4   5
ATOM      5  C   UNL     1      36.555  62.935 101.962  1.00  0.00    -0.000 C 
BRANCH   5   6
ATOM      6  C   UNL     1      37.550  63.093 103.123  1.00  0.00    -0.000 C 
BRANCH   6   7
ATOM      7  C   UNL     1      36.893  62.888 104.496  1.00  0.00    -0.000 C 
BRANCH   7   8
ATOM      8  C   UNL     1      35.718  63.858 104.693  1.00  0.00    -0.000 C 
BRANCH   8   9
ATOM      9  C   UNL     1      34.927  63.573 105.979  1.00  0.00    -0.003 C 
ATOM     10  C   UNL     1      35.539  64.239 107.210  1.00  0.00     0.004 C 
ENDBRANCH   8   9
ENDBRANCH   7   8
ENDBRANCH   6   7
ENDBRANCH   5   6
ENDBRANCH   4   5
ENDBRANCH   3   4
ENDBRANCH   2   3
ENDBRANCH   1   2
BRANCH   1  11
ATOM     11  C   UNL     1      38.778  64.630  97.188  1.00  0.00     0.000 C 
BRANCH  11  12
ATOM     12  C   UNL     1      38.276  63.182  97.067  1.00  0.00     0.000 C 
BRANCH  12  13
ATOM     13  C   UNL     1      36.899  63.085  96.386  1.00  0.00     0.001 C 
BRANCH  13  14
ATOM     14  C   UNL     1      36.613  64.287  95.472  1.00  0.00     0.012 C 
BRANCH  14  15
ATOM     15  C   UNL     1      35.843  63.894  94.204  1.00  0.00     0.123 C 
BRANCH  15  16
ATOM     16  C   UNL     1      36.788  63.705  93.060  1.00  0.00     0.305 C 
ATOM     17  O   UNL     1      36.545  64.253  91.950  1.00  0.00    -0.252 OA
BRANCH  16  18
ATOM     18  O   UNL     1      37.904  62.877  93.221  1.00  0.00    -0.466 OA
BRANCH  18  19
ATOM     19  C   UNL     1      39.223  63.255  92.834  1.00  0.00     0.229 C 
ATOM     20  C   UNL     1      40.082  63.541  94.060  1.00  0.00     0.049 C 
ENDBRANCH  18  19
ENDBRANCH  16  18
ENDBRANCH  15  16
ENDBRANCH  14  15
ENDBRANCH  13  14
ENDBRANCH  12  13
ENDBRANCH  11  12
ENDBRANCH   1  11
TORSDOF 16
ENDMDL
MODEL 5
REMARK VINA RESULT:    -2.804     22.126     23.559
REMARK INTER + INTRA:          -6.452
REMARK INTER:                  -4.782
REMARK INTRA:                  -1.670
REMARK UNBOUND:                -1.024
REMARK SMILES CCCCCCCCCCCCCCCC(=O)OCC
REMARK SMILES IDX 10 1 9 2 8 3 7 4 6 5 5 6 4 7 3 8 2 9 1 10 11 11 12 12 13 13
REMARK SMILES IDX 14 14 15 15 16 16 17 17 18 18 19 19 20 20
REMARK H PARENT
REMARK Flexibility Score: inf
ROOT
ATOM      1  C   UNL     1      20.656  78.291 101.433  1.00  0.00     0.000 C 
ENDROOT
BRANCH   1   2
ATOM      2  C   UNL     1      19.875  79.535 101.887  1.00  0.00     0.000 C 
BRANCH   2   3
ATOM      3  C   UNL     1      20.191  80.770 101.024  1.00  0.00     0.000 C 
BRANCH   3   4
ATOM      4  C   UNL     1      21.568  81.374 101.339  1.00  0.00    -0.000 C 
BRANCH   4   5
ATOM      5  C   UNL     1      21.474  82.793 101.926  1.00  0.00    -0.000 C 
BRANCH   5   6
ATOM      6  C   UNL     1      20.067  83.125 102.448  1.00  0.00    -0.000 C 
BRANCH   6   7
ATOM      7  C   UNL     1      19.882  82.756 103.927  1.00  0.00    -0.000 C 
BRANCH   7   8
ATOM      8  C   UNL     1      21.235  82.467 104.594  1.00  0.00    -0.000 C 
BRANCH   8   9
ATOM      9  C   UNL     1      21.275  81.090 105.276  1.00  0.00    -0.003 C 
ATOM     10  C   UNL     1      20.064  80.224 104.932  1.00  0.00     0.004 C 
ENDBRANCH   8   9
ENDBRANCH   7   8
ENDBRANCH   6   7
ENDBRANCH   5   6
ENDBRANCH   4   5
ENDBRANCH   3   4
ENDBRANCH   2   3
ENDBRANCH   1   2
BRANCH   1  11
ATOM     11  C   UNL     1      20.101  77.698 100.126  1.00  0.00     0.000 C 
BRANCH  11  12
ATOM     12  C   UNL     1      20.855  78.192  98.880  1.00  0.00     0.000 C 
BRANCH  12  13
ATOM     13  C   UNL     1      19.910  78.596  97.735  1.00  0.00     0.001 C 
BRANCH  13  14
ATOM     14  C   UNL     1      20.527  79.663  96.816  1.00  0.00     0.012 C 
BRANCH  14  15
ATOM     15  C   UNL     1      20.210  81.092  97.275  1.00  0.00     0.123 C 
BRANCH  15  16
ATOM     16  C   UNL     1      21.463  81.797  97.684  1.00  0.00     0.305 C 
ATOM     17  O   UNL     1      21.396  82.954  98.183  1.00  0.00    -0.252 OA
BRANCH  16  18
ATOM     18  O   UNL     1      22.700  81.185  97.459  1.00  0.00    -0.466 OA
BRANCH  18  19
ATOM     19  C   UNL     1      23.870  81.476  98.222  1.00  0.00     0.229 C 
ATOM     20  C   UNL     1      24.931  82.135  97.349  1.00  0.00     0.049 C 
ENDBRANCH  18  19
ENDBRANCH  16  18
ENDBRANCH  15  16
ENDBRANCH  14  15
ENDBRANCH  13  14
ENDBRANCH  12  13
ENDBRANCH  11  12
ENDBRANCH   1  11
TORSDOF 16
ENDMDL
MODEL 6
REMARK VINA RESULT:    -2.772      3.097      8.526
REMARK INTER + INTRA:          -6.390
REMARK INTER:                  -5.174
REMARK INTRA:                  -1.216
REMARK UNBOUND:                -1.024
REMARK SMILES CCCCCCCCCCCCCCCC(=O)OCC
REMARK SMILES IDX 10 1 9 2 8 3 7 4 6 5 5 6 4 7 3 8 2 9 1 10 11 11 12 12 13 13
REMARK SMILES IDX 14 14 15 15 16 16 17 17 18 18 19 19 20 20
REMARK H PARENT
REMARK Flexibility Score: inf
ROOT
ATOM      1  C   UNL     1      40.096  65.180  97.450  1.00  0.00     0.000 C 
ENDROOT
BRANCH   1   2
ATOM      2  C   UNL     1      39.801  63.801  96.836  1.00  0.00     0.000 C 
BRANCH   2   3
ATOM      3  C   UNL     1      38.942  63.900  95.563  1.00  0.00     0.000 C 
BRANCH   3   4
ATOM      4  C   UNL     1      37.500  64.343  95.858  1.00  0.00    -0.000 C 
BRANCH   4   5
ATOM      5  C   UNL     1      36.538  64.047  94.694  1.00  0.00    -0.000 C 
BRANCH   5   6
ATOM      6  C   UNL     1      37.263  63.509  93.450  1.00  0.00    -0.000 C 
BRANCH   6   7
ATOM      7  C   UNL     1      36.621  63.986  92.139  1.00  0.00    -0.000 C 
BRANCH   7   8
ATOM      8  C   UNL     1      35.480  64.977  92.415  1.00  0.00    -0.000 C 
BRANCH   8   9
ATOM      9  C   UNL     1      35.528  66.204  91.492  1.00  0.00    -0.003 C 
ATOM     10  C   UNL     1      34.180  66.505  90.837  1.00  0.00     0.004 C 
ENDBRANCH   8   9
ENDBRANCH   7   8
ENDBRANCH   6   7
ENDBRANCH   5   6
ENDBRANCH   4   5
ENDBRANCH   3   4
ENDBRANCH   2   3
ENDBRANCH   1   2
BRANCH   1  11
ATOM     11  C   UNL     1      39.990  65.170  98.985  1.00  0.00     0.000 C 
BRANCH  11  12
ATOM     12  C   UNL     1      38.725  65.878  99.499  1.00  0.00     0.000 C 
BRANCH  12  13
ATOM     13  C   UNL     1      37.473  64.987  99.425  1.00  0.00     0.001 C 
BRANCH  13  14
ATOM     14  C   UNL     1      37.690  63.616 100.086  1.00  0.00     0.012 C 
BRANCH  14  15
ATOM     15  C   UNL     1      36.539  63.222 101.021  1.00  0.00     0.123 C 
BRANCH  15  16
ATOM     16  C   UNL     1      36.977  63.307 102.448  1.00  0.00     0.305 C 
ATOM     17  O   UNL     1      38.205  63.253 102.731  1.00  0.00    -0.252 OA
BRANCH  16  18
ATOM     18  O   UNL     1      36.013  63.390 103.458  1.00  0.00    -0.466 OA
BRANCH  18  19
ATOM     19  C   UNL     1      36.335  63.544 104.839  1.00  0.00     0.229 C 
ATOM     20  C   UNL     1      35.490  64.644 105.469  1.00  0.00     0.049 C 
ENDBRANCH  18  19
ENDBRANCH  16  18
ENDBRANCH  15  16
ENDBRANCH  14  15
ENDBRANCH  13  14
ENDBRANCH  12  13
ENDBRANCH  11  12
ENDBRANCH   1  11
TORSDOF 16
ENDMDL
MODEL 7
REMARK VINA RESULT:    -2.720      2.908      8.050
REMARK INTER + INTRA:          -6.289
REMARK INTER:                  -5.379
REMARK INTRA:                  -0.910
REMARK UNBOUND:                -1.024
REMARK SMILES CCCCCCCCCCCCCCCC(=O)OCC
REMARK SMILES IDX 10 1 9 2 8 3 7 4 6 5 5 6 4 7 3 8 2 9 1 10 11 11 12 12 13 13
REMARK SMILES IDX 14 14 15 15 16 16 17 17 18 18 19 19 20 20
REMARK H PARENT
REMARK Flexibility Score: inf
ROOT
ATOM      1  C   UNL     1      38.116  64.738  98.348  1.00  0.00     0.000 C 
ENDROOT
BRANCH   1   2
ATOM      2  C   UNL     1      38.696  63.898  97.198  1.00  0.00     0.000 C 
BRANCH   2   3
ATOM      3  C   UNL     1      38.832  64.706  95.895  1.00  0.00     0.000 C 
BRANCH   3   4
ATOM      4  C   UNL     1      39.778  64.039  94.884  1.00  0.00    -0.000 C 
BRANCH   4   5
ATOM      5  C   UNL     1      39.108  62.890  94.111  1.00  0.00    -0.000 C 
BRANCH   5   6
ATOM      6  C   UNL     1      38.498  63.352  92.777  1.00  0.00    -0.000 C 
BRANCH   6   7
ATOM      7  C   UNL     1      36.999  63.034  92.670  1.00  0.00    -0.000 C 
BRANCH   7   8
ATOM      8  C   UNL     1      36.200  63.793  93.740  1.00  0.00    -0.000 C 
BRANCH   8   9
ATOM      9  C   UNL     1      35.701  62.875  94.867  1.00  0.00    -0.003 C 
ATOM     10  C   UNL     1      34.866  63.618  95.909  1.00  0.00     0.004 C 
ENDBRANCH   8   9
ENDBRANCH   7   8
ENDBRANCH   6   7
ENDBRANCH   5   6
ENDBRANCH   4   5
ENDBRANCH   3   4
ENDBRANCH   2   3
ENDBRANCH   1   2
BRANCH   1  11
ATOM     11  C   UNL     1      39.162  65.681  98.967  1.00  0.00     0.000 C 
BRANCH  11  12
ATOM     12  C   UNL     1      39.773  65.126 100.264  1.00  0.00     0.000 C 
BRANCH  12  13
ATOM     13  C   UNL     1      39.933  63.596 100.238  1.00  0.00     0.001 C 
BRANCH  13  14
ATOM     14  C   UNL     1      38.786  62.875 100.965  1.00  0.00     0.012 C 
BRANCH  14  15
ATOM     15  C   UNL     1      38.783  63.144 102.475  1.00  0.00     0.123 C 
BRANCH  15  16
ATOM     16  C   UNL     1      37.380  63.265 102.979  1.00  0.00     0.305 C 
ATOM     17  O   UNL     1      36.420  62.877 102.257  1.00  0.00    -0.252 OA
BRANCH  16  18
ATOM     18  O   UNL     1      37.146  63.857 104.224  1.00  0.00    -0.466 OA
BRANCH  18  19
ATOM     19  C   UNL     1      35.891  63.796 104.898  1.00  0.00     0.229 C 
ATOM     20  C   UNL     1      35.829  64.830 106.016  1.00  0.00     0.049 C 
ENDBRANCH  18  19
ENDBRANCH  16  18
ENDBRANCH  15  16
ENDBRANCH  14  15
ENDBRANCH  13  14
ENDBRANCH  12  13
ENDBRANCH  11  12
ENDBRANCH   1  11
TORSDOF 16
ENDMDL
MODEL 8
REMARK VINA RESULT:    -2.537      3.915      9.085
REMARK INTER + INTRA:          -5.935
REMARK INTER:                  -4.862
REMARK INTRA:                  -1.073
REMARK UNBOUND:                -1.024
REMARK SMILES CCCCCCCCCCCCCCCC(=O)OCC
REMARK SMILES IDX 10 1 9 2 8 3 7 4 6 5 5 6 4 7 3 8 2 9 1 10 11 11 12 12 13 13
REMARK SMILES IDX 14 14 15 15 16 16 17 17 18 18 19 19 20 20
REMARK H PARENT
REMARK Flexibility Score: inf
ROOT
ATOM      1  C   UNL     1      37.105  63.476  99.183  1.00  0.00     0.000 C 
ENDROOT
BRANCH   1   2
ATOM      2  C   UNL     1      37.719  64.886  99.228  1.00  0.00     0.000 C 
BRANCH   2   3
ATOM      3  C   UNL     1      39.178  64.904  98.737  1.00  0.00     0.000 C 
BRANCH   3   4
ATOM      4  C   UNL     1      39.732  63.494  98.482  1.00  0.00    -0.000 C 
BRANCH   4   5
ATOM      5  C   UNL     1      39.582  63.053  97.015  1.00  0.00    -0.000 C 
BRANCH   5   6
ATOM      6  C   UNL     1      39.832  64.202  96.025  1.00  0.00    -0.000 C 
BRANCH   6   7
ATOM      7  C   UNL     1      38.863  64.178  94.833  1.00  0.00    -0.000 C 
BRANCH   7   8
ATOM      8  C   UNL     1      37.499  63.605  95.246  1.00  0.00    -0.000 C 
BRANCH   8   9
ATOM      9  C   UNL     1      36.685  63.097  94.046  1.00  0.00    -0.003 C 
ATOM     10  C   UNL     1      37.406  63.297  92.714  1.00  0.00     0.004 C 
ENDBRANCH   8   9
ENDBRANCH   7   8
ENDBRANCH   6   7
ENDBRANCH   5   6
ENDBRANCH   4   5
ENDBRANCH   3   4
ENDBRANCH   2   3
ENDBRANCH   1   2
BRANCH   1  11
ATOM     11  C   UNL     1      36.918  62.877 100.588  1.00  0.00     0.000 C 
BRANCH  11  12
ATOM     12  C   UNL     1      37.360  63.834 101.708  1.00  0.00     0.000 C 
BRANCH  12  13
ATOM     13  C   UNL     1      37.276  63.194 103.104  1.00  0.00     0.001 C 
BRANCH  13  14
ATOM     14  C   UNL     1      35.838  63.155 103.646  1.00  0.00     0.012 C 
BRANCH  14  15
ATOM     15  C   UNL     1      35.558  64.276 104.656  1.00  0.00     0.123 C 
BRANCH  15  16
ATOM     16  C   UNL     1      35.566  63.733 106.049  1.00  0.00     0.305 C 
ATOM     17  O   UNL     1      34.533  63.171 106.508  1.00  0.00    -0.252 OA
BRANCH  16  18
ATOM     18  O   UNL     1      36.701  63.905 106.847  1.00  0.00    -0.466 OA
BRANCH  18  19
ATOM     19  C   UNL     1      37.247  62.875 107.667  1.00  0.00     0.229 C 
ATOM     20  C   UNL     1      38.705  63.169 108.002  1.00  0.00     0.049 C 
ENDBRANCH  18  19
ENDBRANCH  16  18
ENDBRANCH  15  16
ENDBRANCH  14  15
ENDBRANCH  13  14
ENDBRANCH  12  13
ENDBRANCH  11  12
ENDBRANCH   1  11
TORSDOF 16
ENDMDL
