MODEL 1
REMARK VINA RESULT:    -3.068      0.000      0.000
REMARK INTER + INTRA:          -3.908
REMARK INTER:                  -3.876
REMARK INTRA:                  -0.033
REMARK UNBOUND:                -0.033
REMARK SMILES CCCCCCO
REMARK SMILES IDX 4 1 3 2 2 3 1 4 5 5 6 6 7 7
REMARK H PARENT 7 8
REMARK Flexibility Score: inf
ROOT
ATOM      1  C   UNL     1     164.398 170.968 166.935  1.00  0.00     0.002 C 
ENDROOT
BRANCH   1   2
ATOM      2  C   UNL     1     164.418 169.992 168.121  1.00  0.00    -0.000 C 
BRANCH   2   3
ATOM      3  C   UNL     1     164.769 168.557 167.699  1.00  0.00    -0.003 C 
ATOM      4  C   UNL     1     164.968 167.622 168.891  1.00  0.00     0.004 C 
ENDBRANCH   2   3
ENDBRANCH   1   2
BRANCH   1   5
ATOM      5  C   UNL     1     164.918 172.350 167.354  1.00  0.00     0.028 C 
BRANCH   5   6
ATOM      6  C   UNL     1     165.622 173.065 166.199  1.00  0.00     0.156 C 
BRANCH   6   7
ATOM      7  O   UNL     1     166.376 174.141 166.686  1.00  0.00    -0.396 OA
ATOM      8  H   UNL     1     166.216 174.168 167.665  1.00  0.00     0.210 HD
ENDBRANCH   6   7
ENDBRANCH   5   6
ENDBRANCH   1   5
TORSDOF 5
ENDMDL
MODEL 2
REMARK VINA RESULT:    -3.065      8.564      9.054
REMARK INTER + INTRA:          -3.904
REMARK INTER:                  -3.816
REMARK INTRA:                  -0.089
REMARK UNBOUND:                -0.033
REMARK SMILES CCCCCCO
REMARK SMILES IDX 4 1 3 2 2 3 1 4 5 5 6 6 7 7
REMARK H PARENT 7 8
REMARK Flexibility Score: inf
ROOT
ATOM      1  C   UNL     1     160.020 164.503 167.122  1.00  0.00     0.002 C 
ENDROOT
BRANCH   1   2
ATOM      2  C   UNL     1     160.796 164.118 168.390  1.00  0.00    -0.000 C 
BRANCH   2   3
ATOM      3  C   UNL     1     159.879 163.604 169.511  1.00  0.00    -0.003 C 
ATOM      4  C   UNL     1     159.679 162.090 169.464  1.00  0.00     0.004 C 
ENDBRANCH   2   3
ENDBRANCH   1   2
BRANCH   1   5
ATOM      5  C   UNL     1     158.623 165.033 167.473  1.00  0.00     0.028 C 
BRANCH   5   6
ATOM      6  C   UNL     1     157.939 165.675 166.265  1.00  0.00     0.156 C 
BRANCH   6   7
ATOM      7  O   UNL     1     156.907 166.522 166.688  1.00  0.00    -0.396 OA
ATOM      8  H   UNL     1     156.468 166.062 167.450  1.00  0.00     0.210 HD
ENDBRANCH   6   7
ENDBRANCH   5   6
ENDBRANCH   1   5
TORSDOF 5
ENDMDL
MODEL 3
REMARK VINA RESULT:    -3.044      7.390      8.459
REMARK INTER + INTRA:          -3.878
REMARK INTER:                  -3.811
REMARK INTRA:                  -0.067
REMARK UNBOUND:                -0.033
REMARK SMILES CCCCCCO
REMARK SMILES IDX 4 1 3 2 2 3 1 4 5 5 6 6 7 7
REMARK H PARENT 7 8
REMARK Flexibility Score: inf
ROOT
ATOM      1  C   UNL     1     160.102 164.566 167.318  1.00  0.00     0.002 C 
ENDROOT
BRANCH   1   2
ATOM      2  C   UNL     1     160.656 163.970 168.621  1.00  0.00    -0.000 C 
BRANCH   2   3
ATOM      3  C   UNL     1     161.992 164.604 169.038  1.00  0.00    -0.003 C 
ATOM      4  C   UNL     1     162.906 164.893 167.849  1.00  0.00     0.004 C 
ENDBRANCH   2   3
ENDBRANCH   1   2
BRANCH   1   5
ATOM      5  C   UNL     1     158.633 164.979 167.485  1.00  0.00     0.028 C 
BRANCH   5   6
ATOM      6  C   UNL     1     158.093 165.676 166.235  1.00  0.00     0.156 C 
BRANCH   6   7
ATOM      7  O   UNL     1     156.974 166.453 166.560  1.00  0.00    -0.396 OA
ATOM      8  H   UNL     1     156.323 165.834 166.982  1.00  0.00     0.210 HD
ENDBRANCH   6   7
ENDBRANCH   5   6
ENDBRANCH   1   5
TORSDOF 5
ENDMDL
MODEL 4
REMARK VINA RESULT:    -3.033      7.999      8.951
REMARK INTER + INTRA:          -3.863
REMARK INTER:                  -3.783
REMARK INTRA:                  -0.080
REMARK UNBOUND:                -0.033
REMARK SMILES CCCCCCO
REMARK SMILES IDX 4 1 3 2 2 3 1 4 5 5 6 6 7 7
REMARK H PARENT 7 8
REMARK Flexibility Score: inf
ROOT
ATOM      1  C   UNL     1     171.228 166.859 167.222  1.00  0.00     0.002 C 
ENDROOT
BRANCH   1   2
ATOM      2  C   UNL     1     170.370 167.072 168.477  1.00  0.00    -0.000 C 
BRANCH   2   3
ATOM      3  C   UNL     1     171.168 167.680 169.641  1.00  0.00    -0.003 C 
ATOM      4  C   UNL     1     171.529 169.146 169.408  1.00  0.00     0.004 C 
ENDBRANCH   2   3
ENDBRANCH   1   2
BRANCH   1   5
ATOM      5  C   UNL     1     172.523 166.108 167.564  1.00  0.00     0.028 C 
BRANCH   5   6
ATOM      6  C   UNL     1     173.199 165.544 166.313  1.00  0.00     0.156 C 
BRANCH   6   7
ATOM      7  O   UNL     1     174.268 164.713 166.675  1.00  0.00    -0.396 OA
ATOM      8  H   UNL     1     174.130 163.860 166.189  1.00  0.00     0.210 HD
ENDBRANCH   6   7
ENDBRANCH   5   6
ENDBRANCH   1   5
TORSDOF 5
ENDMDL
MODEL 5
REMARK VINA RESULT:    -2.997      9.161     11.298
REMARK INTER + INTRA:          -3.819
REMARK INTER:                  -3.748
REMARK INTRA:                  -0.070
REMARK UNBOUND:                -0.033
REMARK SMILES CCCCCCO
REMARK SMILES IDX 4 1 3 2 2 3 1 4 5 5 6 6 7 7
REMARK H PARENT 7 8
REMARK Flexibility Score: inf
ROOT
ATOM      1  C   UNL     1     166.743 160.619 166.646  1.00  0.00     0.002 C 
ENDROOT
BRANCH   1   2
ATOM      2  C   UNL     1     166.753 161.436 167.946  1.00  0.00    -0.000 C 
BRANCH   2   3
ATOM      3  C   UNL     1     166.294 162.887 167.735  1.00  0.00    -0.003 C 
ATOM      4  C   UNL     1     166.143 163.656 169.047  1.00  0.00     0.004 C 
ENDBRANCH   2   3
ENDBRANCH   1   2
BRANCH   1   5
ATOM      5  C   UNL     1     166.130 159.230 166.874  1.00  0.00     0.028 C 
BRANCH   5   6
ATOM      6  C   UNL     1     166.737 158.535 168.094  1.00  0.00     0.156 C 
BRANCH   6   7
ATOM      7  O   UNL     1     165.727 158.174 168.996  1.00  0.00    -0.396 OA
ATOM      8  H   UNL     1     164.989 157.801 168.447  1.00  0.00     0.210 HD
ENDBRANCH   6   7
ENDBRANCH   5   6
ENDBRANCH   1   5
TORSDOF 5
ENDMDL
MODEL 6
REMARK VINA RESULT:    -2.948      6.636      7.641
REMARK INTER + INTRA:          -3.756
REMARK INTER:                  -3.636
REMARK INTRA:                  -0.120
REMARK UNBOUND:                -0.033
REMARK SMILES CCCCCCO
REMARK SMILES IDX 4 1 3 2 2 3 1 4 5 5 6 6 7 7
REMARK H PARENT 7 8
REMARK Flexibility Score: inf
ROOT
ATOM      1  C   UNL     1     170.127 166.730 167.104  1.00  0.00     0.002 C 
ENDROOT
BRANCH   1   2
ATOM      2  C   UNL     1     169.656 166.783 168.565  1.00  0.00    -0.000 C 
BRANCH   2   3
ATOM      3  C   UNL     1     168.172 166.415 168.720  1.00  0.00    -0.003 C 
ATOM      4  C   UNL     1     167.523 166.004 167.399  1.00  0.00     0.004 C 
ENDBRANCH   2   3
ENDBRANCH   1   2
BRANCH   1   5
ATOM      5  C   UNL     1     171.581 166.248 167.014  1.00  0.00     0.028 C 
BRANCH   5   6
ATOM      6  C   UNL     1     172.432 166.791 168.164  1.00  0.00     0.156 C 
BRANCH   6   7
ATOM      7  O   UNL     1     173.070 165.737 168.832  1.00  0.00    -0.396 OA
ATOM      8  H   UNL     1     173.555 165.224 168.135  1.00  0.00     0.210 HD
ENDBRANCH   6   7
ENDBRANCH   5   6
ENDBRANCH   1   5
TORSDOF 5
ENDMDL
MODEL 7
REMARK VINA RESULT:    -2.934     11.793     12.644
REMARK INTER + INTRA:          -3.738
REMARK INTER:                  -3.678
REMARK INTRA:                  -0.061
REMARK UNBOUND:                -0.033
REMARK SMILES CCCCCCO
REMARK SMILES IDX 4 1 3 2 2 3 1 4 5 5 6 6 7 7
REMARK H PARENT 7 8
REMARK Flexibility Score: inf
ROOT
ATOM      1  C   UNL     1     166.726 160.002 167.547  1.00  0.00     0.002 C 
ENDROOT
BRANCH   1   2
ATOM      2  C   UNL     1     167.453 160.446 168.826  1.00  0.00    -0.000 C 
BRANCH   2   3
ATOM      3  C   UNL     1     168.677 159.573 169.143  1.00  0.00    -0.003 C 
ATOM      4  C   UNL     1     169.476 160.087 170.339  1.00  0.00     0.004 C 
ENDBRANCH   2   3
ENDBRANCH   1   2
BRANCH   1   5
ATOM      5  C   UNL     1     166.169 158.580 167.699  1.00  0.00     0.028 C 
BRANCH   5   6
ATOM      6  C   UNL     1     165.657 158.026 166.368  1.00  0.00     0.156 C 
BRANCH   6   7
ATOM      7  O   UNL     1     164.764 156.971 166.596  1.00  0.00    -0.396 OA
ATOM      8  H   UNL     1     164.828 156.760 167.564  1.00  0.00     0.210 HD
ENDBRANCH   6   7
ENDBRANCH   5   6
ENDBRANCH   1   5
TORSDOF 5
ENDMDL
MODEL 8
REMARK VINA RESULT:    -2.927      1.361      2.199
REMARK INTER + INTRA:          -3.730
REMARK INTER:                  -3.579
REMARK INTRA:                  -0.151
REMARK UNBOUND:                -0.033
REMARK SMILES CCCCCCO
REMARK SMILES IDX 4 1 3 2 2 3 1 4 5 5 6 6 7 7
REMARK H PARENT 7 8
REMARK Flexibility Score: inf
ROOT
ATOM      1  C   UNL     1     163.983 170.804 167.074  1.00  0.00     0.002 C 
ENDROOT
BRANCH   1   2
ATOM      2  C   UNL     1     164.370 170.078 168.371  1.00  0.00    -0.000 C 
BRANCH   2   3
ATOM      3  C   UNL     1     163.639 170.638 169.601  1.00  0.00    -0.003 C 
ATOM      4  C   UNL     1     162.490 171.574 169.231  1.00  0.00     0.004 C 
ENDBRANCH   2   3
ENDBRANCH   1   2
BRANCH   1   5
ATOM      5  C   UNL     1     165.170 171.605 166.520  1.00  0.00     0.028 C 
BRANCH   5   6
ATOM      6  C   UNL     1     165.194 173.034 167.065  1.00  0.00     0.156 C 
BRANCH   6   7
ATOM      7  O   UNL     1     166.228 173.763 166.462  1.00  0.00    -0.396 OA
ATOM      8  H   UNL     1     166.999 173.142 166.394  1.00  0.00     0.210 HD
ENDBRANCH   6   7
ENDBRANCH   5   6
ENDBRANCH   1   5
TORSDOF 5
ENDMDL
MODEL 9
REMARK VINA RESULT:    -2.883     10.383     12.252
REMARK INTER + INTRA:          -3.674
REMARK INTER:                  -3.445
REMARK INTRA:                  -0.229
REMARK UNBOUND:                -0.033
REMARK SMILES CCCCCCO
REMARK SMILES IDX 4 1 3 2 2 3 1 4 5 5 6 6 7 7
REMARK H PARENT 7 8
REMARK Flexibility Score: inf
ROOT
ATOM      1  C   UNL     1     166.343 158.891 168.666  1.00  0.00     0.002 C 
ENDROOT
BRANCH   1   2
ATOM      2  C   UNL     1     166.186 159.118 167.155  1.00  0.00    -0.000 C 
BRANCH   2   3
ATOM      3  C   UNL     1     166.743 160.476 166.701  1.00  0.00    -0.003 C 
ATOM      4  C   UNL     1     166.651 161.546 167.788  1.00  0.00     0.004 C 
ENDBRANCH   2   3
ENDBRANCH   1   2
BRANCH   1   5
ATOM      5  C   UNL     1     167.635 158.121 168.974  1.00  0.00     0.028 C 
BRANCH   5   6
ATOM      6  C   UNL     1     168.693 159.019 169.616  1.00  0.00     0.156 C 
BRANCH   6   7
ATOM      7  O   UNL     1     169.682 159.346 168.679  1.00  0.00    -0.396 OA
ATOM      8  H   UNL     1     169.760 160.335 168.696  1.00  0.00     0.210 HD
ENDBRANCH   6   7
ENDBRANCH   5   6
ENDBRANCH   1   5
TORSDOF 5
ENDMDL
