MODEL 1
REMARK VINA RESULT:    -8.229      0.000      0.000
REMARK INTER + INTRA:          -8.775
REMARK INTER:                  -8.951
REMARK INTRA:                   0.176
REMARK UNBOUND:                 0.176
REMARK SMILES C[C@@H]1[C@@H](C)CC[C@]2(C(=O)[O-])CC[C@]3(C)C(=CC[C@H]4[C@@]5(C)CC[C@@H](O)C(C)(C)[C@H]5CC[C@]43C)[C@@H]12
REMARK SMILES IDX 7 1 6 2 11 3 33 4 5 5 12 6 15 7 2 8 3 9 13 10 16 11 1 12
REMARK SMILES IDX 4 13 14 14 31 15 17 16 18 17 30 18 32 19 19 20 29 21 28 22
REMARK SMILES IDX 21 23 20 24 25 25 22 26 23 27 26 28 27 29 8 30 9 31 10 32
REMARK SMILES IDX 24 33
REMARK H PARENT 24 34
REMARK Flexibility Score: inf
ROOT
ATOM      1  C   UNL     1      45.698 -38.514  -2.997  1.00  0.00     0.017 C 
ATOM      2  C   UNL     1      45.727 -38.889  -4.495  1.00  0.00     0.014 C 
ATOM      3  C   UNL     1      44.634 -37.403  -2.804  1.00  0.00     0.014 C 
ATOM      4  C   UNL     1      47.066 -37.906  -2.556  1.00  0.00     0.030 C 
ATOM      5  C   UNL     1      46.860 -39.863  -4.805  1.00  0.00     0.004 C 
ATOM      6  C   UNL     1      44.474 -36.997  -1.332  1.00  0.00     0.013 C 
ATOM      7  C   UNL     1      46.984 -37.538  -1.054  1.00  0.00    -0.063 C 
ATOM      8  C   UNL     1      48.332 -38.716  -3.031  1.00  0.00    -0.003 C 
ATOM      9  C   UNL     1      48.217 -39.214  -4.509  1.00  0.00    -0.011 C 
ATOM     10  C   UNL     1      45.810 -36.665  -0.561  1.00  0.00    -0.006 C 
ATOM     11  C   UNL     1      47.987 -37.815  -0.189  1.00  0.00    -0.027 C 
ATOM     12  C   UNL     1      49.614 -37.845  -2.917  1.00  0.00     0.008 C 
ATOM     13  C   UNL     1      49.338 -40.208  -4.862  1.00  0.00     0.008 C 
ATOM     14  C   UNL     1      46.185 -35.206  -0.940  1.00  0.00     0.017 C 
ATOM     15  C   UNL     1      45.601 -36.907   1.027  1.00  0.00    -0.020 C 
ATOM     16  C   UNL     1      48.221 -36.979   1.040  1.00  0.00     0.032 C 
ATOM     17  C   UNL     1      46.938 -36.667   1.861  1.00  0.00     0.006 C 
ATOM     18  C   UNL     1      44.455 -36.035   1.610  1.00  0.00     0.008 C 
ATOM     19  C   UNL     1      45.176 -38.415   1.266  1.00  0.00     0.012 C 
ATOM     20  C   UNL     1      47.030 -35.378   2.818  1.00  0.00    -0.025 C 
ATOM     21  C   UNL     1      44.495 -36.005   3.143  1.00  0.00     0.005 C 
ATOM     22  C   UNL     1      45.698 -35.182   3.680  1.00  0.00     0.003 C 
ATOM     23  C   UNL     1      47.328 -34.066   2.045  1.00  0.00     0.010 C 
ATOM     24  C   UNL     1      48.240 -35.642   3.778  1.00  0.00     0.012 C 
ATOM     25  C   UNL     1      45.296 -33.676   4.054  1.00  0.00    -0.006 C 
ATOM     26  C   UNL     1      47.464 -32.813   2.933  1.00  0.00     0.033 C 
ATOM     27  C   UNL     1      46.573 -32.795   4.194  1.00  0.00     0.120 C 
ATOM     28  C   UNL     1      44.573 -33.690   5.429  1.00  0.00     0.014 C 
ATOM     29  C   UNL     1      44.322 -32.994   3.043  1.00  0.00     0.014 C 
ENDROOT
BRANCH   1  30
ATOM     30  C   UNL     1      45.309 -39.757  -2.200  1.00  0.00     0.048 C 
ATOM     31  O   UNL     1      46.168 -40.407  -1.546  1.00  0.00    -0.550 OA
ATOM     32  O   UNL     1      44.005 -40.235  -2.252  1.00  0.00    -0.550 OA
ENDBRANCH   1  30
BRANCH  27  33
ATOM     33  O   UNL     1      46.239 -31.456   4.482  1.00  0.00    -0.393 OA
ATOM     34  H   UNL     1      46.245 -30.950   3.628  1.00  0.00     0.210 HD
ENDBRANCH  27  33
TORSDOF 2
ENDMDL
MODEL 2
REMARK VINA RESULT:    -7.713      2.264      7.906
REMARK INTER + INTRA:          -8.213
REMARK INTER:                  -8.389
REMARK INTRA:                   0.176
REMARK UNBOUND:                 0.176
REMARK SMILES C[C@@H]1[C@@H](C)CC[C@]2(C(=O)[O-])CC[C@]3(C)C(=CC[C@H]4[C@@]5(C)CC[C@@H](O)C(C)(C)[C@H]5CC[C@]43C)[C@@H]12
REMARK SMILES IDX 7 1 6 2 11 3 33 4 5 5 12 6 15 7 2 8 3 9 13 10 16 11 1 12
REMARK SMILES IDX 4 13 14 14 31 15 17 16 18 17 30 18 32 19 19 20 29 21 28 22
REMARK SMILES IDX 21 23 20 24 25 25 22 26 23 27 26 28 27 29 8 30 9 31 10 32
REMARK SMILES IDX 24 33
REMARK H PARENT 24 34
REMARK Flexibility Score: inf
ROOT
ATOM      1  C   UNL     1      46.442 -35.322   2.369  1.00  0.00     0.017 C 
ATOM      2  C   UNL     1      46.468 -34.223   3.453  1.00  0.00     0.014 C 
ATOM      3  C   UNL     1      47.784 -36.096   2.443  1.00  0.00     0.014 C 
ATOM      4  C   UNL     1      46.368 -34.688   0.945  1.00  0.00     0.030 C 
ATOM      5  C   UNL     1      45.253 -33.307   3.348  1.00  0.00     0.004 C 
ATOM      6  C   UNL     1      47.842 -37.262   1.445  1.00  0.00     0.013 C 
ATOM      7  C   UNL     1      46.356 -35.827  -0.105  1.00  0.00    -0.063 C 
ATOM      8  C   UNL     1      45.291 -33.549   0.785  1.00  0.00    -0.003 C 
ATOM      9  C   UNL     1      45.255 -32.570   2.005  1.00  0.00    -0.011 C 
ATOM     10  C   UNL     1      47.451 -36.913  -0.043  1.00  0.00    -0.006 C 
ATOM     11  C   UNL     1      45.521 -35.814  -1.169  1.00  0.00    -0.027 C 
ATOM     12  C   UNL     1      45.566 -32.712  -0.495  1.00  0.00     0.008 C 
ATOM     13  C   UNL     1      44.037 -31.631   1.943  1.00  0.00     0.008 C 
ATOM     14  C   UNL     1      48.711 -36.276  -0.690  1.00  0.00     0.017 C 
ATOM     15  C   UNL     1      46.918 -38.245  -0.797  1.00  0.00    -0.020 C 
ATOM     16  C   UNL     1      45.877 -36.506  -2.458  1.00  0.00     0.032 C 
ATOM     17  C   UNL     1      46.429 -37.949  -2.284  1.00  0.00     0.006 C 
ATOM     18  C   UNL     1      47.980 -39.379  -0.809  1.00  0.00     0.008 C 
ATOM     19  C   UNL     1      45.668 -38.816  -0.008  1.00  0.00     0.012 C 
ATOM     20  C   UNL     1      47.311 -38.500  -3.511  1.00  0.00    -0.025 C 
ATOM     21  C   UNL     1      47.612 -40.483  -1.807  1.00  0.00     0.005 C 
ATOM     22  C   UNL     1      47.767 -40.015  -3.280  1.00  0.00     0.003 C 
ATOM     23  C   UNL     1      48.566 -37.633  -3.796  1.00  0.00     0.010 C 
ATOM     24  C   UNL     1      46.387 -38.419  -4.773  1.00  0.00     0.012 C 
ATOM     25  C   UNL     1      49.171 -40.450  -3.919  1.00  0.00    -0.006 C 
ATOM     26  C   UNL     1      49.416 -38.107  -4.992  1.00  0.00     0.033 C 
ATOM     27  C   UNL     1      49.450 -39.634  -5.217  1.00  0.00     0.120 C 
ATOM     28  C   UNL     1      49.087 -41.952  -4.309  1.00  0.00     0.014 C 
ATOM     29  C   UNL     1      50.395 -40.305  -2.960  1.00  0.00     0.014 C 
ENDROOT
BRANCH   1  30
ATOM     30  C   UNL     1      45.278 -36.263   2.668  1.00  0.00     0.048 C 
ATOM     31  O   UNL     1      44.210 -36.211   2.001  1.00  0.00    -0.550 OA
ATOM     32  O   UNL     1      45.353 -37.143   3.742  1.00  0.00    -0.550 OA
ENDBRANCH   1  30
BRANCH  27  33
ATOM     33  O   UNL     1      50.701 -39.973  -5.772  1.00  0.00    -0.393 OA
ATOM     34  H   UNL     1      51.052 -39.173  -6.244  1.00  0.00     0.210 HD
ENDBRANCH  27  33
TORSDOF 2
ENDMDL
MODEL 3
REMARK VINA RESULT:    -7.543      3.493      4.604
REMARK INTER + INTRA:          -8.028
REMARK INTER:                  -8.297
REMARK INTRA:                   0.269
REMARK UNBOUND:                 0.176
REMARK SMILES C[C@@H]1[C@@H](C)CC[C@]2(C(=O)[O-])CC[C@]3(C)C(=CC[C@H]4[C@@]5(C)CC[C@@H](O)C(C)(C)[C@H]5CC[C@]43C)[C@@H]12
REMARK SMILES IDX 7 1 6 2 11 3 33 4 5 5 12 6 15 7 2 8 3 9 13 10 16 11 1 12
REMARK SMILES IDX 4 13 14 14 31 15 17 16 18 17 30 18 32 19 19 20 29 21 28 22
REMARK SMILES IDX 21 23 20 24 25 25 22 26 23 27 26 28 27 29 8 30 9 31 10 32
REMARK SMILES IDX 24 33
REMARK H PARENT 24 34
REMARK Flexibility Score: inf
ROOT
ATOM      1  C   UNL     1      47.993 -39.911  -3.642  1.00  0.00     0.017 C 
ATOM      2  C   UNL     1      48.557 -41.174  -4.328  1.00  0.00     0.014 C 
ATOM      3  C   UNL     1      46.912 -39.304  -4.574  1.00  0.00     0.014 C 
ATOM      4  C   UNL     1      49.105 -38.828  -3.483  1.00  0.00     0.030 C 
ATOM      5  C   UNL     1      49.742 -41.746  -3.555  1.00  0.00     0.004 C 
ATOM      6  C   UNL     1      46.234 -38.072  -3.959  1.00  0.00     0.013 C 
ATOM      7  C   UNL     1      48.490 -37.580  -2.803  1.00  0.00    -0.063 C 
ATOM      8  C   UNL     1      50.471 -39.364  -2.906  1.00  0.00    -0.003 C 
ATOM      9  C   UNL     1      50.894 -40.737  -3.522  1.00  0.00    -0.011 C 
ATOM     10  C   UNL     1      47.204 -36.964  -3.394  1.00  0.00    -0.006 C 
ATOM     11  C   UNL     1      49.126 -36.915  -1.811  1.00  0.00    -0.027 C 
ATOM     12  C   UNL     1      51.614 -38.346  -3.170  1.00  0.00     0.008 C 
ATOM     13  C   UNL     1      52.084 -41.356  -2.765  1.00  0.00     0.008 C 
ATOM     14  C   UNL     1      47.665 -36.120  -4.614  1.00  0.00     0.017 C 
ATOM     15  C   UNL     1      46.449 -36.110  -2.242  1.00  0.00    -0.020 C 
ATOM     16  C   UNL     1      48.896 -35.446  -1.574  1.00  0.00     0.032 C 
ATOM     17  C   UNL     1      47.399 -35.021  -1.570  1.00  0.00     0.006 C 
ATOM     18  C   UNL     1      45.157 -35.425  -2.768  1.00  0.00     0.008 C 
ATOM     19  C   UNL     1      45.992 -37.094  -1.088  1.00  0.00     0.012 C 
ATOM     20  C   UNL     1      47.126 -33.466  -1.871  1.00  0.00    -0.025 C 
ATOM     21  C   UNL     1      44.651 -34.356  -1.793  1.00  0.00     0.005 C 
ATOM     22  C   UNL     1      45.572 -33.105  -1.767  1.00  0.00     0.003 C 
ATOM     23  C   UNL     1      47.657 -33.011  -3.257  1.00  0.00     0.010 C 
ATOM     24  C   UNL     1      47.921 -32.671  -0.779  1.00  0.00     0.012 C 
ATOM     25  C   UNL     1      45.039 -31.929  -2.717  1.00  0.00    -0.006 C 
ATOM     26  C   UNL     1      47.450 -31.515  -3.566  1.00  0.00     0.033 C 
ATOM     27  C   UNL     1      46.170 -30.888  -2.972  1.00  0.00     0.120 C 
ATOM     28  C   UNL     1      43.876 -31.201  -1.989  1.00  0.00     0.014 C 
ATOM     29  C   UNL     1      44.476 -32.409  -4.092  1.00  0.00     0.014 C 
ENDROOT
BRANCH   1  30
ATOM     30  C   UNL     1      47.366 -40.326  -2.314  1.00  0.00     0.048 C 
ATOM     31  O   UNL     1      46.157 -40.676  -2.245  1.00  0.00    -0.550 OA
ATOM     32  O   UNL     1      48.106 -40.244  -1.140  1.00  0.00    -0.550 OA
ENDBRANCH   1  30
BRANCH  27  33
ATOM     33  O   UNL     1      45.734 -29.866  -3.840  1.00  0.00    -0.393 OA
ATOM     34  H   UNL     1      45.413 -29.109  -3.284  1.00  0.00     0.210 HD
ENDBRANCH  27  33
TORSDOF 2
ENDMDL
MODEL 4
REMARK VINA RESULT:    -7.169      1.536      8.095
REMARK INTER + INTRA:          -7.621
REMARK INTER:                  -7.865
REMARK INTRA:                   0.244
REMARK UNBOUND:                 0.176
REMARK SMILES C[C@@H]1[C@@H](C)CC[C@]2(C(=O)[O-])CC[C@]3(C)C(=CC[C@H]4[C@@]5(C)CC[C@@H](O)C(C)(C)[C@H]5CC[C@]43C)[C@@H]12
REMARK SMILES IDX 7 1 6 2 11 3 33 4 5 5 12 6 15 7 2 8 3 9 13 10 16 11 1 12
REMARK SMILES IDX 4 13 14 14 31 15 17 16 18 17 30 18 32 19 19 20 29 21 28 22
REMARK SMILES IDX 21 23 20 24 25 25 22 26 23 27 26 28 27 29 8 30 9 31 10 32
REMARK SMILES IDX 24 33
REMARK H PARENT 24 34
REMARK Flexibility Score: inf
ROOT
ATOM      1  C   UNL     1      45.114 -32.978   3.190  1.00  0.00     0.017 C 
ATOM      2  C   UNL     1      44.445 -32.046   4.222  1.00  0.00     0.014 C 
ATOM      3  C   UNL     1      44.323 -32.864   1.860  1.00  0.00     0.014 C 
ATOM      4  C   UNL     1      45.011 -34.468   3.645  1.00  0.00     0.030 C 
ATOM      5  C   UNL     1      45.059 -32.216   5.608  1.00  0.00     0.004 C 
ATOM      6  C   UNL     1      44.944 -33.705   0.736  1.00  0.00     0.013 C 
ATOM      7  C   UNL     1      45.684 -35.361   2.575  1.00  0.00    -0.063 C 
ATOM      8  C   UNL     1      45.402 -34.726   5.150  1.00  0.00    -0.003 C 
ATOM      9  C   UNL     1      44.831 -33.642   6.121  1.00  0.00    -0.011 C 
ATOM     10  C   UNL     1      45.261 -35.208   1.098  1.00  0.00    -0.006 C 
ATOM     11  C   UNL     1      46.509 -36.382   2.905  1.00  0.00    -0.027 C 
ATOM     12  C   UNL     1      44.883 -36.113   5.620  1.00  0.00     0.008 C 
ATOM     13  C   UNL     1      45.433 -33.771   7.533  1.00  0.00     0.008 C 
ATOM     14  C   UNL     1      43.923 -35.984   0.962  1.00  0.00     0.017 C 
ATOM     15  C   UNL     1      46.451 -35.761   0.147  1.00  0.00    -0.020 C 
ATOM     16  C   UNL     1      46.669 -37.586   2.016  1.00  0.00     0.032 C 
ATOM     17  C   UNL     1      46.879 -37.252   0.511  1.00  0.00     0.006 C 
ATOM     18  C   UNL     1      46.088 -35.673  -1.362  1.00  0.00     0.008 C 
ATOM     19  C   UNL     1      47.734 -34.854   0.347  1.00  0.00     0.012 C 
ATOM     20  C   UNL     1      46.509 -38.434  -0.514  1.00  0.00    -0.025 C 
ATOM     21  C   UNL     1      47.047 -36.505  -2.220  1.00  0.00     0.005 C 
ATOM     22  C   UNL     1      46.832 -38.031  -2.027  1.00  0.00     0.003 C 
ATOM     23  C   UNL     1      45.026 -38.882  -0.416  1.00  0.00     0.010 C 
ATOM     24  C   UNL     1      47.396 -39.656  -0.097  1.00  0.00     0.012 C 
ATOM     25  C   UNL     1      45.893 -38.669  -3.159  1.00  0.00    -0.006 C 
ATOM     26  C   UNL     1      44.641 -40.043  -1.356  1.00  0.00     0.033 C 
ATOM     27  C   UNL     1      45.383 -40.071  -2.711  1.00  0.00     0.120 C 
ATOM     28  C   UNL     1      46.740 -38.859  -4.447  1.00  0.00     0.014 C 
ATOM     29  C   UNL     1      44.666 -37.789  -3.556  1.00  0.00     0.014 C 
ENDROOT
BRANCH   1  30
ATOM     30  C   UNL     1      46.553 -32.512   2.985  1.00  0.00     0.048 C 
ATOM     31  O   UNL     1      46.827 -31.580   2.182  1.00  0.00    -0.550 OA
ATOM     32  O   UNL     1      47.595 -33.170   3.627  1.00  0.00    -0.550 OA
ENDBRANCH   1  30
BRANCH  27  33
ATOM     33  O   UNL     1      44.521 -40.631  -3.675  1.00  0.00    -0.393 OA
ATOM     34  H   UNL     1      44.544 -40.050  -4.479  1.00  0.00     0.210 HD
ENDBRANCH  27  33
TORSDOF 2
ENDMDL
MODEL 5
REMARK VINA RESULT:    -7.133      1.717      2.724
REMARK INTER + INTRA:          -7.582
REMARK INTER:                  -7.755
REMARK INTRA:                   0.173
REMARK UNBOUND:                 0.176
REMARK SMILES C[C@@H]1[C@@H](C)CC[C@]2(C(=O)[O-])CC[C@]3(C)C(=CC[C@H]4[C@@]5(C)CC[C@@H](O)C(C)(C)[C@H]5CC[C@]43C)[C@@H]12
REMARK SMILES IDX 7 1 6 2 11 3 33 4 5 5 12 6 15 7 2 8 3 9 13 10 16 11 1 12
REMARK SMILES IDX 4 13 14 14 31 15 17 16 18 17 30 18 32 19 19 20 29 21 28 22
REMARK SMILES IDX 21 23 20 24 25 25 22 26 23 27 26 28 27 29 8 30 9 31 10 32
REMARK SMILES IDX 24 33
REMARK H PARENT 24 34
REMARK Flexibility Score: inf
ROOT
ATOM      1  C   UNL     1      45.323 -38.314  -2.957  1.00  0.00     0.017 C 
ATOM      2  C   UNL     1      44.745 -38.814  -4.298  1.00  0.00     0.014 C 
ATOM      3  C   UNL     1      44.413 -38.842  -1.817  1.00  0.00     0.014 C 
ATOM      4  C   UNL     1      45.274 -36.756  -2.883  1.00  0.00     0.030 C 
ATOM      5  C   UNL     1      45.485 -38.208  -5.486  1.00  0.00     0.004 C 
ATOM      6  C   UNL     1      44.935 -38.456  -0.426  1.00  0.00     0.013 C 
ATOM      7  C   UNL     1      45.853 -36.304  -1.519  1.00  0.00    -0.063 C 
ATOM      8  C   UNL     1      45.804 -36.017  -4.171  1.00  0.00    -0.003 C 
ATOM      9  C   UNL     1      45.316 -36.685  -5.498  1.00  0.00    -0.011 C 
ATOM     10  C   UNL     1      45.295 -36.933  -0.225  1.00  0.00    -0.006 C 
ATOM     11  C   UNL     1      46.712 -35.264  -1.412  1.00  0.00    -0.027 C 
ATOM     12  C   UNL     1      45.340 -34.534  -4.181  1.00  0.00     0.008 C 
ATOM     13  C   UNL     1      46.046 -36.107  -6.725  1.00  0.00     0.008 C 
ATOM     14  C   UNL     1      43.956 -36.198   0.056  1.00  0.00     0.017 C 
ATOM     15  C   UNL     1      46.396 -36.782   0.954  1.00  0.00    -0.020 C 
ATOM     16  C   UNL     1      46.799 -34.441  -0.155  1.00  0.00     0.032 C 
ATOM     17  C   UNL     1      46.868 -35.273   1.158  1.00  0.00     0.006 C 
ATOM     18  C   UNL     1      45.896 -37.362   2.306  1.00  0.00     0.008 C 
ATOM     19  C   UNL     1      47.686 -37.616   0.564  1.00  0.00     0.012 C 
ATOM     20  C   UNL     1      46.414 -34.495   2.490  1.00  0.00    -0.025 C 
ATOM     21  C   UNL     1      46.779 -36.908   3.474  1.00  0.00     0.005 C 
ATOM     22  C   UNL     1      46.593 -35.400   3.796  1.00  0.00     0.003 C 
ATOM     23  C   UNL     1      44.950 -33.985   2.427  1.00  0.00     0.010 C 
ATOM     24  C   UNL     1      47.345 -33.240   2.591  1.00  0.00     0.012 C 
ATOM     25  C   UNL     1      45.560 -35.149   4.995  1.00  0.00    -0.006 C 
ATOM     26  C   UNL     1      44.490 -33.198   3.671  1.00  0.00     0.033 C 
ATOM     27  C   UNL     1      45.103 -33.659   5.011  1.00  0.00     0.120 C 
ATOM     28  C   UNL     1      46.286 -35.439   6.336  1.00  0.00     0.014 C 
ATOM     29  C   UNL     1      44.295 -36.063   4.964  1.00  0.00     0.014 C 
ENDROOT
BRANCH   1  30
ATOM     30  C   UNL     1      46.734 -38.877  -2.803  1.00  0.00     0.048 C 
ATOM     31  O   UNL     1      47.748 -38.152  -2.987  1.00  0.00    -0.550 OA
ATOM     32  O   UNL     1      46.917 -40.229  -2.536  1.00  0.00    -0.550 OA
ENDBRANCH   1  30
BRANCH  27  33
ATOM     33  O   UNL     1      44.161 -33.427   6.033  1.00  0.00    -0.393 OA
ATOM     34  H   UNL     1      43.394 -34.039   5.886  1.00  0.00     0.210 HD
ENDBRANCH  27  33
TORSDOF 2
ENDMDL
MODEL 6
REMARK VINA RESULT:    -7.044      2.030      3.435
REMARK INTER + INTRA:          -7.485
REMARK INTER:                  -7.656
REMARK INTRA:                   0.170
REMARK UNBOUND:                 0.176
REMARK SMILES C[C@@H]1[C@@H](C)CC[C@]2(C(=O)[O-])CC[C@]3(C)C(=CC[C@H]4[C@@]5(C)CC[C@@H](O)C(C)(C)[C@H]5CC[C@]43C)[C@@H]12
REMARK SMILES IDX 7 1 6 2 11 3 33 4 5 5 12 6 15 7 2 8 3 9 13 10 16 11 1 12
REMARK SMILES IDX 4 13 14 14 31 15 17 16 18 17 30 18 32 19 19 20 29 21 28 22
REMARK SMILES IDX 21 23 20 24 25 25 22 26 23 27 26 28 27 29 8 30 9 31 10 32
REMARK SMILES IDX 24 33
REMARK H PARENT 24 34
REMARK Flexibility Score: inf
ROOT
ATOM      1  C   UNL     1      49.313 -36.934  -3.207  1.00  0.00     0.017 C 
ATOM      2  C   UNL     1      50.387 -37.606  -4.089  1.00  0.00     0.014 C 
ATOM      3  C   UNL     1      50.020 -35.889  -2.305  1.00  0.00     0.014 C 
ATOM      4  C   UNL     1      48.655 -37.977  -2.251  1.00  0.00     0.030 C 
ATOM      5  C   UNL     1      49.804 -38.763  -4.894  1.00  0.00     0.004 C 
ATOM      6  C   UNL     1      49.031 -35.109  -1.427  1.00  0.00     0.013 C 
ATOM      7  C   UNL     1      47.596 -37.256  -1.382  1.00  0.00    -0.063 C 
ATOM      8  C   UNL     1      48.222 -39.326  -2.943  1.00  0.00    -0.003 C 
ATOM      9  C   UNL     1      49.288 -39.859  -3.956  1.00  0.00    -0.011 C 
ATOM     10  C   UNL     1      48.003 -35.983  -0.609  1.00  0.00    -0.006 C 
ATOM     11  C   UNL     1      46.374 -37.789  -1.146  1.00  0.00    -0.027 C 
ATOM     12  C   UNL     1      47.975 -40.432  -1.880  1.00  0.00     0.008 C 
ATOM     13  C   UNL     1      48.737 -41.024  -4.798  1.00  0.00     0.008 C 
ATOM     14  C   UNL     1      48.757 -36.482   0.654  1.00  0.00     0.017 C 
ATOM     15  C   UNL     1      46.675 -35.110  -0.290  1.00  0.00    -0.020 C 
ATOM     16  C   UNL     1      45.604 -37.469   0.107  1.00  0.00     0.032 C 
ATOM     17  C   UNL     1      45.557 -35.957   0.467  1.00  0.00     0.006 C 
ATOM     18  C   UNL     1      46.997 -33.823   0.520  1.00  0.00     0.008 C 
ATOM     19  C   UNL     1      46.037 -34.626  -1.657  1.00  0.00     0.012 C 
ATOM     20  C   UNL     1      45.251 -35.626   2.010  1.00  0.00    -0.025 C 
ATOM     21  C   UNL     1      45.728 -33.200   1.111  1.00  0.00     0.005 C 
ATOM     22  C   UNL     1      45.142 -34.052   2.270  1.00  0.00     0.003 C 
ATOM     23  C   UNL     1      46.302 -36.226   2.982  1.00  0.00     0.010 C 
ATOM     24  C   UNL     1      43.875 -36.305   2.329  1.00  0.00     0.012 C 
ATOM     25  C   UNL     1      45.599 -33.526   3.713  1.00  0.00    -0.006 C 
ATOM     26  C   UNL     1      46.020 -35.965   4.475  1.00  0.00     0.033 C 
ATOM     27  C   UNL     1      45.336 -34.617   4.794  1.00  0.00     0.120 C 
ATOM     28  C   UNL     1      44.743 -32.281   4.075  1.00  0.00     0.014 C 
ATOM     29  C   UNL     1      47.093 -33.082   3.800  1.00  0.00     0.014 C 
ENDROOT
BRANCH   1  30
ATOM     30  C   UNL     1      48.307 -36.241  -4.122  1.00  0.00     0.048 C 
ATOM     31  O   UNL     1      47.174 -36.746  -4.346  1.00  0.00    -0.550 OA
ATOM     32  O   UNL     1      48.662 -35.073  -4.788  1.00  0.00    -0.550 OA
ENDBRANCH   1  30
BRANCH  27  33
ATOM     33  O   UNL     1      45.770 -34.190   6.065  1.00  0.00    -0.393 OA
ATOM     34  H   UNL     1      44.999 -34.249   6.687  1.00  0.00     0.210 HD
ENDBRANCH  27  33
TORSDOF 2
ENDMDL
MODEL 7
REMARK VINA RESULT:    -6.876      2.802      3.421
REMARK INTER + INTRA:          -7.303
REMARK INTER:                  -7.538
REMARK INTRA:                   0.236
REMARK UNBOUND:                 0.176
REMARK SMILES C[C@@H]1[C@@H](C)CC[C@]2(C(=O)[O-])CC[C@]3(C)C(=CC[C@H]4[C@@]5(C)CC[C@@H](O)C(C)(C)[C@H]5CC[C@]43C)[C@@H]12
REMARK SMILES IDX 7 1 6 2 11 3 33 4 5 5 12 6 15 7 2 8 3 9 13 10 16 11 1 12
REMARK SMILES IDX 4 13 14 14 31 15 17 16 18 17 30 18 32 19 19 20 29 21 28 22
REMARK SMILES IDX 21 23 20 24 25 25 22 26 23 27 26 28 27 29 8 30 9 31 10 32
REMARK SMILES IDX 24 33
REMARK H PARENT 24 34
REMARK Flexibility Score: inf
ROOT
ATOM      1  C   UNL     1      46.247 -35.912  -4.960  1.00  0.00     0.017 C 
ATOM      2  C   UNL     1      46.051 -35.375  -6.394  1.00  0.00     0.014 C 
ATOM      3  C   UNL     1      44.862 -35.928  -4.263  1.00  0.00     0.014 C 
ATOM      4  C   UNL     1      47.154 -34.950  -4.131  1.00  0.00     0.030 C 
ATOM      5  C   UNL     1      47.388 -35.172  -7.101  1.00  0.00     0.004 C 
ATOM      6  C   UNL     1      44.928 -36.510  -2.844  1.00  0.00     0.013 C 
ATOM      7  C   UNL     1      47.311 -35.524  -2.702  1.00  0.00    -0.063 C 
ATOM      8  C   UNL     1      48.466 -34.481  -4.868  1.00  0.00    -0.003 C 
ATOM      9  C   UNL     1      48.224 -34.117  -6.369  1.00  0.00    -0.011 C 
ATOM     10  C   UNL     1      46.045 -35.907  -1.906  1.00  0.00    -0.006 C 
ATOM     11  C   UNL     1      48.504 -35.550  -2.064  1.00  0.00    -0.027 C 
ATOM     12  C   UNL     1      49.075 -33.237  -4.164  1.00  0.00     0.008 C 
ATOM     13  C   UNL     1      49.550 -33.911  -7.125  1.00  0.00     0.008 C 
ATOM     14  C   UNL     1      45.478 -34.572  -1.350  1.00  0.00     0.017 C 
ATOM     15  C   UNL     1      46.443 -36.987  -0.765  1.00  0.00    -0.020 C 
ATOM     16  C   UNL     1      48.596 -35.506  -0.563  1.00  0.00     0.032 C 
ATOM     17  C   UNL     1      47.626 -36.475   0.172  1.00  0.00     0.006 C 
ATOM     18  C   UNL     1      45.225 -37.400   0.106  1.00  0.00     0.008 C 
ATOM     19  C   UNL     1      46.956 -38.312  -1.467  1.00  0.00     0.012 C 
ATOM     20  C   UNL     1      47.291 -36.088   1.696  1.00  0.00    -0.025 C 
ATOM     21  C   UNL     1      45.666 -38.133   1.378  1.00  0.00     0.005 C 
ATOM     22  C   UNL     1      46.354 -37.180   2.393  1.00  0.00     0.003 C 
ATOM     23  C   UNL     1      46.630 -34.691   1.839  1.00  0.00     0.010 C 
ATOM     24  C   UNL     1      48.671 -36.033   2.437  1.00  0.00     0.012 C 
ATOM     25  C   UNL     1      45.346 -36.650   3.521  1.00  0.00    -0.006 C 
ATOM     26  C   UNL     1      46.331 -34.266   3.291  1.00  0.00     0.033 C 
ATOM     27  C   UNL     1      45.953 -35.415   4.251  1.00  0.00     0.120 C 
ATOM     28  C   UNL     1      45.151 -37.777   4.572  1.00  0.00     0.014 C 
ATOM     29  C   UNL     1      43.924 -36.276   2.997  1.00  0.00     0.014 C 
ENDROOT
BRANCH   1  30
ATOM     30  C   UNL     1      46.804 -37.330  -5.052  1.00  0.00     0.048 C 
ATOM     31  O   UNL     1      46.045 -38.316  -5.256  1.00  0.00    -0.550 OA
ATOM     32  O   UNL     1      48.156 -37.562  -4.828  1.00  0.00    -0.550 OA
ENDBRANCH   1  30
BRANCH  27  33
ATOM     33  O   UNL     1      45.063 -34.908   5.220  1.00  0.00    -0.393 OA
ATOM     34  H   UNL     1      45.593 -34.665   6.023  1.00  0.00     0.210 HD
ENDBRANCH  27  33
TORSDOF 2
ENDMDL
MODEL 8
REMARK VINA RESULT:    -6.706      3.300      7.953
REMARK INTER + INTRA:          -7.118
REMARK INTER:                  -7.286
REMARK INTRA:                   0.168
REMARK UNBOUND:                 0.176
REMARK SMILES C[C@@H]1[C@@H](C)CC[C@]2(C(=O)[O-])CC[C@]3(C)C(=CC[C@H]4[C@@]5(C)CC[C@@H](O)C(C)(C)[C@H]5CC[C@]43C)[C@@H]12
REMARK SMILES IDX 7 1 6 2 11 3 33 4 5 5 12 6 15 7 2 8 3 9 13 10 16 11 1 12
REMARK SMILES IDX 4 13 14 14 31 15 17 16 18 17 30 18 32 19 19 20 29 21 28 22
REMARK SMILES IDX 21 23 20 24 25 25 22 26 23 27 26 28 27 29 8 30 9 31 10 32
REMARK SMILES IDX 24 33
REMARK H PARENT 24 34
REMARK Flexibility Score: inf
ROOT
ATOM      1  C   UNL     1      46.162 -35.655   5.229  1.00  0.00     0.017 C 
ATOM      2  C   UNL     1      46.517 -35.736   6.729  1.00  0.00     0.014 C 
ATOM      3  C   UNL     1      47.441 -35.990   4.417  1.00  0.00     0.014 C 
ATOM      4  C   UNL     1      45.753 -34.200   4.838  1.00  0.00     0.030 C 
ATOM      5  C   UNL     1      45.359 -35.263   7.603  1.00  0.00     0.004 C 
ATOM      6  C   UNL     1      47.186 -36.002   2.903  1.00  0.00     0.013 C 
ATOM      7  C   UNL     1      45.418 -34.168   3.327  1.00  0.00    -0.063 C 
ATOM      8  C   UNL     1      44.724 -33.519   5.819  1.00  0.00    -0.003 C 
ATOM      9  C   UNL     1      45.049 -33.788   7.325  1.00  0.00    -0.011 C 
ATOM     10  C   UNL     1      46.441 -34.739   2.321  1.00  0.00    -0.006 C 
ATOM     11  C   UNL     1      44.338 -33.511   2.843  1.00  0.00    -0.027 C 
ATOM     12  C   UNL     1      44.698 -31.980   5.601  1.00  0.00     0.008 C 
ATOM     13  C   UNL     1      43.900 -33.334   8.243  1.00  0.00     0.008 C 
ATOM     14  C   UNL     1      47.520 -33.635   2.147  1.00  0.00     0.017 C 
ATOM     15  C   UNL     1      45.671 -35.139   0.953  1.00  0.00    -0.020 C 
ATOM     16  C   UNL     1      44.317 -32.949   1.447  1.00  0.00     0.032 C 
ATOM     17  C   UNL     1      44.829 -33.927   0.351  1.00  0.00     0.006 C 
ATOM     18  C   UNL     1      46.641 -35.693  -0.128  1.00  0.00     0.008 C 
ATOM     19  C   UNL     1      44.642 -36.303   1.263  1.00  0.00     0.012 C 
ATOM     20  C   UNL     1      45.339 -33.232  -1.007  1.00  0.00    -0.025 C 
ATOM     21  C   UNL     1      45.977 -35.735  -1.509  1.00  0.00     0.005 C 
ATOM     22  C   UNL     1      45.769 -34.314  -2.102  1.00  0.00     0.003 C 
ATOM     23  C   UNL     1      46.516 -32.246  -0.782  1.00  0.00     0.010 C 
ATOM     24  C   UNL     1      44.125 -32.399  -1.543  1.00  0.00     0.012 C 
ATOM     25  C   UNL     1      46.939 -33.891  -3.113  1.00  0.00    -0.006 C 
ATOM     26  C   UNL     1      47.007 -31.529  -2.055  1.00  0.00     0.033 C 
ATOM     27  C   UNL     1      46.911 -32.353  -3.358  1.00  0.00     0.120 C 
ATOM     28  C   UNL     1      46.689 -34.595  -4.475  1.00  0.00     0.014 C 
ATOM     29  C   UNL     1      48.374 -34.302  -2.654  1.00  0.00     0.014 C 
ENDROOT
BRANCH   1  30
ATOM     30  C   UNL     1      45.073 -36.683   4.937  1.00  0.00     0.048 C 
ATOM     31  O   UNL     1      43.875 -36.332   4.763  1.00  0.00    -0.550 OA
ATOM     32  O   UNL     1      45.378 -38.039   4.941  1.00  0.00    -0.550 OA
ENDBRANCH   1  30
BRANCH  27  33
ATOM     33  O   UNL     1      47.959 -31.954  -4.212  1.00  0.00    -0.393 OA
ATOM     34  H   UNL     1      47.569 -31.757  -5.103  1.00  0.00     0.210 HD
ENDBRANCH  27  33
TORSDOF 2
ENDMDL
MODEL 9
REMARK VINA RESULT:    -6.667      1.895      2.789
REMARK INTER + INTRA:          -7.076
REMARK INTER:                  -7.486
REMARK INTRA:                   0.410
REMARK UNBOUND:                 0.176
REMARK SMILES C[C@@H]1[C@@H](C)CC[C@]2(C(=O)[O-])CC[C@]3(C)C(=CC[C@H]4[C@@]5(C)CC[C@@H](O)C(C)(C)[C@H]5CC[C@]43C)[C@@H]12
REMARK SMILES IDX 7 1 6 2 11 3 33 4 5 5 12 6 15 7 2 8 3 9 13 10 16 11 1 12
REMARK SMILES IDX 4 13 14 14 31 15 17 16 18 17 30 18 32 19 19 20 29 21 28 22
REMARK SMILES IDX 21 23 20 24 25 25 22 26 23 27 26 28 27 29 8 30 9 31 10 32
REMARK SMILES IDX 24 33
REMARK H PARENT 24 34
REMARK Flexibility Score: inf
ROOT
ATOM      1  C   UNL     1      47.852 -39.641  -3.597  1.00  0.00     0.017 C 
ATOM      2  C   UNL     1      47.933 -40.530  -4.857  1.00  0.00     0.014 C 
ATOM      3  C   UNL     1      46.354 -39.410  -3.271  1.00  0.00     0.014 C 
ATOM      4  C   UNL     1      48.472 -38.236  -3.874  1.00  0.00     0.030 C 
ATOM      5  C   UNL     1      49.371 -40.676  -5.346  1.00  0.00     0.004 C 
ATOM      6  C   UNL     1      46.154 -38.587  -1.990  1.00  0.00     0.013 C 
ATOM      7  C   UNL     1      48.358 -37.381  -2.588  1.00  0.00    -0.063 C 
ATOM      8  C   UNL     1      49.871 -38.264  -4.600  1.00  0.00    -0.003 C 
ATOM      9  C   UNL     1      49.935 -39.313  -5.758  1.00  0.00    -0.011 C 
ATOM     10  C   UNL     1      46.984 -37.249  -1.897  1.00  0.00    -0.006 C 
ATOM     11  C   UNL     1      49.380 -36.615  -2.141  1.00  0.00    -0.027 C 
ATOM     12  C   UNL     1      50.205 -36.868  -5.197  1.00  0.00     0.008 C 
ATOM     13  C   UNL     1      51.373 -39.499  -6.276  1.00  0.00     0.008 C 
ATOM     14  C   UNL     1      46.201 -36.189  -2.719  1.00  0.00     0.017 C 
ATOM     15  C   UNL     1      47.210 -36.851  -0.343  1.00  0.00    -0.020 C 
ATOM     16  C   UNL     1      49.136 -35.372  -1.329  1.00  0.00     0.032 C 
ATOM     17  C   UNL     1      48.112 -35.548  -0.172  1.00  0.00     0.006 C 
ATOM     18  C   UNL     1      45.868 -36.664   0.418  1.00  0.00     0.008 C 
ATOM     19  C   UNL     1      47.972 -38.034   0.386  1.00  0.00     0.012 C 
ATOM     20  C   UNL     1      47.419 -34.192   0.346  1.00  0.00    -0.025 C 
ATOM     21  C   UNL     1      46.078 -35.958   1.763  1.00  0.00     0.005 C 
ATOM     22  C   UNL     1      46.445 -34.459   1.585  1.00  0.00     0.003 C 
ATOM     23  C   UNL     1      46.630 -33.449  -0.765  1.00  0.00     0.010 C 
ATOM     24  C   UNL     1      48.593 -33.256   0.795  1.00  0.00     0.012 C 
ATOM     25  C   UNL     1      45.174 -33.493   1.724  1.00  0.00    -0.006 C 
ATOM     26  C   UNL     1      45.985 -32.122  -0.317  1.00  0.00     0.033 C 
ATOM     27  C   UNL     1      45.502 -32.083   1.149  1.00  0.00     0.120 C 
ATOM     28  C   UNL     1      44.846 -33.329   3.234  1.00  0.00     0.014 C 
ATOM     29  C   UNL     1      43.876 -34.026   1.040  1.00  0.00     0.014 C 
ENDROOT
BRANCH   1  30
ATOM     30  C   UNL     1      48.531 -40.380  -2.446  1.00  0.00     0.048 C 
ATOM     31  O   UNL     1      47.855 -41.005  -1.585  1.00  0.00    -0.550 OA
ATOM     32  O   UNL     1      49.910 -40.303  -2.287  1.00  0.00    -0.550 OA
ENDBRANCH   1  30
BRANCH  27  33
ATOM     33  O   UNL     1      44.382 -31.230   1.224  1.00  0.00    -0.393 OA
ATOM     34  H   UNL     1      44.073 -31.214   2.167  1.00  0.00     0.210 HD
ENDBRANCH  27  33
TORSDOF 2
ENDMDL
