MODEL 1
REMARK VINA RESULT:    -4.315      0.000      0.000
REMARK INTER + INTRA:          -7.340
REMARK INTER:                  -5.829
REMARK INTRA:                  -1.512
REMARK UNBOUND:                -1.512
REMARK SMILES CC(=O)CCC=C(C)CCC=C(C)C
REMARK SMILES IDX 7 1 6 2 8 3 9 4 10 5 11 6 13 7 12 8 14 9 5 10 4 11 2 12 3 13
REMARK SMILES IDX 1 14
REMARK H PARENT
REMARK Flexibility Score: inf
ROOT
ATOM      1  C   UNL     1      25.900  -2.863  52.495  1.00  0.00    -0.077 C 
ATOM      2  C   UNL     1      26.807  -3.633  51.850  1.00  0.00    -0.028 C 
ATOM      3  C   UNL     1      26.105  -1.370  52.490  1.00  0.00     0.039 C 
ENDROOT
BRANCH   1   4
ATOM      4  C   UNL     1      24.657  -3.420  53.170  1.00  0.00     0.034 C 
BRANCH   4   5
ATOM      5  C   UNL     1      24.742  -3.319  54.699  1.00  0.00     0.032 C 
BRANCH   5   6
ATOM      6  C   UNL     1      25.403  -4.532  55.312  1.00  0.00    -0.028 C 
ATOM      7  C   UNL     1      27.223  -5.879  56.261  1.00  0.00     0.039 C 
ATOM      8  C   UNL     1      26.692  -4.580  55.713  1.00  0.00    -0.080 C 
ATOM      9  C   UNL     1      27.604  -3.379  55.632  1.00  0.00     0.039 C 
ENDBRANCH   5   6
ENDBRANCH   4   5
ENDBRANCH   1   4
BRANCH   2  10
ATOM     10  C   UNL     1      26.780  -5.142  51.784  1.00  0.00     0.035 C 
BRANCH  10  11
ATOM     11  C   UNL     1      27.951  -5.766  52.556  1.00  0.00     0.079 C 
BRANCH  11  12
ATOM     12  C   UNL     1      29.273  -5.456  51.901  1.00  0.00     0.130 C 
ATOM     13  O   UNL     1      29.514  -5.900  50.789  1.00  0.00    -0.300 OA
ATOM     14  C   UNL     1      30.304  -4.610  52.590  1.00  0.00     0.087 C 
ENDBRANCH  11  12
ENDBRANCH  10  11
ENDBRANCH   2  10
TORSDOF 6
ENDMDL
MODEL 2
REMARK VINA RESULT:    -4.182      1.345      1.864
REMARK INTER + INTRA:          -7.161
REMARK INTER:                  -5.558
REMARK INTRA:                  -1.603
REMARK UNBOUND:                -1.512
REMARK SMILES CC(=O)CCC=C(C)CCC=C(C)C
REMARK SMILES IDX 7 1 6 2 8 3 9 4 10 5 11 6 13 7 12 8 14 9 5 10 4 11 2 12 3 13
REMARK SMILES IDX 1 14
REMARK H PARENT
REMARK Flexibility Score: inf
ROOT
ATOM      1  C   UNL     1      25.331  -2.232  53.905  1.00  0.00    -0.077 C 
ATOM      2  C   UNL     1      26.112  -1.845  52.871  1.00  0.00    -0.028 C 
ATOM      3  C   UNL     1      25.027  -1.222  54.982  1.00  0.00     0.039 C 
ENDROOT
BRANCH   1   4
ATOM      4  C   UNL     1      24.695  -3.609  54.005  1.00  0.00     0.034 C 
BRANCH   4   5
ATOM      5  C   UNL     1      25.020  -4.294  55.340  1.00  0.00     0.032 C 
BRANCH   5   6
ATOM      6  C   UNL     1      26.050  -5.387  55.180  1.00  0.00    -0.028 C 
ATOM      7  C   UNL     1      28.289  -6.394  55.099  1.00  0.00     0.039 C 
ATOM      8  C   UNL     1      27.381  -5.216  55.342  1.00  0.00    -0.080 C 
ATOM      9  C   UNL     1      27.975  -3.892  55.758  1.00  0.00     0.039 C 
ENDBRANCH   5   6
ENDBRANCH   4   5
ENDBRANCH   1   4
BRANCH   2  10
ATOM     10  C   UNL     1      26.547  -2.730  51.728  1.00  0.00     0.035 C 
BRANCH  10  11
ATOM     11  C   UNL     1      27.909  -3.384  52.001  1.00  0.00     0.079 C 
BRANCH  11  12
ATOM     12  C   UNL     1      27.875  -4.866  51.731  1.00  0.00     0.130 C 
ATOM     13  O   UNL     1      26.804  -5.453  51.720  1.00  0.00    -0.300 OA
ATOM     14  C   UNL     1      29.135  -5.641  51.475  1.00  0.00     0.087 C 
ENDBRANCH  11  12
ENDBRANCH  10  11
ENDBRANCH   2  10
TORSDOF 6
ENDMDL
MODEL 3
REMARK VINA RESULT:    -4.149      1.434      2.384
REMARK INTER + INTRA:          -7.116
REMARK INTER:                  -5.637
REMARK INTRA:                  -1.479
REMARK UNBOUND:                -1.512
REMARK SMILES CC(=O)CCC=C(C)CCC=C(C)C
REMARK SMILES IDX 7 1 6 2 8 3 9 4 10 5 11 6 13 7 12 8 14 9 5 10 4 11 2 12 3 13
REMARK SMILES IDX 1 14
REMARK H PARENT
REMARK Flexibility Score: inf
ROOT
ATOM      1  C   UNL     1      27.113  -2.150  51.954  1.00  0.00    -0.077 C 
ATOM      2  C   UNL     1      28.428  -1.937  52.189  1.00  0.00    -0.028 C 
ATOM      3  C   UNL     1      26.119  -1.193  52.560  1.00  0.00     0.039 C 
ENDROOT
BRANCH   1   4
ATOM      4  C   UNL     1      26.592  -3.266  51.063  1.00  0.00     0.034 C 
BRANCH   4   5
ATOM      5  C   UNL     1      25.713  -4.256  51.840  1.00  0.00     0.032 C 
BRANCH   5   6
ATOM      6  C   UNL     1      26.473  -4.932  52.957  1.00  0.00    -0.028 C 
ATOM      7  C   UNL     1      27.038  -5.530  55.271  1.00  0.00     0.039 C 
ATOM      8  C   UNL     1      26.154  -4.838  54.267  1.00  0.00    -0.080 C 
ATOM      9  C   UNL     1      24.946  -4.068  54.745  1.00  0.00     0.039 C 
ENDBRANCH   5   6
ENDBRANCH   4   5
ENDBRANCH   1   4
BRANCH   2  10
ATOM     10  C   UNL     1      29.556  -2.811  51.695  1.00  0.00     0.035 C 
BRANCH  10  11
ATOM     11  C   UNL     1      30.159  -3.655  52.827  1.00  0.00     0.079 C 
BRANCH  11  12
ATOM     12  C   UNL     1      30.136  -5.125  52.493  1.00  0.00     0.130 C 
ATOM     13  O   UNL     1      30.649  -5.925  53.261  1.00  0.00    -0.300 OA
ATOM     14  C   UNL     1      29.496  -5.628  51.232  1.00  0.00     0.087 C 
ENDBRANCH  11  12
ENDBRANCH  10  11
ENDBRANCH   2  10
TORSDOF 6
ENDMDL
MODEL 4
REMARK VINA RESULT:    -4.028      2.100      3.915
REMARK INTER + INTRA:          -6.953
REMARK INTER:                  -5.392
REMARK INTRA:                  -1.560
REMARK UNBOUND:                -1.512
REMARK SMILES CC(=O)CCC=C(C)CCC=C(C)C
REMARK SMILES IDX 7 1 6 2 8 3 9 4 10 5 11 6 13 7 12 8 14 9 5 10 4 11 2 12 3 13
REMARK SMILES IDX 1 14
REMARK H PARENT
REMARK Flexibility Score: inf
ROOT
ATOM      1  C   UNL     1      26.131  -3.587  52.224  1.00  0.00    -0.077 C 
ATOM      2  C   UNL     1      25.328  -3.090  53.194  1.00  0.00    -0.028 C 
ATOM      3  C   UNL     1      26.867  -2.611  51.344  1.00  0.00     0.039 C 
ENDROOT
BRANCH   1   4
ATOM      4  C   UNL     1      26.374  -5.073  52.019  1.00  0.00     0.034 C 
BRANCH   4   5
ATOM      5  C   UNL     1      27.864  -5.387  51.824  1.00  0.00     0.032 C 
BRANCH   5   6
ATOM      6  C   UNL     1      28.503  -5.908  53.090  1.00  0.00    -0.028 C 
ATOM      7  C   UNL     1      29.890  -5.848  55.116  1.00  0.00     0.039 C 
ATOM      8  C   UNL     1      29.281  -5.173  53.914  1.00  0.00    -0.080 C 
ATOM      9  C   UNL     1      29.551  -3.708  53.667  1.00  0.00     0.039 C 
ENDBRANCH   5   6
ENDBRANCH   4   5
ENDBRANCH   1   4
BRANCH   2  10
ATOM     10  C   UNL     1      24.490  -3.916  54.140  1.00  0.00     0.035 C 
BRANCH  10  11
ATOM     11  C   UNL     1      24.866  -3.657  55.606  1.00  0.00     0.079 C 
BRANCH  11  12
ATOM     12  C   UNL     1      26.133  -4.378  55.988  1.00  0.00     0.130 C 
ATOM     13  O   UNL     1      27.122  -3.733  56.302  1.00  0.00    -0.300 OA
ATOM     14  C   UNL     1      26.208  -5.877  55.989  1.00  0.00     0.087 C 
ENDBRANCH  11  12
ENDBRANCH  10  11
ENDBRANCH   2  10
TORSDOF 6
ENDMDL
MODEL 5
REMARK VINA RESULT:    -3.950      2.360      4.661
REMARK INTER + INTRA:          -6.847
REMARK INTER:                  -5.074
REMARK INTRA:                  -1.773
REMARK UNBOUND:                -1.512
REMARK SMILES CC(=O)CCC=C(C)CCC=C(C)C
REMARK SMILES IDX 7 1 6 2 8 3 9 4 10 5 11 6 13 7 12 8 14 9 5 10 4 11 2 12 3 13
REMARK SMILES IDX 1 14
REMARK H PARENT
REMARK Flexibility Score: inf
ROOT
ATOM      1  C   UNL     1      27.823  -5.284  52.311  1.00  0.00    -0.077 C 
ATOM      2  C   UNL     1      28.015  -5.574  53.619  1.00  0.00    -0.028 C 
ATOM      3  C   UNL     1      28.971  -5.504  51.360  1.00  0.00     0.039 C 
ENDROOT
BRANCH   1   4
ATOM      4  C   UNL     1      26.495  -4.809  51.745  1.00  0.00     0.034 C 
BRANCH   4   5
ATOM      5  C   UNL     1      26.620  -3.436  51.069  1.00  0.00     0.032 C 
BRANCH   5   6
ATOM      6  C   UNL     1      26.459  -2.302  52.054  1.00  0.00    -0.028 C 
ATOM      7  C   UNL     1      27.165  -0.503  53.569  1.00  0.00     0.039 C 
ATOM      8  C   UNL     1      27.480  -1.571  52.554  1.00  0.00    -0.080 C 
ATOM      9  C   UNL     1      28.910  -1.792  52.124  1.00  0.00     0.039 C 
ENDBRANCH   5   6
ENDBRANCH   4   5
ENDBRANCH   1   4
BRANCH   2  10
ATOM     10  C   UNL     1      26.993  -5.381  54.714  1.00  0.00     0.035 C 
BRANCH  10  11
ATOM     11  C   UNL     1      27.119  -4.001  55.374  1.00  0.00     0.079 C 
BRANCH  11  12
ATOM     12  C   UNL     1      25.774  -3.346  55.549  1.00  0.00     0.130 C 
ATOM     13  O   UNL     1      25.673  -2.354  56.255  1.00  0.00    -0.300 OA
ATOM     14  C   UNL     1      24.549  -3.889  54.873  1.00  0.00     0.087 C 
ENDBRANCH  11  12
ENDBRANCH  10  11
ENDBRANCH   2  10
TORSDOF 6
ENDMDL
MODEL 6
REMARK VINA RESULT:    -3.932      1.911      3.393
REMARK INTER + INTRA:          -6.824
REMARK INTER:                  -5.319
REMARK INTRA:                  -1.504
REMARK UNBOUND:                -1.512
REMARK SMILES CC(=O)CCC=C(C)CCC=C(C)C
REMARK SMILES IDX 7 1 6 2 8 3 9 4 10 5 11 6 13 7 12 8 14 9 5 10 4 11 2 12 3 13
REMARK SMILES IDX 1 14
REMARK H PARENT
REMARK Flexibility Score: inf
ROOT
ATOM      1  C   UNL     1      25.736  -3.145  52.692  1.00  0.00    -0.077 C 
ATOM      2  C   UNL     1      26.416  -2.005  52.957  1.00  0.00    -0.028 C 
ATOM      3  C   UNL     1      24.660  -3.570  53.658  1.00  0.00     0.039 C 
ENDROOT
BRANCH   1   4
ATOM      4  C   UNL     1      25.958  -3.981  51.443  1.00  0.00     0.034 C 
BRANCH   4   5
ATOM      5  C   UNL     1      26.479  -5.386  51.780  1.00  0.00     0.032 C 
BRANCH   5   6
ATOM      6  C   UNL     1      27.987  -5.430  51.848  1.00  0.00    -0.028 C 
ATOM      7  C   UNL     1      30.205  -5.455  52.901  1.00  0.00     0.039 C 
ATOM      8  C   UNL     1      28.701  -5.463  52.994  1.00  0.00    -0.080 C 
ATOM      9  C   UNL     1      28.039  -5.511  54.351  1.00  0.00     0.039 C 
ENDBRANCH   5   6
ENDBRANCH   4   5
ENDBRANCH   1   4
BRANCH   2  10
ATOM     10  C   UNL     1      27.545  -1.450  52.122  1.00  0.00     0.035 C 
BRANCH  10  11
ATOM     11  C   UNL     1      28.914  -1.735  52.756  1.00  0.00     0.079 C 
BRANCH  11  12
ATOM     12  C   UNL     1      29.989  -1.881  51.710  1.00  0.00     0.130 C 
ATOM     13  O   UNL     1      29.836  -2.679  50.797  1.00  0.00    -0.300 OA
ATOM     14  C   UNL     1      31.248  -1.066  51.766  1.00  0.00     0.087 C 
ENDBRANCH  11  12
ENDBRANCH  10  11
ENDBRANCH   2  10
TORSDOF 6
ENDMDL
MODEL 7
REMARK VINA RESULT:    -3.913     12.064     14.074
REMARK INTER + INTRA:          -6.798
REMARK INTER:                  -5.167
REMARK INTRA:                  -1.630
REMARK UNBOUND:                -1.512
REMARK SMILES CC(=O)CCC=C(C)CCC=C(C)C
REMARK SMILES IDX 7 1 6 2 8 3 9 4 10 5 11 6 13 7 12 8 14 9 5 10 4 11 2 12 3 13
REMARK SMILES IDX 1 14
REMARK H PARENT
REMARK Flexibility Score: inf
ROOT
ATOM      1  C   UNL     1      14.422  -1.510  61.305  1.00  0.00    -0.077 C 
ATOM      2  C   UNL     1      14.015  -2.683  61.843  1.00  0.00    -0.028 C 
ATOM      3  C   UNL     1      13.839  -0.236  61.858  1.00  0.00     0.039 C 
ENDROOT
BRANCH   1   4
ATOM      4  C   UNL     1      15.479  -1.410  60.217  1.00  0.00     0.034 C 
BRANCH   4   5
ATOM      5  C   UNL     1      16.769  -0.756  60.731  1.00  0.00     0.032 C 
BRANCH   5   6
ATOM      6  C   UNL     1      17.898  -1.752  60.856  1.00  0.00    -0.028 C 
ATOM      7  C   UNL     1      19.453  -3.281  61.986  1.00  0.00     0.039 C 
ATOM      8  C   UNL     1      18.273  -2.344  62.012  1.00  0.00    -0.080 C 
ATOM      9  C   UNL     1      17.547  -2.096  63.312  1.00  0.00     0.039 C 
ENDBRANCH   5   6
ENDBRANCH   4   5
ENDBRANCH   1   4
BRANCH   2  10
ATOM     10  C   UNL     1      14.464  -4.052  61.390  1.00  0.00     0.035 C 
BRANCH  10  11
ATOM     11  C   UNL     1      15.030  -4.879  62.553  1.00  0.00     0.079 C 
BRANCH  11  12
ATOM     12  C   UNL     1      16.375  -5.466  62.211  1.00  0.00     0.130 C 
ATOM     13  O   UNL     1      17.161  -5.734  63.107  1.00  0.00    -0.300 OA
ATOM     14  C   UNL     1      16.773  -5.727  60.788  1.00  0.00     0.087 C 
ENDBRANCH  11  12
ENDBRANCH  10  11
ENDBRANCH   2  10
TORSDOF 6
ENDMDL
MODEL 8
REMARK VINA RESULT:    -3.876      1.653      3.155
REMARK INTER + INTRA:          -6.747
REMARK INTER:                  -5.087
REMARK INTRA:                  -1.660
REMARK UNBOUND:                -1.512
REMARK SMILES CC(=O)CCC=C(C)CCC=C(C)C
REMARK SMILES IDX 7 1 6 2 8 3 9 4 10 5 11 6 13 7 12 8 14 9 5 10 4 11 2 12 3 13
REMARK SMILES IDX 1 14
REMARK H PARENT
REMARK Flexibility Score: inf
ROOT
ATOM      1  C   UNL     1      25.467  -4.089  54.233  1.00  0.00    -0.077 C 
ATOM      2  C   UNL     1      26.471  -4.944  54.537  1.00  0.00    -0.028 C 
ATOM      3  C   UNL     1      24.586  -3.602  55.354  1.00  0.00     0.039 C 
ENDROOT
BRANCH   1   4
ATOM      4  C   UNL     1      25.223  -3.548  52.834  1.00  0.00     0.034 C 
BRANCH   4   5
ATOM      5  C   UNL     1      25.754  -2.116  52.674  1.00  0.00     0.032 C 
BRANCH   5   6
ATOM      6  C   UNL     1      27.128  -2.088  52.048  1.00  0.00    -0.028 C 
ATOM      7  C   UNL     1      29.567  -1.812  51.953  1.00  0.00     0.039 C 
ATOM      8  C   UNL     1      28.274  -1.858  52.726  1.00  0.00    -0.080 C 
ATOM      9  C   UNL     1      28.294  -1.653  54.222  1.00  0.00     0.039 C 
ENDBRANCH   5   6
ENDBRANCH   4   5
ENDBRANCH   1   4
BRANCH   2  10
ATOM     10  C   UNL     1      27.425  -5.559  53.541  1.00  0.00     0.035 C 
BRANCH  10  11
ATOM     11  C   UNL     1      28.889  -5.364  53.959  1.00  0.00     0.079 C 
BRANCH  11  12
ATOM     12  C   UNL     1      29.814  -5.405  52.770  1.00  0.00     0.130 C 
ATOM     13  O   UNL     1      31.013  -5.236  52.933  1.00  0.00    -0.300 OA
ATOM     14  C   UNL     1      29.292  -5.648  51.384  1.00  0.00     0.087 C 
ENDBRANCH  11  12
ENDBRANCH  10  11
ENDBRANCH   2  10
TORSDOF 6
ENDMDL
MODEL 9
REMARK VINA RESULT:    -3.801     11.376     13.411
REMARK INTER + INTRA:          -6.646
REMARK INTER:                  -5.224
REMARK INTRA:                  -1.422
REMARK UNBOUND:                -1.512
REMARK SMILES CC(=O)CCC=C(C)CCC=C(C)C
REMARK SMILES IDX 7 1 6 2 8 3 9 4 10 5 11 6 13 7 12 8 14 9 5 10 4 11 2 12 3 13
REMARK SMILES IDX 1 14
REMARK H PARENT
REMARK Flexibility Score: inf
ROOT
ATOM      1  C   UNL     1      15.973   1.978  60.235  1.00  0.00    -0.077 C 
ATOM      2  C   UNL     1      17.259   1.594  60.412  1.00  0.00    -0.028 C 
ATOM      3  C   UNL     1      15.606   3.401  60.571  1.00  0.00     0.039 C 
ENDROOT
BRANCH   1   4
ATOM      4  C   UNL     1      14.899   1.070  59.660  1.00  0.00     0.034 C 
BRANCH   4   5
ATOM      5  C   UNL     1      14.738   1.264  58.145  1.00  0.00     0.032 C 
BRANCH   5   6
ATOM      6  C   UNL     1      15.402   0.159  57.358  1.00  0.00    -0.028 C 
ATOM      7  C   UNL     1      17.039  -0.876  55.848  1.00  0.00     0.039 C 
ATOM      8  C   UNL     1      16.522   0.311  56.619  1.00  0.00    -0.080 C 
ATOM      9  C   UNL     1      17.264   1.625  56.549  1.00  0.00     0.039 C 
ENDBRANCH   5   6
ENDBRANCH   4   5
ENDBRANCH   1   4
BRANCH   2  10
ATOM     10  C   UNL     1      17.795   0.204  60.163  1.00  0.00     0.035 C 
BRANCH  10  11
ATOM     11  C   UNL     1      17.612  -0.704  61.387  1.00  0.00     0.079 C 
BRANCH  11  12
ATOM     12  C   UNL     1      17.309  -2.124  60.982  1.00  0.00     0.130 C 
ATOM     13  O   UNL     1      17.875  -3.046  61.548  1.00  0.00    -0.300 OA
ATOM     14  C   UNL     1      16.324  -2.429  59.892  1.00  0.00     0.087 C 
ENDBRANCH  11  12
ENDBRANCH  10  11
ENDBRANCH   2  10
TORSDOF 6
ENDMDL
