MODEL 1
REMARK VINA RESULT:    -5.579      0.000      0.000
REMARK INTER + INTRA:          -7.215
REMARK INTER:                  -7.863
REMARK INTRA:                   0.648
REMARK UNBOUND:                 0.648
REMARK SMILES CC1=CCC(=C(C)C)C(=O)CC(C)=CCC1
REMARK SMILES IDX 12 1 14 2 13 3 15 4 16 5 2 6 1 7 3 8 11 10 9 11 10 12 5 13
REMARK SMILES IDX 6 14 7 15 8 16 4 17
REMARK H PARENT
REMARK Flexibility Score: 60.00
ROOT
ATOM      1  C   UNL     1     -12.619 -16.548  31.355  1.00  0.00    -0.070 C 
ATOM      2  C   UNL     1     -13.192 -17.773  31.497  1.00  0.00    -0.027 C 
ATOM      3  C   UNL     1     -13.492 -15.325  31.482  1.00  0.00     0.039 C 
ENDROOT
BRANCH   2   4
ATOM      4  C   UNL     1     -12.464 -19.096  31.495  1.00  0.00     0.032 C 
BRANCH   4   5
ATOM      5  C   UNL     1     -11.721 -19.379  30.182  1.00  0.00     0.034 C 
BRANCH   5   6
ATOM      6  C   UNL     1     -12.694 -19.380  29.019  1.00  0.00    -0.077 C 
ATOM      7  C   UNL     1     -13.837 -20.362  29.043  1.00  0.00     0.039 C 
ATOM      8  C   UNL     1     -12.547 -18.598  27.924  1.00  0.00    -0.023 CG0
ATOM      9  G   UNL     1     -11.479 -17.549  27.725  1.00  0.00     0.000 G0
ENDBRANCH   5   6
ENDBRANCH   4   5
ENDBRANCH   2   4
BRANCH   1  10
ATOM     10  C   UNL     1     -11.174 -16.320  30.931  1.00  0.00     0.111 C 
BRANCH  10  11
ATOM     11  C   UNL     1     -11.028 -15.742  29.545  1.00  0.00     0.163 C 
ATOM     12  O   UNL     1     -10.217 -14.789  29.392  1.00  0.00    -0.294 OA
BRANCH  11  13
ATOM     13  C   UNL     1     -11.844 -16.218  28.379  1.00  0.00    -0.002 C 
ATOM     14  C   UNL     1     -12.865 -15.453  27.882  1.00  0.00    -0.069 C 
ATOM     15  C   UNL     1     -13.639 -15.865  26.647  1.00  0.00     0.039 C 
ATOM     16  C   UNL     1     -13.313 -14.180  28.566  1.00  0.00     0.039 C 
BRANCH  13  17
ATOM     17  C   UNL     1     -11.476 -17.546  27.719  1.00  0.00     0.066 CG0
ATOM     18  G   UNL     1     -12.546 -18.594  27.913  1.00  0.00     0.000 G0
ENDBRANCH  13  17
ENDBRANCH  11  13
ENDBRANCH  10  11
ENDBRANCH   1  10
TORSDOF 0
ENDMDL
MODEL 2
REMARK VINA RESULT:    -5.553      1.302      3.473
REMARK INTER + INTRA:          -7.178
REMARK INTER:                  -7.989
REMARK INTRA:                   0.811
REMARK UNBOUND:                 0.648
REMARK SMILES CC1=CCC(=C(C)C)C(=O)CC(C)=CCC1
REMARK SMILES IDX 12 1 14 2 13 3 15 4 16 5 2 6 1 7 3 8 11 10 9 11 10 12 5 13
REMARK SMILES IDX 6 14 7 15 8 16 4 17
REMARK H PARENT
REMARK Flexibility Score: 60.00
ROOT
ATOM      1  C   UNL     1     -12.969 -16.123  31.177  1.00  0.00    -0.070 C 
ATOM      2  C   UNL     1     -13.724 -15.272  30.433  1.00  0.00    -0.027 C 
ATOM      3  C   UNL     1     -13.643 -16.925  32.261  1.00  0.00     0.039 C 
ENDROOT
BRANCH   2   4
ATOM      4  C   UNL     1     -13.243 -14.462  29.252  1.00  0.00     0.032 C 
BRANCH   4   5
ATOM      5  C   UNL     1     -12.163 -15.174  28.427  1.00  0.00     0.034 C 
BRANCH   5   6
ATOM      6  C   UNL     1     -12.793 -16.237  27.546  1.00  0.00    -0.077 C 
ATOM      7  C   UNL     1     -14.001 -15.863  26.727  1.00  0.00     0.039 C 
ATOM      8  C   UNL     1     -12.374 -17.524  27.515  1.00  0.00    -0.023 CG0
ATOM      9  G   UNL     1     -11.179 -18.081  28.253  1.00  0.00     0.000 G0
ENDBRANCH   5   6
ENDBRANCH   4   5
ENDBRANCH   2   4
BRANCH   1  10
ATOM     10  C   UNL     1     -11.451 -16.222  31.092  1.00  0.00     0.111 C 
BRANCH  10  11
ATOM     11  C   UNL     1     -10.945 -17.614  30.804  1.00  0.00     0.163 C 
ATOM     12  O   UNL     1      -9.989 -18.044  31.506  1.00  0.00    -0.294 OA
BRANCH  11  13
ATOM     13  C   UNL     1     -11.493 -18.463  29.695  1.00  0.00    -0.002 C 
ATOM     14  C   UNL     1     -12.304 -19.531  29.967  1.00  0.00    -0.069 C 
ATOM     15  C   UNL     1     -12.948 -20.343  28.864  1.00  0.00     0.039 C 
ATOM     16  C   UNL     1     -12.563 -19.994  31.385  1.00  0.00     0.039 C 
BRANCH  13  17
ATOM     17  C   UNL     1     -11.175 -18.077  28.251  1.00  0.00     0.066 CG0
ATOM     18  G   UNL     1     -12.388 -17.546  27.523  1.00  0.00     0.000 G0
ENDBRANCH  13  17
ENDBRANCH  11  13
ENDBRANCH  10  11
ENDBRANCH   1  10
TORSDOF 0
ENDMDL
MODEL 3
REMARK VINA RESULT:    -5.467      1.701      3.917
REMARK INTER + INTRA:          -7.056
REMARK INTER:                  -7.347
REMARK INTRA:                   0.290
REMARK UNBOUND:                 0.648
REMARK SMILES CC1=CCC(=C(C)C)C(=O)CC(C)=CCC1
REMARK SMILES IDX 12 1 14 2 13 3 15 4 16 5 2 6 1 7 3 8 11 10 9 11 10 12 5 13
REMARK SMILES IDX 6 14 7 15 8 16 4 17
REMARK H PARENT
REMARK Flexibility Score: 60.00
ROOT
ATOM      1  C   UNL     1     -13.849 -14.326  28.649  1.00  0.00    -0.070 C 
ATOM      2  C   UNL     1     -14.005 -14.612  27.329  1.00  0.00    -0.027 C 
ATOM      3  C   UNL     1     -14.824 -13.379  29.302  1.00  0.00     0.039 C 
ENDROOT
BRANCH   2   4
ATOM      4  C   UNL     1     -13.187 -15.602  26.535  1.00  0.00     0.032 C 
BRANCH   4   5
ATOM      5  C   UNL     1     -13.332 -17.047  27.031  1.00  0.00     0.034 C 
BRANCH   5   6
ATOM      6  C   UNL     1     -11.966 -17.652  27.291  1.00  0.00    -0.077 C 
ATOM      7  C   UNL     1     -10.972 -17.684  26.158  1.00  0.00     0.039 C 
ATOM      8  C   UNL     1     -11.619 -18.234  28.463  1.00  0.00    -0.023 CG0
ATOM      9  G   UNL     1     -12.470 -18.287  29.709  1.00  0.00     0.000 G0
ENDBRANCH   5   6
ENDBRANCH   4   5
ENDBRANCH   2   4
BRANCH   1  10
ATOM     10  C   UNL     1     -12.665 -14.782  29.492  1.00  0.00     0.111 C 
BRANCH  10  11
ATOM     11  C   UNL     1     -13.006 -15.858  30.493  1.00  0.00     0.163 C 
ATOM     12  O   UNL     1     -13.992 -15.657  31.254  1.00  0.00    -0.294 OA
BRANCH  11  13
ATOM     13  C   UNL     1     -12.192 -17.109  30.647  1.00  0.00    -0.002 C 
ATOM     14  C   UNL     1     -11.256 -17.216  31.641  1.00  0.00    -0.069 C 
ATOM     15  C   UNL     1     -10.490 -18.500  31.879  1.00  0.00     0.039 C 
ATOM     16  C   UNL     1     -10.895 -16.041  32.525  1.00  0.00     0.039 C 
BRANCH  13  17
ATOM     17  C   UNL     1     -12.466 -18.284  29.711  1.00  0.00     0.066 CG0
ATOM     18  G   UNL     1     -11.612 -18.233  28.466  1.00  0.00     0.000 G0
ENDBRANCH  13  17
ENDBRANCH  11  13
ENDBRANCH  10  11
ENDBRANCH   1  10
TORSDOF 0
ENDMDL
MODEL 4
REMARK VINA RESULT:    -5.345      1.601      3.412
REMARK INTER + INTRA:          -6.885
REMARK INTER:                  -7.111
REMARK INTRA:                   0.226
REMARK UNBOUND:                 0.648
REMARK SMILES CC1=CCC(=C(C)C)C(=O)CC(C)=CCC1
REMARK SMILES IDX 12 1 14 2 13 3 15 4 16 5 2 6 1 7 3 8 11 10 9 11 10 12 5 13
REMARK SMILES IDX 6 14 7 15 8 16 4 17
REMARK H PARENT
REMARK Flexibility Score: 60.00
ROOT
ATOM      1  C   UNL     1     -12.737 -19.615  29.371  1.00  0.00    -0.070 C 
ATOM      2  C   UNL     1     -13.261 -19.552  30.623  1.00  0.00    -0.027 C 
ATOM      3  C   UNL     1     -13.569 -20.224  28.270  1.00  0.00     0.039 C 
ENDROOT
BRANCH   2   4
ATOM      4  C   UNL     1     -12.616 -18.897  31.821  1.00  0.00     0.032 C 
BRANCH   4   5
ATOM      5  C   UNL     1     -13.249 -17.549  32.191  1.00  0.00     0.034 C 
BRANCH   5   6
ATOM      6  C   UNL     1     -12.312 -16.412  31.829  1.00  0.00    -0.077 C 
ATOM      7  C   UNL     1     -11.410 -15.860  32.903  1.00  0.00     0.039 C 
ATOM      8  C   UNL     1     -12.297 -15.817  30.614  1.00  0.00    -0.023 CG0
ATOM      9  G   UNL     1     -13.114 -16.237  29.415  1.00  0.00     0.000 G0
ENDBRANCH   5   6
ENDBRANCH   4   5
ENDBRANCH   2   4
BRANCH   1  10
ATOM     10  C   UNL     1     -11.302 -19.243  29.021  1.00  0.00     0.111 C 
BRANCH  10  11
ATOM     11  C   UNL     1     -11.101 -17.773  28.744  1.00  0.00     0.163 C 
ATOM     12  O   UNL     1      -9.949 -17.296  28.931  1.00  0.00    -0.294 OA
BRANCH  11  13
ATOM     13  C   UNL     1     -12.220 -16.868  28.319  1.00  0.00    -0.002 C 
ATOM     14  C   UNL     1     -12.483 -16.656  26.992  1.00  0.00    -0.069 C 
ATOM     15  C   UNL     1     -13.665 -15.827  26.537  1.00  0.00     0.039 C 
ATOM     16  C   UNL     1     -11.578 -17.196  25.905  1.00  0.00     0.039 C 
BRANCH  13  17
ATOM     17  C   UNL     1     -13.099 -16.233  29.395  1.00  0.00     0.066 CG0
ATOM     18  G   UNL     1     -12.303 -15.821  30.612  1.00  0.00     0.000 G0
ENDBRANCH  13  17
ENDBRANCH  11  13
ENDBRANCH  10  11
ENDBRANCH   1  10
TORSDOF 0
ENDMDL
MODEL 5
REMARK VINA RESULT:    -5.295      2.124      2.733
REMARK INTER + INTRA:          -6.814
REMARK INTER:                  -7.205
REMARK INTRA:                   0.391
REMARK UNBOUND:                 0.648
REMARK SMILES CC1=CCC(=C(C)C)C(=O)CC(C)=CCC1
REMARK SMILES IDX 12 1 14 2 13 3 15 4 16 5 2 6 1 7 3 8 11 10 9 11 10 12 5 13
REMARK SMILES IDX 6 14 7 15 8 16 4 17
REMARK H PARENT
REMARK Flexibility Score: 60.00
ROOT
ATOM      1  C   UNL     1     -13.694 -15.387  31.215  1.00  0.00    -0.070 C 
ATOM      2  C   UNL     1     -13.023 -15.674  32.362  1.00  0.00    -0.027 C 
ATOM      3  C   UNL     1     -14.751 -14.312  31.248  1.00  0.00     0.039 C 
ENDROOT
BRANCH   2   4
ATOM      4  C   UNL     1     -11.876 -16.647  32.497  1.00  0.00     0.032 C 
BRANCH   4   5
ATOM      5  C   UNL     1     -10.688 -16.317  31.584  1.00  0.00     0.034 C 
BRANCH   5   6
ATOM      6  C   UNL     1     -10.316 -17.527  30.749  1.00  0.00    -0.077 C 
ATOM      7  C   UNL     1     -10.090 -18.839  31.454  1.00  0.00     0.039 C 
ATOM      8  C   UNL     1     -10.101 -17.473  29.414  1.00  0.00    -0.023 CG0
ATOM      9  G   UNL     1     -10.290 -16.258  28.537  1.00  0.00     0.000 G0
ENDBRANCH   5   6
ENDBRANCH   4   5
ENDBRANCH   2   4
BRANCH   1  10
ATOM     10  C   UNL     1     -13.557 -16.177  29.920  1.00  0.00     0.111 C 
BRANCH  10  11
ATOM     11  C   UNL     1     -12.778 -15.460  28.846  1.00  0.00     0.163 C 
ATOM     12  O   UNL     1     -13.061 -14.250  28.628  1.00  0.00    -0.294 OA
BRANCH  11  13
ATOM     13  C   UNL     1     -11.738 -16.143  28.006  1.00  0.00    -0.002 C 
ATOM     14  C   UNL     1     -12.050 -16.623  26.762  1.00  0.00    -0.069 C 
ATOM     15  C   UNL     1     -10.998 -17.228  25.856  1.00  0.00     0.039 C 
ATOM     16  C   UNL     1     -13.471 -16.624  26.241  1.00  0.00     0.039 C 
BRANCH  13  17
ATOM     17  C   UNL     1     -10.311 -16.241  28.541  1.00  0.00     0.066 CG0
ATOM     18  G   UNL     1     -10.111 -17.459  29.411  1.00  0.00     0.000 G0
ENDBRANCH  13  17
ENDBRANCH  11  13
ENDBRANCH  10  11
ENDBRANCH   1  10
TORSDOF 0
ENDMDL
MODEL 6
REMARK VINA RESULT:    -5.273      1.927      3.386
REMARK INTER + INTRA:          -6.782
REMARK INTER:                  -7.641
REMARK INTRA:                   0.859
REMARK UNBOUND:                 0.648
REMARK SMILES CC1=CCC(=C(C)C)C(=O)CC(C)=CCC1
REMARK SMILES IDX 12 1 14 2 13 3 15 4 16 5 2 6 1 7 3 8 11 10 9 11 10 12 5 13
REMARK SMILES IDX 6 14 7 15 8 16 4 17
REMARK H PARENT
REMARK Flexibility Score: 60.00
ROOT
ATOM      1  C   UNL     1     -10.688 -16.891  28.230  1.00  0.00    -0.070 C 
ATOM      2  C   UNL     1     -10.076 -17.667  29.163  1.00  0.00    -0.027 C 
ATOM      3  C   UNL     1     -10.656 -17.336  26.789  1.00  0.00     0.039 C 
ENDROOT
BRANCH   2   4
ATOM      4  C   UNL     1     -10.085 -17.431  30.655  1.00  0.00     0.032 C 
BRANCH   4   5
ATOM      5  C   UNL     1     -10.768 -18.555  31.444  1.00  0.00     0.034 C 
BRANCH   5   6
ATOM      6  C   UNL     1     -12.164 -18.801  30.905  1.00  0.00    -0.077 C 
ATOM      7  C   UNL     1     -12.503 -20.181  30.402  1.00  0.00     0.039 C 
ATOM      8  C   UNL     1     -13.097 -17.829  30.780  1.00  0.00    -0.023 CG0
ATOM      9  G   UNL     1     -12.947 -16.397  31.239  1.00  0.00     0.000 G0
ENDBRANCH   5   6
ENDBRANCH   4   5
ENDBRANCH   2   4
BRANCH   1  10
ATOM     10  C   UNL     1     -11.285 -15.519  28.511  1.00  0.00     0.111 C 
BRANCH  10  11
ATOM     11  C   UNL     1     -12.771 -15.540  28.770  1.00  0.00     0.163 C 
ATOM     12  O   UNL     1     -13.537 -15.638  27.773  1.00  0.00    -0.294 OA
BRANCH  11  13
ATOM     13  C   UNL     1     -13.357 -15.394  30.145  1.00  0.00    -0.002 C 
ATOM     14  C   UNL     1     -14.283 -14.421  30.410  1.00  0.00    -0.069 C 
ATOM     15  C   UNL     1     -14.960 -14.314  31.759  1.00  0.00     0.039 C 
ATOM     16  C   UNL     1     -14.645 -13.365  29.387  1.00  0.00     0.039 C 
BRANCH  13  17
ATOM     17  C   UNL     1     -12.943 -16.388  31.228  1.00  0.00     0.066 CG0
ATOM     18  G   UNL     1     -13.101 -17.821  30.777  1.00  0.00     0.000 G0
ENDBRANCH  13  17
ENDBRANCH  11  13
ENDBRANCH  10  11
ENDBRANCH   1  10
TORSDOF 0
ENDMDL
MODEL 7
REMARK VINA RESULT:    -5.162      1.989      4.942
REMARK INTER + INTRA:          -6.626
REMARK INTER:                  -6.901
REMARK INTRA:                   0.274
REMARK UNBOUND:                 0.648
REMARK SMILES CC1=CCC(=C(C)C)C(=O)CC(C)=CCC1
REMARK SMILES IDX 12 1 14 2 13 3 15 4 16 5 2 6 1 7 3 8 11 10 9 11 10 12 5 13
REMARK SMILES IDX 6 14 7 15 8 16 4 17
REMARK H PARENT
REMARK Flexibility Score: 60.00
ROOT
ATOM      1  C   UNL     1     -12.201 -17.014  26.791  1.00  0.00    -0.070 C 
ATOM      2  C   UNL     1     -12.803 -15.874  26.360  1.00  0.00    -0.027 C 
ATOM      3  C   UNL     1     -11.004 -17.530  26.031  1.00  0.00     0.039 C 
ENDROOT
BRANCH   2   4
ATOM      4  C   UNL     1     -13.946 -15.163  27.044  1.00  0.00     0.032 C 
BRANCH   4   5
ATOM      5  C   UNL     1     -13.486 -14.117  28.068  1.00  0.00     0.034 C 
BRANCH   5   6
ATOM      6  C   UNL     1     -14.264 -14.271  29.361  1.00  0.00    -0.077 C 
ATOM      7  C   UNL     1     -15.622 -13.625  29.459  1.00  0.00     0.039 C 
ATOM      8  C   UNL     1     -13.772 -14.893  30.458  1.00  0.00    -0.023 CG0
ATOM      9  G   UNL     1     -12.444 -15.608  30.546  1.00  0.00     0.000 G0
ENDBRANCH   5   6
ENDBRANCH   4   5
ENDBRANCH   2   4
BRANCH   1  10
ATOM     10  C   UNL     1     -12.736 -17.897  27.910  1.00  0.00     0.111 C 
BRANCH  10  11
ATOM     11  C   UNL     1     -11.971 -17.776  29.205  1.00  0.00     0.163 C 
ATOM     12  O   UNL     1     -10.824 -18.299  29.256  1.00  0.00    -0.294 OA
BRANCH  11  13
ATOM     13  C   UNL     1     -12.542 -17.117  30.426  1.00  0.00    -0.002 C 
ATOM     14  C   UNL     1     -13.101 -17.866  31.427  1.00  0.00    -0.069 C 
ATOM     15  C   UNL     1     -13.596 -17.235  32.711  1.00  0.00     0.039 C 
ATOM     16  C   UNL     1     -13.303 -19.359  31.287  1.00  0.00     0.039 C 
BRANCH  13  17
ATOM     17  C   UNL     1     -12.437 -15.599  30.558  1.00  0.00     0.066 CG0
ATOM     18  G   UNL     1     -13.784 -14.923  30.452  1.00  0.00     0.000 G0
ENDBRANCH  13  17
ENDBRANCH  11  13
ENDBRANCH  10  11
ENDBRANCH   1  10
TORSDOF 0
ENDMDL
MODEL 8
REMARK VINA RESULT:    -4.860      1.817      4.703
REMARK INTER + INTRA:          -6.202
REMARK INTER:                  -6.549
REMARK INTRA:                   0.347
REMARK UNBOUND:                 0.648
REMARK SMILES CC1=CCC(=C(C)C)C(=O)CC(C)=CCC1
REMARK SMILES IDX 12 1 14 2 13 3 15 4 16 5 2 6 1 7 3 8 11 10 9 11 10 12 5 13
REMARK SMILES IDX 6 14 7 15 8 16 4 17
REMARK H PARENT
REMARK Flexibility Score: 60.00
ROOT
ATOM      1  C   UNL     1     -13.459 -16.172  27.107  1.00  0.00    -0.070 C 
ATOM      2  C   UNL     1     -13.770 -14.953  27.620  1.00  0.00    -0.027 C 
ATOM      3  C   UNL     1     -13.101 -16.270  25.645  1.00  0.00     0.039 C 
ENDROOT
BRANCH   2   4
ATOM      4  C   UNL     1     -14.061 -14.651  29.070  1.00  0.00     0.032 C 
BRANCH   4   5
ATOM      5  C   UNL     1     -12.872 -14.928  30.000  1.00  0.00     0.034 C 
BRANCH   5   6
ATOM      6  C   UNL     1     -13.339 -15.654  31.247  1.00  0.00    -0.077 C 
ATOM      7  C   UNL     1     -14.430 -15.023  32.074  1.00  0.00     0.039 C 
ATOM      8  C   UNL     1     -12.775 -16.798  31.699  1.00  0.00    -0.023 CG0
ATOM      9  G   UNL     1     -11.687 -17.581  31.003  1.00  0.00     0.000 G0
ENDBRANCH   5   6
ENDBRANCH   4   5
ENDBRANCH   2   4
BRANCH   1  10
ATOM     10  C   UNL     1     -13.585 -17.484  27.871  1.00  0.00     0.111 C 
BRANCH  10  11
ATOM     11  C   UNL     1     -12.296 -17.949  28.503  1.00  0.00     0.163 C 
ATOM     12  O   UNL     1     -11.253 -17.918  27.794  1.00  0.00    -0.294 OA
BRANCH  11  13
ATOM     13  C   UNL     1     -12.229 -18.492  29.900  1.00  0.00    -0.002 C 
ATOM     14  C   UNL     1     -12.601 -19.783  30.168  1.00  0.00    -0.069 C 
ATOM     15  C   UNL     1     -12.450 -20.384  31.549  1.00  0.00     0.039 C 
ATOM     16  C   UNL     1     -13.231 -20.665  29.112  1.00  0.00     0.039 C 
BRANCH  13  17
ATOM     17  C   UNL     1     -11.682 -17.596  31.010  1.00  0.00     0.066 CG0
ATOM     18  G   UNL     1     -12.774 -16.812  31.699  1.00  0.00     0.000 G0
ENDBRANCH  13  17
ENDBRANCH  11  13
ENDBRANCH  10  11
ENDBRANCH   1  10
TORSDOF 0
ENDMDL
MODEL 9
REMARK VINA RESULT:    -4.804      1.808      3.447
REMARK INTER + INTRA:          -6.123
REMARK INTER:                  -6.488
REMARK INTRA:                   0.365
REMARK UNBOUND:                 0.648
REMARK SMILES CC1=CCC(=C(C)C)C(=O)CC(C)=CCC1
REMARK SMILES IDX 12 1 14 2 13 3 15 4 16 5 2 6 1 7 3 8 11 10 9 11 10 12 5 13
REMARK SMILES IDX 6 14 7 15 8 16 4 17
REMARK H PARENT
REMARK Flexibility Score: 60.00
ROOT
ATOM      1  C   UNL     1     -12.849 -19.166  29.760  1.00  0.00    -0.070 C 
ATOM      2  C   UNL     1     -11.804 -19.584  30.523  1.00  0.00    -0.027 C 
ATOM      3  C   UNL     1     -13.254 -20.001  28.571  1.00  0.00     0.039 C 
ENDROOT
BRANCH   2   4
ATOM      4  C   UNL     1     -11.319 -18.932  31.795  1.00  0.00     0.032 C 
BRANCH   4   5
ATOM      5  C   UNL     1      -9.920 -18.316  31.668  1.00  0.00     0.034 C 
BRANCH   5   6
ATOM      6  C   UNL     1     -10.021 -16.810  31.520  1.00  0.00    -0.077 C 
ATOM      7  C   UNL     1     -10.003 -15.967  32.769  1.00  0.00     0.039 C 
ATOM      8  C   UNL     1     -10.204 -16.188  30.332  1.00  0.00    -0.023 CG0
ATOM      9  G   UNL     1     -10.234 -16.860  28.979  1.00  0.00     0.000 G0
ENDBRANCH   5   6
ENDBRANCH   4   5
ENDBRANCH   2   4
BRANCH   1  10
ATOM     10  C   UNL     1     -13.556 -17.828  29.933  1.00  0.00     0.111 C 
BRANCH  10  11
ATOM     11  C   UNL     1     -12.833 -16.667  29.297  1.00  0.00     0.163 C 
ATOM     12  O   UNL     1     -13.272 -15.508  29.528  1.00  0.00    -0.294 OA
BRANCH  11  13
ATOM     13  C   UNL     1     -11.666 -16.849  28.370  1.00  0.00    -0.002 C 
ATOM     14  C   UNL     1     -11.857 -16.954  27.018  1.00  0.00    -0.069 C 
ATOM     15  C   UNL     1     -10.693 -17.039  26.054  1.00  0.00     0.039 C 
ATOM     16  C   UNL     1     -13.242 -17.042  26.414  1.00  0.00     0.039 C 
BRANCH  13  17
ATOM     17  C   UNL     1     -10.256 -16.856  28.958  1.00  0.00     0.066 CG0
ATOM     18  G   UNL     1     -10.199 -16.188  30.311  1.00  0.00     0.000 G0
ENDBRANCH  13  17
ENDBRANCH  11  13
ENDBRANCH  10  11
ENDBRANCH   1  10
TORSDOF 0
ENDMDL
