MODEL 1
REMARK VINA RESULT:    -8.747      0.000      0.000
REMARK INTER + INTRA:         -10.496
REMARK INTER:                 -10.281
REMARK INTRA:                  -0.216
REMARK UNBOUND:                -0.216
REMARK SMILES O=c1c(O)c(-c2ccc(O)cc2)oc2cc(O)cc(O)c12
REMARK SMILES IDX 5 1 3 2 2 3 1 4 21 5 19 6 18 7 16 8 15 9 14 10 13 11 6 12
REMARK SMILES IDX 7 13 8 14 9 15 12 16 11 17 10 18 4 20 20 22 17 24
REMARK H PARENT 10 19 4 21 20 23 17 25
REMARK Flexibility Score: inf
ROOT
ATOM      1  C   UNL     1     111.165 111.648 109.525  1.00  0.00     0.180 A 
ATOM      2  C   UNL     1     112.304 112.180 108.896  1.00  0.00     0.208 A 
ATOM      3  C   UNL     1     112.474 111.984 107.516  1.00  0.00     0.238 A 
ATOM      4  O   UNL     1     113.524 112.416 106.970  1.00  0.00    -0.285 OA
ATOM      5  C   UNL     1     111.497 111.273 106.779  1.00  0.00     0.111 A 
ATOM      6  C   UNL     1     111.548 111.050 105.370  1.00  0.00     0.134 A 
ATOM      7  C   UNL     1     110.593 110.222 104.768  1.00  0.00     0.093 A 
ATOM      8  C   UNL     1     109.552 109.662 105.512  1.00  0.00     0.123 A 
ATOM      9  C   UNL     1     109.460 109.922 106.877  1.00  0.00     0.094 A 
ATOM     10  C   UNL     1     110.418 110.716 107.514  1.00  0.00     0.146 A 
ATOM     11  O   UNL     1     110.299 110.931 108.818  1.00  0.00    -0.452 OA
ENDROOT
BRANCH   1  12
ATOM     12  C   UNL     1     110.902 111.834 110.969  1.00  0.00     0.021 A 
ATOM     13  C   UNL     1     109.894 112.704 111.426  1.00  0.00     0.016 A 
ATOM     14  C   UNL     1     109.649 112.845 112.795  1.00  0.00     0.047 A 
ATOM     15  C   UNL     1     110.396 112.110 113.724  1.00  0.00     0.115 A 
ATOM     16  C   UNL     1     111.633 111.086 111.908  1.00  0.00     0.016 A 
ATOM     17  C   UNL     1     111.385 111.230 113.276  1.00  0.00     0.047 A 
BRANCH  15  18
ATOM     18  O   UNL     1     110.161 112.245 115.090  1.00  0.00    -0.508 OA
ATOM     19  H   UNL     1     110.013 113.152 115.515  1.00  0.00     0.293 HD
ENDBRANCH  15  18
ENDBRANCH   1  12
BRANCH   2  20
ATOM     20  O   UNL     1     113.267 112.860 109.647  1.00  0.00    -0.502 OA
ATOM     21  H   UNL     1     113.077 113.746 110.099  1.00  0.00     0.293 HD
ENDBRANCH   2  20
BRANCH   6  22
ATOM     22  O   UNL     1     112.491 111.636 104.521  1.00  0.00    -0.507 OA
ATOM     23  H   UNL     1     113.434 111.877 104.788  1.00  0.00     0.293 HD
ENDBRANCH   6  22
BRANCH   8  24
ATOM     24  O   UNL     1     108.597 108.852 104.901  1.00  0.00    -0.508 OA
ATOM     25  H   UNL     1     107.638 108.826 105.227  1.00  0.00     0.293 HD
ENDBRANCH   8  24
TORSDOF 5
ENDMDL
MODEL 2
REMARK VINA RESULT:    -8.714      1.326      3.169
REMARK INTER + INTRA:         -10.458
REMARK INTER:                 -10.171
REMARK INTRA:                  -0.288
REMARK UNBOUND:                -0.216
REMARK SMILES O=c1c(O)c(-c2ccc(O)cc2)oc2cc(O)cc(O)c12
REMARK SMILES IDX 5 1 3 2 2 3 1 4 21 5 19 6 18 7 16 8 15 9 14 10 13 11 6 12
REMARK SMILES IDX 7 13 8 14 9 15 12 16 11 17 10 18 4 20 20 22 17 24
REMARK H PARENT 10 19 4 21 20 23 17 25
REMARK Flexibility Score: inf
ROOT
ATOM      1  C   UNL     1     110.691 110.986 109.509  1.00  0.00     0.180 A 
ATOM      2  C   UNL     1     109.740 110.219 108.813  1.00  0.00     0.208 A 
ATOM      3  C   UNL     1     109.785 110.189 107.410  1.00  0.00     0.238 A 
ATOM      4  O   UNL     1     108.897 109.544 106.791  1.00  0.00    -0.285 OA
ATOM      5  C   UNL     1     110.788 110.912 106.721  1.00  0.00     0.111 A 
ATOM      6  C   UNL     1     110.952 110.921 105.303  1.00  0.00     0.134 A 
ATOM      7  C   UNL     1     111.896 111.774 104.722  1.00  0.00     0.093 A 
ATOM      8  C   UNL     1     112.728 112.571 105.512  1.00  0.00     0.123 A 
ATOM      9  C   UNL     1     112.617 112.526 106.899  1.00  0.00     0.094 A 
ATOM     10  C   UNL     1     111.659 111.710 107.507  1.00  0.00     0.146 A 
ATOM     11  O   UNL     1     111.579 111.704 108.831  1.00  0.00    -0.452 OA
ENDROOT
BRANCH   1  12
ATOM     12  C   UNL     1     110.724 111.047 110.988  1.00  0.00     0.021 A 
ATOM     13  C   UNL     1     111.557 110.196 111.739  1.00  0.00     0.016 A 
ATOM     14  C   UNL     1     111.589 110.290 113.134  1.00  0.00     0.047 A 
ATOM     15  C   UNL     1     110.803 111.242 113.794  1.00  0.00     0.115 A 
ATOM     16  C   UNL     1     109.954 112.013 111.658  1.00  0.00     0.016 A 
ATOM     17  C   UNL     1     109.989 112.103 113.052  1.00  0.00     0.047 A 
BRANCH  15  18
ATOM     18  O   UNL     1     110.826 111.342 115.183  1.00  0.00    -0.508 OA
ATOM     19  H   UNL     1     111.081 110.554 115.767  1.00  0.00     0.293 HD
ENDBRANCH  15  18
ENDBRANCH   1  12
BRANCH   2  20
ATOM     20  O   UNL     1     108.745 109.530 109.513  1.00  0.00    -0.502 OA
ATOM     21  H   UNL     1     107.818 109.382 109.133  1.00  0.00     0.293 HD
ENDBRANCH   2  20
BRANCH   6  22
ATOM     22  O   UNL     1     110.236 110.095 104.430  1.00  0.00    -0.507 OA
ATOM     23  H   UNL     1     110.440 109.122 104.261  1.00  0.00     0.293 HD
ENDBRANCH   6  22
BRANCH   8  24
ATOM     24  O   UNL     1     113.677 113.408 104.926  1.00  0.00    -0.508 OA
ATOM     25  H   UNL     1     114.285 113.080 104.184  1.00  0.00     0.293 HD
ENDBRANCH   8  24
TORSDOF 5
ENDMDL
MODEL 3
REMARK VINA RESULT:    -8.690      3.025      5.096
REMARK INTER + INTRA:         -10.430
REMARK INTER:                 -10.166
REMARK INTRA:                  -0.265
REMARK UNBOUND:                -0.216
REMARK SMILES O=c1c(O)c(-c2ccc(O)cc2)oc2cc(O)cc(O)c12
REMARK SMILES IDX 5 1 3 2 2 3 1 4 21 5 19 6 18 7 16 8 15 9 14 10 13 11 6 12
REMARK SMILES IDX 7 13 8 14 9 15 12 16 11 17 10 18 4 20 20 22 17 24
REMARK H PARENT 10 19 4 21 20 23 17 25
REMARK Flexibility Score: inf
ROOT
ATOM      1  C   UNL     1     111.576 111.285 114.556  1.00  0.00     0.180 A 
ATOM      2  C   UNL     1     112.566 111.996 113.855  1.00  0.00     0.208 A 
ATOM      3  C   UNL     1     112.524 112.018 112.452  1.00  0.00     0.238 A 
ATOM      4  O   UNL     1     113.445 112.610 111.830  1.00  0.00    -0.285 OA
ATOM      5  C   UNL     1     111.485 111.343 111.767  1.00  0.00     0.111 A 
ATOM      6  C   UNL     1     111.322 111.332 110.349  1.00  0.00     0.134 A 
ATOM      7  C   UNL     1     110.334 110.525 109.774  1.00  0.00     0.093 A 
ATOM      8  C   UNL     1     109.461 109.778 110.568  1.00  0.00     0.123 A 
ATOM      9  C   UNL     1     109.574 109.828 111.955  1.00  0.00     0.094 A 
ATOM     10  C   UNL     1     110.573 110.597 112.558  1.00  0.00     0.146 A 
ATOM     11  O   UNL     1     110.652 110.609 113.883  1.00  0.00    -0.452 OA
ENDROOT
BRANCH   1  12
ATOM     12  C   UNL     1     111.538 111.236 116.035  1.00  0.00     0.021 A 
ATOM     13  C   UNL     1     110.660 112.052 116.773  1.00  0.00     0.016 A 
ATOM     14  C   UNL     1     110.625 111.970 118.169  1.00  0.00     0.047 A 
ATOM     15  C   UNL     1     111.455 111.065 118.843  1.00  0.00     0.115 A 
ATOM     16  C   UNL     1     112.353 110.317 116.718  1.00  0.00     0.016 A 
ATOM     17  C   UNL     1     112.315 110.239 118.113  1.00  0.00     0.047 A 
BRANCH  15  18
ATOM     18  O   UNL     1     111.430 110.978 120.233  1.00  0.00    -0.508 OA
ATOM     19  H   UNL     1     110.748 110.405 120.715  1.00  0.00     0.293 HD
ENDBRANCH  15  18
ENDBRANCH   1  12
BRANCH   2  20
ATOM     20  O   UNL     1     113.595 112.637 114.551  1.00  0.00    -0.502 OA
ATOM     21  H   UNL     1     113.552 112.809 115.548  1.00  0.00     0.293 HD
ENDBRANCH   2  20
BRANCH   6  22
ATOM     22  O   UNL     1     112.081 112.113 109.471  1.00  0.00    -0.507 OA
ATOM     23  H   UNL     1     113.043 112.376 109.621  1.00  0.00     0.293 HD
ENDBRANCH   6  22
BRANCH   8  24
ATOM     24  O   UNL     1     108.470 108.989 109.987  1.00  0.00    -0.508 OA
ATOM     25  H   UNL     1     108.626 108.008 109.785  1.00  0.00     0.293 HD
ENDBRANCH   8  24
TORSDOF 5
ENDMDL
MODEL 4
REMARK VINA RESULT:    -8.683      2.316      4.592
REMARK INTER + INTRA:         -10.421
REMARK INTER:                 -10.232
REMARK INTRA:                  -0.189
REMARK UNBOUND:                -0.216
REMARK SMILES O=c1c(O)c(-c2ccc(O)cc2)oc2cc(O)cc(O)c12
REMARK SMILES IDX 5 1 3 2 2 3 1 4 21 5 19 6 18 7 16 8 15 9 14 10 13 11 6 12
REMARK SMILES IDX 7 13 8 14 9 15 12 16 11 17 10 18 4 20 20 22 17 24
REMARK H PARENT 10 19 4 21 20 23 17 25
REMARK Flexibility Score: inf
ROOT
ATOM      1  C   UNL     1     111.301 110.832 112.852  1.00  0.00     0.180 A 
ATOM      2  C   UNL     1     110.059 110.253 112.542  1.00  0.00     0.208 A 
ATOM      3  C   UNL     1     109.664 110.167 111.198  1.00  0.00     0.238 A 
ATOM      4  O   UNL     1     108.526 109.697 110.931  1.00  0.00    -0.285 OA
ATOM      5  C   UNL     1     110.523 110.644 110.179  1.00  0.00     0.111 A 
ATOM      6  C   UNL     1     110.243 110.570 108.781  1.00  0.00     0.134 A 
ATOM      7  C   UNL     1     111.105 111.191 107.870  1.00  0.00     0.093 A 
ATOM      8  C   UNL     1     112.271 111.827 108.301  1.00  0.00     0.123 A 
ATOM      9  C   UNL     1     112.585 111.854 109.658  1.00  0.00     0.094 A 
ATOM     10  C   UNL     1     111.725 111.273 110.595  1.00  0.00     0.146 A 
ATOM     11  O   UNL     1     112.056 111.329 111.879  1.00  0.00    -0.452 OA
ENDROOT
BRANCH   1  12
ATOM     12  C   UNL     1     111.798 110.937 114.243  1.00  0.00     0.021 A 
ATOM     13  C   UNL     1     112.147 109.793 114.985  1.00  0.00     0.016 A 
ATOM     14  C   UNL     1     112.636 109.918 116.289  1.00  0.00     0.047 A 
ATOM     15  C   UNL     1     112.796 111.186 116.862  1.00  0.00     0.115 A 
ATOM     16  C   UNL     1     111.981 112.205 114.819  1.00  0.00     0.016 A 
ATOM     17  C   UNL     1     112.470 112.326 116.123  1.00  0.00     0.047 A 
BRANCH  15  18
ATOM     18  O   UNL     1     113.281 111.322 118.161  1.00  0.00    -0.508 OA
ATOM     19  H   UNL     1     113.624 110.526 118.684  1.00  0.00     0.293 HD
ENDBRANCH  15  18
ENDBRANCH   1  12
BRANCH   2  20
ATOM     20  O   UNL     1     109.217 109.808 113.565  1.00  0.00    -0.502 OA
ATOM     21  H   UNL     1     109.412 108.974 114.105  1.00  0.00     0.293 HD
ENDBRANCH   2  20
BRANCH   6  22
ATOM     22  O   UNL     1     109.154 109.879 108.240  1.00  0.00    -0.507 OA
ATOM     23  H   UNL     1     108.587 110.209 107.474  1.00  0.00     0.293 HD
ENDBRANCH   6  22
BRANCH   8  24
ATOM     24  O   UNL     1     113.132 112.430 107.385  1.00  0.00    -0.508 OA
ATOM     25  H   UNL     1     113.186 113.438 107.293  1.00  0.00     0.293 HD
ENDBRANCH   8  24
TORSDOF 5
ENDMDL
MODEL 5
REMARK VINA RESULT:    -8.660      2.176      3.683
REMARK INTER + INTRA:         -10.395
REMARK INTER:                 -10.238
REMARK INTRA:                  -0.157
REMARK UNBOUND:                -0.216
REMARK SMILES O=c1c(O)c(-c2ccc(O)cc2)oc2cc(O)cc(O)c12
REMARK SMILES IDX 5 1 3 2 2 3 1 4 21 5 19 6 18 7 16 8 15 9 14 10 13 11 6 12
REMARK SMILES IDX 7 13 8 14 9 15 12 16 11 17 10 18 4 20 20 22 17 24
REMARK H PARENT 10 19 4 21 20 23 17 25
REMARK Flexibility Score: inf
ROOT
ATOM      1  C   UNL     1     110.874 111.399 113.104  1.00  0.00     0.180 A 
ATOM      2  C   UNL     1     112.142 111.934 112.816  1.00  0.00     0.208 A 
ATOM      3  C   UNL     1     112.559 112.013 111.478  1.00  0.00     0.238 A 
ATOM      4  O   UNL     1     113.717 112.443 111.231  1.00  0.00    -0.285 OA
ATOM      5  C   UNL     1     111.699 111.573 110.444  1.00  0.00     0.111 A 
ATOM      6  C   UNL     1     112.002 111.645 109.051  1.00  0.00     0.134 A 
ATOM      7  C   UNL     1     111.132 111.061 108.124  1.00  0.00     0.093 A 
ATOM      8  C   UNL     1     109.937 110.465 108.533  1.00  0.00     0.123 A 
ATOM      9  C   UNL     1     109.603 110.443 109.885  1.00  0.00     0.094 A 
ATOM     10  C   UNL     1     110.468 110.986 110.838  1.00  0.00     0.146 A 
ATOM     11  O   UNL     1     110.117 110.935 112.117  1.00  0.00    -0.452 OA
ENDROOT
BRANCH   1  12
ATOM     12  C   UNL     1     110.354 111.305 114.487  1.00  0.00     0.021 A 
ATOM     13  C   UNL     1     110.097 112.457 115.254  1.00  0.00     0.016 A 
ATOM     14  C   UNL     1     109.582 112.343 116.549  1.00  0.00     0.047 A 
ATOM     15  C   UNL     1     109.305 111.081 117.089  1.00  0.00     0.115 A 
ATOM     16  C   UNL     1     110.054 110.043 115.029  1.00  0.00     0.016 A 
ATOM     17  C   UNL     1     109.540 109.934 116.325  1.00  0.00     0.047 A 
BRANCH  15  18
ATOM     18  O   UNL     1     108.795 110.956 118.379  1.00  0.00    -0.508 OA
ATOM     19  H   UNL     1     108.850 111.717 119.046  1.00  0.00     0.293 HD
ENDBRANCH  15  18
ENDBRANCH   1  12
BRANCH   2  20
ATOM     20  O   UNL     1     112.984 112.342 113.854  1.00  0.00    -0.502 OA
ATOM     21  H   UNL     1     113.970 112.112 113.876  1.00  0.00     0.293 HD
ENDBRANCH   2  20
BRANCH   6  22
ATOM     22  O   UNL     1     113.124 112.299 108.530  1.00  0.00    -0.507 OA
ATOM     23  H   UNL     1     113.122 112.871 107.700  1.00  0.00     0.293 HD
ENDBRANCH   6  22
BRANCH   8  24
ATOM     24  O   UNL     1     109.068 109.900 107.601  1.00  0.00    -0.508 OA
ATOM     25  H   UNL     1     108.126 110.250 107.475  1.00  0.00     0.293 HD
ENDBRANCH   8  24
TORSDOF 5
ENDMDL
MODEL 6
REMARK VINA RESULT:    -8.642      3.169      6.069
REMARK INTER + INTRA:         -10.373
REMARK INTER:                 -10.118
REMARK INTRA:                  -0.255
REMARK UNBOUND:                -0.216
REMARK SMILES O=c1c(O)c(-c2ccc(O)cc2)oc2cc(O)cc(O)c12
REMARK SMILES IDX 5 1 3 2 2 3 1 4 21 5 19 6 18 7 16 8 15 9 14 10 13 11 6 12
REMARK SMILES IDX 7 13 8 14 9 15 12 16 11 17 10 18 4 20 20 22 17 24
REMARK H PARENT 10 19 4 21 20 23 17 25
REMARK Flexibility Score: inf
ROOT
ATOM      1  C   UNL     1     111.248 110.688 114.598  1.00  0.00     0.180 A 
ATOM      2  C   UNL     1     110.082 110.156 114.021  1.00  0.00     0.208 A 
ATOM      3  C   UNL     1     109.870 110.319 112.643  1.00  0.00     0.238 A 
ATOM      4  O   UNL     1     108.798 109.888 112.142  1.00  0.00    -0.285 OA
ATOM      5  C   UNL     1     110.832 110.997 111.857  1.00  0.00     0.111 A 
ATOM      6  C   UNL     1     110.738 111.185 110.444  1.00  0.00     0.134 A 
ATOM      7  C   UNL     1     111.683 111.984 109.790  1.00  0.00     0.093 A 
ATOM      8  C   UNL     1     112.755 112.548 110.486  1.00  0.00     0.123 A 
ATOM      9  C   UNL     1     112.888 112.321 111.854  1.00  0.00     0.094 A 
ATOM     10  C   UNL     1     111.941 111.558 112.541  1.00  0.00     0.146 A 
ATOM     11  O   UNL     1     112.100 111.375 113.846  1.00  0.00    -0.452 OA
ENDROOT
BRANCH   1  12
ATOM     12  C   UNL     1     111.555 110.535 116.039  1.00  0.00     0.021 A 
ATOM     13  C   UNL     1     112.491 109.587 116.492  1.00  0.00     0.016 A 
ATOM     14  C   UNL     1     112.782 109.478 117.856  1.00  0.00     0.047 A 
ATOM     15  C   UNL     1     112.154 110.322 118.780  1.00  0.00     0.115 A 
ATOM     16  C   UNL     1     110.944 111.391 116.971  1.00  0.00     0.016 A 
ATOM     17  C   UNL     1     111.238 111.279 118.333  1.00  0.00     0.047 A 
BRANCH  15  18
ATOM     18  O   UNL     1     112.435 110.220 120.141  1.00  0.00    -0.508 OA
ATOM     19  H   UNL     1     113.372 110.356 120.499  1.00  0.00     0.293 HD
ENDBRANCH  15  18
ENDBRANCH   1  12
BRANCH   2  20
ATOM     20  O   UNL     1     109.135 109.509 114.820  1.00  0.00    -0.502 OA
ATOM     21  H   UNL     1     108.140 109.664 114.716  1.00  0.00     0.293 HD
ENDBRANCH   2  20
BRANCH   6  22
ATOM     22  O   UNL     1     109.760 110.590 109.642  1.00  0.00    -0.507 OA
ATOM     23  H   UNL     1     109.947 110.061 108.804  1.00  0.00     0.293 HD
ENDBRANCH   6  22
BRANCH   8  24
ATOM     24  O   UNL     1     113.700 113.329 109.823  1.00  0.00    -0.508 OA
ATOM     25  H   UNL     1     114.647 113.424 110.172  1.00  0.00     0.293 HD
ENDBRANCH   8  24
TORSDOF 5
ENDMDL
MODEL 7
REMARK VINA RESULT:    -8.584      2.941      8.344
REMARK INTER + INTRA:         -10.306
REMARK INTER:                 -10.017
REMARK INTRA:                  -0.289
REMARK UNBOUND:                -0.216
REMARK SMILES O=c1c(O)c(-c2ccc(O)cc2)oc2cc(O)cc(O)c12
REMARK SMILES IDX 5 1 3 2 2 3 1 4 21 5 19 6 18 7 16 8 15 9 14 10 13 11 6 12
REMARK SMILES IDX 7 13 8 14 9 15 12 16 11 17 10 18 4 20 20 22 17 24
REMARK H PARENT 10 19 4 21 20 23 17 25
REMARK Flexibility Score: inf
ROOT
ATOM      1  C   UNL     1     111.171 111.342 113.585  1.00  0.00     0.180 A 
ATOM      2  C   UNL     1     112.378 111.930 114.001  1.00  0.00     0.208 A 
ATOM      3  C   UNL     1     112.689 111.952 115.370  1.00  0.00     0.238 A 
ATOM      4  O   UNL     1     113.746 112.528 115.740  1.00  0.00    -0.285 OA
ATOM      5  C   UNL     1     111.798 111.372 116.304  1.00  0.00     0.111 A 
ATOM      6  C   UNL     1     112.032 111.302 117.711  1.00  0.00     0.134 A 
ATOM      7  C   UNL     1     111.023 110.822 118.555  1.00  0.00     0.093 A 
ATOM      8  C   UNL     1     109.815 110.350 118.038  1.00  0.00     0.123 A 
ATOM      9  C   UNL     1     109.601 110.359 116.661  1.00  0.00     0.094 A 
ATOM     10  C   UNL     1     110.575 110.865 115.796  1.00  0.00     0.146 A 
ATOM     11  O   UNL     1     110.326 110.865 114.493  1.00  0.00    -0.452 OA
ENDROOT
BRANCH   1  12
ATOM     12  C   UNL     1     110.785 111.259 112.159  1.00  0.00     0.021 A 
ATOM     13  C   UNL     1     110.068 112.295 111.531  1.00  0.00     0.016 A 
ATOM     14  C   UNL     1     109.736 112.204 110.176  1.00  0.00     0.047 A 
ATOM     15  C   UNL     1     110.126 111.086 109.428  1.00  0.00     0.115 A 
ATOM     16  C   UNL     1     111.190 110.150 111.396  1.00  0.00     0.016 A 
ATOM     17  C   UNL     1     110.855 110.063 110.041  1.00  0.00     0.047 A 
BRANCH  15  18
ATOM     18  O   UNL     1     109.798 110.984 108.078  1.00  0.00    -0.508 OA
ATOM     19  H   UNL     1     109.106 111.590 107.654  1.00  0.00     0.293 HD
ENDBRANCH  15  18
ENDBRANCH   1  12
BRANCH   2  20
ATOM     20  O   UNL     1     113.233 112.516 113.063  1.00  0.00    -0.502 OA
ATOM     21  H   UNL     1     112.943 113.282 112.467  1.00  0.00     0.293 HD
ENDBRANCH   2  20
BRANCH   6  22
ATOM     22  O   UNL     1     113.238 111.661 118.320  1.00  0.00    -0.507 OA
ATOM     23  H   UNL     1     113.944 111.009 118.626  1.00  0.00     0.293 HD
ENDBRANCH   6  22
BRANCH   8  24
ATOM     24  O   UNL     1     108.822 109.860 118.884  1.00  0.00    -0.508 OA
ATOM     25  H   UNL     1     107.931 110.333 118.984  1.00  0.00     0.293 HD
ENDBRANCH   8  24
TORSDOF 5
ENDMDL
MODEL 8
REMARK VINA RESULT:    -8.583      2.962      8.863
REMARK INTER + INTRA:         -10.304
REMARK INTER:                 -10.011
REMARK INTRA:                  -0.294
REMARK UNBOUND:                -0.216
REMARK SMILES O=c1c(O)c(-c2ccc(O)cc2)oc2cc(O)cc(O)c12
REMARK SMILES IDX 5 1 3 2 2 3 1 4 21 5 19 6 18 7 16 8 15 9 14 10 13 11 6 12
REMARK SMILES IDX 7 13 8 14 9 15 12 16 11 17 10 18 4 20 20 22 17 24
REMARK H PARENT 10 19 4 21 20 23 17 25
REMARK Flexibility Score: inf
ROOT
ATOM      1  C   UNL     1     111.036 111.066 113.649  1.00  0.00     0.180 A 
ATOM      2  C   UNL     1     109.863 110.397 114.041  1.00  0.00     0.208 A 
ATOM      3  C   UNL     1     109.564 110.292 115.408  1.00  0.00     0.238 A 
ATOM      4  O   UNL     1     108.540 109.644 115.755  1.00  0.00    -0.285 OA
ATOM      5  C   UNL     1     110.431 110.869 116.366  1.00  0.00     0.111 A 
ATOM      6  C   UNL     1     110.205 110.857 117.776  1.00  0.00     0.134 A 
ATOM      7  C   UNL     1     111.194 111.345 118.638  1.00  0.00     0.093 A 
ATOM      8  C   UNL     1     112.373 111.904 118.139  1.00  0.00     0.123 A 
ATOM      9  C   UNL     1     112.577 111.974 116.763  1.00  0.00     0.094 A 
ATOM     10  C   UNL     1     111.623 111.463 115.878  1.00  0.00     0.146 A 
ATOM     11  O   UNL     1     111.861 111.541 114.575  1.00  0.00    -0.452 OA
ENDROOT
BRANCH   1  12
ATOM     12  C   UNL     1     111.406 111.240 112.227  1.00  0.00     0.021 A 
ATOM     13  C   UNL     1     110.897 112.306 111.461  1.00  0.00     0.016 A 
ATOM     14  C   UNL     1     111.281 112.464 110.126  1.00  0.00     0.047 A 
ATOM     15  C   UNL     1     112.187 111.569 109.543  1.00  0.00     0.115 A 
ATOM     16  C   UNL     1     112.331 110.360 111.640  1.00  0.00     0.016 A 
ATOM     17  C   UNL     1     112.712 110.521 110.304  1.00  0.00     0.047 A 
BRANCH  15  18
ATOM     18  O   UNL     1     112.574 111.716 108.213  1.00  0.00    -0.508 OA
ATOM     19  H   UNL     1     111.983 112.186 107.538  1.00  0.00     0.293 HD
ENDBRANCH  15  18
ENDBRANCH   1  12
BRANCH   2  20
ATOM     20  O   UNL     1     109.032 109.815 113.079  1.00  0.00    -0.502 OA
ATOM     21  H   UNL     1     108.110 110.177 112.867  1.00  0.00     0.293 HD
ENDBRANCH   2  20
BRANCH   6  22
ATOM     22  O   UNL     1     109.023 110.407 118.373  1.00  0.00    -0.507 OA
ATOM     23  H   UNL     1     108.437 110.961 118.978  1.00  0.00     0.293 HD
ENDBRANCH   6  22
BRANCH   8  24
ATOM     24  O   UNL     1     113.346 112.401 119.004  1.00  0.00    -0.508 OA
ATOM     25  H   UNL     1     113.708 113.343 118.908  1.00  0.00     0.293 HD
ENDBRANCH   8  24
TORSDOF 5
ENDMDL
MODEL 9
REMARK VINA RESULT:    -8.474      1.699      6.512
REMARK INTER + INTRA:         -10.176
REMARK INTER:                  -9.879
REMARK INTRA:                  -0.297
REMARK UNBOUND:                -0.216
REMARK SMILES O=c1c(O)c(-c2ccc(O)cc2)oc2cc(O)cc(O)c12
REMARK SMILES IDX 5 1 3 2 2 3 1 4 21 5 19 6 18 7 16 8 15 9 14 10 13 11 6 12
REMARK SMILES IDX 7 13 8 14 9 15 12 16 11 17 10 18 4 20 20 22 17 24
REMARK H PARENT 10 19 4 21 20 23 17 25
REMARK Flexibility Score: inf
ROOT
ATOM      1  C   UNL     1     111.228 111.242 108.960  1.00  0.00     0.180 A 
ATOM      2  C   UNL     1     112.406 111.871 109.401  1.00  0.00     0.208 A 
ATOM      3  C   UNL     1     112.691 111.895 110.775  1.00  0.00     0.238 A 
ATOM      4  O   UNL     1     113.720 112.507 111.168  1.00  0.00    -0.285 OA
ATOM      5  C   UNL     1     111.806 111.276 111.690  1.00  0.00     0.111 A 
ATOM      6  C   UNL     1     112.016 111.205 113.101  1.00  0.00     0.134 A 
ATOM      7  C   UNL     1     111.011 110.684 113.923  1.00  0.00     0.093 A 
ATOM      8  C   UNL     1     109.830 110.172 113.382  1.00  0.00     0.123 A 
ATOM      9  C   UNL     1     109.640 110.182 112.002  1.00  0.00     0.094 A 
ATOM     10  C   UNL     1     110.611 110.728 111.157  1.00  0.00     0.146 A 
ATOM     11  O   UNL     1     110.386 110.728 109.849  1.00  0.00    -0.452 OA
ENDROOT
BRANCH   1  12
ATOM     12  C   UNL     1     110.871 111.154 107.527  1.00  0.00     0.021 A 
ATOM     13  C   UNL     1     111.350 110.109 106.714  1.00  0.00     0.016 A 
ATOM     14  C   UNL     1     110.978 110.033 105.368  1.00  0.00     0.047 A 
ATOM     15  C   UNL     1     110.115 110.990 104.821  1.00  0.00     0.115 A 
ATOM     16  C   UNL     1     109.988 112.098 106.974  1.00  0.00     0.016 A 
ATOM     17  C   UNL     1     109.620 112.019 105.628  1.00  0.00     0.047 A 
BRANCH  15  18
ATOM     18  O   UNL     1     109.740 110.925 103.481  1.00  0.00    -0.508 OA
ATOM     19  H   UNL     1     109.101 110.215 103.143  1.00  0.00     0.293 HD
ENDBRANCH  15  18
ENDBRANCH   1  12
BRANCH   2  20
ATOM     20  O   UNL     1     113.255 112.494 108.482  1.00  0.00    -0.502 OA
ATOM     21  H   UNL     1     113.758 111.978 107.771  1.00  0.00     0.293 HD
ENDBRANCH   2  20
BRANCH   6  22
ATOM     22  O   UNL     1     113.198 111.605 113.734  1.00  0.00    -0.507 OA
ATOM     23  H   UNL     1     113.390 111.491 114.717  1.00  0.00     0.293 HD
ENDBRANCH   6  22
BRANCH   8  24
ATOM     24  O   UNL     1     108.841 109.640 114.207  1.00  0.00    -0.508 OA
ATOM     25  H   UNL     1     108.761 109.912 115.180  1.00  0.00     0.293 HD
ENDBRANCH   8  24
TORSDOF 5
ENDMDL
