MODEL 1
REMARK VINA RESULT:    -3.720      0.000      0.000
REMARK INTER + INTRA:          -4.213
REMARK INTER:                  -5.024
REMARK INTRA:                   0.811
REMARK UNBOUND:                 0.811
REMARK SMILES O=c1c(-c2ccc(O)cc2)coc2c([C@H]3O[C@H](CO)[C@H](O)[C@@H](O)[C@H]3O)c(O)ccc12
REMARK SMILES IDX 3 1 11 2 12 3 13 4 30 5 2 6 1 7 29 8 28 9 26 10 14 11 4 12
REMARK SMILES IDX 5 13 6 14 7 15 10 16 9 17 8 18 15 20 24 21 16 22 22 23 17 24
REMARK SMILES IDX 20 25 25 26 23 28 18 30 19 31 21 33 27 35
REMARK H PARENT 8 19 25 27 23 29 19 32 21 34 27 36
REMARK Flexibility Score: inf
ROOT
ATOM      1  C   UNL     1       1.998   6.763  -9.323  1.00  0.00     0.065 A 
ATOM      2  C   UNL     1       3.104   5.975  -9.672  1.00  0.00     0.208 A 
ATOM      3  O   UNL     1       4.342   6.420  -9.497  1.00  0.00    -0.463 OA
ATOM      4  C   UNL     1       4.619   7.619  -8.988  1.00  0.00     0.147 A 
ATOM      5  C   UNL     1       3.563   8.476  -8.598  1.00  0.00     0.066 A 
ATOM      6  C   UNL     1       2.238   8.032  -8.767  1.00  0.00     0.200 A 
ATOM      7  O   UNL     1       1.273   8.760  -8.405  1.00  0.00    -0.288 OA
ATOM      8  C   UNL     1       3.858   9.729  -8.043  1.00  0.00     0.020 A 
ATOM      9  C   UNL     1       5.181  10.125  -7.865  1.00  0.00     0.047 A 
ATOM     10  C   UNL     1       6.235   9.285  -8.244  1.00  0.00     0.125 A 
ATOM     11  C   UNL     1       5.965   8.028  -8.836  1.00  0.00     0.069 A 
ENDROOT
BRANCH   1  12
ATOM     12  C   UNL     1       0.623   6.246  -9.537  1.00  0.00    -0.011 A 
ATOM     13  C   UNL     1       0.339   4.878  -9.380  1.00  0.00     0.013 A 
ATOM     14  C   UNL     1      -0.960   4.398  -9.575  1.00  0.00     0.047 A 
ATOM     15  C   UNL     1      -1.990   5.277  -9.924  1.00  0.00     0.115 A 
ATOM     16  C   UNL     1      -0.419   7.125  -9.881  1.00  0.00     0.013 A 
ATOM     17  C   UNL     1      -1.717   6.642 -10.076  1.00  0.00     0.047 A 
BRANCH  15  18
ATOM     18  O   UNL     1      -3.279   4.784 -10.115  1.00  0.00    -0.508 OA
ATOM     19  H   UNL     1      -3.621   4.537 -11.036  1.00  0.00     0.293 HD
ENDBRANCH  15  18
ENDBRANCH   1  12
BRANCH  11  20
ATOM     20  C   UNL     1       7.092   7.083  -9.240  1.00  0.00     0.188 C 
ATOM     21  C   UNL     1       6.630   5.614  -9.120  1.00  0.00     0.179 C 
ATOM     22  O   UNL     1       8.247   7.330  -8.453  1.00  0.00    -0.362 OA
ATOM     23  C   UNL     1       7.754   4.691  -9.602  1.00  0.00     0.177 C 
ATOM     24  C   UNL     1       9.365   6.542  -8.841  1.00  0.00     0.176 C 
ATOM     25  C   UNL     1       9.063   5.015  -8.860  1.00  0.00     0.177 C 
BRANCH  21  26
ATOM     26  O   UNL     1       6.306   5.303  -7.785  1.00  0.00    -0.387 OA
ATOM     27  H   UNL     1       5.568   5.910  -7.516  1.00  0.00     0.211 HD
ENDBRANCH  21  26
BRANCH  23  28
ATOM     28  O   UNL     1       7.386   3.354  -9.374  1.00  0.00    -0.387 OA
ATOM     29  H   UNL     1       6.811   3.079 -10.135  1.00  0.00     0.211 HD
ENDBRANCH  23  28
BRANCH  24  30
ATOM     30  C   UNL     1      10.076   7.100 -10.097  1.00  0.00     0.191 C 
BRANCH  30  31
ATOM     31  O   UNL     1      10.075   8.500 -10.123  1.00  0.00    -0.394 OA
ATOM     32  H   UNL     1      11.022   8.780 -10.022  1.00  0.00     0.210 HD
ENDBRANCH  30  31
ENDBRANCH  24  30
BRANCH  25  33
ATOM     33  O   UNL     1      10.125   4.303  -9.443  1.00  0.00    -0.388 OA
ATOM     34  H   UNL     1       9.864   4.119 -10.383  1.00  0.00     0.211 HD
ENDBRANCH  25  33
ENDBRANCH  11  20
BRANCH  10  35
ATOM     35  O   UNL     1       7.549   9.700  -8.022  1.00  0.00    -0.507 OA
ATOM     36  H   UNL     1       8.321   9.339  -8.570  1.00  0.00     0.293 HD
ENDBRANCH  10  35
TORSDOF 9
ENDMDL
MODEL 2
REMARK VINA RESULT:    -1.396      0.996      2.193
REMARK INTER + INTRA:          -1.075
REMARK INTER:                  -2.348
REMARK INTRA:                   1.273
REMARK UNBOUND:                 0.811
REMARK SMILES O=c1c(-c2ccc(O)cc2)coc2c([C@H]3O[C@H](CO)[C@H](O)[C@@H](O)[C@H]3O)c(O)ccc12
REMARK SMILES IDX 3 1 11 2 12 3 13 4 30 5 2 6 1 7 29 8 28 9 26 10 14 11 4 12
REMARK SMILES IDX 5 13 6 14 7 15 10 16 9 17 8 18 15 20 24 21 16 22 22 23 17 24
REMARK SMILES IDX 20 25 25 26 23 28 18 30 19 31 21 33 27 35
REMARK H PARENT 8 19 25 27 23 29 19 32 21 34 27 36
REMARK Flexibility Score: inf
ROOT
ATOM      1  C   UNL     1       1.386   6.558  -8.999  1.00  0.00     0.065 A 
ATOM      2  C   UNL     1       2.518   5.735  -9.088  1.00  0.00     0.208 A 
ATOM      3  O   UNL     1       3.730   6.211  -8.832  1.00  0.00    -0.463 OA
ATOM      4  C   UNL     1       3.956   7.475  -8.477  1.00  0.00     0.147 A 
ATOM      5  C   UNL     1       2.870   8.372  -8.352  1.00  0.00     0.066 A 
ATOM      6  C   UNL     1       1.571   7.898  -8.614  1.00  0.00     0.200 A 
ATOM      7  O   UNL     1       0.576   8.664  -8.486  1.00  0.00    -0.288 OA
ATOM      8  C   UNL     1       3.108   9.697  -7.959  1.00  0.00     0.020 A 
ATOM      9  C   UNL     1       4.404  10.125  -7.681  1.00  0.00     0.047 A 
ATOM     10  C   UNL     1       5.487   9.246  -7.799  1.00  0.00     0.125 A 
ATOM     11  C   UNL     1       5.278   7.912  -8.225  1.00  0.00     0.069 A 
ENDROOT
BRANCH   1  12
ATOM     12  C   UNL     1       0.043   6.004  -9.300  1.00  0.00    -0.011 A 
ATOM     13  C   UNL     1      -0.116   4.646  -9.631  1.00  0.00     0.013 A 
ATOM     14  C   UNL     1      -1.385   4.129  -9.906  1.00  0.00     0.047 A 
ATOM     15  C   UNL     1      -2.511   4.957  -9.848  1.00  0.00     0.115 A 
ATOM     16  C   UNL     1      -1.094   6.829  -9.238  1.00  0.00     0.013 A 
ATOM     17  C   UNL     1      -2.362   6.308  -9.513  1.00  0.00     0.047 A 
BRANCH  15  18
ATOM     18  O   UNL     1      -3.769   4.426 -10.124  1.00  0.00    -0.508 OA
ATOM     19  H   UNL     1      -3.934   3.852 -10.943  1.00  0.00     0.293 HD
ENDBRANCH  15  18
ENDBRANCH   1  12
BRANCH  11  20
ATOM     20  C   UNL     1       6.435   6.926  -8.341  1.00  0.00     0.188 C 
ATOM     21  C   UNL     1       7.707   7.645  -8.837  1.00  0.00     0.179 C 
ATOM     22  O   UNL     1       6.079   5.850  -9.196  1.00  0.00    -0.362 OA
ATOM     23  C   UNL     1       8.870   6.648  -8.873  1.00  0.00     0.177 C 
ATOM     24  C   UNL     1       7.084   4.846  -9.277  1.00  0.00     0.176 C 
ATOM     25  C   UNL     1       8.477   5.404  -9.689  1.00  0.00     0.177 C 
BRANCH  21  26
ATOM     26  O   UNL     1       7.506   8.179 -10.124  1.00  0.00    -0.387 OA
ATOM     27  H   UNL     1       7.171   7.440 -10.697  1.00  0.00     0.211 HD
ENDBRANCH  21  26
BRANCH  23  28
ATOM     28  O   UNL     1       9.995   7.267  -9.445  1.00  0.00    -0.387 OA
ATOM     29  H   UNL     1       9.821   7.336 -10.420  1.00  0.00     0.211 HD
ENDBRANCH  23  28
BRANCH  24  30
ATOM     30  C   UNL     1       7.075   3.901  -8.052  1.00  0.00     0.191 C 
BRANCH  30  31
ATOM     31  O   UNL     1       7.769   2.711  -8.301  1.00  0.00    -0.394 OA
ATOM     32  H   UNL     1       7.193   2.175  -8.907  1.00  0.00     0.210 HD
ENDBRANCH  30  31
ENDBRANCH  24  30
BRANCH  25  33
ATOM     33  O   UNL     1       9.470   4.418  -9.554  1.00  0.00    -0.388 OA
ATOM     34  H   UNL     1      10.139   4.771  -8.911  1.00  0.00     0.211 HD
ENDBRANCH  25  33
ENDBRANCH  11  20
BRANCH  10  35
ATOM     35  O   UNL     1       6.768   9.699  -7.482  1.00  0.00    -0.507 OA
ATOM     36  H   UNL     1       7.480   9.825  -8.193  1.00  0.00     0.293 HD
ENDBRANCH  10  35
TORSDOF 9
ENDMDL
