MODEL 1
REMARK VINA RESULT:    -3.265      0.000      0.000
REMARK INTER + INTRA:          -5.210
REMARK INTER:                  -4.983
REMARK INTRA:                  -0.227
REMARK UNBOUND:                -0.227
REMARK SMILES CC1=CCC[C@H](C)C(=O)C[C@@H](C(C)C)C(=O)C1
REMARK SMILES IDX 8 1 9 2 6 3 7 4 5 5 4 6 3 7 2 8 1 9 10 11 11 12 15 13 16 14
REMARK SMILES IDX 17 15 12 17 13 18 14 19
REMARK H PARENT
REMARK Flexibility Score: 70.00
ROOT
ATOM      1  C   UNL     1      24.364  29.571  29.987  1.00  0.00     0.136 C 
ATOM      2  O   UNL     1      25.000  28.537  30.129  1.00  0.00    -0.299 OA
ENDROOT
BRANCH   1   3
ATOM      3  C   UNL     1      22.858  29.548  30.125  1.00  0.00     0.053 C 
ATOM      4  C   UNL     1      22.250  28.350  29.384  1.00  0.00     0.016 C 
BRANCH   3   5
ATOM      5  C   UNL     1      22.489  29.535  31.628  1.00  0.00     0.015 C 
BRANCH   5   6
ATOM      6  C   UNL     1      21.649  30.728  32.127  1.00  0.00     0.028 C 
BRANCH   6   7
ATOM      7  C   UNL     1      21.079  31.657  31.076  1.00  0.00    -0.028 C 
ATOM      8  C   UNL     1      21.522  32.898  30.759  1.00  0.00    -0.070 CG0
ATOM      9  C   UNL     1      20.721  33.691  29.755  1.00  0.00     0.039 C 
ATOM     10  G   UNL     1      22.812  33.504  31.283  1.00  0.00     0.000 G0
ENDBRANCH   6   7
ENDBRANCH   5   6
ENDBRANCH   3   5
ENDBRANCH   1   3
BRANCH   1  11
ATOM     11  C   UNL     1      25.105  30.867  29.750  1.00  0.00     0.087 C 
BRANCH  11  12
ATOM     12  C   UNL     1      24.891  31.894  30.900  1.00  0.00     0.066 C 
BRANCH  12  13
ATOM     13  C   UNL     1      24.000  33.046  30.452  1.00  0.00     0.140 C 
ATOM     14  O   UNL     1      24.255  33.625  29.405  1.00  0.00    -0.299 OA
BRANCH  13  15
ATOM     15  C   UNL     1      22.817  33.515  31.275  1.00  0.00     0.106 CG0
ATOM     16  G   UNL     1      21.526  32.896  30.765  1.00  0.00     0.000 G0
ENDBRANCH  13  15
ENDBRANCH  12  13
BRANCH  12  17
ATOM     17  C   UNL     1      26.244  32.393  31.495  1.00  0.00    -0.006 C 
ATOM     18  C   UNL     1      26.465  32.005  32.968  1.00  0.00     0.008 C 
ATOM     19  C   UNL     1      27.437  31.933  30.641  1.00  0.00     0.008 C 
ENDBRANCH  12  17
ENDBRANCH  11  12
ENDBRANCH   1  11
TORSDOF 1
ENDMDL
MODEL 2
REMARK VINA RESULT:    -3.168      1.777      4.141
REMARK INTER + INTRA:          -5.061
REMARK INTER:                  -5.224
REMARK INTRA:                   0.163
REMARK UNBOUND:                -0.227
REMARK SMILES CC1=CCC[C@H](C)C(=O)C[C@@H](C(C)C)C(=O)C1
REMARK SMILES IDX 8 1 9 2 6 3 7 4 5 5 4 6 3 7 2 8 1 9 10 11 11 12 15 13 16 14
REMARK SMILES IDX 17 15 12 17 13 18 14 19
REMARK H PARENT
REMARK Flexibility Score: 70.00
ROOT
ATOM      1  C   UNL     1      23.442  28.694  29.520  1.00  0.00     0.136 C 
ATOM      2  O   UNL     1      22.741  28.263  28.616  1.00  0.00    -0.299 OA
ENDROOT
BRANCH   1   3
ATOM      3  C   UNL     1      24.947  28.680  29.371  1.00  0.00     0.053 C 
ATOM      4  C   UNL     1      25.367  28.087  28.021  1.00  0.00     0.016 C 
BRANCH   3   5
ATOM      5  C   UNL     1      25.484  30.121  29.551  1.00  0.00     0.015 C 
BRANCH   5   6
ATOM      6  C   UNL     1      26.080  30.451  30.935  1.00  0.00     0.028 C 
BRANCH   6   7
ATOM      7  C   UNL     1      25.979  31.887  31.404  1.00  0.00    -0.028 C 
ATOM      8  C   UNL     1      24.864  32.527  31.836  1.00  0.00    -0.070 CG0
ATOM      9  C   UNL     1      24.979  34.000  32.144  1.00  0.00     0.039 C 
ATOM     10  G   UNL     1      23.537  31.840  32.107  1.00  0.00     0.000 G0
ENDBRANCH   6   7
ENDBRANCH   5   6
ENDBRANCH   3   5
ENDBRANCH   1   3
BRANCH   1  11
ATOM     11  C   UNL     1      22.784  29.301  30.739  1.00  0.00     0.087 C 
BRANCH  11  12
ATOM     12  C   UNL     1      21.951  30.569  30.396  1.00  0.00     0.066 C 
BRANCH  12  13
ATOM     13  C   UNL     1      22.654  31.835  30.867  1.00  0.00     0.140 C 
ATOM     14  O   UNL     1      22.537  32.862  30.213  1.00  0.00    -0.299 OA
BRANCH  13  15
ATOM     15  C   UNL     1      23.519  31.860  32.112  1.00  0.00     0.106 CG0
ATOM     16  G   UNL     1      24.849  32.538  31.832  1.00  0.00     0.000 G0
ENDBRANCH  13  15
ENDBRANCH  12  13
BRANCH  12  17
ATOM     17  C   UNL     1      20.491  30.470  30.937  1.00  0.00    -0.006 C 
ATOM     18  C   UNL     1      19.473  29.944  29.910  1.00  0.00     0.008 C 
ATOM     19  C   UNL     1      20.424  29.635  32.225  1.00  0.00     0.008 C 
ENDBRANCH  12  17
ENDBRANCH  11  12
ENDBRANCH   1  11
TORSDOF 1
ENDMDL
MODEL 3
REMARK VINA RESULT:    -3.094      2.828      5.861
REMARK INTER + INTRA:          -4.949
REMARK INTER:                  -4.826
REMARK INTRA:                  -0.123
REMARK UNBOUND:                -0.227
REMARK SMILES CC1=CCC[C@H](C)C(=O)C[C@@H](C(C)C)C(=O)C1
REMARK SMILES IDX 8 1 9 2 6 3 7 4 5 5 4 6 3 7 2 8 1 9 10 11 11 12 15 13 16 14
REMARK SMILES IDX 17 15 12 17 13 18 14 19
REMARK H PARENT
REMARK Flexibility Score: 70.00
ROOT
ATOM      1  C   UNL     1      21.039  32.947  30.316  1.00  0.00     0.136 C 
ATOM      2  O   UNL     1      20.537  33.966  30.768  1.00  0.00    -0.299 OA
ENDROOT
BRANCH   1   3
ATOM      3  C   UNL     1      22.533  32.736  30.427  1.00  0.00     0.053 C 
ATOM      4  C   UNL     1      23.297  34.047  30.212  1.00  0.00     0.016 C 
BRANCH   3   5
ATOM      5  C   UNL     1      22.852  32.110  31.807  1.00  0.00     0.015 C 
BRANCH   5   6
ATOM      6  C   UNL     1      23.582  30.752  31.780  1.00  0.00     0.028 C 
BRANCH   6   7
ATOM      7  C   UNL     1      23.136  29.751  30.735  1.00  0.00    -0.028 C 
ATOM      8  C   UNL     1      21.980  29.043  30.727  1.00  0.00    -0.070 CG0
ATOM      9  C   UNL     1      21.801  28.011  29.640  1.00  0.00     0.039 C 
ATOM     10  G   UNL     1      20.826  29.280  31.685  1.00  0.00     0.000 G0
ENDBRANCH   6   7
ENDBRANCH   5   6
ENDBRANCH   3   5
ENDBRANCH   1   3
BRANCH   1  11
ATOM     11  C   UNL     1      20.144  31.883  29.721  1.00  0.00     0.087 C 
BRANCH  11  12
ATOM     12  C   UNL     1      19.237  31.205  30.788  1.00  0.00     0.066 C 
BRANCH  12  13
ATOM     13  C   UNL     1      19.576  29.728  30.942  1.00  0.00     0.140 C 
ATOM     14  O   UNL     1      18.825  28.890  30.464  1.00  0.00    -0.299 OA
BRANCH  13  15
ATOM     15  C   UNL     1      20.808  29.259  31.692  1.00  0.00     0.106 CG0
ATOM     16  G   UNL     1      21.971  29.045  30.738  1.00  0.00     0.000 G0
ENDBRANCH  13  15
ENDBRANCH  12  13
BRANCH  12  17
ATOM     17  C   UNL     1      17.721  31.433  30.494  1.00  0.00    -0.006 C 
ATOM     18  C   UNL     1      17.002  32.303  31.540  1.00  0.00     0.008 C 
ATOM     19  C   UNL     1      17.503  32.008  29.086  1.00  0.00     0.008 C 
ENDBRANCH  12  17
ENDBRANCH  11  12
ENDBRANCH   1  11
TORSDOF 1
ENDMDL
MODEL 4
REMARK VINA RESULT:    -3.072      3.488      6.241
REMARK INTER + INTRA:          -4.916
REMARK INTER:                  -4.894
REMARK INTRA:                  -0.021
REMARK UNBOUND:                -0.227
REMARK SMILES CC1=CCC[C@H](C)C(=O)C[C@@H](C(C)C)C(=O)C1
REMARK SMILES IDX 8 1 9 2 6 3 7 4 5 5 4 6 3 7 2 8 1 9 10 11 11 12 15 13 16 14
REMARK SMILES IDX 17 15 12 17 13 18 14 19
REMARK H PARENT
REMARK Flexibility Score: 70.00
ROOT
ATOM      1  C   UNL     1      18.187  31.136  29.118  1.00  0.00     0.136 C 
ATOM      2  O   UNL     1      18.748  30.465  28.264  1.00  0.00    -0.299 OA
ENDROOT
BRANCH   1   3
ATOM      3  C   UNL     1      17.816  32.571  28.818  1.00  0.00     0.053 C 
ATOM      4  C   UNL     1      16.337  32.838  29.121  1.00  0.00     0.016 C 
BRANCH   3   5
ATOM      5  C   UNL     1      18.742  33.511  29.627  1.00  0.00     0.015 C 
BRANCH   5   6
ATOM      6  C   UNL     1      20.256  33.319  29.409  1.00  0.00     0.028 C 
BRANCH   6   7
ATOM      7  C   UNL     1      21.145  33.403  30.632  1.00  0.00    -0.028 C 
ATOM      8  C   UNL     1      21.423  32.405  31.507  1.00  0.00    -0.070 CG0
ATOM      9  C   UNL     1      22.245  32.752  32.724  1.00  0.00     0.039 C 
ATOM     10  G   UNL     1      21.035  30.952  31.297  1.00  0.00     0.000 G0
ENDBRANCH   6   7
ENDBRANCH   5   6
ENDBRANCH   3   5
ENDBRANCH   1   3
BRANCH   1  11
ATOM     11  C   UNL     1      17.808  30.492  30.433  1.00  0.00     0.087 C 
BRANCH  11  12
ATOM     12  C   UNL     1      18.431  31.227  31.656  1.00  0.00     0.066 C 
BRANCH  12  13
ATOM     13  C   UNL     1      19.770  30.614  32.044  1.00  0.00     0.140 C 
ATOM     14  O   UNL     1      19.822  29.846  32.996  1.00  0.00    -0.299 OA
BRANCH  13  15
ATOM     15  C   UNL     1      21.051  30.942  31.303  1.00  0.00     0.106 CG0
ATOM     16  G   UNL     1      21.438  32.396  31.513  1.00  0.00     0.000 G0
ENDBRANCH  13  15
ENDBRANCH  12  13
BRANCH  12  17
ATOM     17  C   UNL     1      17.441  31.293  32.861  1.00  0.00    -0.006 C 
ATOM     18  C   UNL     1      16.758  32.660  33.040  1.00  0.00     0.008 C 
ATOM     19  C   UNL     1      16.386  30.179  32.782  1.00  0.00     0.008 C 
ENDBRANCH  12  17
ENDBRANCH  11  12
ENDBRANCH   1  11
TORSDOF 1
ENDMDL
MODEL 5
REMARK VINA RESULT:    -3.055      1.783      4.358
REMARK INTER + INTRA:          -4.889
REMARK INTER:                  -5.084
REMARK INTRA:                   0.194
REMARK UNBOUND:                -0.227
REMARK SMILES CC1=CCC[C@H](C)C(=O)C[C@@H](C(C)C)C(=O)C1
REMARK SMILES IDX 8 1 9 2 6 3 7 4 5 5 4 6 3 7 2 8 1 9 10 11 11 12 15 13 16 14
REMARK SMILES IDX 17 15 12 17 13 18 14 19
REMARK H PARENT
REMARK Flexibility Score: 70.00
ROOT
ATOM      1  C   UNL     1      20.857  30.166  30.008  1.00  0.00     0.136 C 
ATOM      2  O   UNL     1      20.850  30.030  28.793  1.00  0.00    -0.299 OA
ENDROOT
BRANCH   1   3
ATOM      3  C   UNL     1      21.493  29.104  30.877  1.00  0.00     0.053 C 
ATOM      4  C   UNL     1      21.669  27.789  30.108  1.00  0.00     0.016 C 
BRANCH   3   5
ATOM      5  C   UNL     1      22.845  29.636  31.413  1.00  0.00     0.015 C 
BRANCH   5   6
ATOM      6  C   UNL     1      23.702  30.433  30.410  1.00  0.00     0.028 C 
BRANCH   6   7
ATOM      7  C   UNL     1      24.490  31.606  30.955  1.00  0.00    -0.028 C 
ATOM      8  C   UNL     1      23.996  32.805  31.351  1.00  0.00    -0.070 CG0
ATOM      9  C   UNL     1      24.988  33.870  31.751  1.00  0.00     0.039 C 
ATOM     10  G   UNL     1      22.516  33.114  31.496  1.00  0.00     0.000 G0
ENDBRANCH   6   7
ENDBRANCH   5   6
ENDBRANCH   3   5
ENDBRANCH   1   3
BRANCH   1  11
ATOM     11  C   UNL     1      20.292  31.432  30.613  1.00  0.00     0.087 C 
BRANCH  11  12
ATOM     12  C   UNL     1      20.570  32.686  29.735  1.00  0.00     0.066 C 
BRANCH  12  13
ATOM     13  C   UNL     1      21.869  33.369  30.145  1.00  0.00     0.140 C 
ATOM     14  O   UNL     1      22.421  34.124  29.356  1.00  0.00    -0.299 OA
BRANCH  13  15
ATOM     15  C   UNL     1      22.516  33.124  31.494  1.00  0.00     0.106 CG0
ATOM     16  G   UNL     1      23.991  32.803  31.334  1.00  0.00     0.000 G0
ENDBRANCH  13  15
ENDBRANCH  12  13
BRANCH  12  17
ATOM     17  C   UNL     1      19.362  33.674  29.729  1.00  0.00    -0.006 C 
ATOM     18  C   UNL     1      18.118  33.142  28.996  1.00  0.00     0.008 C 
ATOM     19  C   UNL     1      18.990  34.114  31.154  1.00  0.00     0.008 C 
ENDBRANCH  12  17
ENDBRANCH  11  12
ENDBRANCH   1  11
TORSDOF 1
ENDMDL
MODEL 6
REMARK VINA RESULT:    -2.839      5.924      7.810
REMARK INTER + INTRA:          -4.560
REMARK INTER:                  -4.982
REMARK INTRA:                   0.422
REMARK UNBOUND:                -0.227
REMARK SMILES CC1=CCC[C@H](C)C(=O)C[C@@H](C(C)C)C(=O)C1
REMARK SMILES IDX 8 1 9 2 6 3 7 4 5 5 4 6 3 7 2 8 1 9 10 11 11 12 15 13 16 14
REMARK SMILES IDX 17 15 12 17 13 18 14 19
REMARK H PARENT
REMARK Flexibility Score: 70.00
ROOT
ATOM      1  C   UNL     1      30.002  30.599  29.771  1.00  0.00     0.136 C 
ATOM      2  O   UNL     1      30.971  29.855  29.750  1.00  0.00    -0.299 OA
ENDROOT
BRANCH   1   3
ATOM      3  C   UNL     1      29.498  31.210  28.482  1.00  0.00     0.053 C 
ATOM      4  C   UNL     1      28.379  30.362  27.866  1.00  0.00     0.016 C 
BRANCH   3   5
ATOM      5  C   UNL     1      29.027  32.658  28.761  1.00  0.00     0.015 C 
BRANCH   5   6
ATOM      6  C   UNL     1      30.057  33.769  28.475  1.00  0.00     0.028 C 
BRANCH   6   7
ATOM      7  C   UNL     1      31.513  33.443  28.735  1.00  0.00    -0.028 C 
ATOM      8  C   UNL     1      32.182  33.579  29.906  1.00  0.00    -0.070 CG0
ATOM      9  C   UNL     1      33.665  33.302  29.900  1.00  0.00     0.039 C 
ATOM     10  G   UNL     1      31.521  33.907  31.234  1.00  0.00     0.000 G0
ENDBRANCH   6   7
ENDBRANCH   5   6
ENDBRANCH   3   5
ENDBRANCH   1   3
BRANCH   1  11
ATOM     11  C   UNL     1      29.279  30.833  31.079  1.00  0.00     0.087 C 
BRANCH  11  12
ATOM     12  C   UNL     1      29.424  32.297  31.585  1.00  0.00     0.066 C 
BRANCH  12  13
ATOM     13  C   UNL     1      30.883  32.652  31.838  1.00  0.00     0.140 C 
ATOM     14  O   UNL     1      31.556  31.929  32.561  1.00  0.00    -0.299 OA
BRANCH  13  15
ATOM     15  C   UNL     1      31.527  33.888  31.243  1.00  0.00     0.106 CG0
ATOM     16  G   UNL     1      32.161  33.571  29.899  1.00  0.00     0.000 G0
ENDBRANCH  13  15
ENDBRANCH  12  13
BRANCH  12  17
ATOM     17  C   UNL     1      28.525  32.575  32.830  1.00  0.00    -0.006 C 
ATOM     18  C   UNL     1      27.909  33.985  32.859  1.00  0.00     0.008 C 
ATOM     19  C   UNL     1      27.424  31.513  32.976  1.00  0.00     0.008 C 
ENDBRANCH  12  17
ENDBRANCH  11  12
ENDBRANCH   1  11
TORSDOF 1
ENDMDL
MODEL 7
REMARK VINA RESULT:    -2.786      1.940      2.630
REMARK INTER + INTRA:          -4.479
REMARK INTER:                  -4.629
REMARK INTRA:                   0.151
REMARK UNBOUND:                -0.227
REMARK SMILES CC1=CCC[C@H](C)C(=O)C[C@@H](C(C)C)C(=O)C1
REMARK SMILES IDX 8 1 9 2 6 3 7 4 5 5 4 6 3 7 2 8 1 9 10 11 11 12 15 13 16 14
REMARK SMILES IDX 17 15 12 17 13 18 14 19
REMARK H PARENT
REMARK Flexibility Score: 70.00
ROOT
ATOM      1  C   UNL     1      24.794  29.753  30.237  1.00  0.00     0.136 C 
ATOM      2  O   UNL     1      25.491  29.259  31.111  1.00  0.00    -0.299 OA
ENDROOT
BRANCH   1   3
ATOM      3  C   UNL     1      24.100  28.856  29.236  1.00  0.00     0.053 C 
ATOM      4  C   UNL     1      24.998  27.684  28.825  1.00  0.00     0.016 C 
BRANCH   3   5
ATOM      5  C   UNL     1      22.763  28.365  29.842  1.00  0.00     0.015 C 
BRANCH   5   6
ATOM      6  C   UNL     1      21.511  29.182  29.465  1.00  0.00     0.028 C 
BRANCH   6   7
ATOM      7  C   UNL     1      20.524  29.482  30.574  1.00  0.00    -0.028 C 
ATOM      8  C   UNL     1      20.591  30.496  31.472  1.00  0.00    -0.070 CG0
ATOM      9  C   UNL     1      19.552  30.529  32.567  1.00  0.00     0.039 C 
ATOM     10  G   UNL     1      21.587  31.639  31.397  1.00  0.00     0.000 G0
ENDBRANCH   6   7
ENDBRANCH   5   6
ENDBRANCH   3   5
ENDBRANCH   1   3
BRANCH   1  11
ATOM     11  C   UNL     1      24.579  31.250  30.222  1.00  0.00     0.087 C 
BRANCH  11  12
ATOM     12  C   UNL     1      24.229  31.815  31.630  1.00  0.00     0.066 C 
BRANCH  12  13
ATOM     13  C   UNL     1      22.875  31.304  32.108  1.00  0.00     0.140 C 
ATOM     14  O   UNL     1      22.825  30.580  33.092  1.00  0.00    -0.299 OA
BRANCH  13  15
ATOM     15  C   UNL     1      21.587  31.645  31.387  1.00  0.00     0.106 CG0
ATOM     16  G   UNL     1      20.594  30.499  31.485  1.00  0.00     0.000 G0
ENDBRANCH  13  15
ENDBRANCH  12  13
BRANCH  12  17
ATOM     17  C   UNL     1      24.319  33.372  31.671  1.00  0.00    -0.006 C 
ATOM     18  C   UNL     1      24.003  33.985  33.047  1.00  0.00     0.008 C 
ATOM     19  C   UNL     1      25.685  33.869  31.171  1.00  0.00     0.008 C 
ENDBRANCH  12  17
ENDBRANCH  11  12
ENDBRANCH   1  11
TORSDOF 1
ENDMDL
MODEL 8
REMARK VINA RESULT:    -2.674      3.146      5.564
REMARK INTER + INTRA:          -4.307
REMARK INTER:                  -4.749
REMARK INTRA:                   0.441
REMARK UNBOUND:                -0.227
REMARK SMILES CC1=CCC[C@H](C)C(=O)C[C@@H](C(C)C)C(=O)C1
REMARK SMILES IDX 8 1 9 2 6 3 7 4 5 5 4 6 3 7 2 8 1 9 10 11 11 12 15 13 16 14
REMARK SMILES IDX 17 15 12 17 13 18 14 19
REMARK H PARENT
REMARK Flexibility Score: 70.00
ROOT
ATOM      1  C   UNL     1      19.680  30.023  30.175  1.00  0.00     0.136 C 
ATOM      2  O   UNL     1      19.875  30.495  29.065  1.00  0.00    -0.299 OA
ENDROOT
BRANCH   1   3
ATOM      3  C   UNL     1      20.639  28.993  30.730  1.00  0.00     0.053 C 
ATOM      4  C   UNL     1      21.765  28.689  29.734  1.00  0.00     0.016 C 
BRANCH   3   5
ATOM      5  C   UNL     1      21.197  29.500  32.082  1.00  0.00     0.015 C 
BRANCH   5   6
ATOM      6  C   UNL     1      22.557  30.225  32.022  1.00  0.00     0.028 C 
BRANCH   6   7
ATOM      7  C   UNL     1      22.531  31.723  31.804  1.00  0.00    -0.028 C 
ATOM      8  C   UNL     1      21.507  32.569  32.080  1.00  0.00    -0.070 CG0
ATOM      9  C   UNL     1      21.664  34.012  31.668  1.00  0.00     0.039 C 
ATOM     10  G   UNL     1      20.257  32.176  32.848  1.00  0.00     0.000 G0
ENDBRANCH   6   7
ENDBRANCH   5   6
ENDBRANCH   3   5
ENDBRANCH   1   3
BRANCH   1  11
ATOM     11  C   UNL     1      18.523  30.536  31.003  1.00  0.00     0.087 C 
BRANCH  11  12
ATOM     12  C   UNL     1      18.396  32.087  30.952  1.00  0.00     0.066 C 
BRANCH  12  13
ATOM     13  C   UNL     1      19.005  32.731  32.191  1.00  0.00     0.140 C 
ATOM     14  O   UNL     1      18.490  33.740  32.652  1.00  0.00    -0.299 OA
BRANCH  13  15
ATOM     15  C   UNL     1      20.246  32.175  32.860  1.00  0.00     0.106 CG0
ATOM     16  G   UNL     1      21.493  32.549  32.079  1.00  0.00     0.000 G0
ENDBRANCH  13  15
ENDBRANCH  12  13
BRANCH  12  17
ATOM     17  C   UNL     1      16.923  32.543  30.714  1.00  0.00    -0.006 C 
ATOM     18  C   UNL     1      16.509  32.585  29.232  1.00  0.00     0.008 C 
ATOM     19  C   UNL     1      15.933  31.685  31.516  1.00  0.00     0.008 C 
ENDBRANCH  12  17
ENDBRANCH  11  12
ENDBRANCH   1  11
TORSDOF 1
ENDMDL
MODEL 9
REMARK VINA RESULT:    -2.527      4.874      6.998
REMARK INTER + INTRA:          -4.083
REMARK INTER:                  -5.008
REMARK INTRA:                   0.925
REMARK UNBOUND:                -0.227
REMARK SMILES CC1=CCC[C@H](C)C(=O)C[C@@H](C(C)C)C(=O)C1
REMARK SMILES IDX 8 1 9 2 6 3 7 4 5 5 4 6 3 7 2 8 1 9 10 11 11 12 15 13 16 14
REMARK SMILES IDX 17 15 12 17 13 18 14 19
REMARK H PARENT
REMARK Flexibility Score: 70.00
ROOT
ATOM      1  C   UNL     1      16.784  32.527  31.515  1.00  0.00     0.136 C 
ATOM      2  O   UNL     1      15.814  32.616  32.254  1.00  0.00    -0.299 OA
ENDROOT
BRANCH   1   3
ATOM      3  C   UNL     1      16.593  32.601  30.017  1.00  0.00     0.053 C 
ATOM      4  C   UNL     1      17.644  33.508  29.367  1.00  0.00     0.016 C 
BRANCH   3   5
ATOM      5  C   UNL     1      16.636  31.169  29.431  1.00  0.00     0.015 C 
BRANCH   5   6
ATOM      6  C   UNL     1      15.416  30.277  29.738  1.00  0.00     0.028 C 
BRANCH   6   7
ATOM      7  C   UNL     1      15.377  29.607  31.096  1.00  0.00    -0.028 C 
ATOM      8  C   UNL     1      16.392  28.954  31.712  1.00  0.00    -0.070 CG0
ATOM      9  C   UNL     1      16.087  28.260  33.017  1.00  0.00     0.039 C 
ATOM     10  G   UNL     1      17.829  28.948  31.218  1.00  0.00     0.000 G0
ENDBRANCH   6   7
ENDBRANCH   5   6
ENDBRANCH   3   5
ENDBRANCH   1   3
BRANCH   1  11
ATOM     11  C   UNL     1      18.166  32.420  32.120  1.00  0.00     0.087 C 
BRANCH  11  12
ATOM     12  C   UNL     1      19.027  31.314  31.443  1.00  0.00     0.066 C 
BRANCH  12  13
ATOM     13  C   UNL     1      18.680  29.934  31.987  1.00  0.00     0.140 C 
ATOM     14  O   UNL     1      19.119  29.596  33.078  1.00  0.00    -0.299 OA
BRANCH  13  15
ATOM     15  C   UNL     1      17.826  28.954  31.210  1.00  0.00     0.106 CG0
ATOM     16  G   UNL     1      16.396  28.959  31.723  1.00  0.00     0.000 G0
ENDBRANCH  13  15
ENDBRANCH  12  13
BRANCH  12  17
ATOM     17  C   UNL     1      20.554  31.621  31.545  1.00  0.00    -0.006 C 
ATOM     18  C   UNL     1      21.432  30.764  30.616  1.00  0.00     0.008 C 
ATOM     19  C   UNL     1      20.843  33.113  31.319  1.00  0.00     0.008 C 
ENDBRANCH  12  17
ENDBRANCH  11  12
ENDBRANCH   1  11
TORSDOF 1
ENDMDL
