MODEL 1
REMARK VINA RESULT:    -4.758      0.000      0.000
REMARK INTER + INTRA:          -4.898
REMARK INTER:                  -4.898
REMARK INTRA:                   0.000
REMARK UNBOUND:                 0.000
REMARK SMILES Nc1ncnc2nc[nH]c12
REMARK SMILES IDX 8 1 7 2 6 3 5 4 4 5 3 6 2 7 10 8 9 9 1 11
REMARK H PARENT 9 10 1 12 1 13
REMARK Flexibility Score: inf
ROOT
ATOM      1  C   UNL     1      24.543  -8.121  -0.511  1.00  0.00     0.199 A 
ATOM      2  N   UNL     1      23.729  -9.111  -0.055  1.00  0.00    -0.217 NA
ATOM      3  C   UNL     1      23.343  -8.638   1.141  1.00  0.00     0.182 A 
ATOM      4  N   UNL     1      22.512  -9.246   2.022  1.00  0.00    -0.215 NA
ATOM      5  C   UNL     1      22.236  -8.603   3.196  1.00  0.00     0.226 A 
ATOM      6  N   UNL     1      22.787  -7.377   3.466  1.00  0.00    -0.217 NA
ATOM      7  C   UNL     1      23.625  -6.761   2.579  1.00  0.00     0.152 A 
ATOM      8  C   UNL     1      23.898  -7.429   1.388  1.00  0.00     0.127 A 
ATOM      9  N   UNL     1      24.667  -7.078   0.350  1.00  0.00    -0.340 N 
ATOM     10  H   UNL     1      25.233  -6.210   0.221  1.00  0.00     0.168 HD
ENDROOT
BRANCH   7  11
ATOM     11  N   UNL     1      24.188  -5.484   2.881  1.00  0.00    -0.382 N 
ATOM     12  H   UNL     1      23.794  -4.606   2.476  1.00  0.00     0.158 HD
ATOM     13  H   UNL     1      25.011  -5.414   3.520  1.00  0.00     0.158 HD
ENDBRANCH   7  11
TORSDOF 1
ENDMDL
MODEL 2
REMARK VINA RESULT:    -4.632      2.951      4.325
REMARK INTER + INTRA:          -4.768
REMARK INTER:                  -4.768
REMARK INTRA:                   0.000
REMARK UNBOUND:                 0.000
REMARK SMILES Nc1ncnc2nc[nH]c12
REMARK SMILES IDX 8 1 7 2 6 3 5 4 4 5 3 6 2 7 10 8 9 9 1 11
REMARK H PARENT 9 10 1 12 1 13
REMARK Flexibility Score: inf
ROOT
ATOM      1  C   UNL     1      25.226  -9.666   6.502  1.00  0.00     0.199 A 
ATOM      2  N   UNL     1      25.122 -10.089   5.212  1.00  0.00    -0.217 NA
ATOM      3  C   UNL     1      24.233  -9.224   4.698  1.00  0.00     0.182 A 
ATOM      4  N   UNL     1      23.770  -9.201   3.425  1.00  0.00    -0.215 NA
ATOM      5  C   UNL     1      22.861  -8.238   3.086  1.00  0.00     0.226 A 
ATOM      6  N   UNL     1      22.435  -7.324   4.015  1.00  0.00    -0.217 NA
ATOM      7  C   UNL     1      22.901  -7.345   5.300  1.00  0.00     0.152 A 
ATOM      8  C   UNL     1      23.825  -8.332   5.630  1.00  0.00     0.127 A 
ATOM      9  N   UNL     1      24.444  -8.593   6.788  1.00  0.00    -0.340 N 
ATOM     10  H   UNL     1      24.356  -8.096   7.702  1.00  0.00     0.168 HD
ENDROOT
BRANCH   7  11
ATOM     11  N   UNL     1      22.443  -6.383   6.251  1.00  0.00    -0.382 N 
ATOM     12  H   UNL     1      21.438  -6.107   6.305  1.00  0.00     0.158 HD
ATOM     13  H   UNL     1      23.119  -5.939   6.912  1.00  0.00     0.158 HD
ENDBRANCH   7  11
TORSDOF 1
ENDMDL
MODEL 3
REMARK VINA RESULT:    -4.556      1.640      3.361
REMARK INTER + INTRA:          -4.689
REMARK INTER:                  -4.689
REMARK INTRA:                   0.000
REMARK UNBOUND:                 0.000
REMARK SMILES Nc1ncnc2nc[nH]c12
REMARK SMILES IDX 8 1 7 2 6 3 5 4 4 5 3 6 2 7 10 8 9 9 1 11
REMARK H PARENT 9 10 1 12 1 13
REMARK Flexibility Score: inf
ROOT
ATOM      1  C   UNL     1      23.411  -8.429   5.811  1.00  0.00     0.199 A 
ATOM      2  N   UNL     1      22.859  -9.415   5.053  1.00  0.00    -0.217 NA
ATOM      3  C   UNL     1      22.882  -8.878   3.823  1.00  0.00     0.182 A 
ATOM      4  N   UNL     1      22.442  -9.456   2.679  1.00  0.00    -0.215 NA
ATOM      5  C   UNL     1      22.549  -8.747   1.515  1.00  0.00     0.226 A 
ATOM      6  N   UNL     1      23.091  -7.488   1.514  1.00  0.00    -0.217 NA
ATOM      7  C   UNL     1      23.537  -6.902   2.666  1.00  0.00     0.152 A 
ATOM      8  C   UNL     1      23.419  -7.636   3.844  1.00  0.00     0.127 A 
ATOM      9  N   UNL     1      23.764  -7.328   5.100  1.00  0.00    -0.340 N 
ATOM     10  H   UNL     1      24.201  -6.451   5.460  1.00  0.00     0.168 HD
ENDROOT
BRANCH   7  11
ATOM     11  N   UNL     1      24.097  -5.589   2.641  1.00  0.00    -0.382 N 
ATOM     12  H   UNL     1      23.683  -4.810   3.199  1.00  0.00     0.158 HD
ATOM     13  H   UNL     1      24.938  -5.391   2.056  1.00  0.00     0.158 HD
ENDBRANCH   7  11
TORSDOF 1
ENDMDL
MODEL 4
REMARK VINA RESULT:    -4.415      2.413      3.258
REMARK INTER + INTRA:          -4.544
REMARK INTER:                  -4.544
REMARK INTRA:                   0.000
REMARK UNBOUND:                 0.000
REMARK SMILES Nc1ncnc2nc[nH]c12
REMARK SMILES IDX 8 1 7 2 6 3 5 4 4 5 3 6 2 7 10 8 9 9 1 11
REMARK H PARENT 9 10 1 12 1 13
REMARK Flexibility Score: inf
ROOT
ATOM      1  C   UNL     1      22.713  -8.462   2.088  1.00  0.00     0.199 A 
ATOM      2  N   UNL     1      23.617  -9.434   2.385  1.00  0.00    -0.217 NA
ATOM      3  C   UNL     1      23.838  -9.229   3.693  1.00  0.00     0.182 A 
ATOM      4  N   UNL     1      24.671  -9.938   4.493  1.00  0.00    -0.215 NA
ATOM      5  C   UNL     1      24.765  -9.576   5.808  1.00  0.00     0.226 A 
ATOM      6  N   UNL     1      24.032  -8.525   6.296  1.00  0.00    -0.217 NA
ATOM      7  C   UNL     1      23.191  -7.808   5.490  1.00  0.00     0.152 A 
ATOM      8  C   UNL     1      23.107  -8.188   4.154  1.00  0.00     0.127 A 
ATOM      9  N   UNL     1      22.382  -7.682   3.149  1.00  0.00    -0.340 N 
ATOM     10  H   UNL     1      21.715  -6.880   3.165  1.00  0.00     0.168 HD
ENDROOT
BRANCH   7  11
ATOM     11  N   UNL     1      22.437  -6.717   6.020  1.00  0.00    -0.382 N 
ATOM     12  H   UNL     1      22.408  -5.792   5.538  1.00  0.00     0.158 HD
ATOM     13  H   UNL     1      21.901  -6.835   6.907  1.00  0.00     0.158 HD
ENDBRANCH   7  11
TORSDOF 1
ENDMDL
MODEL 5
REMARK VINA RESULT:    -4.305      1.465      1.884
REMARK INTER + INTRA:          -4.431
REMARK INTER:                  -4.431
REMARK INTRA:                   0.000
REMARK UNBOUND:                 0.000
REMARK SMILES Nc1ncnc2nc[nH]c12
REMARK SMILES IDX 8 1 7 2 6 3 5 4 4 5 3 6 2 7 10 8 9 9 1 11
REMARK H PARENT 9 10 1 12 1 13
REMARK Flexibility Score: inf
ROOT
ATOM      1  C   UNL     1      23.865  -7.137   1.026  1.00  0.00     0.199 A 
ATOM      2  N   UNL     1      23.325  -8.375   0.860  1.00  0.00    -0.217 NA
ATOM      3  C   UNL     1      23.065  -8.746   2.124  1.00  0.00     0.182 A 
ATOM      4  N   UNL     1      22.512  -9.916   2.525  1.00  0.00    -0.215 NA
ATOM      5  C   UNL     1      22.326 -10.115   3.865  1.00  0.00     0.226 A 
ATOM      6  N   UNL     1      22.690  -9.151   4.770  1.00  0.00    -0.217 NA
ATOM      7  C   UNL     1      23.249  -7.970   4.367  1.00  0.00     0.152 A 
ATOM      8  C   UNL     1      23.433  -7.783   3.000  1.00  0.00     0.127 A 
ATOM      9  N   UNL     1      23.945  -6.747   2.324  1.00  0.00    -0.340 N 
ATOM     10  H   UNL     1      24.321  -5.847   2.696  1.00  0.00     0.168 HD
ENDROOT
BRANCH   7  11
ATOM     11  N   UNL     1      23.621  -6.980   5.327  1.00  0.00    -0.382 N 
ATOM     12  H   UNL     1      23.185  -6.032   5.328  1.00  0.00     0.158 HD
ATOM     13  H   UNL     1      24.343  -7.198   6.048  1.00  0.00     0.158 HD
ENDBRANCH   7  11
TORSDOF 1
ENDMDL
MODEL 6
REMARK VINA RESULT:    -4.154      1.722      3.050
REMARK INTER + INTRA:          -4.275
REMARK INTER:                  -4.275
REMARK INTRA:                   0.000
REMARK UNBOUND:                 0.000
REMARK SMILES Nc1ncnc2nc[nH]c12
REMARK SMILES IDX 8 1 7 2 6 3 5 4 4 5 3 6 2 7 10 8 9 9 1 11
REMARK H PARENT 9 10 1 12 1 13
REMARK Flexibility Score: inf
ROOT
ATOM      1  C   UNL     1      23.552  -6.993   1.193  1.00  0.00     0.199 A 
ATOM      2  N   UNL     1      23.197  -6.247   2.275  1.00  0.00    -0.217 NA
ATOM      3  C   UNL     1      23.196  -7.157   3.262  1.00  0.00     0.182 A 
ATOM      4  N   UNL     1      22.906  -6.934   4.567  1.00  0.00    -0.215 NA
ATOM      5  C   UNL     1      22.957  -7.994   5.429  1.00  0.00     0.226 A 
ATOM      6  N   UNL     1      23.295  -9.244   4.977  1.00  0.00    -0.217 NA
ATOM      7  C   UNL     1      23.588  -9.471   3.661  1.00  0.00     0.152 A 
ATOM      8  C   UNL     1      23.530  -8.382   2.796  1.00  0.00     0.127 A 
ATOM      9  N   UNL     1      23.762  -8.303   1.480  1.00  0.00    -0.340 N 
ATOM     10  H   UNL     1      24.039  -9.062   0.819  1.00  0.00     0.168 HD
ENDROOT
BRANCH   7  11
ATOM     11  N   UNL     1      23.937 -10.782   3.214  1.00  0.00    -0.382 N 
ATOM     12  H   UNL     1      23.987 -11.014   2.197  1.00  0.00     0.158 HD
ATOM     13  H   UNL     1      24.148 -11.532   3.908  1.00  0.00     0.158 HD
ENDBRANCH   7  11
TORSDOF 1
ENDMDL
MODEL 7
REMARK VINA RESULT:    -4.114      1.820      2.570
REMARK INTER + INTRA:          -4.234
REMARK INTER:                  -4.234
REMARK INTRA:                   0.000
REMARK UNBOUND:                 0.000
REMARK SMILES Nc1ncnc2nc[nH]c12
REMARK SMILES IDX 8 1 7 2 6 3 5 4 4 5 3 6 2 7 10 8 9 9 1 11
REMARK H PARENT 9 10 1 12 1 13
REMARK Flexibility Score: inf
ROOT
ATOM      1  C   UNL     1      23.312 -10.513   2.049  1.00  0.00     0.199 A 
ATOM      2  N   UNL     1      22.888 -10.679   3.332  1.00  0.00    -0.217 NA
ATOM      3  C   UNL     1      22.946  -9.428   3.817  1.00  0.00     0.182 A 
ATOM      4  N   UNL     1      22.623  -9.032   5.072  1.00  0.00    -0.215 NA
ATOM      5  C   UNL     1      22.749  -7.706   5.382  1.00  0.00     0.226 A 
ATOM      6  N   UNL     1      23.189  -6.810   4.442  1.00  0.00    -0.217 NA
ATOM      7  C   UNL     1      23.515  -7.207   3.175  1.00  0.00     0.152 A 
ATOM      8  C   UNL     1      23.383  -8.561   2.876  1.00  0.00     0.127 A 
ATOM      9  N   UNL     1      23.623  -9.228   1.740  1.00  0.00    -0.340 N 
ATOM     10  H   UNL     1      23.968  -8.859   0.827  1.00  0.00     0.168 HD
ENDROOT
BRANCH   7  11
ATOM     11  N   UNL     1      23.972  -6.256   2.214  1.00  0.00    -0.382 N 
ATOM     12  H   UNL     1      24.945  -5.878   2.242  1.00  0.00     0.158 HD
ATOM     13  H   UNL     1      23.329  -5.923   1.462  1.00  0.00     0.158 HD
ENDBRANCH   7  11
TORSDOF 1
ENDMDL
MODEL 8
REMARK VINA RESULT:    -4.037      1.595      4.044
REMARK INTER + INTRA:          -4.155
REMARK INTER:                  -4.155
REMARK INTRA:                   0.000
REMARK UNBOUND:                 0.000
REMARK SMILES Nc1ncnc2nc[nH]c12
REMARK SMILES IDX 8 1 7 2 6 3 5 4 4 5 3 6 2 7 10 8 9 9 1 11
REMARK H PARENT 9 10 1 12 1 13
REMARK Flexibility Score: inf
ROOT
ATOM      1  C   UNL     1      22.886  -8.196   5.488  1.00  0.00     0.199 A 
ATOM      2  N   UNL     1      22.827  -6.989   4.864  1.00  0.00    -0.217 NA
ATOM      3  C   UNL     1      23.119  -7.308   3.593  1.00  0.00     0.182 A 
ATOM      4  N   UNL     1      23.194  -6.457   2.541  1.00  0.00    -0.215 NA
ATOM      5  C   UNL     1      23.509  -6.973   1.315  1.00  0.00     0.226 A 
ATOM      6  N   UNL     1      23.739  -8.316   1.162  1.00  0.00    -0.217 NA
ATOM      7  C   UNL     1      23.664  -9.177   2.221  1.00  0.00     0.152 A 
ATOM      8  C   UNL     1      23.344  -8.636   3.464  1.00  0.00     0.127 A 
ATOM      9  N   UNL     1      23.201  -9.224   4.658  1.00  0.00    -0.340 N 
ATOM     10  H   UNL     1      23.304 -10.233   4.906  1.00  0.00     0.168 HD
ENDROOT
BRANCH   7  11
ATOM     11  N   UNL     1      23.908 -10.572   2.039  1.00  0.00    -0.382 N 
ATOM     12  H   UNL     1      24.830 -10.999   2.279  1.00  0.00     0.158 HD
ATOM     13  H   UNL     1      23.157 -11.188   1.657  1.00  0.00     0.158 HD
ENDBRANCH   7  11
TORSDOF 1
ENDMDL
MODEL 9
REMARK VINA RESULT:    -3.985      2.818      4.414
REMARK INTER + INTRA:          -4.101
REMARK INTER:                  -4.101
REMARK INTRA:                   0.000
REMARK UNBOUND:                 0.000
REMARK SMILES Nc1ncnc2nc[nH]c12
REMARK SMILES IDX 8 1 7 2 6 3 5 4 4 5 3 6 2 7 10 8 9 9 1 11
REMARK H PARENT 9 10 1 12 1 13
REMARK Flexibility Score: inf
ROOT
ATOM      1  C   UNL     1      23.125  -6.907   5.097  1.00  0.00     0.199 A 
ATOM      2  N   UNL     1      22.743  -7.398   3.887  1.00  0.00    -0.217 NA
ATOM      3  C   UNL     1      23.186  -8.665   3.939  1.00  0.00     0.182 A 
ATOM      4  N   UNL     1      23.061  -9.605   2.972  1.00  0.00    -0.215 NA
ATOM      5  C   UNL     1      23.581 -10.847   3.209  1.00  0.00     0.226 A 
ATOM      6  N   UNL     1      24.209 -11.125   4.396  1.00  0.00    -0.217 NA
ATOM      7  C   UNL     1      24.336 -10.177   5.374  1.00  0.00     0.152 A 
ATOM      8  C   UNL     1      23.802  -8.917   5.116  1.00  0.00     0.127 A 
ATOM      9  N   UNL     1      23.776  -7.812   5.872  1.00  0.00    -0.340 N 
ATOM     10  H   UNL     1      24.161  -7.668   6.831  1.00  0.00     0.168 HD
ENDROOT
BRANCH   7  11
ATOM     11  N   UNL     1      24.994 -10.488   6.602  1.00  0.00    -0.382 N 
ATOM     12  H   UNL     1      25.889 -10.026   6.872  1.00  0.00     0.158 HD
ATOM     13  H   UNL     1      24.580 -11.193   7.253  1.00  0.00     0.158 HD
ENDBRANCH   7  11
TORSDOF 1
ENDMDL
