MODEL 1
REMARK VINA RESULT:    -5.035      0.000      0.000
REMARK INTER + INTRA:         -10.585
REMARK INTER:                  -8.862
REMARK INTRA:                  -1.723
REMARK UNBOUND:                -1.723
REMARK SMILES CCCCCCCCCCCCCCC(=O)[O-]
REMARK SMILES IDX 9 1 10 2 11 3 12 4 13 5 14 6 15 7 16 8 17 9 8 10 7 11 6 12
REMARK SMILES IDX 5 13 4 14 3 15 2 16 1 17
REMARK H PARENT
REMARK Flexibility Score: inf
ROOT
ATOM      1  C   UNL     1     112.819 -82.946  21.374  1.00  0.00     0.000 C 
ENDROOT
BRANCH   1   2
ATOM      2  C   UNL     1     113.668 -83.778  20.401  1.00  0.00     0.000 C 
BRANCH   2   3
ATOM      3  C   UNL     1     115.100 -83.239  20.252  1.00  0.00     0.000 C 
BRANCH   3   4
ATOM      4  C   UNL     1     115.962 -83.500  21.500  1.00  0.00     0.000 C 
BRANCH   4   5
ATOM      5  C   UNL     1     117.463 -83.310  21.231  1.00  0.00     0.006 C 
BRANCH   5   6
ATOM      6  C   UNL     1     118.216 -82.747  22.444  1.00  0.00     0.053 C 
BRANCH   6   7
ATOM      7  C   UNL     1     119.088 -81.603  22.030  1.00  0.00     0.041 C 
ATOM      8  O   UNL     1     119.105 -81.222  20.831  1.00  0.00    -0.550 OA
ATOM      9  O   UNL     1     119.844 -80.925  22.979  1.00  0.00    -0.550 OA
ENDBRANCH   6   7
ENDBRANCH   5   6
ENDBRANCH   4   5
ENDBRANCH   3   4
ENDBRANCH   2   3
ENDBRANCH   1   2
BRANCH   1  10
ATOM     10  C   UNL     1     112.332 -81.652  20.709  1.00  0.00     0.000 C 
BRANCH  10  11
ATOM     11  C   UNL     1     112.857 -80.418  21.458  1.00  0.00    -0.000 C 
BRANCH  11  12
ATOM     12  C   UNL     1     113.487 -79.377  20.519  1.00  0.00    -0.000 C 
BRANCH  12  13
ATOM     13  C   UNL     1     114.970 -79.666  20.226  1.00  0.00    -0.000 C 
BRANCH  13  14
ATOM     14  C   UNL     1     115.809 -79.805  21.507  1.00  0.00    -0.000 C 
BRANCH  14  15
ATOM     15  C   UNL     1     116.711 -78.584  21.758  1.00  0.00    -0.000 C 
BRANCH  15  16
ATOM     16  C   UNL     1     116.362 -77.855  23.064  1.00  0.00    -0.003 C 
ATOM     17  C   UNL     1     115.463 -76.638  22.844  1.00  0.00     0.004 C 
ENDBRANCH  15  16
ENDBRANCH  14  15
ENDBRANCH  13  14
ENDBRANCH  12  13
ENDBRANCH  11  12
ENDBRANCH  10  11
ENDBRANCH   1  10
TORSDOF 13
ENDMDL
MODEL 2
REMARK VINA RESULT:    -5.028      3.111      5.122
REMARK INTER + INTRA:         -10.572
REMARK INTER:                  -8.903
REMARK INTRA:                  -1.670
REMARK UNBOUND:                -1.723
REMARK SMILES CCCCCCCCCCCCCCC(=O)[O-]
REMARK SMILES IDX 9 1 10 2 11 3 12 4 13 5 14 6 15 7 16 8 17 9 8 10 7 11 6 12
REMARK SMILES IDX 5 13 4 14 3 15 2 16 1 17
REMARK H PARENT
REMARK Flexibility Score: inf
ROOT
ATOM      1  C   UNL     1     117.271 -83.136  21.881  1.00  0.00     0.000 C 
ENDROOT
BRANCH   1   2
ATOM      2  C   UNL     1     115.816 -82.653  21.774  1.00  0.00     0.000 C 
BRANCH   2   3
ATOM      3  C   UNL     1     115.183 -82.976  20.411  1.00  0.00     0.000 C 
BRANCH   3   4
ATOM      4  C   UNL     1     113.987 -83.937  20.529  1.00  0.00     0.000 C 
BRANCH   4   5
ATOM      5  C   UNL     1     112.970 -83.488  21.590  1.00  0.00     0.006 C 
BRANCH   5   6
ATOM      6  C   UNL     1     112.089 -82.325  21.113  1.00  0.00     0.053 C 
BRANCH   6   7
ATOM      7  C   UNL     1     111.216 -81.841  22.228  1.00  0.00     0.041 C 
ATOM      8  O   UNL     1     110.709 -82.662  23.037  1.00  0.00    -0.550 OA
ATOM      9  O   UNL     1     111.004 -80.480  22.405  1.00  0.00    -0.550 OA
ENDBRANCH   6   7
ENDBRANCH   5   6
ENDBRANCH   4   5
ENDBRANCH   3   4
ENDBRANCH   2   3
ENDBRANCH   1   2
BRANCH   1  10
ATOM     10  C   UNL     1     118.191 -82.005  22.357  1.00  0.00     0.000 C 
BRANCH  10  11
ATOM     11  C   UNL     1     118.800 -81.254  21.163  1.00  0.00    -0.000 C 
BRANCH  11  12
ATOM     12  C   UNL     1     118.304 -79.802  21.060  1.00  0.00    -0.000 C 
BRANCH  12  13
ATOM     13  C   UNL     1     117.552 -79.344  22.321  1.00  0.00    -0.000 C 
BRANCH  13  14
ATOM     14  C   UNL     1     116.180 -78.726  22.001  1.00  0.00    -0.000 C 
BRANCH  14  15
ATOM     15  C   UNL     1     115.581 -79.266  20.691  1.00  0.00    -0.000 C 
BRANCH  15  16
ATOM     16  C   UNL     1     114.046 -79.335  20.732  1.00  0.00    -0.003 C 
ATOM     17  C   UNL     1     113.397 -77.974  20.985  1.00  0.00     0.004 C 
ENDBRANCH  15  16
ENDBRANCH  14  15
ENDBRANCH  13  14
ENDBRANCH  12  13
ENDBRANCH  11  12
ENDBRANCH  10  11
ENDBRANCH   1  10
TORSDOF 13
ENDMDL
MODEL 3
REMARK VINA RESULT:    -5.006      9.835     11.521
REMARK INTER + INTRA:         -10.534
REMARK INTER:                  -9.001
REMARK INTRA:                  -1.533
REMARK UNBOUND:                -1.723
REMARK SMILES CCCCCCCCCCCCCCC(=O)[O-]
REMARK SMILES IDX 9 1 10 2 11 3 12 4 13 5 14 6 15 7 16 8 17 9 8 10 7 11 6 12
REMARK SMILES IDX 5 13 4 14 3 15 2 16 1 17
REMARK H PARENT
REMARK Flexibility Score: inf
ROOT
ATOM      1  C   UNL     1     104.612 -83.728  19.508  1.00  0.00     0.000 C 
ENDROOT
BRANCH   1   2
ATOM      2  C   UNL     1     105.561 -82.850  18.678  1.00  0.00     0.000 C 
BRANCH   2   3
ATOM      3  C   UNL     1     105.379 -81.349  18.959  1.00  0.00     0.000 C 
BRANCH   3   4
ATOM      4  C   UNL     1     106.235 -80.862  20.142  1.00  0.00     0.000 C 
BRANCH   4   5
ATOM      5  C   UNL     1     105.804 -79.477  20.652  1.00  0.00     0.006 C 
BRANCH   5   6
ATOM      6  C   UNL     1     105.165 -78.615  19.555  1.00  0.00     0.053 C 
BRANCH   6   7
ATOM      7  C   UNL     1     104.801 -77.268  20.098  1.00  0.00     0.041 C 
ATOM      8  O   UNL     1     103.603 -77.000  20.376  1.00  0.00    -0.550 OA
ATOM      9  O   UNL     1     105.793 -76.327  20.345  1.00  0.00    -0.550 OA
ENDBRANCH   6   7
ENDBRANCH   5   6
ENDBRANCH   4   5
ENDBRANCH   3   4
ENDBRANCH   2   3
ENDBRANCH   1   2
BRANCH   1  10
ATOM     10  C   UNL     1     103.298 -82.992  19.802  1.00  0.00     0.000 C 
BRANCH  10  11
ATOM     11  C   UNL     1     102.882 -83.177  21.269  1.00  0.00    -0.000 C 
BRANCH  11  12
ATOM     12  C   UNL     1     103.586 -82.190  22.215  1.00  0.00    -0.000 C 
BRANCH  12  13
ATOM     13  C   UNL     1     104.694 -82.858  23.047  1.00  0.00    -0.000 C 
BRANCH  13  14
ATOM     14  C   UNL     1     105.696 -81.843  23.623  1.00  0.00    -0.000 C 
BRANCH  14  15
ATOM     15  C   UNL     1     107.111 -82.429  23.770  1.00  0.00    -0.000 C 
BRANCH  15  16
ATOM     16  C   UNL     1     107.723 -82.144  25.151  1.00  0.00    -0.003 C 
ATOM     17  C   UNL     1     106.708 -81.583  26.147  1.00  0.00     0.004 C 
ENDBRANCH  15  16
ENDBRANCH  14  15
ENDBRANCH  13  14
ENDBRANCH  12  13
ENDBRANCH  11  12
ENDBRANCH  10  11
ENDBRANCH   1  10
TORSDOF 13
ENDMDL
MODEL 4
REMARK VINA RESULT:    -4.989      1.256      2.022
REMARK INTER + INTRA:         -10.504
REMARK INTER:                  -8.891
REMARK INTRA:                  -1.613
REMARK UNBOUND:                -1.723
REMARK SMILES CCCCCCCCCCCCCCC(=O)[O-]
REMARK SMILES IDX 9 1 10 2 11 3 12 4 13 5 14 6 15 7 16 8 17 9 8 10 7 11 6 12
REMARK SMILES IDX 5 13 4 14 3 15 2 16 1 17
REMARK H PARENT
REMARK Flexibility Score: inf
ROOT
ATOM      1  C   UNL     1     113.488 -83.543  20.404  1.00  0.00     0.000 C 
ENDROOT
BRANCH   1   2
ATOM      2  C   UNL     1     115.019 -83.422  20.400  1.00  0.00     0.000 C 
BRANCH   2   3
ATOM      3  C   UNL     1     115.541 -82.460  21.479  1.00  0.00     0.000 C 
BRANCH   3   4
ATOM      4  C   UNL     1     116.777 -83.012  22.213  1.00  0.00     0.000 C 
BRANCH   4   5
ATOM      5  C   UNL     1     118.031 -83.031  21.325  1.00  0.00     0.006 C 
BRANCH   5   6
ATOM      6  C   UNL     1     118.993 -81.875  21.633  1.00  0.00     0.053 C 
BRANCH   6   7
ATOM      7  C   UNL     1     119.526 -81.999  23.027  1.00  0.00     0.041 C 
ATOM      8  O   UNL     1     119.980 -83.100  23.435  1.00  0.00    -0.550 OA
ATOM      9  O   UNL     1     119.569 -80.886  23.857  1.00  0.00    -0.550 OA
ENDBRANCH   6   7
ENDBRANCH   5   6
ENDBRANCH   4   5
ENDBRANCH   3   4
ENDBRANCH   2   3
ENDBRANCH   1   2
BRANCH   1  10
ATOM     10  C   UNL     1     112.928 -83.391  21.824  1.00  0.00     0.000 C 
BRANCH  10  11
ATOM     11  C   UNL     1     111.747 -82.409  21.846  1.00  0.00    -0.000 C 
BRANCH  11  12
ATOM     12  C   UNL     1     111.851 -81.330  20.756  1.00  0.00    -0.000 C 
BRANCH  12  13
ATOM     13  C   UNL     1     112.462 -80.018  21.281  1.00  0.00    -0.000 C 
BRANCH  13  14
ATOM     14  C   UNL     1     113.640 -79.529  20.421  1.00  0.00    -0.000 C 
BRANCH  14  15
ATOM     15  C   UNL     1     114.451 -78.417  21.109  1.00  0.00    -0.000 C 
BRANCH  15  16
ATOM     16  C   UNL     1     115.390 -78.962  22.196  1.00  0.00    -0.003 C 
ATOM     17  C   UNL     1     116.867 -78.854  21.816  1.00  0.00     0.004 C 
ENDBRANCH  15  16
ENDBRANCH  14  15
ENDBRANCH  13  14
ENDBRANCH  12  13
ENDBRANCH  11  12
ENDBRANCH  10  11
ENDBRANCH   1  10
TORSDOF 13
ENDMDL
MODEL 5
REMARK VINA RESULT:    -4.967      2.563      4.815
REMARK INTER + INTRA:         -10.465
REMARK INTER:                  -9.090
REMARK INTRA:                  -1.375
REMARK UNBOUND:                -1.723
REMARK SMILES CCCCCCCCCCCCCCC(=O)[O-]
REMARK SMILES IDX 9 1 10 2 11 3 12 4 13 5 14 6 15 7 16 8 17 9 8 10 7 11 6 12
REMARK SMILES IDX 5 13 4 14 3 15 2 16 1 17
REMARK H PARENT
REMARK Flexibility Score: inf
ROOT
ATOM      1  C   UNL     1     117.647 -83.418  21.107  1.00  0.00     0.000 C 
ENDROOT
BRANCH   1   2
ATOM      2  C   UNL     1     116.154 -83.428  21.468  1.00  0.00     0.000 C 
BRANCH   2   3
ATOM      3  C   UNL     1     115.250 -83.125  20.262  1.00  0.00     0.000 C 
BRANCH   3   4
ATOM      4  C   UNL     1     113.887 -83.836  20.352  1.00  0.00     0.000 C 
BRANCH   4   5
ATOM      5  C   UNL     1     112.934 -83.160  21.350  1.00  0.00     0.006 C 
BRANCH   5   6
ATOM      6  C   UNL     1     111.942 -82.206  20.670  1.00  0.00     0.053 C 
BRANCH   6   7
ATOM      7  C   UNL     1     112.187 -80.798  21.113  1.00  0.00     0.041 C 
ATOM      8  O   UNL     1     113.312 -80.463  21.567  1.00  0.00    -0.550 OA
ATOM      9  O   UNL     1     111.187 -79.842  20.979  1.00  0.00    -0.550 OA
ENDBRANCH   6   7
ENDBRANCH   5   6
ENDBRANCH   4   5
ENDBRANCH   3   4
ENDBRANCH   2   3
ENDBRANCH   1   2
BRANCH   1  10
ATOM     10  C   UNL     1     118.504 -83.055  22.327  1.00  0.00     0.000 C 
BRANCH  10  11
ATOM     11  C   UNL     1     118.640 -81.531  22.469  1.00  0.00    -0.000 C 
BRANCH  11  12
ATOM     12  C   UNL     1     119.184 -80.863  21.196  1.00  0.00    -0.000 C 
BRANCH  12  13
ATOM     13  C   UNL     1     118.330 -79.663  20.748  1.00  0.00    -0.000 C 
BRANCH  13  14
ATOM     14  C   UNL     1     116.849 -79.815  21.131  1.00  0.00    -0.000 C 
BRANCH  14  15
ATOM     15  C   UNL     1     116.299 -78.580  21.866  1.00  0.00    -0.000 C 
BRANCH  15  16
ATOM     16  C   UNL     1     117.386 -77.836  22.658  1.00  0.00    -0.003 C 
ATOM     17  C   UNL     1     116.816 -76.754  23.576  1.00  0.00     0.004 C 
ENDBRANCH  15  16
ENDBRANCH  14  15
ENDBRANCH  13  14
ENDBRANCH  12  13
ENDBRANCH  11  12
ENDBRANCH  10  11
ENDBRANCH   1  10
TORSDOF 13
ENDMDL
MODEL 6
REMARK VINA RESULT:    -4.960      1.612      3.106
REMARK INTER + INTRA:         -10.452
REMARK INTER:                  -8.690
REMARK INTRA:                  -1.763
REMARK UNBOUND:                -1.723
REMARK SMILES CCCCCCCCCCCCCCC(=O)[O-]
REMARK SMILES IDX 9 1 10 2 11 3 12 4 13 5 14 6 15 7 16 8 17 9 8 10 7 11 6 12
REMARK SMILES IDX 5 13 4 14 3 15 2 16 1 17
REMARK H PARENT
REMARK Flexibility Score: inf
ROOT
ATOM      1  C   UNL     1     115.486 -80.839  21.833  1.00  0.00     0.000 C 
ENDROOT
BRANCH   1   2
ATOM      2  C   UNL     1     115.025 -82.036  20.988  1.00  0.00     0.000 C 
BRANCH   2   3
ATOM      3  C   UNL     1     116.011 -83.214  21.041  1.00  0.00     0.000 C 
BRANCH   3   4
ATOM      4  C   UNL     1     117.140 -82.994  22.063  1.00  0.00     0.000 C 
BRANCH   4   5
ATOM      5  C   UNL     1     118.525 -82.899  21.403  1.00  0.00     0.006 C 
BRANCH   5   6
ATOM      6  C   UNL     1     119.064 -81.462  21.362  1.00  0.00     0.053 C 
BRANCH   6   7
ATOM      7  C   UNL     1     119.506 -81.033  22.726  1.00  0.00     0.041 C 
ATOM      8  O   UNL     1     119.108 -79.939  23.205  1.00  0.00    -0.550 OA
ATOM      9  O   UNL     1     120.316 -81.864  23.489  1.00  0.00    -0.550 OA
ENDBRANCH   6   7
ENDBRANCH   5   6
ENDBRANCH   4   5
ENDBRANCH   3   4
ENDBRANCH   2   3
ENDBRANCH   1   2
BRANCH   1  10
ATOM     10  C   UNL     1     115.795 -79.627  20.946  1.00  0.00     0.000 C 
BRANCH  10  11
ATOM     11  C   UNL     1     116.271 -78.435  21.791  1.00  0.00    -0.000 C 
BRANCH  11  12
ATOM     12  C   UNL     1     115.738 -78.479  23.232  1.00  0.00    -0.000 C 
BRANCH  12  13
ATOM     13  C   UNL     1     114.308 -77.924  23.351  1.00  0.00    -0.000 C 
BRANCH  13  14
ATOM     14  C   UNL     1     114.137 -76.570  22.641  1.00  0.00    -0.000 C 
BRANCH  14  15
ATOM     15  C   UNL     1     113.159 -76.643  21.457  1.00  0.00    -0.000 C 
BRANCH  15  16
ATOM     16  C   UNL     1     112.500 -78.025  21.324  1.00  0.00    -0.003 C 
ATOM     17  C   UNL     1     112.380 -78.489  19.872  1.00  0.00     0.004 C 
ENDBRANCH  15  16
ENDBRANCH  14  15
ENDBRANCH  13  14
ENDBRANCH  12  13
ENDBRANCH  11  12
ENDBRANCH  10  11
ENDBRANCH   1  10
TORSDOF 13
ENDMDL
MODEL 7
REMARK VINA RESULT:    -4.956      8.304     10.844
REMARK INTER + INTRA:         -10.446
REMARK INTER:                  -8.627
REMARK INTRA:                  -1.819
REMARK UNBOUND:                -1.723
REMARK SMILES CCCCCCCCCCCCCCC(=O)[O-]
REMARK SMILES IDX 9 1 10 2 11 3 12 4 13 5 14 6 15 7 16 8 17 9 8 10 7 11 6 12
REMARK SMILES IDX 5 13 4 14 3 15 2 16 1 17
REMARK H PARENT
REMARK Flexibility Score: inf
ROOT
ATOM      1  C   UNL     1     108.795 -83.020  23.683  1.00  0.00     0.000 C 
ENDROOT
BRANCH   1   2
ATOM      2  C   UNL     1     108.008 -82.203  24.719  1.00  0.00     0.000 C 
BRANCH   2   3
ATOM      3  C   UNL     1     106.494 -82.456  24.649  1.00  0.00     0.000 C 
BRANCH   3   4
ATOM      4  C   UNL     1     106.153 -83.845  24.081  1.00  0.00     0.000 C 
BRANCH   4   5
ATOM      5  C   UNL     1     104.987 -83.804  23.080  1.00  0.00     0.006 C 
BRANCH   5   6
ATOM      6  C   UNL     1     104.271 -82.447  23.060  1.00  0.00     0.053 C 
BRANCH   6   7
ATOM      7  C   UNL     1     102.827 -82.624  22.710  1.00  0.00     0.041 C 
ATOM      8  O   UNL     1     102.251 -81.794  21.959  1.00  0.00    -0.550 OA
ATOM      9  O   UNL     1     102.130 -83.734  23.171  1.00  0.00    -0.550 OA
ENDBRANCH   6   7
ENDBRANCH   5   6
ENDBRANCH   4   5
ENDBRANCH   3   4
ENDBRANCH   2   3
ENDBRANCH   1   2
BRANCH   1  10
ATOM     10  C   UNL     1     110.037 -82.255  23.208  1.00  0.00     0.000 C 
BRANCH  10  11
ATOM     11  C   UNL     1     110.105 -80.863  23.855  1.00  0.00    -0.000 C 
BRANCH  11  12
ATOM     12  C   UNL     1     110.225 -79.733  22.820  1.00  0.00    -0.000 C 
BRANCH  12  13
ATOM     13  C   UNL     1     109.358 -79.979  21.573  1.00  0.00    -0.000 C 
BRANCH  13  14
ATOM     14  C   UNL     1     107.857 -79.788  21.849  1.00  0.00    -0.000 C 
BRANCH  14  15
ATOM     15  C   UNL     1     106.992 -80.873  21.185  1.00  0.00    -0.000 C 
BRANCH  15  16
ATOM     16  C   UNL     1     105.864 -80.281  20.327  1.00  0.00    -0.003 C 
ATOM     17  C   UNL     1     105.254 -81.298  19.362  1.00  0.00     0.004 C 
ENDBRANCH  15  16
ENDBRANCH  14  15
ENDBRANCH  13  14
ENDBRANCH  12  13
ENDBRANCH  11  12
ENDBRANCH  10  11
ENDBRANCH   1  10
TORSDOF 13
ENDMDL
MODEL 8
REMARK VINA RESULT:    -4.901      6.979      9.502
REMARK INTER + INTRA:         -10.349
REMARK INTER:                  -8.263
REMARK INTRA:                  -2.086
REMARK UNBOUND:                -1.723
REMARK SMILES CCCCCCCCCCCCCCC(=O)[O-]
REMARK SMILES IDX 9 1 10 2 11 3 12 4 13 5 14 6 15 7 16 8 17 9 8 10 7 11 6 12
REMARK SMILES IDX 5 13 4 14 3 15 2 16 1 17
REMARK H PARENT
REMARK Flexibility Score: inf
ROOT
ATOM      1  C   UNL     1     105.639 -83.574  23.699  1.00  0.00     0.000 C 
ENDROOT
BRANCH   1   2
ATOM      2  C   UNL     1     105.952 -82.120  24.086  1.00  0.00     0.000 C 
BRANCH   2   3
ATOM      3  C   UNL     1     107.457 -81.866  24.269  1.00  0.00     0.000 C 
BRANCH   3   4
ATOM      4  C   UNL     1     108.322 -83.003  23.696  1.00  0.00     0.000 C 
BRANCH   4   5
ATOM      5  C   UNL     1     109.763 -82.558  23.401  1.00  0.00     0.006 C 
BRANCH   5   6
ATOM      6  C   UNL     1     109.991 -81.066  23.680  1.00  0.00     0.053 C 
BRANCH   6   7
ATOM      7  C   UNL     1     110.625 -80.406  22.496  1.00  0.00     0.041 C 
ATOM      8  O   UNL     1     111.524 -79.540  22.660  1.00  0.00    -0.550 OA
ATOM      9  O   UNL     1     110.261 -80.784  21.210  1.00  0.00    -0.550 OA
ENDBRANCH   6   7
ENDBRANCH   5   6
ENDBRANCH   4   5
ENDBRANCH   3   4
ENDBRANCH   2   3
ENDBRANCH   1   2
BRANCH   1  10
ATOM     10  C   UNL     1     104.294 -83.670  22.968  1.00  0.00     0.000 C 
BRANCH  10  11
ATOM     11  C   UNL     1     103.758 -82.273  22.619  1.00  0.00    -0.000 C 
BRANCH  11  12
ATOM     12  C   UNL     1     103.069 -82.227  21.245  1.00  0.00    -0.000 C 
BRANCH  12  13
ATOM     13  C   UNL     1     103.846 -83.005  20.169  1.00  0.00    -0.000 C 
BRANCH  13  14
ATOM     14  C   UNL     1     104.643 -82.083  19.231  1.00  0.00    -0.000 C 
BRANCH  14  15
ATOM     15  C   UNL     1     106.149 -82.395  19.235  1.00  0.00    -0.000 C 
BRANCH  15  16
ATOM     16  C   UNL     1     106.867 -81.809  20.461  1.00  0.00    -0.003 C 
ATOM     17  C   UNL     1     106.424 -80.381  20.783  1.00  0.00     0.004 C 
ENDBRANCH  15  16
ENDBRANCH  14  15
ENDBRANCH  13  14
ENDBRANCH  12  13
ENDBRANCH  11  12
ENDBRANCH  10  11
ENDBRANCH   1  10
TORSDOF 13
ENDMDL
MODEL 9
REMARK VINA RESULT:    -4.877      1.488      3.309
REMARK INTER + INTRA:         -10.306
REMARK INTER:                  -8.692
REMARK INTRA:                  -1.614
REMARK UNBOUND:                -1.723
REMARK SMILES CCCCCCCCCCCCCCC(=O)[O-]
REMARK SMILES IDX 9 1 10 2 11 3 12 4 13 5 14 6 15 7 16 8 17 9 8 10 7 11 6 12
REMARK SMILES IDX 5 13 4 14 3 15 2 16 1 17
REMARK H PARENT
REMARK Flexibility Score: inf
ROOT
ATOM      1  C   UNL     1     115.886 -83.001  21.478  1.00  0.00     0.000 C 
ENDROOT
BRANCH   1   2
ATOM      2  C   UNL     1     117.356 -83.415  21.319  1.00  0.00     0.000 C 
BRANCH   2   3
ATOM      3  C   UNL     1     118.334 -82.328  21.792  1.00  0.00     0.000 C 
BRANCH   3   4
ATOM      4  C   UNL     1     119.282 -82.827  22.897  1.00  0.00     0.000 C 
BRANCH   4   5
ATOM      5  C   UNL     1     120.036 -81.681  23.591  1.00  0.00     0.006 C 
BRANCH   5   6
ATOM      6  C   UNL     1     120.083 -80.403  22.742  1.00  0.00     0.053 C 
BRANCH   6   7
ATOM      7  C   UNL     1     119.538 -79.244  23.516  1.00  0.00     0.041 C 
ATOM      8  O   UNL     1     119.164 -79.398  24.708  1.00  0.00    -0.550 OA
ATOM      9  O   UNL     1     119.492 -77.981  22.938  1.00  0.00    -0.550 OA
ENDBRANCH   6   7
ENDBRANCH   5   6
ENDBRANCH   4   5
ENDBRANCH   3   4
ENDBRANCH   2   3
ENDBRANCH   1   2
BRANCH   1  10
ATOM     10  C   UNL     1     115.090 -83.296  20.200  1.00  0.00     0.000 C 
BRANCH  10  11
ATOM     11  C   UNL     1     113.634 -83.658  20.531  1.00  0.00    -0.000 C 
BRANCH  11  12
ATOM     12  C   UNL     1     113.013 -82.721  21.580  1.00  0.00    -0.000 C 
BRANCH  12  13
ATOM     13  C   UNL     1     112.553 -81.382  20.978  1.00  0.00    -0.000 C 
BRANCH  13  14
ATOM     14  C   UNL     1     113.366 -80.187  21.503  1.00  0.00    -0.000 C 
BRANCH  14  15
ATOM     15  C   UNL     1     114.215 -79.523  20.405  1.00  0.00    -0.000 C 
BRANCH  15  16
ATOM     16  C   UNL     1     115.716 -79.537  20.735  1.00  0.00    -0.003 C 
ATOM     17  C   UNL     1     116.000 -79.323  22.221  1.00  0.00     0.004 C 
ENDBRANCH  15  16
ENDBRANCH  14  15
ENDBRANCH  13  14
ENDBRANCH  12  13
ENDBRANCH  11  12
ENDBRANCH  10  11
ENDBRANCH   1  10
TORSDOF 13
ENDMDL
