MODEL 1
REMARK VINA RESULT:    -3.998      0.000      0.000
REMARK INTER + INTRA:          -6.293
REMARK INTER:                  -5.634
REMARK INTRA:                  -0.659
REMARK UNBOUND:                -0.659
REMARK SMILES C=CCCCCCCC(=O)[O-]
REMARK SMILES IDX 6 1 7 2 8 3 9 4 10 5 11 6 5 7 4 8 3 9 2 10 1 11
REMARK H PARENT
REMARK Flexibility Score: inf
ROOT
ATOM      1  C   UNL     1      31.747   5.294  48.193  1.00  0.00     0.000 C 
ENDROOT
BRANCH   1   2
ATOM      2  C   UNL     1      33.240   5.493  47.879  1.00  0.00     0.006 C 
BRANCH   2   3
ATOM      3  C   UNL     1      33.485   6.719  46.987  1.00  0.00     0.053 C 
BRANCH   3   4
ATOM      4  C   UNL     1      34.079   6.338  45.666  1.00  0.00     0.041 C 
ATOM      5  O   UNL     1      33.861   7.044  44.647  1.00  0.00    -0.550 OA
ATOM      6  O   UNL     1      34.899   5.221  45.566  1.00  0.00    -0.550 OA
ENDBRANCH   3   4
ENDBRANCH   2   3
ENDBRANCH   1   2
BRANCH   1   7
ATOM      7  C   UNL     1      30.869   6.426  47.633  1.00  0.00     0.000 C 
BRANCH   7   8
ATOM      8  C   UNL     1      29.708   6.796  48.572  1.00  0.00     0.004 C 
BRANCH   8   9
ATOM      9  C   UNL     1      29.999   8.074  49.373  1.00  0.00     0.027 C 
BRANCH   9  10
ATOM     10  C   UNL     1      31.088   8.907  48.752  1.00  0.00    -0.035 C 
ATOM     11  C   UNL     1      32.122   9.361  49.468  1.00  0.00     0.004 C 
ENDBRANCH   9  10
ENDBRANCH   8   9
ENDBRANCH   7   8
ENDBRANCH   1   7
TORSDOF 7
ENDMDL
MODEL 2
REMARK VINA RESULT:    -3.899      1.367      2.464
REMARK INTER + INTRA:          -6.153
REMARK INTER:                  -5.870
REMARK INTRA:                  -0.284
REMARK UNBOUND:                -0.659
REMARK SMILES C=CCCCCCCC(=O)[O-]
REMARK SMILES IDX 6 1 7 2 8 3 9 4 10 5 11 6 5 7 4 8 3 9 2 10 1 11
REMARK H PARENT
REMARK Flexibility Score: inf
ROOT
ATOM      1  C   UNL     1      32.764   5.403  48.102  1.00  0.00     0.000 C 
ENDROOT
BRANCH   1   2
ATOM      2  C   UNL     1      34.234   5.852  48.035  1.00  0.00     0.006 C 
BRANCH   2   3
ATOM      3  C   UNL     1      35.127   4.809  47.350  1.00  0.00     0.053 C 
BRANCH   3   4
ATOM      4  C   UNL     1      35.003   4.863  45.858  1.00  0.00     0.041 C 
ATOM      5  O   UNL     1      34.554   5.896  45.297  1.00  0.00    -0.550 OA
ATOM      6  O   UNL     1      35.413   3.783  45.086  1.00  0.00    -0.550 OA
ENDBRANCH   3   4
ENDBRANCH   2   3
ENDBRANCH   1   2
BRANCH   1   7
ATOM      7  C   UNL     1      31.804   6.426  47.472  1.00  0.00     0.000 C 
BRANCH   7   8
ATOM      8  C   UNL     1      31.253   7.432  48.497  1.00  0.00     0.004 C 
BRANCH   8   9
ATOM      9  C   UNL     1      29.741   7.267  48.713  1.00  0.00     0.027 C 
BRANCH   9  10
ATOM     10  C   UNL     1      29.300   5.831  48.616  1.00  0.00    -0.035 C 
ATOM     11  C   UNL     1      28.225   5.470  47.907  1.00  0.00     0.004 C 
ENDBRANCH   9  10
ENDBRANCH   8   9
ENDBRANCH   7   8
ENDBRANCH   1   7
TORSDOF 7
ENDMDL
MODEL 3
REMARK VINA RESULT:    -3.789      1.621      2.882
REMARK INTER + INTRA:          -5.998
REMARK INTER:                  -5.212
REMARK INTRA:                  -0.786
REMARK UNBOUND:                -0.659
REMARK SMILES C=CCCCCCCC(=O)[O-]
REMARK SMILES IDX 6 1 7 2 8 3 9 4 10 5 11 6 5 7 4 8 3 9 2 10 1 11
REMARK H PARENT
REMARK Flexibility Score: inf
ROOT
ATOM      1  C   UNL     1      32.716   7.935  47.829  1.00  0.00     0.000 C 
ENDROOT
BRANCH   1   2
ATOM      2  C   UNL     1      32.388   6.591  47.157  1.00  0.00     0.006 C 
BRANCH   2   3
ATOM      3  C   UNL     1      32.787   5.394  48.031  1.00  0.00     0.053 C 
BRANCH   3   4
ATOM      4  C   UNL     1      34.259   5.124  47.970  1.00  0.00     0.041 C 
ATOM      5  O   UNL     1      34.995   5.402  48.952  1.00  0.00    -0.550 OA
ATOM      6  O   UNL     1      34.813   4.536  46.840  1.00  0.00    -0.550 OA
ENDBRANCH   3   4
ENDBRANCH   2   3
ENDBRANCH   1   2
BRANCH   1   7
ATOM      7  C   UNL     1      32.001   8.112  49.178  1.00  0.00     0.000 C 
BRANCH   7   8
ATOM      8  C   UNL     1      30.476   8.253  49.027  1.00  0.00     0.004 C 
BRANCH   8   9
ATOM      9  C   UNL     1      29.713   7.412  50.062  1.00  0.00     0.027 C 
BRANCH   9  10
ATOM     10  C   UNL     1      29.353   6.046  49.540  1.00  0.00    -0.035 C 
ATOM     11  C   UNL     1      28.928   5.861  48.286  1.00  0.00     0.004 C 
ENDBRANCH   9  10
ENDBRANCH   8   9
ENDBRANCH   7   8
ENDBRANCH   1   7
TORSDOF 7
ENDMDL
MODEL 4
REMARK VINA RESULT:    -3.783      0.708      1.409
REMARK INTER + INTRA:          -5.989
REMARK INTER:                  -5.257
REMARK INTRA:                  -0.732
REMARK UNBOUND:                -0.659
REMARK SMILES C=CCCCCCCC(=O)[O-]
REMARK SMILES IDX 6 1 7 2 8 3 9 4 10 5 11 6 5 7 4 8 3 9 2 10 1 11
REMARK H PARENT
REMARK Flexibility Score: inf
ROOT
ATOM      1  C   UNL     1      31.229   6.252  47.482  1.00  0.00     0.000 C 
ENDROOT
BRANCH   1   2
ATOM      2  C   UNL     1      32.610   5.771  47.963  1.00  0.00     0.006 C 
BRANCH   2   3
ATOM      3  C   UNL     1      33.751   6.623  47.390  1.00  0.00     0.053 C 
BRANCH   3   4
ATOM      4  C   UNL     1      34.211   6.116  46.058  1.00  0.00     0.041 C 
ATOM      5  O   UNL     1      34.968   5.113  45.989  1.00  0.00    -0.550 OA
ATOM      6  O   UNL     1      33.780   6.734  44.891  1.00  0.00    -0.550 OA
ENDBRANCH   3   4
ENDBRANCH   2   3
ENDBRANCH   1   2
BRANCH   1   7
ATOM      7  C   UNL     1      30.239   6.458  48.640  1.00  0.00     0.000 C 
BRANCH   7   8
ATOM      8  C   UNL     1      30.093   7.936  49.039  1.00  0.00     0.004 C 
BRANCH   8   9
ATOM      9  C   UNL     1      31.130   8.355  50.091  1.00  0.00     0.027 C 
BRANCH   9  10
ATOM     10  C   UNL     1      32.027   9.463  49.606  1.00  0.00    -0.035 C 
ATOM     11  C   UNL     1      31.988   9.897  48.341  1.00  0.00     0.004 C 
ENDBRANCH   9  10
ENDBRANCH   8   9
ENDBRANCH   7   8
ENDBRANCH   1   7
TORSDOF 7
ENDMDL
MODEL 5
REMARK VINA RESULT:    -3.607     17.690     18.546
REMARK INTER + INTRA:          -5.742
REMARK INTER:                  -5.334
REMARK INTRA:                  -0.408
REMARK UNBOUND:                -0.659
REMARK SMILES C=CCCCCCCC(=O)[O-]
REMARK SMILES IDX 6 1 7 2 8 3 9 4 10 5 11 6 5 7 4 8 3 9 2 10 1 11
REMARK H PARENT
REMARK Flexibility Score: inf
ROOT
ATOM      1  C   UNL     1      20.593  13.892  35.210  1.00  0.00     0.000 C 
ENDROOT
BRANCH   1   2
ATOM      2  C   UNL     1      20.949  13.637  33.735  1.00  0.00     0.006 C 
BRANCH   2   3
ATOM      3  C   UNL     1      20.780  14.896  32.874  1.00  0.00     0.053 C 
BRANCH   3   4
ATOM      4  C   UNL     1      21.814  14.976  31.793  1.00  0.00     0.041 C 
ATOM      5  O   UNL     1      22.241  16.095  31.407  1.00  0.00    -0.550 OA
ATOM      6  O   UNL     1      22.328  13.813  31.233  1.00  0.00    -0.550 OA
ENDBRANCH   3   4
ENDBRANCH   2   3
ENDBRANCH   1   2
BRANCH   1   7
ATOM      7  C   UNL     1      20.291  12.594  35.978  1.00  0.00     0.000 C 
BRANCH   7   8
ATOM      8  C   UNL     1      20.666  11.333  35.181  1.00  0.00     0.004 C 
BRANCH   8   9
ATOM      9  C   UNL     1      21.881  10.610  35.783  1.00  0.00     0.027 C 
BRANCH   9  10
ATOM     10  C   UNL     1      23.184  11.106  35.214  1.00  0.00    -0.035 C 
ATOM     11  C   UNL     1      24.358  10.805  35.779  1.00  0.00     0.004 C 
ENDBRANCH   9  10
ENDBRANCH   8   9
ENDBRANCH   7   8
ENDBRANCH   1   7
TORSDOF 7
ENDMDL
MODEL 6
REMARK VINA RESULT:    -3.587     17.470     18.400
REMARK INTER + INTRA:          -5.714
REMARK INTER:                  -4.959
REMARK INTRA:                  -0.755
REMARK UNBOUND:                -0.659
REMARK SMILES C=CCCCCCCC(=O)[O-]
REMARK SMILES IDX 6 1 7 2 8 3 9 4 10 5 11 6 5 7 4 8 3 9 2 10 1 11
REMARK H PARENT
REMARK Flexibility Score: inf
ROOT
ATOM      1  C   UNL     1      19.510  13.393  35.638  1.00  0.00     0.000 C 
ENDROOT
BRANCH   1   2
ATOM      2  C   UNL     1      20.711  13.962  34.864  1.00  0.00     0.006 C 
BRANCH   2   3
ATOM      3  C   UNL     1      20.394  14.174  33.377  1.00  0.00     0.053 C 
BRANCH   3   4
ATOM      4  C   UNL     1      21.470  13.624  32.493  1.00  0.00     0.041 C 
ATOM      5  O   UNL     1      21.738  12.395  32.512  1.00  0.00    -0.550 OA
ATOM      6  O   UNL     1      22.156  14.464  31.625  1.00  0.00    -0.550 OA
ENDBRANCH   3   4
ENDBRANCH   2   3
ENDBRANCH   1   2
BRANCH   1   7
ATOM      7  C   UNL     1      19.820  12.041  36.301  1.00  0.00     0.000 C 
BRANCH   7   8
ATOM      8  C   UNL     1      19.660  10.856  35.334  1.00  0.00     0.004 C 
BRANCH   8   9
ATOM      9  C   UNL     1      20.987  10.120  35.097  1.00  0.00     0.027 C 
BRANCH   9  10
ATOM     10  C   UNL     1      22.108  10.672  35.938  1.00  0.00    -0.035 C 
ATOM     11  C   UNL     1      23.291  10.999  35.408  1.00  0.00     0.004 C 
ENDBRANCH   9  10
ENDBRANCH   8   9
ENDBRANCH   7   8
ENDBRANCH   1   7
TORSDOF 7
ENDMDL
MODEL 7
REMARK VINA RESULT:    -3.583      2.422      3.796
REMARK INTER + INTRA:          -5.708
REMARK INTER:                  -5.224
REMARK INTRA:                  -0.483
REMARK UNBOUND:                -0.659
REMARK SMILES C=CCCCCCCC(=O)[O-]
REMARK SMILES IDX 6 1 7 2 8 3 9 4 10 5 11 6 5 7 4 8 3 9 2 10 1 11
REMARK H PARENT
REMARK Flexibility Score: inf
ROOT
ATOM      1  C   UNL     1      34.199   6.622  45.299  1.00  0.00     0.000 C 
ENDROOT
BRANCH   1   2
ATOM      2  C   UNL     1      33.626   7.847  44.566  1.00  0.00     0.006 C 
BRANCH   2   3
ATOM      3  C   UNL     1      34.727   8.808  44.097  1.00  0.00     0.053 C 
BRANCH   3   4
ATOM      4  C   UNL     1      34.543  10.184  44.658  1.00  0.00     0.041 C 
ATOM      5  O   UNL     1      34.245  11.143  43.899  1.00  0.00    -0.550 OA
ATOM      6  O   UNL     1      34.669  10.402  46.024  1.00  0.00    -0.550 OA
ENDBRANCH   3   4
ENDBRANCH   2   3
ENDBRANCH   1   2
BRANCH   1   7
ATOM      7  C   UNL     1      33.437   6.298  46.595  1.00  0.00     0.000 C 
BRANCH   7   8
ATOM      8  C   UNL     1      33.239   7.533  47.490  1.00  0.00     0.004 C 
BRANCH   8   9
ATOM      9  C   UNL     1      31.768   7.728  47.888  1.00  0.00     0.027 C 
BRANCH   9  10
ATOM     10  C   UNL     1      30.968   6.458  47.771  1.00  0.00    -0.035 C 
ATOM     11  C   UNL     1      29.689   6.393  48.157  1.00  0.00     0.004 C 
ENDBRANCH   9  10
ENDBRANCH   8   9
ENDBRANCH   7   8
ENDBRANCH   1   7
TORSDOF 7
ENDMDL
MODEL 8
REMARK VINA RESULT:    -3.563      3.324      5.027
REMARK INTER + INTRA:          -5.680
REMARK INTER:                  -5.316
REMARK INTRA:                  -0.364
REMARK UNBOUND:                -0.659
REMARK SMILES C=CCCCCCCC(=O)[O-]
REMARK SMILES IDX 6 1 7 2 8 3 9 4 10 5 11 6 5 7 4 8 3 9 2 10 1 11
REMARK H PARENT
REMARK Flexibility Score: inf
ROOT
ATOM      1  C   UNL     1      32.291   9.982  48.230  1.00  0.00     0.000 C 
ENDROOT
BRANCH   1   2
ATOM      2  C   UNL     1      31.422   8.764  48.587  1.00  0.00     0.006 C 
BRANCH   2   3
ATOM      3  C   UNL     1      32.169   7.440  48.381  1.00  0.00     0.053 C 
BRANCH   3   4
ATOM      4  C   UNL     1      31.232   6.311  48.080  1.00  0.00     0.041 C 
ATOM      5  O   UNL     1      31.653   5.125  48.065  1.00  0.00    -0.550 OA
ATOM      6  O   UNL     1      29.886   6.566  47.846  1.00  0.00    -0.550 OA
ENDBRANCH   3   4
ENDBRANCH   2   3
ENDBRANCH   1   2
BRANCH   1   7
ATOM      7  C   UNL     1      33.527   9.603  47.399  1.00  0.00     0.000 C 
BRANCH   7   8
ATOM      8  C   UNL     1      34.583  10.722  47.360  1.00  0.00     0.004 C 
BRANCH   8   9
ATOM      9  C   UNL     1      35.135  10.946  45.945  1.00  0.00     0.027 C 
BRANCH   9  10
ATOM     10  C   UNL     1      34.656   9.905  44.969  1.00  0.00    -0.035 C 
ATOM     11  C   UNL     1      34.290  10.223  43.722  1.00  0.00     0.004 C 
ENDBRANCH   9  10
ENDBRANCH   8   9
ENDBRANCH   7   8
ENDBRANCH   1   7
TORSDOF 7
ENDMDL
MODEL 9
REMARK VINA RESULT:    -3.510      2.857      4.174
REMARK INTER + INTRA:          -5.605
REMARK INTER:                  -5.281
REMARK INTRA:                  -0.325
REMARK UNBOUND:                -0.659
REMARK SMILES C=CCCCCCCC(=O)[O-]
REMARK SMILES IDX 6 1 7 2 8 3 9 4 10 5 11 6 5 7 4 8 3 9 2 10 1 11
REMARK H PARENT
REMARK Flexibility Score: inf
ROOT
ATOM      1  C   UNL     1      32.441   9.887  48.275  1.00  0.00     0.000 C 
ENDROOT
BRANCH   1   2
ATOM      2  C   UNL     1      33.508   9.571  47.212  1.00  0.00     0.006 C 
BRANCH   2   3
ATOM      3  C   UNL     1      34.592  10.656  47.140  1.00  0.00     0.053 C 
BRANCH   3   4
ATOM      4  C   UNL     1      34.976  10.968  45.726  1.00  0.00     0.041 C 
ATOM      5  O   UNL     1      34.978  10.059  44.856  1.00  0.00    -0.550 OA
ATOM      6  O   UNL     1      35.303  12.268  45.363  1.00  0.00    -0.550 OA
ENDBRANCH   3   4
ENDBRANCH   2   3
ENDBRANCH   1   2
BRANCH   1   7
ATOM      7  C   UNL     1      31.602   8.655  48.654  1.00  0.00     0.000 C 
BRANCH   7   8
ATOM      8  C   UNL     1      32.219   7.339  48.150  1.00  0.00     0.004 C 
BRANCH   8   9
ATOM      9  C   UNL     1      31.150   6.344  47.677  1.00  0.00     0.027 C 
BRANCH   9  10
ATOM     10  C   UNL     1      29.828   6.548  48.369  1.00  0.00    -0.035 C 
ATOM     11  C   UNL     1      28.871   5.614  48.350  1.00  0.00     0.004 C 
ENDBRANCH   9  10
ENDBRANCH   8   9
ENDBRANCH   7   8
ENDBRANCH   1   7
TORSDOF 7
ENDMDL
