MODEL 1
REMARK VINA RESULT:    -4.772      0.000      0.000
REMARK INTER + INTRA:         -12.125
REMARK INTER:                  -9.235
REMARK INTRA:                  -2.890
REMARK UNBOUND:                -2.890
REMARK SMILES CCCCCC=CCC=CCCCCCCCCOC(C)=O
REMARK SMILES IDX 12 1 11 2 10 3 9 4 8 5 7 6 6 7 5 8 4 9 3 10 2 11 1 12 13 13
REMARK SMILES IDX 14 14 15 15 16 16 17 17 18 18 19 19 20 20 22 21 21 22
REMARK H PARENT
REMARK Flexibility Score: inf
ROOT
ATOM      1  C   UNL     1       9.421 -23.369  30.200  1.00  0.00     0.004 C 
ENDROOT
BRANCH   1   2
ATOM      2  C   UNL     1       9.550 -24.898  30.257  1.00  0.00     0.027 C 
BRANCH   2   3
ATOM      3  C   UNL     1       8.385 -25.544  30.968  1.00  0.00    -0.031 C 
ATOM      4  C   UNL     1       8.494 -26.559  31.843  1.00  0.00    -0.027 C 
BRANCH   4   5
ATOM      5  C   UNL     1       9.802 -27.232  32.186  1.00  0.00     0.054 C 
BRANCH   5   6
ATOM      6  C   UNL     1       9.662 -28.732  32.181  1.00  0.00    -0.027 C 
ATOM      7  C   UNL     1       9.962 -29.524  31.134  1.00  0.00    -0.031 C 
BRANCH   7   8
ATOM      8  C   UNL     1      10.513 -29.041  29.815  1.00  0.00     0.027 C 
BRANCH   8   9
ATOM      9  C   UNL     1       9.508 -29.257  28.677  1.00  0.00     0.004 C 
BRANCH   9  10
ATOM     10  C   UNL     1       8.960 -27.931  28.129  1.00  0.00     0.000 C 
BRANCH  10  11
ATOM     11  C   UNL     1      10.050 -27.152  27.385  1.00  0.00    -0.003 C 
ATOM     12  C   UNL     1       9.464 -25.943  26.660  1.00  0.00     0.004 C 
ENDBRANCH  10  11
ENDBRANCH   9  10
ENDBRANCH   8   9
ENDBRANCH   7   8
ENDBRANCH   5   6
ENDBRANCH   4   5
ENDBRANCH   2   3
ENDBRANCH   1   2
BRANCH   1  13
ATOM     13  C   UNL     1       9.949 -22.644  31.453  1.00  0.00     0.000 C 
BRANCH  13  14
ATOM     14  C   UNL     1      11.452 -22.882  31.720  1.00  0.00     0.000 C 
BRANCH  14  15
ATOM     15  C   UNL     1      11.700 -23.577  33.069  1.00  0.00     0.000 C 
BRANCH  15  16
ATOM     16  C   UNL     1      10.394 -24.000  33.762  1.00  0.00     0.003 C 
BRANCH  16  17
ATOM     17  C   UNL     1      10.466 -23.858  35.290  1.00  0.00     0.042 C 
BRANCH  17  18
ATOM     18  C   UNL     1      10.920 -22.453  35.705  1.00  0.00     0.233 C 
BRANCH  18  19
ATOM     19  O   UNL     1       9.834 -21.529  35.681  1.00  0.00    -0.466 OA
BRANCH  19  20
ATOM     20  C   UNL     1       9.581 -20.665  34.611  1.00  0.00     0.302 C 
ATOM     21  O   UNL     1      10.528 -20.139  33.967  1.00  0.00    -0.253 OA
ATOM     22  C   UNL     1       8.173 -20.395  34.205  1.00  0.00     0.139 C 
ENDBRANCH  19  20
ENDBRANCH  18  19
ENDBRANCH  17  18
ENDBRANCH  16  17
ENDBRANCH  15  16
ENDBRANCH  14  15
ENDBRANCH  13  14
ENDBRANCH   1  13
TORSDOF 16
ENDMDL
MODEL 2
REMARK VINA RESULT:    -4.539      3.403      7.626
REMARK INTER + INTRA:         -11.674
REMARK INTER:                  -8.999
REMARK INTRA:                  -2.675
REMARK UNBOUND:                -2.890
REMARK SMILES CCCCCC=CCC=CCCCCCCCCOC(C)=O
REMARK SMILES IDX 12 1 11 2 10 3 9 4 8 5 7 6 6 7 5 8 4 9 3 10 2 11 1 12 13 13
REMARK SMILES IDX 14 14 15 15 16 16 17 17 18 18 19 19 20 20 22 21 21 22
REMARK H PARENT
REMARK Flexibility Score: inf
ROOT
ATOM      1  C   UNL     1       9.551 -28.947  31.981  1.00  0.00     0.004 C 
ENDROOT
BRANCH   1   2
ATOM      2  C   UNL     1       9.811 -27.448  32.191  1.00  0.00     0.027 C 
BRANCH   2   3
ATOM      3  C   UNL     1       8.578 -26.613  31.940  1.00  0.00    -0.031 C 
ATOM      4  C   UNL     1       8.529 -25.558  31.108  1.00  0.00    -0.027 C 
BRANCH   4   5
ATOM      5  C   UNL     1       9.726 -25.029  30.356  1.00  0.00     0.054 C 
BRANCH   5   6
ATOM      6  C   UNL     1       9.482 -23.628  29.859  1.00  0.00    -0.027 C 
ATOM      7  C   UNL     1      10.090 -22.528  30.343  1.00  0.00    -0.031 C 
BRANCH   7   8
ATOM      8  C   UNL     1      11.131 -22.527  31.437  1.00  0.00     0.027 C 
BRANCH   8   9
ATOM      9  C   UNL     1      10.539 -22.054  32.770  1.00  0.00     0.004 C 
BRANCH   9  10
ATOM     10  C   UNL     1      10.359 -23.209  33.766  1.00  0.00     0.000 C 
BRANCH  10  11
ATOM     11  C   UNL     1      11.419 -24.294  33.544  1.00  0.00    -0.003 C 
ATOM     12  C   UNL     1      12.584 -24.131  34.516  1.00  0.00     0.004 C 
ENDBRANCH  10  11
ENDBRANCH   9  10
ENDBRANCH   8   9
ENDBRANCH   7   8
ENDBRANCH   5   6
ENDBRANCH   4   5
ENDBRANCH   2   3
ENDBRANCH   1   2
BRANCH   1  13
ATOM     13  C   UNL     1       9.378 -29.356  30.505  1.00  0.00     0.000 C 
BRANCH  13  14
ATOM     14  C   UNL     1      10.612 -29.052  29.628  1.00  0.00     0.000 C 
BRANCH  14  15
ATOM     15  C   UNL     1      10.275 -28.119  28.452  1.00  0.00     0.000 C 
BRANCH  15  16
ATOM     16  C   UNL     1       8.760 -27.988  28.222  1.00  0.00     0.003 C 
BRANCH  16  17
ATOM     17  C   UNL     1       8.423 -27.069  27.038  1.00  0.00     0.042 C 
BRANCH  17  18
ATOM     18  C   UNL     1       9.430 -25.919  26.912  1.00  0.00     0.233 C 
BRANCH  18  19
ATOM     19  O   UNL     1      10.230 -26.057  25.739  1.00  0.00    -0.466 OA
BRANCH  19  20
ATOM     20  C   UNL     1      10.019 -25.318  24.570  1.00  0.00     0.302 C 
ATOM     21  O   UNL     1      10.980 -24.767  23.972  1.00  0.00    -0.253 OA
ATOM     22  C   UNL     1       8.643 -25.219  24.006  1.00  0.00     0.139 C 
ENDBRANCH  19  20
ENDBRANCH  18  19
ENDBRANCH  17  18
ENDBRANCH  16  17
ENDBRANCH  15  16
ENDBRANCH  14  15
ENDBRANCH  13  14
ENDBRANCH   1  13
TORSDOF 16
ENDMDL
MODEL 3
REMARK VINA RESULT:    -4.466      3.276      7.788
REMARK INTER + INTRA:         -11.534
REMARK INTER:                  -9.557
REMARK INTRA:                  -1.976
REMARK UNBOUND:                -2.890
REMARK SMILES CCCCCC=CCC=CCCCCCCCCOC(C)=O
REMARK SMILES IDX 12 1 11 2 10 3 9 4 8 5 7 6 6 7 5 8 4 9 3 10 2 11 1 12 13 13
REMARK SMILES IDX 14 14 15 15 16 16 17 17 18 18 19 19 20 20 22 21 21 22
REMARK H PARENT
REMARK Flexibility Score: inf
ROOT
ATOM      1  C   UNL     1       9.314 -28.703  32.031  1.00  0.00     0.004 C 
ENDROOT
BRANCH   1   2
ATOM      2  C   UNL     1       9.693 -27.215  31.986  1.00  0.00     0.027 C 
BRANCH   2   3
ATOM      3  C   UNL     1       8.482 -26.322  31.858  1.00  0.00    -0.031 C 
ATOM      4  C   UNL     1       8.381 -25.296  30.993  1.00  0.00    -0.027 C 
BRANCH   4   5
ATOM      5  C   UNL     1       9.497 -24.864  30.073  1.00  0.00     0.054 C 
BRANCH   5   6
ATOM      6  C   UNL     1       9.487 -23.372  29.867  1.00  0.00    -0.027 C 
ATOM      7  C   UNL     1      10.298 -22.507  30.506  1.00  0.00    -0.031 C 
BRANCH   7   8
ATOM      8  C   UNL     1      11.362 -22.897  31.503  1.00  0.00     0.027 C 
BRANCH   8   9
ATOM      9  C   UNL     1      10.918 -22.596  32.940  1.00  0.00     0.004 C 
BRANCH   9  10
ATOM     10  C   UNL     1       9.830 -21.514  32.995  1.00  0.00     0.000 C 
BRANCH  10  11
ATOM     11  C   UNL     1       9.378 -21.262  34.438  1.00  0.00    -0.003 C 
ATOM     12  C   UNL     1       8.385 -20.106  34.510  1.00  0.00     0.004 C 
ENDBRANCH  10  11
ENDBRANCH   9  10
ENDBRANCH   8   9
ENDBRANCH   7   8
ENDBRANCH   5   6
ENDBRANCH   4   5
ENDBRANCH   2   3
ENDBRANCH   1   2
BRANCH   1  13
ATOM     13  C   UNL     1      10.120 -29.589  31.062  1.00  0.00     0.000 C 
BRANCH  13  14
ATOM     14  C   UNL     1      10.776 -28.804  29.904  1.00  0.00     0.000 C 
BRANCH  14  15
ATOM     15  C   UNL     1      10.231 -29.230  28.530  1.00  0.00     0.000 C 
BRANCH  15  16
ATOM     16  C   UNL     1       8.740 -28.895  28.361  1.00  0.00     0.003 C 
BRANCH  16  17
ATOM     17  C   UNL     1       8.515 -27.492  27.775  1.00  0.00     0.042 C 
BRANCH  17  18
ATOM     18  C   UNL     1       9.801 -26.926  27.158  1.00  0.00     0.233 C 
BRANCH  18  19
ATOM     19  O   UNL     1       9.542 -25.726  26.431  1.00  0.00    -0.466 OA
BRANCH  19  20
ATOM     20  C   UNL     1       9.539 -25.656  25.035  1.00  0.00     0.302 C 
ATOM     21  O   UNL     1       8.462 -25.731  24.386  1.00  0.00    -0.253 OA
ATOM     22  C   UNL     1      10.825 -25.448  24.310  1.00  0.00     0.139 C 
ENDBRANCH  19  20
ENDBRANCH  18  19
ENDBRANCH  17  18
ENDBRANCH  16  17
ENDBRANCH  15  16
ENDBRANCH  14  15
ENDBRANCH  13  14
ENDBRANCH   1  13
TORSDOF 16
ENDMDL
MODEL 4
REMARK VINA RESULT:    -4.463      2.860      5.743
REMARK INTER + INTRA:         -11.528
REMARK INTER:                  -9.291
REMARK INTRA:                  -2.237
REMARK UNBOUND:                -2.890
REMARK SMILES CCCCCC=CCC=CCCCCCCCCOC(C)=O
REMARK SMILES IDX 12 1 11 2 10 3 9 4 8 5 7 6 6 7 5 8 4 9 3 10 2 11 1 12 13 13
REMARK SMILES IDX 14 14 15 15 16 16 17 17 18 18 19 19 20 20 22 21 21 22
REMARK H PARENT
REMARK Flexibility Score: inf
ROOT
ATOM      1  C   UNL     1      10.844 -28.852  29.725  1.00  0.00     0.004 C 
ENDROOT
BRANCH   1   2
ATOM      2  C   UNL     1      10.301 -28.664  28.300  1.00  0.00     0.027 C 
BRANCH   2   3
ATOM      3  C   UNL     1       8.863 -28.204  28.293  1.00  0.00    -0.031 C 
ATOM      4  C   UNL     1       8.398 -27.166  27.574  1.00  0.00    -0.027 C 
BRANCH   4   5
ATOM      5  C   UNL     1       9.274 -26.281  26.720  1.00  0.00     0.054 C 
BRANCH   5   6
ATOM      6  C   UNL     1       8.878 -26.360  25.269  1.00  0.00    -0.027 C 
ATOM      7  C   UNL     1       9.695 -26.076  24.237  1.00  0.00    -0.031 C 
BRANCH   7   8
ATOM      8  C   UNL     1      11.142 -25.665  24.368  1.00  0.00     0.027 C 
BRANCH   8   9
ATOM      9  C   UNL     1      11.415 -24.344  23.640  1.00  0.00     0.004 C 
BRANCH   9  10
ATOM     10  C   UNL     1      10.188 -23.846  22.862  1.00  0.00     0.000 C 
BRANCH  10  11
ATOM     11  C   UNL     1       9.741 -22.469  23.365  1.00  0.00    -0.003 C 
ATOM     12  C   UNL     1       8.542 -22.587  24.301  1.00  0.00     0.004 C 
ENDBRANCH  10  11
ENDBRANCH   9  10
ENDBRANCH   8   9
ENDBRANCH   7   8
ENDBRANCH   5   6
ENDBRANCH   4   5
ENDBRANCH   2   3
ENDBRANCH   1   2
BRANCH   1  13
ATOM     13  C   UNL     1       9.858 -29.537  30.690  1.00  0.00     0.000 C 
BRANCH  13  14
ATOM     14  C   UNL     1       9.843 -28.917  32.105  1.00  0.00     0.000 C 
BRANCH  14  15
ATOM     15  C   UNL     1       9.783 -27.381  32.066  1.00  0.00     0.000 C 
BRANCH  15  16
ATOM     16  C   UNL     1       8.341 -26.851  31.993  1.00  0.00     0.003 C 
BRANCH  16  17
ATOM     17  C   UNL     1       8.218 -25.603  31.106  1.00  0.00     0.042 C 
BRANCH  17  18
ATOM     18  C   UNL     1       9.591 -25.116  30.624  1.00  0.00     0.233 C 
BRANCH  18  19
ATOM     19  O   UNL     1       9.461 -24.091  29.640  1.00  0.00    -0.466 OA
BRANCH  19  20
ATOM     20  C   UNL     1       9.737 -22.744  29.889  1.00  0.00     0.302 C 
ATOM     21  O   UNL     1       9.051 -21.833  29.351  1.00  0.00    -0.253 OA
ATOM     22  C   UNL     1      10.831 -22.383  30.835  1.00  0.00     0.139 C 
ENDBRANCH  19  20
ENDBRANCH  18  19
ENDBRANCH  17  18
ENDBRANCH  16  17
ENDBRANCH  15  16
ENDBRANCH  14  15
ENDBRANCH  13  14
ENDBRANCH   1  13
TORSDOF 16
ENDMDL
MODEL 5
REMARK VINA RESULT:    -4.409      2.822      4.050
REMARK INTER + INTRA:         -11.423
REMARK INTER:                  -9.130
REMARK INTRA:                  -2.293
REMARK UNBOUND:                -2.890
REMARK SMILES CCCCCC=CCC=CCCCCCCCCOC(C)=O
REMARK SMILES IDX 12 1 11 2 10 3 9 4 8 5 7 6 6 7 5 8 4 9 3 10 2 11 1 12 13 13
REMARK SMILES IDX 14 14 15 15 16 16 17 17 18 18 19 19 20 20 22 21 21 22
REMARK H PARENT
REMARK Flexibility Score: inf
ROOT
ATOM      1  C   UNL     1      10.878 -22.116  31.720  1.00  0.00     0.004 C 
ENDROOT
BRANCH   1   2
ATOM      2  C   UNL     1      10.264 -22.596  30.397  1.00  0.00     0.027 C 
BRANCH   2   3
ATOM      3  C   UNL     1       8.856 -23.112  30.575  1.00  0.00    -0.031 C 
ATOM      4  C   UNL     1       8.531 -24.411  30.705  1.00  0.00    -0.027 C 
BRANCH   4   5
ATOM      5  C   UNL     1       9.535 -25.536  30.630  1.00  0.00     0.054 C 
BRANCH   5   6
ATOM      6  C   UNL     1       9.650 -26.254  31.949  1.00  0.00    -0.027 C 
ATOM      7  C   UNL     1       9.489 -27.580  32.114  1.00  0.00    -0.031 C 
BRANCH   7   8
ATOM      8  C   UNL     1       9.199 -28.561  31.003  1.00  0.00     0.027 C 
BRANCH   8   9
ATOM      9  C   UNL     1      10.451 -29.359  30.622  1.00  0.00     0.004 C 
BRANCH   9  10
ATOM     10  C   UNL     1      11.068 -28.874  29.302  1.00  0.00     0.000 C 
BRANCH  10  11
ATOM     11  C   UNL     1       9.993 -28.718  28.220  1.00  0.00    -0.003 C 
ATOM     12  C   UNL     1      10.205 -27.438  27.416  1.00  0.00     0.004 C 
ENDBRANCH  10  11
ENDBRANCH   9  10
ENDBRANCH   8   9
ENDBRANCH   7   8
ENDBRANCH   5   6
ENDBRANCH   4   5
ENDBRANCH   2   3
ENDBRANCH   1   2
BRANCH   1  13
ATOM     13  C   UNL     1       9.882 -22.063  32.895  1.00  0.00     0.000 C 
BRANCH  13  14
ATOM     14  C   UNL     1      10.499 -22.474  34.250  1.00  0.00     0.000 C 
BRANCH  14  15
ATOM     15  C   UNL     1      10.238 -23.953  34.583  1.00  0.00     0.000 C 
BRANCH  15  16
ATOM     16  C   UNL     1      11.537 -24.743  34.811  1.00  0.00     0.003 C 
BRANCH  16  17
ATOM     17  C   UNL     1      12.745 -24.100  34.111  1.00  0.00     0.042 C 
BRANCH  17  18
ATOM     18  C   UNL     1      14.070 -24.590  34.711  1.00  0.00     0.233 C 
BRANCH  18  19
ATOM     19  O   UNL     1      13.847 -25.483  35.800  1.00  0.00    -0.466 OA
BRANCH  19  20
ATOM     20  C   UNL     1      14.422 -26.755  35.884  1.00  0.00     0.302 C 
ATOM     21  O   UNL     1      15.592 -26.964  35.465  1.00  0.00    -0.253 OA
ATOM     22  C   UNL     1      13.655 -27.865  36.515  1.00  0.00     0.139 C 
ENDBRANCH  19  20
ENDBRANCH  18  19
ENDBRANCH  17  18
ENDBRANCH  16  17
ENDBRANCH  15  16
ENDBRANCH  14  15
ENDBRANCH  13  14
ENDBRANCH   1  13
TORSDOF 16
ENDMDL
MODEL 6
REMARK VINA RESULT:    -4.384      3.638      8.010
REMARK INTER + INTRA:         -11.375
REMARK INTER:                  -9.315
REMARK INTRA:                  -2.060
REMARK UNBOUND:                -2.890
REMARK SMILES CCCCCC=CCC=CCCCCCCCCOC(C)=O
REMARK SMILES IDX 12 1 11 2 10 3 9 4 8 5 7 6 6 7 5 8 4 9 3 10 2 11 1 12 13 13
REMARK SMILES IDX 14 14 15 15 16 16 17 17 18 18 19 19 20 20 22 21 21 22
REMARK H PARENT
REMARK Flexibility Score: inf
ROOT
ATOM      1  C   UNL     1       9.760 -27.072  32.145  1.00  0.00     0.004 C 
ENDROOT
BRANCH   1   2
ATOM      2  C   UNL     1       8.745 -26.093  31.539  1.00  0.00     0.027 C 
BRANCH   2   3
ATOM      3  C   UNL     1       9.078 -25.737  30.110  1.00  0.00    -0.031 C 
ATOM      4  C   UNL     1       9.223 -24.480  29.652  1.00  0.00    -0.027 C 
BRANCH   4   5
ATOM      5  C   UNL     1       9.009 -23.251  30.501  1.00  0.00     0.054 C 
BRANCH   5   6
ATOM      6  C   UNL     1      10.305 -22.520  30.739  1.00  0.00    -0.027 C 
ATOM      7  C   UNL     1      10.974 -22.511  31.908  1.00  0.00    -0.031 C 
BRANCH   7   8
ATOM      8  C   UNL     1      10.550 -23.255  33.152  1.00  0.00     0.027 C 
BRANCH   8   9
ATOM      9  C   UNL     1      10.240 -22.288  34.301  1.00  0.00     0.004 C 
BRANCH   9  10
ATOM     10  C   UNL     1      10.151 -20.831  33.824  1.00  0.00     0.000 C 
BRANCH  10  11
ATOM     11  C   UNL     1       8.978 -20.105  34.493  1.00  0.00    -0.003 C 
ATOM     12  C   UNL     1       7.687 -20.305  33.704  1.00  0.00     0.004 C 
ENDBRANCH  10  11
ENDBRANCH   9  10
ENDBRANCH   8   9
ENDBRANCH   7   8
ENDBRANCH   5   6
ENDBRANCH   4   5
ENDBRANCH   2   3
ENDBRANCH   1   2
BRANCH   1  13
ATOM     13  C   UNL     1       9.882 -28.407  31.385  1.00  0.00     0.000 C 
BRANCH  13  14
ATOM     14  C   UNL     1       9.885 -29.647  32.306  1.00  0.00     0.000 C 
BRANCH  14  15
ATOM     15  C   UNL     1       8.505 -30.323  32.378  1.00  0.00     0.000 C 
BRANCH  15  16
ATOM     16  C   UNL     1       7.536 -29.796  31.307  1.00  0.00     0.003 C 
BRANCH  16  17
ATOM     17  C   UNL     1       7.100 -30.889  30.320  1.00  0.00     0.042 C 
BRANCH  17  18
ATOM     18  C   UNL     1       7.222 -30.418  28.865  1.00  0.00     0.233 C 
BRANCH  18  19
ATOM     19  O   UNL     1       8.543 -29.964  28.577  1.00  0.00    -0.466 OA
BRANCH  19  20
ATOM     20  C   UNL     1       8.825 -28.941  27.666  1.00  0.00     0.302 C 
ATOM     21  O   UNL     1       7.944 -28.526  26.867  1.00  0.00    -0.253 OA
ATOM     22  C   UNL     1      10.174 -28.308  27.672  1.00  0.00     0.139 C 
ENDBRANCH  19  20
ENDBRANCH  18  19
ENDBRANCH  17  18
ENDBRANCH  16  17
ENDBRANCH  15  16
ENDBRANCH  14  15
ENDBRANCH  13  14
ENDBRANCH   1  13
TORSDOF 16
ENDMDL
MODEL 7
REMARK VINA RESULT:    -4.365      3.894      7.983
REMARK INTER + INTRA:         -11.337
REMARK INTER:                  -8.979
REMARK INTRA:                  -2.358
REMARK UNBOUND:                -2.890
REMARK SMILES CCCCCC=CCC=CCCCCCCCCOC(C)=O
REMARK SMILES IDX 12 1 11 2 10 3 9 4 8 5 7 6 6 7 5 8 4 9 3 10 2 11 1 12 13 13
REMARK SMILES IDX 14 14 15 15 16 16 17 17 18 18 19 19 20 20 22 21 21 22
REMARK H PARENT
REMARK Flexibility Score: inf
ROOT
ATOM      1  C   UNL     1      10.353 -29.178  30.402  1.00  0.00     0.004 C 
ENDROOT
BRANCH   1   2
ATOM      2  C   UNL     1       9.146 -28.351  30.868  1.00  0.00     0.027 C 
BRANCH   2   3
ATOM      3  C   UNL     1       9.539 -27.262  31.838  1.00  0.00    -0.031 C 
ATOM      4  C   UNL     1       9.229 -25.962  31.690  1.00  0.00    -0.027 C 
BRANCH   4   5
ATOM      5  C   UNL     1       8.494 -25.408  30.494  1.00  0.00     0.054 C 
BRANCH   5   6
ATOM      6  C   UNL     1       9.401 -24.560  29.641  1.00  0.00    -0.027 C 
ATOM      7  C   UNL     1       9.494 -23.219  29.722  1.00  0.00    -0.031 C 
BRANCH   7   8
ATOM      8  C   UNL     1       8.729 -22.357  30.698  1.00  0.00     0.027 C 
BRANCH   8   9
ATOM      9  C   UNL     1       9.472 -22.232  32.034  1.00  0.00     0.004 C 
BRANCH   9  10
ATOM     10  C   UNL     1      10.996 -22.204  31.848  1.00  0.00     0.000 C 
BRANCH  10  11
ATOM     11  C   UNL     1      11.669 -23.317  32.658  1.00  0.00    -0.003 C 
ATOM     12  C   UNL     1      10.919 -23.578  33.962  1.00  0.00     0.004 C 
ENDBRANCH  10  11
ENDBRANCH   9  10
ENDBRANCH   8   9
ENDBRANCH   7   8
ENDBRANCH   5   6
ENDBRANCH   4   5
ENDBRANCH   2   3
ENDBRANCH   1   2
BRANCH   1  13
ATOM     13  C   UNL     1      10.830 -28.849  28.974  1.00  0.00     0.000 C 
BRANCH  13  14
ATOM     14  C   UNL     1       9.786 -28.083  28.133  1.00  0.00     0.000 C 
BRANCH  14  15
ATOM     15  C   UNL     1      10.440 -27.192  27.063  1.00  0.00     0.000 C 
BRANCH  15  16
ATOM     16  C   UNL     1       9.460 -26.163  26.475  1.00  0.00     0.003 C 
BRANCH  16  17
ATOM     17  C   UNL     1       8.399 -26.812  25.573  1.00  0.00     0.042 C 
BRANCH  17  18
ATOM     18  C   UNL     1       8.658 -26.513  24.092  1.00  0.00     0.233 C 
BRANCH  18  19
ATOM     19  O   UNL     1       8.083 -25.266  23.706  1.00  0.00    -0.466 OA
BRANCH  19  20
ATOM     20  C   UNL     1       8.833 -24.109  23.478  1.00  0.00     0.302 C 
ATOM     21  O   UNL     1       9.771 -24.102  22.636  1.00  0.00    -0.253 OA
ATOM     22  C   UNL     1       8.489 -22.857  24.210  1.00  0.00     0.139 C 
ENDBRANCH  19  20
ENDBRANCH  18  19
ENDBRANCH  17  18
ENDBRANCH  16  17
ENDBRANCH  15  16
ENDBRANCH  14  15
ENDBRANCH  13  14
ENDBRANCH   1  13
TORSDOF 16
ENDMDL
MODEL 8
REMARK VINA RESULT:    -4.348      2.649      3.906
REMARK INTER + INTRA:         -11.304
REMARK INTER:                  -9.108
REMARK INTRA:                  -2.196
REMARK UNBOUND:                -2.890
REMARK SMILES CCCCCC=CCC=CCCCCCCCCOC(C)=O
REMARK SMILES IDX 12 1 11 2 10 3 9 4 8 5 7 6 6 7 5 8 4 9 3 10 2 11 1 12 13 13
REMARK SMILES IDX 14 14 15 15 16 16 17 17 18 18 19 19 20 20 22 21 21 22
REMARK H PARENT
REMARK Flexibility Score: inf
ROOT
ATOM      1  C   UNL     1      11.212 -22.534  31.540  1.00  0.00     0.004 C 
ENDROOT
BRANCH   1   2
ATOM      2  C   UNL     1      10.311 -22.576  30.296  1.00  0.00     0.027 C 
BRANCH   2   3
ATOM      3  C   UNL     1       8.862 -22.814  30.649  1.00  0.00    -0.031 C 
ATOM      4  C   UNL     1       8.293 -24.028  30.754  1.00  0.00    -0.027 C 
BRANCH   4   5
ATOM      5  C   UNL     1       9.021 -25.320  30.472  1.00  0.00     0.054 C 
BRANCH   5   6
ATOM      6  C   UNL     1       9.527 -25.950  31.744  1.00  0.00    -0.027 C 
ATOM      7  C   UNL     1       9.589 -27.276  31.968  1.00  0.00    -0.031 C 
BRANCH   7   8
ATOM      8  C   UNL     1       9.193 -28.340  30.973  1.00  0.00     0.027 C 
BRANCH   8   9
ATOM      9  C   UNL     1      10.386 -29.228  30.600  1.00  0.00     0.004 C 
BRANCH   9  10
ATOM     10  C   UNL     1      10.623 -29.271  29.083  1.00  0.00     0.000 C 
BRANCH  10  11
ATOM     11  C   UNL     1      11.027 -27.891  28.551  1.00  0.00    -0.003 C 
ATOM     12  C   UNL     1      10.076 -27.426  27.452  1.00  0.00     0.004 C 
ENDBRANCH  10  11
ENDBRANCH   9  10
ENDBRANCH   8   9
ENDBRANCH   7   8
ENDBRANCH   5   6
ENDBRANCH   4   5
ENDBRANCH   2   3
ENDBRANCH   1   2
BRANCH   1  13
ATOM     13  C   UNL     1      10.629 -21.724  32.714  1.00  0.00     0.000 C 
BRANCH  13  14
ATOM     14  C   UNL     1      10.247 -22.590  33.935  1.00  0.00     0.000 C 
BRANCH  14  15
ATOM     15  C   UNL     1      11.166 -23.813  34.092  1.00  0.00     0.000 C 
BRANCH  15  16
ATOM     16  C   UNL     1      12.534 -23.448  34.691  1.00  0.00     0.003 C 
BRANCH  16  17
ATOM     17  C   UNL     1      13.555 -24.589  34.563  1.00  0.00     0.042 C 
BRANCH  17  18
ATOM     18  C   UNL     1      14.992 -24.084  34.742  1.00  0.00     0.233 C 
BRANCH  18  19
ATOM     19  O   UNL     1      15.398 -23.277  33.638  1.00  0.00    -0.466 OA
BRANCH  19  20
ATOM     20  C   UNL     1      15.588 -23.777  32.346  1.00  0.00     0.302 C 
ATOM     21  O   UNL     1      14.909 -23.341  31.378  1.00  0.00    -0.253 OA
ATOM     22  C   UNL     1      16.636 -24.809  32.108  1.00  0.00     0.139 C 
ENDBRANCH  19  20
ENDBRANCH  18  19
ENDBRANCH  17  18
ENDBRANCH  16  17
ENDBRANCH  15  16
ENDBRANCH  14  15
ENDBRANCH  13  14
ENDBRANCH   1  13
TORSDOF 16
ENDMDL
MODEL 9
REMARK VINA RESULT:    -4.321      3.514      7.636
REMARK INTER + INTRA:         -11.253
REMARK INTER:                  -8.944
REMARK INTRA:                  -2.309
REMARK UNBOUND:                -2.890
REMARK SMILES CCCCCC=CCC=CCCCCCCCCOC(C)=O
REMARK SMILES IDX 12 1 11 2 10 3 9 4 8 5 7 6 6 7 5 8 4 9 3 10 2 11 1 12 13 13
REMARK SMILES IDX 14 14 15 15 16 16 17 17 18 18 19 19 20 20 22 21 21 22
REMARK H PARENT
REMARK Flexibility Score: inf
ROOT
ATOM      1  C   UNL     1       9.602 -27.151  32.045  1.00  0.00     0.004 C 
ENDROOT
BRANCH   1   2
ATOM      2  C   UNL     1       8.775 -26.000  31.453  1.00  0.00     0.027 C 
BRANCH   2   3
ATOM      3  C   UNL     1       9.209 -25.649  30.049  1.00  0.00    -0.031 C 
ATOM      4  C   UNL     1       9.469 -24.401  29.622  1.00  0.00    -0.027 C 
BRANCH   4   5
ATOM      5  C   UNL     1       9.300 -23.170  30.481  1.00  0.00     0.054 C 
BRANCH   5   6
ATOM      6  C   UNL     1      10.633 -22.550  30.812  1.00  0.00    -0.027 C 
ATOM      7  C   UNL     1      11.027 -22.202  32.052  1.00  0.00    -0.031 C 
BRANCH   7   8
ATOM      8  C   UNL     1      10.212 -22.406  33.307  1.00  0.00     0.027 C 
BRANCH   8   9
ATOM      9  C   UNL     1      10.391 -23.824  33.864  1.00  0.00     0.004 C 
BRANCH   9  10
ATOM     10  C   UNL     1      11.474 -23.886  34.950  1.00  0.00     0.000 C 
BRANCH  10  11
ATOM     11  C   UNL     1      12.615 -24.823  34.535  1.00  0.00    -0.003 C 
ATOM     12  C   UNL     1      13.802 -24.035  33.988  1.00  0.00     0.004 C 
ENDBRANCH  10  11
ENDBRANCH   9  10
ENDBRANCH   8   9
ENDBRANCH   7   8
ENDBRANCH   5   6
ENDBRANCH   4   5
ENDBRANCH   2   3
ENDBRANCH   1   2
BRANCH   1  13
ATOM     13  C   UNL     1       8.814 -28.461  32.237  1.00  0.00     0.000 C 
BRANCH  13  14
ATOM     14  C   UNL     1       9.301 -29.616  31.334  1.00  0.00     0.000 C 
BRANCH  14  15
ATOM     15  C   UNL     1      10.609 -29.270  30.602  1.00  0.00     0.000 C 
BRANCH  15  16
ATOM     16  C   UNL     1      10.414 -29.136  29.083  1.00  0.00     0.003 C 
BRANCH  16  17
ATOM     17  C   UNL     1       8.943 -29.281  28.664  1.00  0.00     0.042 C 
BRANCH  17  18
ATOM     18  C   UNL     1       8.633 -28.470  27.399  1.00  0.00     0.233 C 
BRANCH  18  19
ATOM     19  O   UNL     1       9.784 -28.355  26.563  1.00  0.00    -0.466 OA
BRANCH  19  20
ATOM     20  C   UNL     1      10.387 -27.135  26.246  1.00  0.00     0.302 C 
ATOM     21  O   UNL     1      11.608 -27.078  25.939  1.00  0.00    -0.253 OA
ATOM     22  C   UNL     1       9.563 -25.893  26.232  1.00  0.00     0.139 C 
ENDBRANCH  19  20
ENDBRANCH  18  19
ENDBRANCH  17  18
ENDBRANCH  16  17
ENDBRANCH  15  16
ENDBRANCH  14  15
ENDBRANCH  13  14
ENDBRANCH   1  13
TORSDOF 16
ENDMDL
