MODEL 1
REMARK VINA RESULT:    -4.652      0.000      0.000
REMARK INTER + INTRA:          -7.323
REMARK INTER:                  -6.828
REMARK INTRA:                  -0.495
REMARK UNBOUND:                -0.495
REMARK SMILES O=C([O-])CCCCCCCC(=O)[O-]
REMARK SMILES IDX 7 1 6 2 5 3 4 4 2 5 1 6 3 7 8 8 9 9 10 10 11 11 12 12 13 13
REMARK H PARENT
REMARK Flexibility Score: inf
ROOT
ATOM      1  C   UNL     1      48.804  34.302  13.672  1.00  0.00     0.000 C 
ENDROOT
BRANCH   1   2
ATOM      2  C   UNL     1      48.436  33.171  14.641  1.00  0.00     0.000 C 
BRANCH   2   3
ATOM      3  C   UNL     1      47.804  33.732  15.924  1.00  0.00     0.006 C 
BRANCH   3   4
ATOM      4  C   UNL     1      48.761  33.662  17.121  1.00  0.00     0.053 C 
BRANCH   4   5
ATOM      5  C   UNL     1      48.851  32.274  17.679  1.00  0.00     0.041 C 
ATOM      6  O   UNL     1      49.805  31.519  17.349  1.00  0.00    -0.550 OA
ATOM      7  O   UNL     1      47.865  31.803  18.536  1.00  0.00    -0.550 OA
ENDBRANCH   4   5
ENDBRANCH   3   4
ENDBRANCH   2   3
ENDBRANCH   1   2
BRANCH   1   8
ATOM      8  C   UNL     1      48.470  33.918  12.226  1.00  0.00     0.000 C 
BRANCH   8   9
ATOM      9  C   UNL     1      47.042  34.348  11.858  1.00  0.00     0.006 C 
BRANCH   9  10
ATOM     10  C   UNL     1      46.628  35.647  12.562  1.00  0.00     0.053 C 
BRANCH  10  11
ATOM     11  C   UNL     1      45.256  35.541  13.156  1.00  0.00     0.041 C 
ATOM     12  O   UNL     1      45.112  35.251  14.372  1.00  0.00    -0.550 OA
ATOM     13  O   UNL     1      44.139  35.794  12.371  1.00  0.00    -0.550 OA
ENDBRANCH  10  11
ENDBRANCH   9  10
ENDBRANCH   8   9
ENDBRANCH   1   8
TORSDOF 8
ENDMDL
MODEL 2
REMARK VINA RESULT:    -4.418     10.909     12.097
REMARK INTER + INTRA:          -6.979
REMARK INTER:                  -6.158
REMARK INTRA:                  -0.821
REMARK UNBOUND:                -0.495
REMARK SMILES O=C([O-])CCCCCCCC(=O)[O-]
REMARK SMILES IDX 7 1 6 2 5 3 4 4 2 5 1 6 3 7 8 8 9 9 10 10 11 11 12 12 13 13
REMARK H PARENT
REMARK Flexibility Score: inf
ROOT
ATOM      1  C   UNL     1      38.550  37.753  22.665  1.00  0.00     0.000 C 
ENDROOT
BRANCH   1   2
ATOM      2  C   UNL     1      38.789  36.494  23.507  1.00  0.00     0.000 C 
BRANCH   2   3
ATOM      3  C   UNL     1      40.222  36.466  24.059  1.00  0.00     0.006 C 
BRANCH   3   4
ATOM      4  C   UNL     1      41.261  36.851  22.997  1.00  0.00     0.053 C 
BRANCH   4   5
ATOM      5  C   UNL     1      42.410  37.605  23.593  1.00  0.00     0.041 C 
ATOM      6  O   UNL     1      42.375  37.963  24.801  1.00  0.00    -0.550 OA
ATOM      7  O   UNL     1      43.504  37.941  22.807  1.00  0.00    -0.550 OA
ENDBRANCH   4   5
ENDBRANCH   3   4
ENDBRANCH   2   3
ENDBRANCH   1   2
BRANCH   1   8
ATOM      8  C   UNL     1      38.191  38.951  23.553  1.00  0.00     0.000 C 
BRANCH   8   9
ATOM      9  C   UNL     1      39.128  40.136  23.284  1.00  0.00     0.006 C 
BRANCH   9  10
ATOM     10  C   UNL     1      39.465  40.285  21.794  1.00  0.00     0.053 C 
BRANCH  10  11
ATOM     11  C   UNL     1      40.941  40.220  21.550  1.00  0.00     0.041 C 
ATOM     12  O   UNL     1      41.395  39.573  20.570  1.00  0.00    -0.550 OA
ATOM     13  O   UNL     1      41.814  40.899  22.390  1.00  0.00    -0.550 OA
ENDBRANCH  10  11
ENDBRANCH   9  10
ENDBRANCH   8   9
ENDBRANCH   1   8
TORSDOF 8
ENDMDL
MODEL 3
REMARK VINA RESULT:    -4.401     11.223     13.011
REMARK INTER + INTRA:          -6.954
REMARK INTER:                  -6.023
REMARK INTRA:                  -0.930
REMARK UNBOUND:                -0.495
REMARK SMILES O=C([O-])CCCCCCCC(=O)[O-]
REMARK SMILES IDX 7 1 6 2 5 3 4 4 2 5 1 6 3 7 8 8 9 9 10 10 11 11 12 12 13 13
REMARK H PARENT
REMARK Flexibility Score: inf
ROOT
ATOM      1  C   UNL     1      37.784  37.627  23.834  1.00  0.00     0.000 C 
ENDROOT
BRANCH   1   2
ATOM      2  C   UNL     1      38.568  38.782  24.469  1.00  0.00     0.000 C 
BRANCH   2   3
ATOM      3  C   UNL     1      38.504  40.039  23.588  1.00  0.00     0.006 C 
BRANCH   3   4
ATOM      4  C   UNL     1      39.846  40.338  22.906  1.00  0.00     0.053 C 
BRANCH   4   5
ATOM      5  C   UNL     1      39.886  39.809  21.504  1.00  0.00     0.041 C 
ATOM      6  O   UNL     1      38.837  39.369  20.963  1.00  0.00    -0.550 OA
ATOM      7  O   UNL     1      41.087  39.772  20.810  1.00  0.00    -0.550 OA
ENDBRANCH   4   5
ENDBRANCH   3   4
ENDBRANCH   2   3
ENDBRANCH   1   2
BRANCH   1   8
ATOM      8  C   UNL     1      38.725  36.500  23.392  1.00  0.00     0.000 C 
BRANCH   8   9
ATOM      9  C   UNL     1      40.102  36.640  24.056  1.00  0.00     0.006 C 
BRANCH   9  10
ATOM     10  C   UNL     1      41.231  36.787  23.027  1.00  0.00     0.053 C 
BRANCH  10  11
ATOM     11  C   UNL     1      42.360  37.617  23.557  1.00  0.00     0.041 C 
ATOM     12  O   UNL     1      43.287  37.990  22.792  1.00  0.00    -0.550 OA
ATOM     13  O   UNL     1      42.371  38.003  24.891  1.00  0.00    -0.550 OA
ENDBRANCH  10  11
ENDBRANCH   9  10
ENDBRANCH   8   9
ENDBRANCH   1   8
TORSDOF 8
ENDMDL
MODEL 4
REMARK VINA RESULT:    -4.339      2.825      3.798
REMARK INTER + INTRA:          -6.863
REMARK INTER:                  -6.385
REMARK INTRA:                  -0.478
REMARK UNBOUND:                -0.495
REMARK SMILES O=C([O-])CCCCCCCC(=O)[O-]
REMARK SMILES IDX 7 1 6 2 5 3 4 4 2 5 1 6 3 7 8 8 9 9 10 10 11 11 12 12 13 13
REMARK H PARENT
REMARK Flexibility Score: inf
ROOT
ATOM      1  C   UNL     1      48.706  34.078  16.745  1.00  0.00     0.000 C 
ENDROOT
BRANCH   1   2
ATOM      2  C   UNL     1      49.474  32.942  17.432  1.00  0.00     0.000 C 
BRANCH   2   3
ATOM      3  C   UNL     1      48.726  31.608  17.291  1.00  0.00     0.006 C 
BRANCH   3   4
ATOM      4  C   UNL     1      49.586  30.528  16.623  1.00  0.00     0.053 C 
BRANCH   4   5
ATOM      5  C   UNL     1      48.749  29.406  16.086  1.00  0.00     0.041 C 
ATOM      6  O   UNL     1      49.294  28.436  15.495  1.00  0.00    -0.550 OA
ATOM      7  O   UNL     1      47.367  29.449  16.211  1.00  0.00    -0.550 OA
ENDBRANCH   4   5
ENDBRANCH   3   4
ENDBRANCH   2   3
ENDBRANCH   1   2
BRANCH   1   8
ATOM      8  C   UNL     1      47.924  33.558  15.533  1.00  0.00     0.000 C 
BRANCH   8   9
ATOM      9  C   UNL     1      48.553  34.048  14.220  1.00  0.00     0.006 C 
BRANCH   9  10
ATOM     10  C   UNL     1      48.771  32.906  13.219  1.00  0.00     0.053 C 
BRANCH  10  11
ATOM     11  C   UNL     1      48.958  33.421  11.824  1.00  0.00     0.041 C 
ATOM     12  O   UNL     1      47.966  33.569  11.064  1.00  0.00    -0.550 OA
ATOM     13  O   UNL     1      50.226  33.766  11.376  1.00  0.00    -0.550 OA
ENDBRANCH  10  11
ENDBRANCH   9  10
ENDBRANCH   8   9
ENDBRANCH   1   8
TORSDOF 8
ENDMDL
MODEL 5
REMARK VINA RESULT:    -4.326     11.158     12.814
REMARK INTER + INTRA:          -6.844
REMARK INTER:                  -6.048
REMARK INTRA:                  -0.796
REMARK UNBOUND:                -0.495
REMARK SMILES O=C([O-])CCCCCCCC(=O)[O-]
REMARK SMILES IDX 7 1 6 2 5 3 4 4 2 5 1 6 3 7 8 8 9 9 10 10 11 11 12 12 13 13
REMARK H PARENT
REMARK Flexibility Score: inf
ROOT
ATOM      1  C   UNL     1      38.514  38.384  22.972  1.00  0.00     0.000 C 
ENDROOT
BRANCH   1   2
ATOM      2  C   UNL     1      38.792  38.770  21.513  1.00  0.00     0.000 C 
BRANCH   2   3
ATOM      3  C   UNL     1      39.966  39.756  21.420  1.00  0.00     0.006 C 
BRANCH   3   4
ATOM      4  C   UNL     1      39.889  40.853  22.489  1.00  0.00     0.053 C 
BRANCH   4   5
ATOM      5  C   UNL     1      41.251  41.273  22.952  1.00  0.00     0.041 C 
ATOM      6  O   UNL     1      42.274  40.936  22.298  1.00  0.00    -0.550 OA
ATOM      7  O   UNL     1      41.392  42.008  24.121  1.00  0.00    -0.550 OA
ENDBRANCH   4   5
ENDBRANCH   3   4
ENDBRANCH   2   3
ENDBRANCH   1   2
BRANCH   1   8
ATOM      8  C   UNL     1      38.674  36.874  23.182  1.00  0.00     0.000 C 
BRANCH   8   9
ATOM      9  C   UNL     1      39.947  36.561  23.982  1.00  0.00     0.006 C 
BRANCH   9  10
ATOM     10  C   UNL     1      41.218  36.721  23.137  1.00  0.00     0.053 C 
BRANCH  10  11
ATOM     11  C   UNL     1      42.170  37.703  23.747  1.00  0.00     0.041 C 
ATOM     12  O   UNL     1      43.289  37.918  23.213  1.00  0.00    -0.550 OA
ATOM     13  O   UNL     1      41.807  38.403  24.890  1.00  0.00    -0.550 OA
ENDBRANCH  10  11
ENDBRANCH   9  10
ENDBRANCH   8   9
ENDBRANCH   1   8
TORSDOF 8
ENDMDL
MODEL 6
REMARK VINA RESULT:    -4.317     11.790     13.040
REMARK INTER + INTRA:          -6.831
REMARK INTER:                  -6.053
REMARK INTRA:                  -0.778
REMARK UNBOUND:                -0.495
REMARK SMILES O=C([O-])CCCCCCCC(=O)[O-]
REMARK SMILES IDX 7 1 6 2 5 3 4 4 2 5 1 6 3 7 8 8 9 9 10 10 11 11 12 12 13 13
REMARK H PARENT
REMARK Flexibility Score: inf
ROOT
ATOM      1  C   UNL     1      39.615  36.120  23.962  1.00  0.00     0.000 C 
ENDROOT
BRANCH   1   2
ATOM      2  C   UNL     1      38.638  36.865  23.044  1.00  0.00     0.000 C 
BRANCH   2   3
ATOM      3  C   UNL     1      37.692  37.760  23.858  1.00  0.00     0.006 C 
BRANCH   3   4
ATOM      4  C   UNL     1      38.073  39.243  23.767  1.00  0.00     0.053 C 
BRANCH   4   5
ATOM      5  C   UNL     1      38.682  39.738  25.044  1.00  0.00     0.041 C 
ATOM      6  O   UNL     1      39.923  39.941  25.118  1.00  0.00    -0.550 OA
ATOM      7  O   UNL     1      37.882  39.945  26.160  1.00  0.00    -0.550 OA
ENDBRANCH   4   5
ENDBRANCH   3   4
ENDBRANCH   2   3
ENDBRANCH   1   2
BRANCH   1   8
ATOM      8  C   UNL     1      40.959  36.854  24.048  1.00  0.00     0.000 C 
BRANCH   8   9
ATOM      9  C   UNL     1      41.617  36.961  22.665  1.00  0.00     0.006 C 
BRANCH   9  10
ATOM     10  C   UNL     1      42.489  38.216  22.532  1.00  0.00     0.053 C 
BRANCH  10  11
ATOM     11  C   UNL     1      41.700  39.388  22.034  1.00  0.00     0.041 C 
ATOM     12  O   UNL     1      40.691  39.210  21.303  1.00  0.00    -0.550 OA
ATOM     13  O   UNL     1      42.063  40.677  22.404  1.00  0.00    -0.550 OA
ENDBRANCH  10  11
ENDBRANCH   9  10
ENDBRANCH   8   9
ENDBRANCH   1   8
TORSDOF 8
ENDMDL
MODEL 7
REMARK VINA RESULT:    -4.278     11.516     12.840
REMARK INTER + INTRA:          -6.774
REMARK INTER:                  -5.962
REMARK INTRA:                  -0.812
REMARK UNBOUND:                -0.495
REMARK SMILES O=C([O-])CCCCCCCC(=O)[O-]
REMARK SMILES IDX 7 1 6 2 5 3 4 4 2 5 1 6 3 7 8 8 9 9 10 10 11 11 12 12 13 13
REMARK H PARENT
REMARK Flexibility Score: inf
ROOT
ATOM      1  C   UNL     1      39.818  36.110  24.139  1.00  0.00     0.000 C 
ENDROOT
BRANCH   1   2
ATOM      2  C   UNL     1      41.029  37.046  24.047  1.00  0.00     0.000 C 
BRANCH   2   3
ATOM      3  C   UNL     1      41.684  36.962  22.660  1.00  0.00     0.006 C 
BRANCH   3   4
ATOM      4  C   UNL     1      42.585  38.170  22.369  1.00  0.00     0.053 C 
BRANCH   4   5
ATOM      5  C   UNL     1      41.786  39.381  21.995  1.00  0.00     0.041 C 
ATOM      6  O   UNL     1      41.020  39.351  20.995  1.00  0.00    -0.550 OA
ATOM      7  O   UNL     1      41.911  40.551  22.731  1.00  0.00    -0.550 OA
ENDBRANCH   4   5
ENDBRANCH   3   4
ENDBRANCH   2   3
ENDBRANCH   1   2
BRANCH   1   8
ATOM      8  C   UNL     1      38.694  36.570  23.202  1.00  0.00     0.000 C 
BRANCH   8   9
ATOM      9  C   UNL     1      37.858  37.682  23.851  1.00  0.00     0.006 C 
BRANCH   9  10
ATOM     10  C   UNL     1      38.039  39.032  23.144  1.00  0.00     0.053 C 
BRANCH  10  11
ATOM     11  C   UNL     1      38.674  40.048  24.043  1.00  0.00     0.041 C 
ATOM     12  O   UNL     1      38.809  41.239  23.659  1.00  0.00    -0.550 OA
ATOM     13  O   UNL     1      39.090  39.683  25.317  1.00  0.00    -0.550 OA
ENDBRANCH  10  11
ENDBRANCH   9  10
ENDBRANCH   8   9
ENDBRANCH   1   8
TORSDOF 8
ENDMDL
MODEL 8
REMARK VINA RESULT:    -4.275     11.685     12.813
REMARK INTER + INTRA:          -6.770
REMARK INTER:                  -5.922
REMARK INTRA:                  -0.847
REMARK UNBOUND:                -0.495
REMARK SMILES O=C([O-])CCCCCCCC(=O)[O-]
REMARK SMILES IDX 7 1 6 2 5 3 4 4 2 5 1 6 3 7 8 8 9 9 10 10 11 11 12 12 13 13
REMARK H PARENT
REMARK Flexibility Score: inf
ROOT
ATOM      1  C   UNL     1      38.330  38.041  23.317  1.00  0.00     0.000 C 
ENDROOT
BRANCH   1   2
ATOM      2  C   UNL     1      38.781  36.579  23.422  1.00  0.00     0.000 C 
BRANCH   2   3
ATOM      3  C   UNL     1      40.207  36.482  23.984  1.00  0.00     0.006 C 
BRANCH   3   4
ATOM      4  C   UNL     1      41.265  36.904  22.957  1.00  0.00     0.053 C 
BRANCH   4   5
ATOM      5  C   UNL     1      42.379  37.679  23.594  1.00  0.00     0.041 C 
ATOM      6  O   UNL     1      43.426  37.937  22.942  1.00  0.00    -0.550 OA
ATOM      7  O   UNL     1      42.273  38.088  24.916  1.00  0.00    -0.550 OA
ENDBRANCH   4   5
ENDBRANCH   3   4
ENDBRANCH   2   3
ENDBRANCH   1   2
BRANCH   1   8
ATOM      8  C   UNL     1      38.588  38.792  24.629  1.00  0.00     0.000 C 
BRANCH   8   9
ATOM      9  C   UNL     1      39.016  40.242  24.359  1.00  0.00     0.006 C 
BRANCH   9  10
ATOM     10  C   UNL     1      39.949  40.356  23.147  1.00  0.00     0.053 C 
BRANCH  10  11
ATOM     11  C   UNL     1      41.167  41.170  23.460  1.00  0.00     0.041 C 
ATOM     12  O   UNL     1      42.065  41.329  22.592  1.00  0.00    -0.550 OA
ATOM     13  O   UNL     1      41.295  41.778  24.702  1.00  0.00    -0.550 OA
ENDBRANCH  10  11
ENDBRANCH   9  10
ENDBRANCH   8   9
ENDBRANCH   1   8
TORSDOF 8
ENDMDL
MODEL 9
REMARK VINA RESULT:    -4.183     11.391     13.064
REMARK INTER + INTRA:          -6.634
REMARK INTER:                  -5.683
REMARK INTRA:                  -0.951
REMARK UNBOUND:                -0.495
REMARK SMILES O=C([O-])CCCCCCCC(=O)[O-]
REMARK SMILES IDX 7 1 6 2 5 3 4 4 2 5 1 6 3 7 8 8 9 9 10 10 11 11 12 12 13 13
REMARK H PARENT
REMARK Flexibility Score: inf
ROOT
ATOM      1  C   UNL     1      41.684  38.099  21.842  1.00  0.00     0.000 C 
ENDROOT
BRANCH   1   2
ATOM      2  C   UNL     1      41.711  39.402  22.652  1.00  0.00     0.000 C 
BRANCH   2   3
ATOM      3  C   UNL     1      40.706  40.419  22.090  1.00  0.00     0.006 C 
BRANCH   3   4
ATOM      4  C   UNL     1      39.680  39.765  21.155  1.00  0.00     0.053 C 
BRANCH   4   5
ATOM      5  C   UNL     1      38.313  40.353  21.334  1.00  0.00     0.041 C 
ATOM      6  O   UNL     1      37.438  40.208  20.439  1.00  0.00    -0.550 OA
ATOM      7  O   UNL     1      38.017  41.089  22.474  1.00  0.00    -0.550 OA
ENDBRANCH   4   5
ENDBRANCH   3   4
ENDBRANCH   2   3
ENDBRANCH   1   2
BRANCH   1   8
ATOM      8  C   UNL     1      41.805  36.877  22.761  1.00  0.00     0.000 C 
BRANCH   8   9
ATOM      9  C   UNL     1      40.889  37.016  23.985  1.00  0.00     0.006 C 
BRANCH   9  10
ATOM     10  C   UNL     1      39.446  36.593  23.682  1.00  0.00     0.053 C 
BRANCH  10  11
ATOM     11  C   UNL     1      38.470  37.683  24.004  1.00  0.00     0.041 C 
ATOM     12  O   UNL     1      37.272  37.594  23.628  1.00  0.00    -0.550 OA
ATOM     13  O   UNL     1      38.878  38.783  24.748  1.00  0.00    -0.550 OA
ENDBRANCH  10  11
ENDBRANCH   9  10
ENDBRANCH   8   9
ENDBRANCH   1   8
TORSDOF 8
ENDMDL
