MODEL 1
REMARK VINA RESULT:    -5.035      0.000      0.000
REMARK INTER + INTRA:          -6.793
REMARK INTER:                  -6.360
REMARK INTRA:                  -0.433
REMARK UNBOUND:                -0.433
REMARK SMILES CC(C)=CCCC(C)=CCO
REMARK SMILES IDX 7 1 9 2 8 3 6 4 5 5 4 6 1 7 2 8 3 9 10 10 11 11
REMARK H PARENT 11 12
REMARK Flexibility Score: inf
ROOT
ATOM      1  C   UNL     1     -63.870  16.887  19.971  1.00  0.00    -0.075 C 
ATOM      2  C   UNL     1     -64.934  17.616  19.563  1.00  0.00    -0.000 C 
ATOM      3  C   UNL     1     -62.976  17.459  21.041  1.00  0.00     0.039 C 
ENDROOT
BRANCH   1   4
ATOM      4  C   UNL     1     -63.574  15.500  19.438  1.00  0.00     0.034 C 
BRANCH   4   5
ATOM      5  C   UNL     1     -62.111  15.120  19.695  1.00  0.00     0.032 C 
BRANCH   5   6
ATOM      6  C   UNL     1     -62.009  13.832  20.476  1.00  0.00    -0.028 C 
ATOM      7  C   UNL     1     -61.273  12.389  22.326  1.00  0.00     0.039 C 
ATOM      8  C   UNL     1     -61.310  13.723  21.626  1.00  0.00    -0.080 C 
ATOM      9  C   UNL     1     -60.571  14.899  22.217  1.00  0.00     0.039 C 
ENDBRANCH   5   6
ENDBRANCH   4   5
ENDBRANCH   1   4
BRANCH   2  10
ATOM     10  C   UNL     1     -65.909  17.158  18.512  1.00  0.00     0.183 C 
BRANCH  10  11
ATOM     11  O   UNL     1     -67.078  17.924  18.592  1.00  0.00    -0.392 OA
ATOM     12  H   UNL     1     -67.832  17.278  18.566  1.00  0.00     0.210 HD
ENDBRANCH  10  11
ENDBRANCH   2  10
TORSDOF 5
ENDMDL
MODEL 2
REMARK VINA RESULT:    -4.964      3.099      5.558
REMARK INTER + INTRA:          -6.703
REMARK INTER:                  -6.290
REMARK INTRA:                  -0.413
REMARK UNBOUND:                -0.433
REMARK SMILES CC(C)=CCCC(C)=CCO
REMARK SMILES IDX 7 1 9 2 8 3 6 4 5 5 4 6 1 7 2 8 3 9 10 10 11 11
REMARK H PARENT 11 12
REMARK Flexibility Score: inf
ROOT
ATOM      1  C   UNL     1     -61.872  14.715  21.695  1.00  0.00    -0.075 C 
ATOM      2  C   UNL     1     -61.220  13.795  22.442  1.00  0.00    -0.000 C 
ATOM      3  C   UNL     1     -62.033  16.106  22.251  1.00  0.00     0.039 C 
ENDROOT
BRANCH   1   4
ATOM      4  C   UNL     1     -62.397  14.419  20.304  1.00  0.00     0.034 C 
BRANCH   4   5
ATOM      5  C   UNL     1     -62.556  15.713  19.498  1.00  0.00     0.032 C 
BRANCH   5   6
ATOM      6  C   UNL     1     -63.978  15.890  19.022  1.00  0.00    -0.028 C 
ATOM      7  C   UNL     1     -66.045  17.140  18.566  1.00  0.00     0.039 C 
ATOM      8  C   UNL     1     -64.625  17.074  19.066  1.00  0.00    -0.080 C 
ATOM      9  C   UNL     1     -63.961  18.319  19.604  1.00  0.00     0.039 C 
ENDBRANCH   5   6
ENDBRANCH   4   5
ENDBRANCH   1   4
BRANCH   2  10
ATOM     10  C   UNL     1     -60.984  12.374  22.002  1.00  0.00     0.183 C 
BRANCH  10  11
ATOM     11  O   UNL     1     -61.220  11.507  23.076  1.00  0.00    -0.392 OA
ATOM     12  H   UNL     1     -60.680  10.693  22.895  1.00  0.00     0.210 HD
ENDBRANCH  10  11
ENDBRANCH   2  10
TORSDOF 5
ENDMDL
MODEL 3
REMARK VINA RESULT:    -4.946      1.562      2.213
REMARK INTER + INTRA:          -6.680
REMARK INTER:                  -6.196
REMARK INTRA:                  -0.483
REMARK UNBOUND:                -0.433
REMARK SMILES CC(C)=CCCC(C)=CCO
REMARK SMILES IDX 7 1 9 2 8 3 6 4 5 5 4 6 1 7 2 8 3 9 10 10 11 11
REMARK H PARENT 11 12
REMARK Flexibility Score: inf
ROOT
ATOM      1  C   UNL     1     -63.454  16.001  19.824  1.00  0.00    -0.075 C 
ATOM      2  C   UNL     1     -63.693  17.219  19.286  1.00  0.00    -0.000 C 
ATOM      3  C   UNL     1     -63.582  14.789  18.939  1.00  0.00     0.039 C 
ENDROOT
BRANCH   1   4
ATOM      4  C   UNL     1     -63.010  15.813  21.261  1.00  0.00     0.034 C 
BRANCH   4   5
ATOM      5  C   UNL     1     -61.550  15.349  21.321  1.00  0.00     0.032 C 
BRANCH   5   6
ATOM      6  C   UNL     1     -61.382  14.197  22.283  1.00  0.00    -0.028 C 
ATOM      7  C   UNL     1     -61.012  11.852  22.924  1.00  0.00     0.039 C 
ATOM      8  C   UNL     1     -61.165  12.927  21.879  1.00  0.00    -0.080 C 
ATOM      9  C   UNL     1     -61.078  12.567  20.416  1.00  0.00     0.039 C 
ENDBRANCH   5   6
ENDBRANCH   4   5
ENDBRANCH   1   4
BRANCH   2  10
ATOM     10  C   UNL     1     -63.591  18.509  20.056  1.00  0.00     0.183 C 
BRANCH  10  11
ATOM     11  O   UNL     1     -64.807  19.199  19.976  1.00  0.00    -0.392 OA
ATOM     12  H   UNL     1     -64.579  20.130  19.717  1.00  0.00     0.210 HD
ENDBRANCH  10  11
ENDBRANCH   2  10
TORSDOF 5
ENDMDL
MODEL 4
REMARK VINA RESULT:    -4.933     16.959     18.863
REMARK INTER + INTRA:          -6.664
REMARK INTER:                  -6.401
REMARK INTRA:                  -0.263
REMARK UNBOUND:                -0.433
REMARK SMILES CC(C)=CCCC(C)=CCO
REMARK SMILES IDX 7 1 9 2 8 3 6 4 5 5 4 6 1 7 2 8 3 9 10 10 11 11
REMARK H PARENT 11 12
REMARK Flexibility Score: inf
ROOT
ATOM      1  C   UNL     1     -70.215   5.792   5.849  1.00  0.00    -0.075 C 
ATOM      2  C   UNL     1     -70.308   5.492   7.164  1.00  0.00    -0.000 C 
ATOM      3  C   UNL     1     -68.870   5.675   5.180  1.00  0.00     0.039 C 
ENDROOT
BRANCH   1   4
ATOM      4  C   UNL     1     -71.415   6.186   5.011  1.00  0.00     0.034 C 
BRANCH   4   5
ATOM      5  C   UNL     1     -72.058   7.468   5.553  1.00  0.00     0.032 C 
BRANCH   5   6
ATOM      6  C   UNL     1     -71.532   8.688   4.836  1.00  0.00    -0.028 C 
ATOM      7  C   UNL     1     -70.203  10.743   4.595  1.00  0.00     0.039 C 
ATOM      8  C   UNL     1     -70.665   9.556   5.400  1.00  0.00    -0.080 C 
ATOM      9  C   UNL     1     -70.156   9.362   6.808  1.00  0.00     0.039 C 
ENDBRANCH   5   6
ENDBRANCH   4   5
ENDBRANCH   1   4
BRANCH   2  10
ATOM     10  C   UNL     1     -71.591   5.558   7.950  1.00  0.00     0.183 C 
BRANCH  10  11
ATOM     11  O   UNL     1     -72.005   4.262   8.279  1.00  0.00    -0.392 OA
ATOM     12  H   UNL     1     -72.721   4.366   8.959  1.00  0.00     0.210 HD
ENDBRANCH  10  11
ENDBRANCH   2  10
TORSDOF 5
ENDMDL
MODEL 5
REMARK VINA RESULT:    -4.931      2.167      2.730
REMARK INTER + INTRA:          -6.661
REMARK INTER:                  -6.393
REMARK INTRA:                  -0.268
REMARK UNBOUND:                -0.433
REMARK SMILES CC(C)=CCCC(C)=CCO
REMARK SMILES IDX 7 1 9 2 8 3 6 4 5 5 4 6 1 7 2 8 3 9 10 10 11 11
REMARK H PARENT 11 12
REMARK Flexibility Score: inf
ROOT
ATOM      1  C   UNL     1     -63.713  17.476  19.556  1.00  0.00    -0.075 C 
ATOM      2  C   UNL     1     -63.471  18.688  20.104  1.00  0.00    -0.000 C 
ATOM      3  C   UNL     1     -65.053  17.235  18.912  1.00  0.00     0.039 C 
ENDROOT
BRANCH   1   4
ATOM      4  C   UNL     1     -62.674  16.373  19.515  1.00  0.00     0.034 C 
BRANCH   4   5
ATOM      5  C   UNL     1     -63.082  15.209  20.424  1.00  0.00     0.032 C 
BRANCH   5   6
ATOM      6  C   UNL     1     -62.367  13.936  20.039  1.00  0.00    -0.028 C 
ATOM      7  C   UNL     1     -60.883  12.008  20.392  1.00  0.00     0.039 C 
ATOM      8  C   UNL     1     -61.547  13.270  20.879  1.00  0.00    -0.080 C 
ATOM      9  C   UNL     1     -61.285  13.761  22.282  1.00  0.00     0.039 C 
ENDBRANCH   5   6
ENDBRANCH   4   5
ENDBRANCH   1   4
BRANCH   2  10
ATOM     10  C   UNL     1     -62.173  19.063  20.769  1.00  0.00     0.183 C 
BRANCH  10  11
ATOM     11  O   UNL     1     -62.353  20.229  21.523  1.00  0.00    -0.392 OA
ATOM     12  H   UNL     1     -63.107  20.717  21.098  1.00  0.00     0.210 HD
ENDBRANCH  10  11
ENDBRANCH   2  10
TORSDOF 5
ENDMDL
MODEL 6
REMARK VINA RESULT:    -4.854     16.930     18.366
REMARK INTER + INTRA:          -6.563
REMARK INTER:                  -6.029
REMARK INTRA:                  -0.535
REMARK UNBOUND:                -0.433
REMARK SMILES CC(C)=CCCC(C)=CCO
REMARK SMILES IDX 7 1 9 2 8 3 6 4 5 5 4 6 1 7 2 8 3 9 10 10 11 11
REMARK H PARENT 11 12
REMARK Flexibility Score: inf
ROOT
ATOM      1  C   UNL     1     -71.092   6.712   7.073  1.00  0.00    -0.075 C 
ATOM      2  C   UNL     1     -71.127   7.210   8.330  1.00  0.00    -0.000 C 
ATOM      3  C   UNL     1     -71.618   7.565   5.948  1.00  0.00     0.039 C 
ENDROOT
BRANCH   1   4
ATOM      4  C   UNL     1     -70.494   5.358   6.745  1.00  0.00     0.034 C 
BRANCH   4   5
ATOM      5  C   UNL     1     -70.132   5.271   5.258  1.00  0.00     0.032 C 
BRANCH   5   6
ATOM      6  C   UNL     1     -68.644   5.103   5.066  1.00  0.00    -0.028 C 
ATOM      7  C   UNL     1     -66.370   5.818   4.461  1.00  0.00     0.039 C 
ATOM      8  C   UNL     1     -67.844   6.093   4.617  1.00  0.00    -0.080 C 
ATOM      9  C   UNL     1     -68.392   7.455   4.268  1.00  0.00     0.039 C 
ENDBRANCH   5   6
ENDBRANCH   4   5
ENDBRANCH   1   4
BRANCH   2  10
ATOM     10  C   UNL     1     -70.626   6.468   9.540  1.00  0.00     0.183 C 
BRANCH  10  11
ATOM     11  O   UNL     1     -71.677   5.742  10.112  1.00  0.00    -0.392 OA
ATOM     12  H   UNL     1     -71.257   4.974  10.582  1.00  0.00     0.210 HD
ENDBRANCH  10  11
ENDBRANCH   2  10
TORSDOF 5
ENDMDL
MODEL 7
REMARK VINA RESULT:    -4.825     16.675     18.080
REMARK INTER + INTRA:          -6.527
REMARK INTER:                  -6.216
REMARK INTRA:                  -0.310
REMARK UNBOUND:                -0.433
REMARK SMILES CC(C)=CCCC(C)=CCO
REMARK SMILES IDX 7 1 9 2 8 3 6 4 5 5 4 6 1 7 2 8 3 9 10 10 11 11
REMARK H PARENT 11 12
REMARK Flexibility Score: inf
ROOT
ATOM      1  C   UNL     1     -70.795   6.259   7.064  1.00  0.00    -0.075 C 
ATOM      2  C   UNL     1     -70.941   5.794   8.326  1.00  0.00    -0.000 C 
ATOM      3  C   UNL     1     -70.189   5.347   6.029  1.00  0.00     0.039 C 
ENDROOT
BRANCH   1   4
ATOM      4  C   UNL     1     -71.266   7.635   6.639  1.00  0.00     0.034 C 
BRANCH   4   5
ATOM      5  C   UNL     1     -70.129   8.657   6.753  1.00  0.00     0.032 C 
BRANCH   5   6
ATOM      6  C   UNL     1     -70.497   9.962   6.089  1.00  0.00    -0.028 C 
ATOM      7  C   UNL     1     -70.606  11.580   4.241  1.00  0.00     0.039 C 
ATOM      8  C   UNL     1     -70.192  10.246   4.805  1.00  0.00    -0.080 C 
ATOM      9  C   UNL     1     -69.448   9.263   3.934  1.00  0.00     0.039 C 
ENDBRANCH   5   6
ENDBRANCH   4   5
ENDBRANCH   1   4
BRANCH   2  10
ATOM     10  C   UNL     1     -71.539   6.596   9.451  1.00  0.00     0.183 C 
BRANCH  10  11
ATOM     11  O   UNL     1     -71.585   5.813  10.611  1.00  0.00    -0.392 OA
ATOM     12  H   UNL     1     -71.685   6.448  11.367  1.00  0.00     0.210 HD
ENDBRANCH  10  11
ENDBRANCH   2  10
TORSDOF 5
ENDMDL
MODEL 8
REMARK VINA RESULT:    -4.784      2.812      4.390
REMARK INTER + INTRA:          -6.475
REMARK INTER:                  -5.872
REMARK INTRA:                  -0.603
REMARK UNBOUND:                -0.433
REMARK SMILES CC(C)=CCCC(C)=CCO
REMARK SMILES IDX 7 1 9 2 8 3 6 4 5 5 4 6 1 7 2 8 3 9 10 10 11 11
REMARK H PARENT 11 12
REMARK Flexibility Score: inf
ROOT
ATOM      1  C   UNL     1     -64.066  16.586  19.554  1.00  0.00    -0.075 C 
ATOM      2  C   UNL     1     -63.588  15.368  19.213  1.00  0.00    -0.000 C 
ATOM      3  C   UNL     1     -65.233  17.142  18.780  1.00  0.00     0.039 C 
ENDROOT
BRANCH   1   4
ATOM      4  C   UNL     1     -63.514  17.387  20.717  1.00  0.00     0.034 C 
BRANCH   4   5
ATOM      5  C   UNL     1     -62.799  18.647  20.217  1.00  0.00     0.032 C 
BRANCH   5   6
ATOM      6  C   UNL     1     -61.355  18.669  20.657  1.00  0.00    -0.028 C 
ATOM      7  C   UNL     1     -58.937  18.288  20.422  1.00  0.00     0.039 C 
ATOM      8  C   UNL     1     -60.343  18.221  19.884  1.00  0.00    -0.080 C 
ATOM      9  C   UNL     1     -60.591  17.658  18.505  1.00  0.00     0.039 C 
ENDBRANCH   5   6
ENDBRANCH   4   5
ENDBRANCH   1   4
BRANCH   2  10
ATOM     10  C   UNL     1     -62.436  14.695  19.909  1.00  0.00     0.183 C 
BRANCH  10  11
ATOM     11  O   UNL     1     -62.669  13.315  19.972  1.00  0.00    -0.392 OA
ATOM     12  H   UNL     1     -61.984  12.895  19.389  1.00  0.00     0.210 HD
ENDBRANCH  10  11
ENDBRANCH   2  10
TORSDOF 5
ENDMDL
MODEL 9
REMARK VINA RESULT:    -4.639      2.561      5.157
REMARK INTER + INTRA:          -6.292
REMARK INTER:                  -5.477
REMARK INTRA:                  -0.815
REMARK UNBOUND:                -0.433
REMARK SMILES CC(C)=CCCC(C)=CCO
REMARK SMILES IDX 7 1 9 2 8 3 6 4 5 5 4 6 1 7 2 8 3 9 10 10 11 11
REMARK H PARENT 11 12
REMARK Flexibility Score: inf
ROOT
ATOM      1  C   UNL     1     -60.846  14.104  21.791  1.00  0.00    -0.075 C 
ATOM      2  C   UNL     1     -60.077  14.198  20.682  1.00  0.00    -0.000 C 
ATOM      3  C   UNL     1     -61.271  12.736  22.255  1.00  0.00     0.039 C 
ENDROOT
BRANCH   1   4
ATOM      4  C   UNL     1     -61.248  15.312  22.613  1.00  0.00     0.034 C 
BRANCH   4   5
ATOM      5  C   UNL     1     -62.717  15.672  22.366  1.00  0.00     0.032 C 
BRANCH   5   6
ATOM      6  C   UNL     1     -62.842  16.862  21.445  1.00  0.00    -0.028 C 
ATOM      7  C   UNL     1     -63.311  18.008  19.321  1.00  0.00     0.039 C 
ATOM      8  C   UNL     1     -63.220  16.755  20.154  1.00  0.00    -0.080 C 
ATOM      9  C   UNL     1     -63.547  15.418  19.533  1.00  0.00     0.039 C 
ENDBRANCH   5   6
ENDBRANCH   4   5
ENDBRANCH   1   4
BRANCH   2  10
ATOM     10  C   UNL     1     -59.577  15.501  20.117  1.00  0.00     0.183 C 
BRANCH  10  11
ATOM     11  O   UNL     1     -60.116  15.695  18.839  1.00  0.00    -0.392 OA
ATOM     12  H   UNL     1     -59.670  16.503  18.473  1.00  0.00     0.210 HD
ENDBRANCH  10  11
ENDBRANCH   2  10
TORSDOF 5
ENDMDL
