MODEL 1
REMARK VINA RESULT:    82.346      0.000      0.000
REMARK INTER + INTRA:         113.403
REMARK INTER:                 113.636
REMARK INTRA:                  -0.233
REMARK UNBOUND:                -0.233
REMARK SMILES C[C@@H]1C(=O)O[C@H](C)[C@H]1C[C@H](O)[C@](C)(O)[C@H]1CC[C@@]2(O)C3=CC(=O)[C@@H]4C[C@@H](O)[C@H](O)C[C@]4(C)[C@H]3CC[C@]12C
REMARK SMILES IDX 12 1 13 2 10 3 9 4 8 5 1 6 2 7 3 8 6 9 5 10 4 11 7 12 11 13
REMARK SMILES IDX 15 15 16 16 36 17 17 18 18 19 35 20 37 21 20 22 34 23 33 24
REMARK SMILES IDX 21 25 31 26 22 27 24 28 30 29 32 30 23 31 25 32 28 33 26 34
REMARK SMILES IDX 19 35 29 37 27 39 14 41
REMARK H PARENT 11 14 19 36 29 38 27 40 14 42
REMARK Flexibility Score: inf
ROOT
ATOM      1  C   UNL     1      86.505  21.190 109.038  1.00  0.00     0.091 C 
ATOM      2  C   UNL     1      85.961  22.153 107.943  1.00  0.00     0.045 C 
ENDROOT
BRANCH   1   3
ATOM      3  C   UNL     1      87.864  21.757 109.626  1.00  0.00     0.146 C 
BRANCH   3   4
ATOM      4  C   UNL     1      88.033  21.548 111.159  1.00  0.00     0.043 C 
BRANCH   4   5
ATOM      5  C   UNL     1      89.511  21.498 111.628  1.00  0.00     0.046 C 
ATOM      6  C   UNL     1      91.136  23.463 111.303  1.00  0.00     0.020 C 
ATOM      7  C   UNL     1      90.036  22.854 112.182  1.00  0.00     0.103 C 
ATOM      8  C   UNL     1      90.586  22.476 113.504  1.00  0.00     0.309 C 
ATOM      9  C   UNL     1      89.688  20.474 112.794  1.00  0.00     0.177 C 
ATOM     10  O   UNL     1      90.423  21.145 113.799  1.00  0.00    -0.462 OA
ATOM     11  O   UNL     1      91.135  23.284 114.300  1.00  0.00    -0.252 OA
ATOM     12  C   UNL     1      90.433  19.211 112.360  1.00  0.00     0.053 C 
ENDBRANCH   4   5
ENDBRANCH   3   4
BRANCH   3  13
ATOM     13  O   UNL     1      88.042  23.113 109.286  1.00  0.00    -0.390 OA
ATOM     14  H   UNL     1      88.808  23.469 109.805  1.00  0.00     0.211 HD
ENDBRANCH   3  13
ENDBRANCH   1   3
BRANCH   1  15
ATOM     15  C   UNL     1      86.628  19.745 108.390  1.00  0.00     0.032 C 
ATOM     16  C   UNL     1      87.993  19.007 108.549  1.00  0.00     0.010 C 
ATOM     17  C   UNL     1      85.574  18.644 108.723  1.00  0.00     0.006 C 
ATOM     18  C   UNL     1      87.693  17.491 108.538  1.00  0.00     0.041 C 
ATOM     19  C   UNL     1      86.245  17.404 108.038  1.00  0.00     0.092 C 
ATOM     20  C   UNL     1      84.129  18.843 108.162  1.00  0.00     0.011 C 
ATOM     21  C   UNL     1      85.446  18.467 110.274  1.00  0.00     0.015 C 
ATOM     22  C   UNL     1      85.383  16.186 108.328  1.00  0.00    -0.031 C 
ATOM     23  C   UNL     1      83.267  17.547 108.257  1.00  0.00     0.009 C 
ATOM     24  C   UNL     1      83.980  16.263 107.728  1.00  0.00     0.025 C 
ATOM     25  C   UNL     1      85.694  15.291 109.278  1.00  0.00     0.050 C 
ATOM     26  C   UNL     1      83.166  14.916 107.868  1.00  0.00    -0.013 C 
ATOM     27  C   UNL     1      84.698  14.362 109.822  1.00  0.00     0.159 C 
ATOM     28  C   UNL     1      83.265  14.366 109.327  1.00  0.00     0.070 C 
ATOM     29  C   UNL     1      83.767  13.870 106.869  1.00  0.00     0.042 C 
ATOM     30  C   UNL     1      81.679  15.173 107.485  1.00  0.00     0.013 C 
ATOM     31  O   UNL     1      85.034  13.617 110.783  1.00  0.00    -0.295 OA
ATOM     32  C   UNL     1      82.638  12.954 109.447  1.00  0.00     0.047 C 
ATOM     33  C   UNL     1      83.193  12.444 107.017  1.00  0.00     0.143 C 
ATOM     34  C   UNL     1      83.290  11.955 108.473  1.00  0.00     0.143 C 
BRANCH  19  35
ATOM     35  O   UNL     1      86.368  17.511 106.627  1.00  0.00    -0.385 OA
ATOM     36  H   UNL     1      85.611  18.002 106.230  1.00  0.00     0.211 HD
ENDBRANCH  19  35
BRANCH  33  37
ATOM     37  O   UNL     1      83.918  11.564 106.195  1.00  0.00    -0.390 OA
ATOM     38  H   UNL     1      83.771  10.650 106.550  1.00  0.00     0.211 HD
ENDBRANCH  33  37
BRANCH  34  39
ATOM     39  O   UNL     1      82.706  10.683 108.611  1.00  0.00    -0.390 OA
ATOM     40  H   UNL     1      81.922  10.774 109.215  1.00  0.00     0.211 HD
ENDBRANCH  34  39
ENDBRANCH   1  15
BRANCH   1  41
ATOM     41  O   UNL     1      85.545  21.100 110.068  1.00  0.00    -0.387 OA
ATOM     42  H   UNL     1      84.908  21.860 109.998  1.00  0.00     0.211 HD
ENDBRANCH   1  41
TORSDOF 9
ENDMDL
MODEL 2
REMARK VINA RESULT:    82.772      1.443      2.487
REMARK INTER + INTRA:         113.991
REMARK INTER:                 113.480
REMARK INTRA:                   0.510
REMARK UNBOUND:                -0.233
REMARK SMILES C[C@@H]1C(=O)O[C@H](C)[C@H]1C[C@H](O)[C@](C)(O)[C@H]1CC[C@@]2(O)C3=CC(=O)[C@@H]4C[C@@H](O)[C@H](O)C[C@]4(C)[C@H]3CC[C@]12C
REMARK SMILES IDX 12 1 13 2 10 3 9 4 8 5 1 6 2 7 3 8 6 9 5 10 4 11 7 12 11 13
REMARK SMILES IDX 15 15 16 16 36 17 17 18 18 19 35 20 37 21 20 22 34 23 33 24
REMARK SMILES IDX 21 25 31 26 22 27 24 28 30 29 32 30 23 31 25 32 28 33 26 34
REMARK SMILES IDX 19 35 29 37 27 39 14 41
REMARK H PARENT 11 14 19 36 29 38 27 40 14 42
REMARK Flexibility Score: inf
ROOT
ATOM      1  C   UNL     1      87.261  21.714 109.331  1.00  0.00     0.091 C 
ATOM      2  C   UNL     1      88.522  21.378 108.481  1.00  0.00     0.045 C 
ENDROOT
BRANCH   1   3
ATOM      3  C   UNL     1      87.562  21.450 110.865  1.00  0.00     0.146 C 
BRANCH   3   4
ATOM      4  C   UNL     1      88.748  20.477 111.124  1.00  0.00     0.043 C 
BRANCH   4   5
ATOM      5  C   UNL     1      90.053  21.184 111.579  1.00  0.00     0.046 C 
ATOM      6  C   UNL     1      90.293  23.742 111.650  1.00  0.00     0.020 C 
ATOM      7  C   UNL     1      89.807  22.489 112.389  1.00  0.00     0.103 C 
ATOM      8  C   UNL     1      90.610  22.271 113.614  1.00  0.00     0.309 C 
ATOM      9  C   UNL     1      90.884  20.257 112.523  1.00  0.00     0.177 C 
ATOM     10  O   UNL     1      91.234  21.048 113.643  1.00  0.00    -0.462 OA
ATOM     11  O   UNL     1      90.709  23.104 114.554  1.00  0.00    -0.252 OA
ATOM     12  C   UNL     1      92.147  19.716 111.853  1.00  0.00     0.053 C 
ENDBRANCH   4   5
ENDBRANCH   3   4
BRANCH   3  13
ATOM     13  O   UNL     1      86.406  21.019 111.546  1.00  0.00    -0.390 OA
ATOM     14  H   UNL     1      86.087  20.180 111.123  1.00  0.00     0.211 HD
ENDBRANCH   3  13
ENDBRANCH   1   3
BRANCH   1  15
ATOM     15  C   UNL     1      86.050  20.867 108.748  1.00  0.00     0.032 C 
ATOM     16  C   UNL     1      85.596  21.185 107.291  1.00  0.00     0.010 C 
ATOM     17  C   UNL     1      86.091  19.309 108.789  1.00  0.00     0.006 C 
ATOM     18  C   UNL     1      85.003  19.883 106.707  1.00  0.00     0.041 C 
ATOM     19  C   UNL     1      84.822  18.976 107.931  1.00  0.00     0.092 C 
ATOM     20  C   UNL     1      85.979  18.626 110.190  1.00  0.00     0.011 C 
ATOM     21  C   UNL     1      87.410  18.784 108.126  1.00  0.00     0.015 C 
ATOM     22  C   UNL     1      84.737  17.466 107.788  1.00  0.00    -0.031 C 
ATOM     23  C   UNL     1      85.688  17.097 110.089  1.00  0.00     0.009 C 
ATOM     24  C   UNL     1      84.529  16.729 109.110  1.00  0.00     0.025 C 
ATOM     25  C   UNL     1      85.129  16.822 106.678  1.00  0.00     0.050 C 
ATOM     26  C   UNL     1      84.247  15.185 108.928  1.00  0.00    -0.013 C 
ATOM     27  C   UNL     1      85.418  15.384 106.678  1.00  0.00     0.159 C 
ATOM     28  C   UNL     1      85.278  14.553 107.938  1.00  0.00     0.070 C 
ATOM     29  C   UNL     1      82.798  15.013 108.358  1.00  0.00     0.042 C 
ATOM     30  C   UNL     1      84.323  14.482 110.314  1.00  0.00     0.013 C 
ATOM     31  O   UNL     1      85.879  14.865 105.625  1.00  0.00    -0.295 OA
ATOM     32  C   UNL     1      84.912  13.088 107.592  1.00  0.00     0.047 C 
ATOM     33  C   UNL     1      82.439  13.566 107.954  1.00  0.00     0.143 C 
ATOM     34  C   UNL     1      83.495  12.978 107.000  1.00  0.00     0.143 C 
BRANCH  19  35
ATOM     35  O   UNL     1      83.599  19.419 108.502  1.00  0.00    -0.385 OA
ATOM     36  H   UNL     1      83.670  20.337 108.853  1.00  0.00     0.211 HD
ENDBRANCH  19  35
BRANCH  33  37
ATOM     37  O   UNL     1      81.191  13.560 107.307  1.00  0.00    -0.390 OA
ATOM     38  H   UNL     1      81.371  13.499 106.333  1.00  0.00     0.211 HD
ENDBRANCH  33  37
BRANCH  34  39
ATOM     39  O   UNL     1      83.195  11.639 106.691  1.00  0.00    -0.390 OA
ATOM     40  H   UNL     1      82.215  11.577 106.538  1.00  0.00     0.211 HD
ENDBRANCH  34  39
ENDBRANCH   1  15
BRANCH   1  41
ATOM     41  O   UNL     1      86.945  23.075 109.137  1.00  0.00    -0.387 OA
ATOM     42  H   UNL     1      87.780  23.599 109.019  1.00  0.00     0.211 HD
ENDBRANCH   1  41
TORSDOF 9
ENDMDL
MODEL 3
REMARK VINA RESULT:    83.053      1.437      9.557
REMARK INTER + INTRA:         114.379
REMARK INTER:                 114.624
REMARK INTRA:                  -0.245
REMARK UNBOUND:                -0.233
REMARK SMILES C[C@@H]1C(=O)O[C@H](C)[C@H]1C[C@H](O)[C@](C)(O)[C@H]1CC[C@@]2(O)C3=CC(=O)[C@@H]4C[C@@H](O)[C@H](O)C[C@]4(C)[C@H]3CC[C@]12C
REMARK SMILES IDX 12 1 13 2 10 3 9 4 8 5 1 6 2 7 3 8 6 9 5 10 4 11 7 12 11 13
REMARK SMILES IDX 15 15 16 16 36 17 17 18 18 19 35 20 37 21 20 22 34 23 33 24
REMARK SMILES IDX 21 25 31 26 22 27 24 28 30 29 32 30 23 31 25 32 28 33 26 34
REMARK SMILES IDX 19 35 29 37 27 39 14 41
REMARK H PARENT 11 14 19 36 29 38 27 40 14 42
REMARK Flexibility Score: inf
ROOT
ATOM      1  C   UNL     1      85.146  19.104 107.586  1.00  0.00     0.091 C 
ATOM      2  C   UNL     1      84.579  20.284 106.744  1.00  0.00     0.045 C 
ENDROOT
BRANCH   1   3
ATOM      3  C   UNL     1      84.114  17.900 107.586  1.00  0.00     0.146 C 
BRANCH   3   4
ATOM      4  C   UNL     1      84.768  16.500 107.399  1.00  0.00     0.043 C 
BRANCH   4   5
ATOM      5  C   UNL     1      83.968  15.341 108.050  1.00  0.00     0.046 C 
ATOM      6  C   UNL     1      81.644  14.622 107.221  1.00  0.00     0.020 C 
ATOM      7  C   UNL     1      83.160  14.489 107.029  1.00  0.00     0.103 C 
ATOM      8  C   UNL     1      83.598  13.108 107.336  1.00  0.00     0.309 C 
ATOM      9  C   UNL     1      84.931  14.336 108.762  1.00  0.00     0.177 C 
ATOM     10  O   UNL     1      84.543  13.046 108.330  1.00  0.00    -0.462 OA
ATOM     11  O   UNL     1      83.170  12.082 106.742  1.00  0.00    -0.252 OA
ATOM     12  C   UNL     1      84.846  14.422 110.286  1.00  0.00     0.053 C 
ENDBRANCH   4   5
ENDBRANCH   3   4
BRANCH   3  13
ATOM     13  O   UNL     1      83.092  18.103 106.639  1.00  0.00    -0.390 OA
ATOM     14  H   UNL     1      82.274  17.639 106.954  1.00  0.00     0.211 HD
ENDBRANCH   3  13
ENDBRANCH   1   3
BRANCH   1  15
ATOM     15  C   UNL     1      85.491  19.667 109.031  1.00  0.00     0.032 C 
ATOM     16  C   UNL     1      84.949  18.866 110.255  1.00  0.00     0.010 C 
ATOM     17  C   UNL     1      86.969  19.975 109.420  1.00  0.00     0.006 C 
ATOM     18  C   UNL     1      85.932  19.103 111.423  1.00  0.00     0.041 C 
ATOM     19  C   UNL     1      86.796  20.279 110.948  1.00  0.00     0.092 C 
ATOM     20  C   UNL     1      87.657  21.188 108.713  1.00  0.00     0.011 C 
ATOM     21  C   UNL     1      87.871  18.721 109.163  1.00  0.00     0.015 C 
ATOM     22  C   UNL     1      88.174  20.531 111.535  1.00  0.00    -0.031 C 
ATOM     23  C   UNL     1      88.986  21.612 109.411  1.00  0.00     0.009 C 
ATOM     24  C   UNL     1      88.876  21.762 110.961  1.00  0.00     0.025 C 
ATOM     25  C   UNL     1      88.844  19.601 112.232  1.00  0.00     0.050 C 
ATOM     26  C   UNL     1      90.217  22.125 111.714  1.00  0.00    -0.013 C 
ATOM     27  C   UNL     1      90.292  19.691 112.452  1.00  0.00     0.159 C 
ATOM     28  C   UNL     1      91.101  20.850 111.904  1.00  0.00     0.070 C 
ATOM     29  C   UNL     1      89.849  22.723 113.115  1.00  0.00     0.042 C 
ATOM     30  C   UNL     1      90.987  23.203 110.899  1.00  0.00     0.013 C 
ATOM     31  O   UNL     1      90.872  18.731 113.030  1.00  0.00    -0.295 OA
ATOM     32  C   UNL     1      92.329  21.137 112.803  1.00  0.00     0.047 C 
ATOM     33  C   UNL     1      91.059  22.960 114.045  1.00  0.00     0.143 C 
ATOM     34  C   UNL     1      91.913  21.686 114.181  1.00  0.00     0.143 C 
BRANCH  19  35
ATOM     35  O   UNL     1      85.998  21.419 111.230  1.00  0.00    -0.385 OA
ATOM     36  H   UNL     1      85.939  21.594 112.198  1.00  0.00     0.211 HD
ENDBRANCH  19  35
BRANCH  33  37
ATOM     37  O   UNL     1      90.599  23.335 115.318  1.00  0.00    -0.390 OA
ATOM     38  H   UNL     1      91.196  22.900 115.981  1.00  0.00     0.211 HD
ENDBRANCH  33  37
BRANCH  34  39
ATOM     39  O   UNL     1      93.047  21.930 114.975  1.00  0.00    -0.390 OA
ATOM     40  H   UNL     1      93.181  22.913 115.017  1.00  0.00     0.211 HD
ENDBRANCH  34  39
ENDBRANCH   1  15
BRANCH   1  41
ATOM     41  O   UNL     1      86.361  18.687 107.005  1.00  0.00    -0.387 OA
ATOM     42  H   UNL     1      86.827  18.059 107.617  1.00  0.00     0.211 HD
ENDBRANCH   1  41
TORSDOF 9
ENDMDL
MODEL 4
REMARK VINA RESULT:    84.550      1.570      9.261
REMARK INTER + INTRA:         116.444
REMARK INTER:                 115.035
REMARK INTRA:                   1.409
REMARK UNBOUND:                -0.233
REMARK SMILES C[C@@H]1C(=O)O[C@H](C)[C@H]1C[C@H](O)[C@](C)(O)[C@H]1CC[C@@]2(O)C3=CC(=O)[C@@H]4C[C@@H](O)[C@H](O)C[C@]4(C)[C@H]3CC[C@]12C
REMARK SMILES IDX 12 1 13 2 10 3 9 4 8 5 1 6 2 7 3 8 6 9 5 10 4 11 7 12 11 13
REMARK SMILES IDX 15 15 16 16 36 17 17 18 18 19 35 20 37 21 20 22 34 23 33 24
REMARK SMILES IDX 21 25 31 26 22 27 24 28 30 29 32 30 23 31 25 32 28 33 26 34
REMARK SMILES IDX 19 35 29 37 27 39 14 41
REMARK H PARENT 11 14 19 36 29 38 27 40 14 42
REMARK Flexibility Score: inf
ROOT
ATOM      1  C   UNL     1      84.483  18.005 107.639  1.00  0.00     0.091 C 
ATOM      2  C   UNL     1      83.924  17.654 109.048  1.00  0.00     0.045 C 
ENDROOT
BRANCH   1   3
ATOM      3  C   UNL     1      84.999  16.689 106.922  1.00  0.00     0.146 C 
BRANCH   3   4
ATOM      4  C   UNL     1      83.926  15.569 106.796  1.00  0.00     0.043 C 
BRANCH   4   5
ATOM      5  C   UNL     1      84.161  14.363 107.744  1.00  0.00     0.046 C 
ATOM      6  C   UNL     1      85.331  14.597 110.022  1.00  0.00     0.020 C 
ATOM      7  C   UNL     1      84.009  14.715 109.252  1.00  0.00     0.103 C 
ATOM      8  C   UNL     1      83.044  13.698 109.730  1.00  0.00     0.309 C 
ATOM      9  C   UNL     1      83.117  13.232 107.472  1.00  0.00     0.177 C 
ATOM     10  O   UNL     1      82.601  12.861 108.736  1.00  0.00    -0.462 OA
ATOM     11  O   UNL     1      82.643  13.607 110.921  1.00  0.00    -0.252 OA
ATOM     12  C   UNL     1      83.736  12.015 106.784  1.00  0.00     0.053 C 
ENDBRANCH   4   5
ENDBRANCH   3   4
BRANCH   3  13
ATOM     13  O   UNL     1      86.165  16.194 107.539  1.00  0.00    -0.390 OA
ATOM     14  H   UNL     1      86.939  16.388 106.950  1.00  0.00     0.211 HD
ENDBRANCH   3  13
ENDBRANCH   1   3
BRANCH   1  15
ATOM     15  C   UNL     1      85.596  19.124 107.828  1.00  0.00     0.032 C 
ATOM     16  C   UNL     1      85.212  20.583 107.433  1.00  0.00     0.010 C 
ATOM     17  C   UNL     1      86.313  19.291 109.203  1.00  0.00     0.006 C 
ATOM     18  C   UNL     1      86.053  21.528 108.320  1.00  0.00     0.041 C 
ATOM     19  C   UNL     1      87.117  20.610 108.936  1.00  0.00     0.092 C 
ATOM     20  C   UNL     1      87.290  18.154 109.644  1.00  0.00     0.011 C 
ATOM     21  C   UNL     1      85.258  19.461 110.348  1.00  0.00     0.015 C 
ATOM     22  C   UNL     1      87.836  20.987 110.219  1.00  0.00    -0.031 C 
ATOM     23  C   UNL     1      88.196  18.574 110.841  1.00  0.00     0.009 C 
ATOM     24  C   UNL     1      88.882  19.966 110.667  1.00  0.00     0.025 C 
ATOM     25  C   UNL     1      87.383  21.939 111.050  1.00  0.00     0.050 C 
ATOM     26  C   UNL     1      89.756  20.460 111.888  1.00  0.00    -0.013 C 
ATOM     27  C   UNL     1      87.833  22.031 112.443  1.00  0.00     0.159 C 
ATOM     28  C   UNL     1      88.844  21.054 113.009  1.00  0.00     0.070 C 
ATOM     29  C   UNL     1      90.742  21.563 111.373  1.00  0.00     0.042 C 
ATOM     30  C   UNL     1      90.587  19.266 112.440  1.00  0.00     0.013 C 
ATOM     31  O   UNL     1      87.289  22.887 113.193  1.00  0.00    -0.295 OA
ATOM     32  C   UNL     1      89.680  21.718 114.132  1.00  0.00     0.047 C 
ATOM     33  C   UNL     1      91.541  22.275 112.488  1.00  0.00     0.143 C 
ATOM     34  C   UNL     1      90.603  22.820 113.581  1.00  0.00     0.143 C 
BRANCH  19  35
ATOM     35  O   UNL     1      88.099  20.499 107.915  1.00  0.00    -0.385 OA
ATOM     36  H   UNL     1      87.710  20.182 107.067  1.00  0.00     0.211 HD
ENDBRANCH  19  35
BRANCH  33  37
ATOM     37  O   UNL     1      92.260  23.346 111.932  1.00  0.00    -0.390 OA
ATOM     38  H   UNL     1      92.398  23.134 110.972  1.00  0.00     0.211 HD
ENDBRANCH  33  37
BRANCH  34  39
ATOM     39  O   UNL     1      91.343  23.407 114.622  1.00  0.00    -0.390 OA
ATOM     40  H   UNL     1      90.736  24.020 115.115  1.00  0.00     0.211 HD
ENDBRANCH  34  39
ENDBRANCH   1  15
BRANCH   1  41
ATOM     41  O   UNL     1      83.443  18.582 106.879  1.00  0.00    -0.387 OA
ATOM     42  H   UNL     1      83.362  18.109 106.010  1.00  0.00     0.211 HD
ENDBRANCH   1  41
TORSDOF 9
ENDMDL
