MODEL 1
REMARK VINA RESULT:    -4.972      0.000      0.000
REMARK INTER + INTRA:         -14.804
REMARK INTER:                 -11.367
REMARK INTRA:                  -3.437
REMARK UNBOUND:                -3.437
REMARK SMILES CCCCCCCCCCCCCCCCCCCCCCCC(=O)[O-]
REMARK SMILES IDX 13 1 14 2 15 3 16 4 17 5 18 6 19 7 20 8 21 9 22 10 23 11
REMARK SMILES IDX 24 12 25 13 26 14 12 15 11 16 10 17 9 18 8 19 7 20 6 21 5 22
REMARK SMILES IDX 4 23 3 24 2 25 1 26
REMARK H PARENT
REMARK Flexibility Score: inf
ROOT
ATOM      1  C   UNL     1      10.871  12.996  70.633  1.00  0.00     0.000 C 
ENDROOT
BRANCH   1   2
ATOM      2  C   UNL     1      11.796  13.887  71.483  1.00  0.00     0.000 C 
BRANCH   2   3
ATOM      3  C   UNL     1      11.083  14.860  72.441  1.00  0.00     0.000 C 
BRANCH   3   4
ATOM      4  C   UNL     1      11.624  16.296  72.356  1.00  0.00     0.000 C 
BRANCH   4   5
ATOM      5  C   UNL     1      10.746  17.211  71.486  1.00  0.00     0.000 C 
BRANCH   5   6
ATOM      6  C   UNL     1       9.313  17.398  72.031  1.00  0.00     0.000 C 
BRANCH   6   7
ATOM      7  C   UNL     1       8.787  18.823  71.801  1.00  0.00     0.000 C 
BRANCH   7   8
ATOM      8  C   UNL     1       7.377  18.988  72.380  1.00  0.00     0.000 C 
BRANCH   8   9
ATOM      9  C   UNL     1       6.553  17.704  72.199  1.00  0.00     0.000 C 
BRANCH   9  10
ATOM     10  C   UNL     1       5.856  17.254  73.496  1.00  0.00     0.006 C 
BRANCH  10  11
ATOM     11  C   UNL     1       6.620  17.607  74.782  1.00  0.00     0.053 C 
BRANCH  11  12
ATOM     12  C   UNL     1       7.220  16.398  75.431  1.00  0.00     0.041 C 
ATOM     13  O   UNL     1       8.137  15.758  74.852  1.00  0.00    -0.550 OA
ATOM     14  O   UNL     1       6.791  15.999  76.691  1.00  0.00    -0.550 OA
ENDBRANCH  11  12
ENDBRANCH  10  11
ENDBRANCH   9  10
ENDBRANCH   8   9
ENDBRANCH   7   8
ENDBRANCH   6   7
ENDBRANCH   5   6
ENDBRANCH   4   5
ENDBRANCH   3   4
ENDBRANCH   2   3
ENDBRANCH   1   2
BRANCH   1  15
ATOM     15  C   UNL     1      11.250  12.983  69.142  1.00  0.00     0.000 C 
BRANCH  15  16
ATOM     16  C   UNL     1      10.170  13.619  68.252  1.00  0.00     0.000 C 
BRANCH  16  17
ATOM     17  C   UNL     1       9.304  14.643  69.002  1.00  0.00     0.000 C 
BRANCH  17  18
ATOM     18  C   UNL     1       9.581  16.065  68.500  1.00  0.00    -0.000 C 
BRANCH  18  19
ATOM     19  C   UNL     1      10.306  16.042  67.145  1.00  0.00    -0.000 C 
BRANCH  19  20
ATOM     20  C   UNL     1      11.642  16.806  67.166  1.00  0.00    -0.000 C 
BRANCH  20  21
ATOM     21  C   UNL     1      12.880  15.967  66.797  1.00  0.00    -0.000 C 
BRANCH  21  22
ATOM     22  C   UNL     1      13.457  15.193  67.994  1.00  0.00    -0.000 C 
BRANCH  22  23
ATOM     23  C   UNL     1      13.441  16.018  69.292  1.00  0.00    -0.000 C 
BRANCH  23  24
ATOM     24  C   UNL     1      14.676  15.764  70.171  1.00  0.00    -0.000 C 
BRANCH  24  25
ATOM     25  C   UNL     1      15.277  14.383  69.885  1.00  0.00    -0.003 C 
ATOM     26  C   UNL     1      16.803  14.441  69.868  1.00  0.00     0.004 C 
ENDBRANCH  24  25
ENDBRANCH  23  24
ENDBRANCH  22  23
ENDBRANCH  21  22
ENDBRANCH  20  21
ENDBRANCH  19  20
ENDBRANCH  18  19
ENDBRANCH  17  18
ENDBRANCH  16  17
ENDBRANCH  15  16
ENDBRANCH   1  15
TORSDOF 22
ENDMDL
MODEL 2
REMARK VINA RESULT:    -4.946      1.357      3.223
REMARK INTER + INTRA:         -14.744
REMARK INTER:                 -11.605
REMARK INTRA:                  -3.139
REMARK UNBOUND:                -3.437
REMARK SMILES CCCCCCCCCCCCCCCCCCCCCCCC(=O)[O-]
REMARK SMILES IDX 13 1 14 2 15 3 16 4 17 5 18 6 19 7 20 8 21 9 22 10 23 11
REMARK SMILES IDX 24 12 25 13 26 14 12 15 11 16 10 17 9 18 8 19 7 20 6 21 5 22
REMARK SMILES IDX 4 23 3 24 2 25 1 26
REMARK H PARENT
REMARK Flexibility Score: inf
ROOT
ATOM      1  C   UNL     1      11.324  14.474  67.886  1.00  0.00     0.000 C 
ENDROOT
BRANCH   1   2
ATOM      2  C   UNL     1      12.593  15.191  67.389  1.00  0.00     0.000 C 
BRANCH   2   3
ATOM      3  C   UNL     1      12.392  16.642  66.912  1.00  0.00     0.000 C 
BRANCH   3   4
ATOM      4  C   UNL     1      11.078  17.265  67.411  1.00  0.00     0.000 C 
BRANCH   4   5
ATOM      5  C   UNL     1      11.218  18.762  67.738  1.00  0.00     0.000 C 
BRANCH   5   6
ATOM      6  C   UNL     1      10.958  19.100  69.222  1.00  0.00     0.000 C 
BRANCH   6   7
ATOM      7  C   UNL     1       9.848  18.230  69.829  1.00  0.00     0.000 C 
BRANCH   7   8
ATOM      8  C   UNL     1       9.368  18.804  71.167  1.00  0.00     0.000 C 
BRANCH   8   9
ATOM      9  C   UNL     1       8.332  17.879  71.824  1.00  0.00     0.000 C 
BRANCH   9  10
ATOM     10  C   UNL     1       8.706  17.492  73.267  1.00  0.00     0.006 C 
BRANCH  10  11
ATOM     11  C   UNL     1       7.645  17.858  74.317  1.00  0.00     0.053 C 
BRANCH  11  12
ATOM     12  C   UNL     1       6.870  16.662  74.775  1.00  0.00     0.041 C 
ATOM     13  O   UNL     1       5.667  16.516  74.433  1.00  0.00    -0.550 OA
ATOM     14  O   UNL     1       7.486  15.689  75.552  1.00  0.00    -0.550 OA
ENDBRANCH  11  12
ENDBRANCH  10  11
ENDBRANCH   9  10
ENDBRANCH   8   9
ENDBRANCH   7   8
ENDBRANCH   6   7
ENDBRANCH   5   6
ENDBRANCH   4   5
ENDBRANCH   3   4
ENDBRANCH   2   3
ENDBRANCH   1   2
BRANCH   1  15
ATOM     15  C   UNL     1      11.629  13.285  68.814  1.00  0.00     0.000 C 
BRANCH  15  16
ATOM     16  C   UNL     1      10.607  13.148  69.955  1.00  0.00     0.000 C 
BRANCH  16  17
ATOM     17  C   UNL     1      11.266  12.936  71.326  1.00  0.00     0.000 C 
BRANCH  17  18
ATOM     18  C   UNL     1      11.039  14.151  72.235  1.00  0.00    -0.000 C 
BRANCH  18  19
ATOM     19  C   UNL     1      11.259  15.464  71.469  1.00  0.00    -0.000 C 
BRANCH  19  20
ATOM     20  C   UNL     1      12.444  16.284  72.011  1.00  0.00    -0.000 C 
BRANCH  20  21
ATOM     21  C   UNL     1      13.253  17.046  70.945  1.00  0.00    -0.000 C 
BRANCH  21  22
ATOM     22  C   UNL     1      14.239  16.145  70.184  1.00  0.00    -0.000 C 
BRANCH  22  23
ATOM     23  C   UNL     1      14.290  14.717  70.752  1.00  0.00    -0.000 C 
BRANCH  23  24
ATOM     24  C   UNL     1      15.683  14.079  70.627  1.00  0.00    -0.000 C 
BRANCH  24  25
ATOM     25  C   UNL     1      16.558  14.863  69.643  1.00  0.00    -0.003 C 
ATOM     26  C   UNL     1      17.995  14.348  69.654  1.00  0.00     0.004 C 
ENDBRANCH  24  25
ENDBRANCH  23  24
ENDBRANCH  22  23
ENDBRANCH  21  22
ENDBRANCH  20  21
ENDBRANCH  19  20
ENDBRANCH  18  19
ENDBRANCH  17  18
ENDBRANCH  16  17
ENDBRANCH  15  16
ENDBRANCH   1  15
TORSDOF 22
ENDMDL
MODEL 3
REMARK VINA RESULT:    -4.865      1.263      3.460
REMARK INTER + INTRA:         -14.559
REMARK INTER:                 -11.262
REMARK INTRA:                  -3.297
REMARK UNBOUND:                -3.437
REMARK SMILES CCCCCCCCCCCCCCCCCCCCCCCC(=O)[O-]
REMARK SMILES IDX 13 1 14 2 15 3 16 4 17 5 18 6 19 7 20 8 21 9 22 10 23 11
REMARK SMILES IDX 24 12 25 13 26 14 12 15 11 16 10 17 9 18 8 19 7 20 6 21 5 22
REMARK SMILES IDX 4 23 3 24 2 25 1 26
REMARK H PARENT
REMARK Flexibility Score: inf
ROOT
ATOM      1  C   UNL     1      12.349  13.792  70.604  1.00  0.00     0.000 C 
ENDROOT
BRANCH   1   2
ATOM      2  C   UNL     1      11.478  14.312  71.763  1.00  0.00     0.000 C 
BRANCH   2   3
ATOM      3  C   UNL     1      11.946  15.632  72.404  1.00  0.00     0.000 C 
BRANCH   3   4
ATOM      4  C   UNL     1      11.415  16.878  71.677  1.00  0.00     0.000 C 
BRANCH   4   5
ATOM      5  C   UNL     1       9.898  17.066  71.851  1.00  0.00     0.000 C 
BRANCH   5   6
ATOM      6  C   UNL     1       9.310  18.200  70.984  1.00  0.00     0.000 C 
BRANCH   6   7
ATOM      7  C   UNL     1       8.346  19.095  71.778  1.00  0.00     0.000 C 
BRANCH   7   8
ATOM      8  C   UNL     1       8.490  18.858  73.286  1.00  0.00     0.000 C 
BRANCH   8   9
ATOM      9  C   UNL     1       7.116  18.675  73.948  1.00  0.00     0.000 C 
BRANCH   9  10
ATOM     10  C   UNL     1       6.330  17.482  73.373  1.00  0.00     0.006 C 
BRANCH  10  11
ATOM     11  C   UNL     1       5.972  16.401  74.406  1.00  0.00     0.053 C 
BRANCH  11  12
ATOM     12  C   UNL     1       7.124  16.080  75.307  1.00  0.00     0.041 C 
ATOM     13  O   UNL     1       6.978  16.108  76.557  1.00  0.00    -0.550 OA
ATOM     14  O   UNL     1       8.352  15.717  74.766  1.00  0.00    -0.550 OA
ENDBRANCH  11  12
ENDBRANCH  10  11
ENDBRANCH   9  10
ENDBRANCH   8   9
ENDBRANCH   7   8
ENDBRANCH   6   7
ENDBRANCH   5   6
ENDBRANCH   4   5
ENDBRANCH   3   4
ENDBRANCH   2   3
ENDBRANCH   1   2
BRANCH   1  15
ATOM     15  C   UNL     1      13.748  14.431  70.567  1.00  0.00     0.000 C 
BRANCH  15  16
ATOM     16  C   UNL     1      13.896  15.463  69.437  1.00  0.00     0.000 C 
BRANCH  16  17
ATOM     17  C   UNL     1      13.317  14.974  68.101  1.00  0.00     0.000 C 
BRANCH  17  18
ATOM     18  C   UNL     1      12.697  16.137  67.316  1.00  0.00    -0.000 C 
BRANCH  18  19
ATOM     19  C   UNL     1      11.460  16.694  68.037  1.00  0.00    -0.000 C 
BRANCH  19  20
ATOM     20  C   UNL     1      10.139  16.134  67.481  1.00  0.00    -0.000 C 
BRANCH  20  21
ATOM     21  C   UNL     1       9.183  15.547  68.537  1.00  0.00    -0.000 C 
BRANCH  21  22
ATOM     22  C   UNL     1       9.412  14.046  68.782  1.00  0.00    -0.000 C 
BRANCH  22  23
ATOM     23  C   UNL     1      10.261  13.392  67.679  1.00  0.00    -0.000 C 
BRANCH  23  24
ATOM     24  C   UNL     1      10.507  11.896  67.929  1.00  0.00    -0.000 C 
BRANCH  24  25
ATOM     25  C   UNL     1       9.404  11.299  68.811  1.00  0.00    -0.003 C 
ATOM     26  C   UNL     1       9.001   9.910  68.324  1.00  0.00     0.004 C 
ENDBRANCH  24  25
ENDBRANCH  23  24
ENDBRANCH  22  23
ENDBRANCH  21  22
ENDBRANCH  20  21
ENDBRANCH  19  20
ENDBRANCH  18  19
ENDBRANCH  17  18
ENDBRANCH  16  17
ENDBRANCH  15  16
ENDBRANCH   1  15
TORSDOF 22
ENDMDL
MODEL 4
REMARK VINA RESULT:    -4.766      2.708      7.364
REMARK INTER + INTRA:         -14.333
REMARK INTER:                 -10.951
REMARK INTRA:                  -3.382
REMARK UNBOUND:                -3.437
REMARK SMILES CCCCCCCCCCCCCCCCCCCCCCCC(=O)[O-]
REMARK SMILES IDX 13 1 14 2 15 3 16 4 17 5 18 6 19 7 20 8 21 9 22 10 23 11
REMARK SMILES IDX 24 12 25 13 26 14 12 15 11 16 10 17 9 18 8 19 7 20 6 21 5 22
REMARK SMILES IDX 4 23 3 24 2 25 1 26
REMARK H PARENT
REMARK Flexibility Score: inf
ROOT
ATOM      1  C   UNL     1      11.153  13.139  71.656  1.00  0.00     0.000 C 
ENDROOT
BRANCH   1   2
ATOM      2  C   UNL     1      11.566  13.199  70.173  1.00  0.00     0.000 C 
BRANCH   2   3
ATOM      3  C   UNL     1      10.594  12.525  69.186  1.00  0.00     0.000 C 
BRANCH   3   4
ATOM      4  C   UNL     1       9.789  13.532  68.348  1.00  0.00     0.000 C 
BRANCH   4   5
ATOM      5  C   UNL     1       9.717  14.923  69.001  1.00  0.00     0.000 C 
BRANCH   5   6
ATOM      6  C   UNL     1       9.342  16.052  68.016  1.00  0.00     0.000 C 
BRANCH   6   7
ATOM      7  C   UNL     1      10.558  16.559  67.226  1.00  0.00     0.000 C 
BRANCH   7   8
ATOM      8  C   UNL     1      11.837  16.470  68.068  1.00  0.00     0.000 C 
BRANCH   8   9
ATOM      9  C   UNL     1      12.941  15.715  67.312  1.00  0.00     0.000 C 
BRANCH   9  10
ATOM     10  C   UNL     1      13.784  14.812  68.233  1.00  0.00     0.006 C 
BRANCH  10  11
ATOM     11  C   UNL     1      14.534  15.564  69.344  1.00  0.00     0.053 C 
BRANCH  11  12
ATOM     12  C   UNL     1      15.506  14.682  70.064  1.00  0.00     0.041 C 
ATOM     13  O   UNL     1      15.110  13.921  70.985  1.00  0.00    -0.550 OA
ATOM     14  O   UNL     1      16.845  14.674  69.694  1.00  0.00    -0.550 OA
ENDBRANCH  11  12
ENDBRANCH  10  11
ENDBRANCH   9  10
ENDBRANCH   8   9
ENDBRANCH   7   8
ENDBRANCH   6   7
ENDBRANCH   5   6
ENDBRANCH   4   5
ENDBRANCH   3   4
ENDBRANCH   2   3
ENDBRANCH   1   2
BRANCH   1  15
ATOM     15  C   UNL     1      11.160  14.518  72.339  1.00  0.00     0.000 C 
BRANCH  15  16
ATOM     16  C   UNL     1      12.206  15.471  71.738  1.00  0.00     0.000 C 
BRANCH  16  17
ATOM     17  C   UNL     1      11.713  16.923  71.651  1.00  0.00     0.000 C 
BRANCH  17  18
ATOM     18  C   UNL     1      10.237  17.024  72.058  1.00  0.00    -0.000 C 
BRANCH  18  19
ATOM     19  C   UNL     1       9.453  17.908  71.076  1.00  0.00    -0.000 C 
BRANCH  19  20
ATOM     20  C   UNL     1       8.137  18.443  71.671  1.00  0.00    -0.000 C 
BRANCH  20  21
ATOM     21  C   UNL     1       8.271  19.125  73.046  1.00  0.00    -0.000 C 
BRANCH  21  22
ATOM     22  C   UNL     1       7.410  18.458  74.131  1.00  0.00    -0.000 C 
BRANCH  22  23
ATOM     23  C   UNL     1       6.280  17.598  73.540  1.00  0.00    -0.000 C 
BRANCH  23  24
ATOM     24  C   UNL     1       6.097  16.267  74.285  1.00  0.00    -0.000 C 
BRANCH  24  25
ATOM     25  C   UNL     1       7.300  15.976  75.190  1.00  0.00    -0.003 C 
ATOM     26  C   UNL     1       6.897  15.989  76.662  1.00  0.00     0.004 C 
ENDBRANCH  24  25
ENDBRANCH  23  24
ENDBRANCH  22  23
ENDBRANCH  21  22
ENDBRANCH  20  21
ENDBRANCH  19  20
ENDBRANCH  18  19
ENDBRANCH  17  18
ENDBRANCH  16  17
ENDBRANCH  15  16
ENDBRANCH   1  15
TORSDOF 22
ENDMDL
MODEL 5
REMARK VINA RESULT:    -4.533      2.864      7.095
REMARK INTER + INTRA:         -13.799
REMARK INTER:                 -10.296
REMARK INTRA:                  -3.503
REMARK UNBOUND:                -3.437
REMARK SMILES CCCCCCCCCCCCCCCCCCCCCCCC(=O)[O-]
REMARK SMILES IDX 13 1 14 2 15 3 16 4 17 5 18 6 19 7 20 8 21 9 22 10 23 11
REMARK SMILES IDX 24 12 25 13 26 14 12 15 11 16 10 17 9 18 8 19 7 20 6 21 5 22
REMARK SMILES IDX 4 23 3 24 2 25 1 26
REMARK H PARENT
REMARK Flexibility Score: inf
ROOT
ATOM      1  C   UNL     1      12.215  15.375  67.315  1.00  0.00     0.000 C 
ENDROOT
BRANCH   1   2
ATOM      2  C   UNL     1      10.889  14.726  67.754  1.00  0.00     0.000 C 
BRANCH   2   3
ATOM      3  C   UNL     1      10.911  13.191  67.882  1.00  0.00     0.000 C 
BRANCH   3   4
ATOM      4  C   UNL     1      10.891  12.706  69.341  1.00  0.00     0.000 C 
BRANCH   4   5
ATOM      5  C   UNL     1      10.538  13.826  70.334  1.00  0.00     0.000 C 
BRANCH   5   6
ATOM      6  C   UNL     1      11.549  13.968  71.493  1.00  0.00     0.000 C 
BRANCH   6   7
ATOM      7  C   UNL     1      11.186  15.123  72.440  1.00  0.00     0.000 C 
BRANCH   7   8
ATOM      8  C   UNL     1      12.005  16.378  72.115  1.00  0.00     0.000 C 
BRANCH   8   9
ATOM      9  C   UNL     1      12.594  16.299  70.698  1.00  0.00     0.000 C 
BRANCH   9  10
ATOM     10  C   UNL     1      14.128  16.437  70.681  1.00  0.00     0.006 C 
BRANCH  10  11
ATOM     11  C   UNL     1      14.830  15.576  69.619  1.00  0.00     0.053 C 
BRANCH  11  12
ATOM     12  C   UNL     1      15.750  14.565  70.232  1.00  0.00     0.041 C 
ATOM     13  O   UNL     1      15.370  13.876  71.215  1.00  0.00    -0.550 OA
ATOM     14  O   UNL     1      17.015  14.360  69.696  1.00  0.00    -0.550 OA
ENDBRANCH  11  12
ENDBRANCH  10  11
ENDBRANCH   9  10
ENDBRANCH   8   9
ENDBRANCH   7   8
ENDBRANCH   6   7
ENDBRANCH   5   6
ENDBRANCH   4   5
ENDBRANCH   3   4
ENDBRANCH   2   3
ENDBRANCH   1   2
BRANCH   1  15
ATOM     15  C   UNL     1      12.057  16.850  66.906  1.00  0.00     0.000 C 
BRANCH  15  16
ATOM     16  C   UNL     1      10.811  17.505  67.524  1.00  0.00     0.000 C 
BRANCH  16  17
ATOM     17  C   UNL     1      11.148  18.720  68.401  1.00  0.00     0.000 C 
BRANCH  17  18
ATOM     18  C   UNL     1      10.241  18.770  69.637  1.00  0.00    -0.000 C 
BRANCH  18  19
ATOM     19  C   UNL     1       9.496  17.440  69.830  1.00  0.00    -0.000 C 
BRANCH  19  20
ATOM     20  C   UNL     1       8.606  17.428  71.086  1.00  0.00    -0.000 C 
BRANCH  20  21
ATOM     21  C   UNL     1       8.642  18.720  71.925  1.00  0.00    -0.000 C 
BRANCH  21  22
ATOM     22  C   UNL     1       8.199  18.501  73.381  1.00  0.00    -0.000 C 
BRANCH  22  23
ATOM     23  C   UNL     1       8.317  17.031  73.818  1.00  0.00    -0.000 C 
BRANCH  23  24
ATOM     24  C   UNL     1       7.297  16.652  74.903  1.00  0.00    -0.000 C 
BRANCH  24  25
ATOM     25  C   UNL     1       5.875  17.037  74.477  1.00  0.00    -0.003 C 
ATOM     26  C   UNL     1       5.429  16.234  73.258  1.00  0.00     0.004 C 
ENDBRANCH  24  25
ENDBRANCH  23  24
ENDBRANCH  22  23
ENDBRANCH  21  22
ENDBRANCH  20  21
ENDBRANCH  19  20
ENDBRANCH  18  19
ENDBRANCH  17  18
ENDBRANCH  16  17
ENDBRANCH  15  16
ENDBRANCH   1  15
TORSDOF 22
ENDMDL
MODEL 6
REMARK VINA RESULT:    -4.514      2.980      7.167
REMARK INTER + INTRA:         -13.755
REMARK INTER:                 -11.020
REMARK INTRA:                  -2.736
REMARK UNBOUND:                -3.437
REMARK SMILES CCCCCCCCCCCCCCCCCCCCCCCC(=O)[O-]
REMARK SMILES IDX 13 1 14 2 15 3 16 4 17 5 18 6 19 7 20 8 21 9 22 10 23 11
REMARK SMILES IDX 24 12 25 13 26 14 12 15 11 16 10 17 9 18 8 19 7 20 6 21 5 22
REMARK SMILES IDX 4 23 3 24 2 25 1 26
REMARK H PARENT
REMARK Flexibility Score: inf
ROOT
ATOM      1  C   UNL     1      13.862  14.728  70.477  1.00  0.00     0.000 C 
ENDROOT
BRANCH   1   2
ATOM      2  C   UNL     1      14.098  15.314  69.073  1.00  0.00     0.000 C 
BRANCH   2   3
ATOM      3  C   UNL     1      13.047  14.938  68.011  1.00  0.00     0.000 C 
BRANCH   3   4
ATOM      4  C   UNL     1      12.734  16.087  67.038  1.00  0.00     0.000 C 
BRANCH   4   5
ATOM      5  C   UNL     1      11.303  16.627  67.198  1.00  0.00     0.000 C 
BRANCH   5   6
ATOM      6  C   UNL     1      10.669  16.309  68.570  1.00  0.00     0.000 C 
BRANCH   6   7
ATOM      7  C   UNL     1       9.304  15.618  68.431  1.00  0.00     0.000 C 
BRANCH   7   8
ATOM      8  C   UNL     1       9.408  14.125  68.764  1.00  0.00     0.000 C 
BRANCH   8   9
ATOM      9  C   UNL     1      10.269  13.389  67.727  1.00  0.00     0.000 C 
BRANCH   9  10
ATOM     10  C   UNL     1      10.491  11.906  68.080  1.00  0.00     0.006 C 
BRANCH  10  11
ATOM     11  C   UNL     1       9.316  11.248  68.822  1.00  0.00     0.053 C 
BRANCH  11  12
ATOM     12  C   UNL     1       9.074   9.844  68.359  1.00  0.00     0.041 C 
ATOM     13  O   UNL     1      10.044   9.083  68.108  1.00  0.00    -0.550 OA
ATOM     14  O   UNL     1       7.775   9.365  68.240  1.00  0.00    -0.550 OA
ENDBRANCH  11  12
ENDBRANCH  10  11
ENDBRANCH   9  10
ENDBRANCH   8   9
ENDBRANCH   7   8
ENDBRANCH   6   7
ENDBRANCH   5   6
ENDBRANCH   4   5
ENDBRANCH   3   4
ENDBRANCH   2   3
ENDBRANCH   1   2
BRANCH   1  15
ATOM     15  C   UNL     1      12.506  14.012  70.612  1.00  0.00     0.000 C 
BRANCH  15  16
ATOM     16  C   UNL     1      11.641  14.592  71.743  1.00  0.00     0.000 C 
BRANCH  16  17
ATOM     17  C   UNL     1      12.109  15.981  72.201  1.00  0.00     0.000 C 
BRANCH  17  18
ATOM     18  C   UNL     1      11.227  17.081  71.598  1.00  0.00    -0.000 C 
BRANCH  18  19
ATOM     19  C   UNL     1       9.762  16.915  72.031  1.00  0.00    -0.000 C 
BRANCH  19  20
ATOM     20  C   UNL     1       8.837  17.996  71.445  1.00  0.00    -0.000 C 
BRANCH  20  21
ATOM     21  C   UNL     1       8.294  19.014  72.465  1.00  0.00    -0.000 C 
BRANCH  21  22
ATOM     22  C   UNL     1       6.778  18.887  72.690  1.00  0.00    -0.000 C 
BRANCH  22  23
ATOM     23  C   UNL     1       6.294  17.428  72.630  1.00  0.00    -0.000 C 
BRANCH  23  24
ATOM     24  C   UNL     1       5.930  16.868  74.014  1.00  0.00    -0.000 C 
BRANCH  24  25
ATOM     25  C   UNL     1       7.170  16.312  74.723  1.00  0.00    -0.003 C 
ATOM     26  C   UNL     1       6.926  16.164  76.223  1.00  0.00     0.004 C 
ENDBRANCH  24  25
ENDBRANCH  23  24
ENDBRANCH  22  23
ENDBRANCH  21  22
ENDBRANCH  20  21
ENDBRANCH  19  20
ENDBRANCH  18  19
ENDBRANCH  17  18
ENDBRANCH  16  17
ENDBRANCH  15  16
ENDBRANCH   1  15
TORSDOF 22
ENDMDL
MODEL 7
REMARK VINA RESULT:    -4.432      1.300      2.493
REMARK INTER + INTRA:         -13.568
REMARK INTER:                 -10.254
REMARK INTRA:                  -3.315
REMARK UNBOUND:                -3.437
REMARK SMILES CCCCCCCCCCCCCCCCCCCCCCCC(=O)[O-]
REMARK SMILES IDX 13 1 14 2 15 3 16 4 17 5 18 6 19 7 20 8 21 9 22 10 23 11
REMARK SMILES IDX 24 12 25 13 26 14 12 15 11 16 10 17 9 18 8 19 7 20 6 21 5 22
REMARK SMILES IDX 4 23 3 24 2 25 1 26
REMARK H PARENT
REMARK Flexibility Score: inf
ROOT
ATOM      1  C   UNL     1      12.210  13.297  68.590  1.00  0.00     0.000 C 
ENDROOT
BRANCH   1   2
ATOM      2  C   UNL     1      10.732  13.461  68.992  1.00  0.00     0.000 C 
BRANCH   2   3
ATOM      3  C   UNL     1      10.483  14.205  70.317  1.00  0.00     0.000 C 
BRANCH   3   4
ATOM      4  C   UNL     1      11.252  13.601  71.503  1.00  0.00     0.000 C 
BRANCH   4   5
ATOM      5  C   UNL     1      10.875  14.249  72.847  1.00  0.00     0.000 C 
BRANCH   5   6
ATOM      6  C   UNL     1      11.009  15.787  72.854  1.00  0.00     0.000 C 
BRANCH   6   7
ATOM      7  C   UNL     1       9.690  16.482  73.223  1.00  0.00     0.000 C 
BRANCH   7   8
ATOM      8  C   UNL     1       9.181  17.348  72.065  1.00  0.00     0.000 C 
BRANCH   8   9
ATOM      9  C   UNL     1       8.139  18.366  72.554  1.00  0.00     0.000 C 
BRANCH   9  10
ATOM     10  C   UNL     1       8.095  18.482  74.090  1.00  0.00     0.006 C 
BRANCH  10  11
ATOM     11  C   UNL     1       6.728  18.155  74.711  1.00  0.00     0.053 C 
BRANCH  11  12
ATOM     12  C   UNL     1       6.473  16.681  74.768  1.00  0.00     0.041 C 
ATOM     13  O   UNL     1       5.738  16.130  73.907  1.00  0.00    -0.550 OA
ATOM     14  O   UNL     1       7.077  15.908  75.752  1.00  0.00    -0.550 OA
ENDBRANCH  11  12
ENDBRANCH  10  11
ENDBRANCH   9  10
ENDBRANCH   8   9
ENDBRANCH   7   8
ENDBRANCH   6   7
ENDBRANCH   5   6
ENDBRANCH   4   5
ENDBRANCH   3   4
ENDBRANCH   2   3
ENDBRANCH   1   2
BRANCH   1  15
ATOM     15  C   UNL     1      12.729  14.452  67.716  1.00  0.00     0.000 C 
BRANCH  15  16
ATOM     16  C   UNL     1      11.596  15.346  67.184  1.00  0.00     0.000 C 
BRANCH  16  17
ATOM     17  C   UNL     1      12.030  16.806  66.987  1.00  0.00     0.000 C 
BRANCH  17  18
ATOM     18  C   UNL     1      10.987  17.769  67.566  1.00  0.00    -0.000 C 
BRANCH  18  19
ATOM     19  C   UNL     1      10.934  17.672  69.098  1.00  0.00    -0.000 C 
BRANCH  19  20
ATOM     20  C   UNL     1      12.274  18.028  69.768  1.00  0.00    -0.000 C 
BRANCH  20  21
ATOM     21  C   UNL     1      12.815  16.970  70.748  1.00  0.00    -0.000 C 
BRANCH  21  22
ATOM     22  C   UNL     1      14.067  16.250  70.219  1.00  0.00    -0.000 C 
BRANCH  22  23
ATOM     23  C   UNL     1      14.377  14.960  70.997  1.00  0.00    -0.000 C 
BRANCH  23  24
ATOM     24  C   UNL     1      15.428  14.084  70.298  1.00  0.00    -0.000 C 
BRANCH  24  25
ATOM     25  C   UNL     1      16.471  14.948  69.579  1.00  0.00    -0.003 C 
ATOM     26  C   UNL     1      17.861  14.324  69.671  1.00  0.00     0.004 C 
ENDBRANCH  24  25
ENDBRANCH  23  24
ENDBRANCH  22  23
ENDBRANCH  21  22
ENDBRANCH  20  21
ENDBRANCH  19  20
ENDBRANCH  18  19
ENDBRANCH  17  18
ENDBRANCH  16  17
ENDBRANCH  15  16
ENDBRANCH   1  15
TORSDOF 22
ENDMDL
MODEL 8
REMARK VINA RESULT:    -4.386      2.933      7.852
REMARK INTER + INTRA:         -13.464
REMARK INTER:                 -10.208
REMARK INTRA:                  -3.256
REMARK UNBOUND:                -3.437
REMARK SMILES CCCCCCCCCCCCCCCCCCCCCCCC(=O)[O-]
REMARK SMILES IDX 13 1 14 2 15 3 16 4 17 5 18 6 19 7 20 8 21 9 22 10 23 11
REMARK SMILES IDX 24 12 25 13 26 14 12 15 11 16 10 17 9 18 8 19 7 20 6 21 5 22
REMARK SMILES IDX 4 23 3 24 2 25 1 26
REMARK H PARENT
REMARK Flexibility Score: inf
ROOT
ATOM      1  C   UNL     1      11.218  17.971  67.898  1.00  0.00     0.000 C 
ENDROOT
BRANCH   1   2
ATOM      2  C   UNL     1      10.934  16.490  67.582  1.00  0.00     0.000 C 
BRANCH   2   3
ATOM      3  C   UNL     1       9.467  16.048  67.736  1.00  0.00     0.000 C 
BRANCH   3   4
ATOM      4  C   UNL     1       9.224  15.186  68.985  1.00  0.00     0.000 C 
BRANCH   4   5
ATOM      5  C   UNL     1       9.328  13.679  68.696  1.00  0.00     0.000 C 
BRANCH   5   6
ATOM      6  C   UNL     1      10.501  12.987  69.425  1.00  0.00     0.000 C 
BRANCH   6   7
ATOM      7  C   UNL     1      11.713  12.779  68.504  1.00  0.00     0.000 C 
BRANCH   7   8
ATOM      8  C   UNL     1      12.978  13.394  69.113  1.00  0.00     0.000 C 
BRANCH   8   9
ATOM      9  C   UNL     1      12.623  14.453  70.167  1.00  0.00     0.000 C 
BRANCH   9  10
ATOM     10  C   UNL     1      13.731  15.506  70.354  1.00  0.00     0.006 C 
BRANCH  10  11
ATOM     11  C   UNL     1      14.926  15.344  69.400  1.00  0.00     0.053 C 
BRANCH  11  12
ATOM     12  C   UNL     1      16.056  14.596  70.036  1.00  0.00     0.041 C 
ATOM     13  O   UNL     1      17.209  14.639  69.532  1.00  0.00    -0.550 OA
ATOM     14  O   UNL     1      15.845  13.878  71.207  1.00  0.00    -0.550 OA
ENDBRANCH  11  12
ENDBRANCH  10  11
ENDBRANCH   9  10
ENDBRANCH   8   9
ENDBRANCH   7   8
ENDBRANCH   6   7
ENDBRANCH   5   6
ENDBRANCH   4   5
ENDBRANCH   3   4
ENDBRANCH   2   3
ENDBRANCH   1   2
BRANCH   1  15
ATOM     15  C   UNL     1      11.396  18.242  69.402  1.00  0.00     0.000 C 
BRANCH  15  16
ATOM     16  C   UNL     1      10.103  18.734  70.071  1.00  0.00     0.000 C 
BRANCH  16  17
ATOM     17  C   UNL     1       9.693  17.880  71.280  1.00  0.00     0.000 C 
BRANCH  17  18
ATOM     18  C   UNL     1      10.801  16.886  71.648  1.00  0.00    -0.000 C 
BRANCH  18  19
ATOM     19  C   UNL     1      10.451  16.115  72.930  1.00  0.00    -0.000 C 
BRANCH  19  20
ATOM     20  C   UNL     1       9.179  16.643  73.618  1.00  0.00    -0.000 C 
BRANCH  20  21
ATOM     21  C   UNL     1       8.634  15.756  74.754  1.00  0.00    -0.000 C 
BRANCH  21  22
ATOM     22  C   UNL     1       7.287  16.252  75.307  1.00  0.00    -0.000 C 
BRANCH  22  23
ATOM     23  C   UNL     1       6.899  17.635  74.759  1.00  0.00    -0.000 C 
BRANCH  23  24
ATOM     24  C   UNL     1       5.584  17.609  73.963  1.00  0.00    -0.000 C 
BRANCH  24  25
ATOM     25  C   UNL     1       5.849  17.784  72.463  1.00  0.00    -0.003 C 
ATOM     26  C   UNL     1       6.546  19.112  72.179  1.00  0.00     0.004 C 
ENDBRANCH  24  25
ENDBRANCH  23  24
ENDBRANCH  22  23
ENDBRANCH  21  22
ENDBRANCH  20  21
ENDBRANCH  19  20
ENDBRANCH  18  19
ENDBRANCH  17  18
ENDBRANCH  16  17
ENDBRANCH  15  16
ENDBRANCH   1  15
TORSDOF 22
ENDMDL
MODEL 9
REMARK VINA RESULT:    -2.993      1.051      3.566
REMARK INTER + INTRA:         -10.280
REMARK INTER:                  -7.391
REMARK INTRA:                  -2.889
REMARK UNBOUND:                -3.437
REMARK SMILES CCCCCCCCCCCCCCCCCCCCCCCC(=O)[O-]
REMARK SMILES IDX 13 1 14 2 15 3 16 4 17 5 18 6 19 7 20 8 21 9 22 10 23 11
REMARK SMILES IDX 24 12 25 13 26 14 12 15 11 16 10 17 9 18 8 19 7 20 6 21 5 22
REMARK SMILES IDX 4 23 3 24 2 25 1 26
REMARK H PARENT
REMARK Flexibility Score: inf
ROOT
ATOM      1  C   UNL     1      13.523  16.266  69.921  1.00  0.00     0.000 C 
ENDROOT
BRANCH   1   2
ATOM      2  C   UNL     1      13.041  17.132  71.100  1.00  0.00     0.000 C 
BRANCH   2   3
ATOM      3  C   UNL     1      12.006  16.472  72.030  1.00  0.00     0.000 C 
BRANCH   3   4
ATOM      4  C   UNL     1      10.557  16.859  71.693  1.00  0.00     0.000 C 
BRANCH   4   5
ATOM      5  C   UNL     1      10.471  18.067  70.744  1.00  0.00     0.000 C 
BRANCH   5   6
ATOM      6  C   UNL     1       9.301  19.024  71.062  1.00  0.00     0.000 C 
BRANCH   6   7
ATOM      7  C   UNL     1       8.377  18.467  72.155  1.00  0.00     0.000 C 
BRANCH   7   8
ATOM      8  C   UNL     1       6.994  19.125  72.095  1.00  0.00     0.000 C 
BRANCH   8   9
ATOM      9  C   UNL     1       5.896  18.139  72.522  1.00  0.00     0.000 C 
BRANCH   9  10
ATOM     10  C   UNL     1       5.821  17.954  74.050  1.00  0.00     0.006 C 
BRANCH  10  11
ATOM     11  C   UNL     1       5.856  16.489  74.513  1.00  0.00     0.053 C 
BRANCH  11  12
ATOM     12  C   UNL     1       7.116  16.163  75.254  1.00  0.00     0.041 C 
ATOM     13  O   UNL     1       8.219  16.134  74.647  1.00  0.00    -0.550 OA
ATOM     14  O   UNL     1       7.077  15.923  76.622  1.00  0.00    -0.550 OA
ENDBRANCH  11  12
ENDBRANCH  10  11
ENDBRANCH   9  10
ENDBRANCH   8   9
ENDBRANCH   7   8
ENDBRANCH   6   7
ENDBRANCH   5   6
ENDBRANCH   4   5
ENDBRANCH   3   4
ENDBRANCH   2   3
ENDBRANCH   1   2
BRANCH   1  15
ATOM     15  C   UNL     1      14.828  15.510  70.223  1.00  0.00     0.000 C 
BRANCH  15  16
ATOM     16  C   UNL     1      14.681  13.988  70.058  1.00  0.00     0.000 C 
BRANCH  16  17
ATOM     17  C   UNL     1      13.253  13.563  69.684  1.00  0.00     0.000 C 
BRANCH  17  18
ATOM     18  C   UNL     1      12.380  13.419  70.937  1.00  0.00    -0.000 C 
BRANCH  18  19
ATOM     19  C   UNL     1      10.893  13.306  70.564  1.00  0.00    -0.000 C 
BRANCH  19  20
ATOM     20  C   UNL     1      10.672  12.794  69.130  1.00  0.00    -0.000 C 
BRANCH  20  21
ATOM     21  C   UNL     1       9.638  13.585  68.306  1.00  0.00    -0.000 C 
BRANCH  21  22
ATOM     22  C   UNL     1       9.272  14.936  68.943  1.00  0.00    -0.000 C 
BRANCH  22  23
ATOM     23  C   UNL     1       9.420  16.110  67.961  1.00  0.00    -0.000 C 
BRANCH  23  24
ATOM     24  C   UNL     1      10.863  16.288  67.463  1.00  0.00    -0.000 C 
BRANCH  24  25
ATOM     25  C   UNL     1      11.236  17.773  67.383  1.00  0.00    -0.003 C 
ATOM     26  C   UNL     1      11.935  18.094  66.065  1.00  0.00     0.004 C 
ENDBRANCH  24  25
ENDBRANCH  23  24
ENDBRANCH  22  23
ENDBRANCH  21  22
ENDBRANCH  20  21
ENDBRANCH  19  20
ENDBRANCH  18  19
ENDBRANCH  17  18
ENDBRANCH  16  17
ENDBRANCH  15  16
ENDBRANCH   1  15
TORSDOF 22
ENDMDL
