MODEL 1
REMARK VINA RESULT:    -6.170      0.000      0.000
REMARK INTER + INTRA:          -6.821
REMARK INTER:                  -6.530
REMARK INTRA:                  -0.291
REMARK UNBOUND:                -0.291
REMARK SMILES CC1=CC[C@]23[C@H]([C@@H](C(C)C)CC[C@@H]2C)[C@@H]13
REMARK SMILES IDX 14 1 13 2 12 3 11 4 7 5 6 6 5 7 15 8 2 9 3 10 4 11 1 12 8 13
REMARK SMILES IDX 9 14 10 15
REMARK H PARENT
REMARK Flexibility Score: inf
ROOT
ATOM      1  C   UNL     1     -38.556 -47.067  28.504  1.00  0.00     0.008 C 
ATOM      2  C   UNL     1     -39.622 -48.174  28.533  1.00  0.00    -0.007 C 
ATOM      3  C   UNL     1     -39.892 -48.559  29.996  1.00  0.00     0.004 C 
ATOM      4  C   UNL     1     -40.968 -49.634  30.096  1.00  0.00     0.004 C 
ATOM      5  C   UNL     1     -42.351 -49.092  29.667  1.00  0.00    -0.004 C 
ATOM      6  C   UNL     1     -42.295 -48.225  28.380  1.00  0.00     0.007 C 
ATOM      7  C   UNL     1     -40.942 -47.764  27.806  1.00  0.00    -0.013 C 
ATOM      8  C   UNL     1     -41.709 -48.930  27.164  1.00  0.00     0.025 C 
ATOM      9  C   UNL     1     -42.165 -48.410  25.846  1.00  0.00    -0.073 C 
ATOM     10  C   UNL     1     -41.777 -47.162  25.628  1.00  0.00    -0.027 C 
ATOM     11  C   UNL     1     -40.985 -46.618  26.768  1.00  0.00     0.035 C 
ATOM     12  C   UNL     1     -42.997 -49.198  24.884  1.00  0.00     0.039 C 
ENDROOT
BRANCH   5  13
ATOM     13  C   UNL     1     -43.404 -50.238  29.532  1.00  0.00    -0.014 C 
ATOM     14  C   UNL     1     -44.757 -49.715  29.015  1.00  0.00     0.007 C 
ATOM     15  C   UNL     1     -43.630 -50.971  30.867  1.00  0.00     0.007 C 
ENDBRANCH   5  13
TORSDOF 1
ENDMDL
MODEL 2
REMARK VINA RESULT:    -6.162      0.952      4.053
REMARK INTER + INTRA:          -6.813
REMARK INTER:                  -6.603
REMARK INTRA:                  -0.210
REMARK UNBOUND:                -0.291
REMARK SMILES CC1=CC[C@]23[C@H]([C@@H](C(C)C)CC[C@@H]2C)[C@@H]13
REMARK SMILES IDX 14 1 13 2 12 3 11 4 7 5 6 6 5 7 15 8 2 9 3 10 4 11 1 12 8 13
REMARK SMILES IDX 9 14 10 15
REMARK H PARENT
REMARK Flexibility Score: inf
ROOT
ATOM      1  C   UNL     1     -43.321 -50.233  29.876  1.00  0.00     0.008 C 
ATOM      2  C   UNL     1     -42.236 -49.167  29.658  1.00  0.00    -0.007 C 
ATOM      3  C   UNL     1     -40.976 -49.582  30.433  1.00  0.00     0.004 C 
ATOM      4  C   UNL     1     -39.846 -48.578  30.231  1.00  0.00     0.004 C 
ATOM      5  C   UNL     1     -39.325 -48.598  28.776  1.00  0.00    -0.004 C 
ATOM      6  C   UNL     1     -40.461 -48.647  27.720  1.00  0.00     0.007 C 
ATOM      7  C   UNL     1     -41.915 -48.927  28.148  1.00  0.00    -0.013 C 
ATOM      8  C   UNL     1     -41.460 -47.500  27.808  1.00  0.00     0.025 C 
ATOM      9  C   UNL     1     -42.160 -47.167  26.537  1.00  0.00    -0.073 C 
ATOM     10  C   UNL     1     -42.939 -48.151  26.111  1.00  0.00    -0.027 C 
ATOM     11  C   UNL     1     -42.901 -49.326  27.027  1.00  0.00     0.035 C 
ATOM     12  C   UNL     1     -41.981 -45.875  25.803  1.00  0.00     0.039 C 
ENDROOT
BRANCH   5  13
ATOM     13  C   UNL     1     -38.343 -47.414  28.498  1.00  0.00    -0.014 C 
ATOM     14  C   UNL     1     -36.877 -47.815  28.747  1.00  0.00     0.007 C 
ATOM     15  C   UNL     1     -38.675 -46.179  29.354  1.00  0.00     0.007 C 
ENDBRANCH   5  13
TORSDOF 1
ENDMDL
MODEL 3
REMARK VINA RESULT:    -6.016      9.717     12.264
REMARK INTER + INTRA:          -6.658
REMARK INTER:                  -6.425
REMARK INTRA:                  -0.233
REMARK UNBOUND:                -0.291
REMARK SMILES CC1=CC[C@]23[C@H]([C@@H](C(C)C)CC[C@@H]2C)[C@@H]13
REMARK SMILES IDX 14 1 13 2 12 3 11 4 7 5 6 6 5 7 15 8 2 9 3 10 4 11 1 12 8 13
REMARK SMILES IDX 9 14 10 15
REMARK H PARENT
REMARK Flexibility Score: inf
ROOT
ATOM      1  C   UNL     1     -48.937 -49.758  23.465  1.00  0.00     0.008 C 
ATOM      2  C   UNL     1     -50.373 -49.653  22.925  1.00  0.00    -0.007 C 
ATOM      3  C   UNL     1     -51.183 -48.740  23.860  1.00  0.00     0.004 C 
ATOM      4  C   UNL     1     -52.614 -48.568  23.360  1.00  0.00     0.004 C 
ATOM      5  C   UNL     1     -52.660 -47.765  22.040  1.00  0.00    -0.004 C 
ATOM      6  C   UNL     1     -51.573 -48.202  21.021  1.00  0.00     0.007 C 
ATOM      7  C   UNL     1     -50.432 -49.144  21.450  1.00  0.00    -0.013 C 
ATOM      8  C   UNL     1     -51.620 -49.675  20.635  1.00  0.00     0.025 C 
ATOM      9  C   UNL     1     -51.053 -50.000  19.298  1.00  0.00    -0.073 C 
ATOM     10  C   UNL     1     -49.752 -49.759  19.223  1.00  0.00    -0.027 C 
ATOM     11  C   UNL     1     -49.210 -49.225  20.505  1.00  0.00     0.035 C 
ATOM     12  C   UNL     1     -51.867 -50.515  18.153  1.00  0.00     0.039 C 
ENDROOT
BRANCH   5  13
ATOM     13  C   UNL     1     -54.083 -47.792  21.397  1.00  0.00    -0.014 C 
ATOM     14  C   UNL     1     -54.912 -46.554  21.789  1.00  0.00     0.007 C 
ATOM     15  C   UNL     1     -54.866 -49.059  21.785  1.00  0.00     0.007 C 
ENDBRANCH   5  13
TORSDOF 1
ENDMDL
MODEL 4
REMARK VINA RESULT:    -5.986     10.508     13.544
REMARK INTER + INTRA:          -6.626
REMARK INTER:                  -6.341
REMARK INTRA:                  -0.285
REMARK UNBOUND:                -0.291
REMARK SMILES CC1=CC[C@]23[C@H]([C@@H](C(C)C)CC[C@@H]2C)[C@@H]13
REMARK SMILES IDX 14 1 13 2 12 3 11 4 7 5 6 6 5 7 15 8 2 9 3 10 4 11 1 12 8 13
REMARK SMILES IDX 9 14 10 15
REMARK H PARENT
REMARK Flexibility Score: inf
ROOT
ATOM      1  C   UNL     1     -55.748 -46.768  21.649  1.00  0.00     0.008 C 
ATOM      2  C   UNL     1     -54.728 -47.908  21.503  1.00  0.00    -0.007 C 
ATOM      3  C   UNL     1     -54.544 -48.214  20.008  1.00  0.00     0.004 C 
ATOM      4  C   UNL     1     -53.515 -49.318  19.792  1.00  0.00     0.004 C 
ATOM      5  C   UNL     1     -52.094 -48.853  20.182  1.00  0.00    -0.004 C 
ATOM      6  C   UNL     1     -52.054 -48.063  21.518  1.00  0.00     0.007 C 
ATOM      7  C   UNL     1     -53.360 -47.590  22.186  1.00  0.00    -0.013 C 
ATOM      8  C   UNL     1     -52.608 -48.819  22.719  1.00  0.00     0.025 C 
ATOM      9  C   UNL     1     -52.070 -48.395  24.040  1.00  0.00    -0.073 C 
ATOM     10  C   UNL     1     -52.399 -47.149  24.350  1.00  0.00    -0.027 C 
ATOM     11  C   UNL     1     -53.223 -46.511  23.284  1.00  0.00     0.035 C 
ATOM     12  C   UNL     1     -51.223 -49.269  24.912  1.00  0.00     0.039 C 
ENDROOT
BRANCH   5  13
ATOM     13  C   UNL     1     -51.080 -50.041  20.196  1.00  0.00    -0.014 C 
ATOM     14  C   UNL     1     -50.091 -49.966  19.017  1.00  0.00     0.007 C 
ATOM     15  C   UNL     1     -51.792 -51.405  20.162  1.00  0.00     0.007 C 
ENDBRANCH   5  13
TORSDOF 1
ENDMDL
MODEL 5
REMARK VINA RESULT:    -5.952     10.073     12.454
REMARK INTER + INTRA:          -6.590
REMARK INTER:                  -6.324
REMARK INTRA:                  -0.266
REMARK UNBOUND:                -0.291
REMARK SMILES CC1=CC[C@]23[C@H]([C@@H](C(C)C)CC[C@@H]2C)[C@@H]13
REMARK SMILES IDX 14 1 13 2 12 3 11 4 7 5 6 6 5 7 15 8 2 9 3 10 4 11 1 12 8 13
REMARK SMILES IDX 9 14 10 15
REMARK H PARENT
REMARK Flexibility Score: inf
ROOT
ATOM      1  C   UNL     1     -47.417 -47.744  15.431  1.00  0.00     0.008 C 
ATOM      2  C   UNL     1     -47.526 -48.254  16.877  1.00  0.00    -0.007 C 
ATOM      3  C   UNL     1     -48.101 -47.129  17.752  1.00  0.00     0.004 C 
ATOM      4  C   UNL     1     -48.265 -47.584  19.198  1.00  0.00     0.004 C 
ATOM      5  C   UNL     1     -49.365 -48.661  19.332  1.00  0.00    -0.004 C 
ATOM      6  C   UNL     1     -49.295 -49.747  18.224  1.00  0.00     0.007 C 
ATOM      7  C   UNL     1     -48.381 -49.555  16.998  1.00  0.00    -0.013 C 
ATOM      8  C   UNL     1     -47.967 -50.489  18.146  1.00  0.00     0.025 C 
ATOM      9  C   UNL     1     -48.038 -51.859  17.569  1.00  0.00    -0.073 C 
ATOM     10  C   UNL     1     -48.405 -51.859  16.295  1.00  0.00    -0.027 C 
ATOM     11  C   UNL     1     -48.646 -50.478  15.787  1.00  0.00     0.035 C 
ATOM     12  C   UNL     1     -47.756 -53.105  18.348  1.00  0.00     0.039 C 
ENDROOT
BRANCH   5  13
ATOM     13  C   UNL     1     -49.375 -49.304  20.755  1.00  0.00    -0.014 C 
ATOM     14  C   UNL     1     -50.704 -50.024  21.051  1.00  0.00     0.007 C 
ATOM     15  C   UNL     1     -49.116 -48.263  21.859  1.00  0.00     0.007 C 
ENDBRANCH   5  13
TORSDOF 1
ENDMDL
MODEL 6
REMARK VINA RESULT:    -5.909      9.755     12.360
REMARK INTER + INTRA:          -6.545
REMARK INTER:                  -6.288
REMARK INTRA:                  -0.257
REMARK UNBOUND:                -0.291
REMARK SMILES CC1=CC[C@]23[C@H]([C@@H](C(C)C)CC[C@@H]2C)[C@@H]13
REMARK SMILES IDX 14 1 13 2 12 3 11 4 7 5 6 6 5 7 15 8 2 9 3 10 4 11 1 12 8 13
REMARK SMILES IDX 9 14 10 15
REMARK H PARENT
REMARK Flexibility Score: inf
ROOT
ATOM      1  C   UNL     1     -55.177 -46.486  21.751  1.00  0.00     0.008 C 
ATOM      2  C   UNL     1     -53.749 -46.733  22.263  1.00  0.00    -0.007 C 
ATOM      3  C   UNL     1     -53.748 -46.604  23.795  1.00  0.00     0.004 C 
ATOM      4  C   UNL     1     -52.361 -46.870  24.370  1.00  0.00     0.004 C 
ATOM      5  C   UNL     1     -51.949 -48.349  24.192  1.00  0.00    -0.004 C 
ATOM      6  C   UNL     1     -52.279 -48.910  22.782  1.00  0.00     0.007 C 
ATOM      7  C   UNL     1     -53.173 -48.112  21.813  1.00  0.00    -0.013 C 
ATOM      8  C   UNL     1     -51.648 -48.141  21.629  1.00  0.00     0.025 C 
ATOM      9  C   UNL     1     -51.427 -48.928  20.385  1.00  0.00    -0.073 C 
ATOM     10  C   UNL     1     -52.560 -49.335  19.830  1.00  0.00    -0.027 C 
ATOM     11  C   UNL     1     -53.751 -48.889  20.608  1.00  0.00     0.035 C 
ATOM     12  C   UNL     1     -50.073 -49.252  19.836  1.00  0.00     0.039 C 
ENDROOT
BRANCH   5  13
ATOM     13  C   UNL     1     -50.446 -48.578  24.555  1.00  0.00    -0.014 C 
ATOM     14  C   UNL     1     -50.211 -49.969  25.172  1.00  0.00     0.007 C 
ATOM     15  C   UNL     1     -49.920 -47.506  25.526  1.00  0.00     0.007 C 
ENDBRANCH   5  13
TORSDOF 1
ENDMDL
MODEL 7
REMARK VINA RESULT:    -5.872      0.980      4.067
REMARK INTER + INTRA:          -6.506
REMARK INTER:                  -6.249
REMARK INTRA:                  -0.257
REMARK UNBOUND:                -0.291
REMARK SMILES CC1=CC[C@]23[C@H]([C@@H](C(C)C)CC[C@@H]2C)[C@@H]13
REMARK SMILES IDX 14 1 13 2 12 3 11 4 7 5 6 6 5 7 15 8 2 9 3 10 4 11 1 12 8 13
REMARK SMILES IDX 9 14 10 15
REMARK H PARENT
REMARK Flexibility Score: inf
ROOT
ATOM      1  C   UNL     1     -39.487 -46.761  28.832  1.00  0.00     0.008 C 
ATOM      2  C   UNL     1     -40.832 -46.994  28.127  1.00  0.00    -0.007 C 
ATOM      3  C   UNL     1     -40.638 -46.787  26.616  1.00  0.00     0.004 C 
ATOM      4  C   UNL     1     -41.934 -47.037  25.853  1.00  0.00     0.004 C 
ATOM      5  C   UNL     1     -42.343 -48.526  25.903  1.00  0.00    -0.004 C 
ATOM      6  C   UNL     1     -42.189 -49.155  27.314  1.00  0.00     0.007 C 
ATOM      7  C   UNL     1     -41.441 -48.400  28.430  1.00  0.00    -0.013 C 
ATOM      8  C   UNL     1     -42.976 -48.451  28.413  1.00  0.00     0.025 C 
ATOM      9  C   UNL     1     -43.343 -49.303  29.577  1.00  0.00    -0.073 C 
ATOM     10  C   UNL     1     -42.286 -49.727  30.253  1.00  0.00    -0.027 C 
ATOM     11  C   UNL     1     -41.011 -49.232  29.660  1.00  0.00     0.035 C 
ATOM     12  C   UNL     1     -44.752 -49.667  29.929  1.00  0.00     0.039 C 
ENDROOT
BRANCH   5  13
ATOM     13  C   UNL     1     -43.782 -48.750  25.338  1.00  0.00    -0.014 C 
ATOM     14  C   UNL     1     -43.879 -50.048  24.514  1.00  0.00     0.007 C 
ATOM     15  C   UNL     1     -44.247 -47.570  24.465  1.00  0.00     0.007 C 
ENDBRANCH   5  13
TORSDOF 1
ENDMDL
MODEL 8
REMARK VINA RESULT:    -5.831      1.232      4.974
REMARK INTER + INTRA:          -6.463
REMARK INTER:                  -6.189
REMARK INTRA:                  -0.273
REMARK UNBOUND:                -0.291
REMARK SMILES CC1=CC[C@]23[C@H]([C@@H](C(C)C)CC[C@@H]2C)[C@@H]13
REMARK SMILES IDX 14 1 13 2 12 3 11 4 7 5 6 6 5 7 15 8 2 9 3 10 4 11 1 12 8 13
REMARK SMILES IDX 9 14 10 15
REMARK H PARENT
REMARK Flexibility Score: inf
ROOT
ATOM      1  C   UNL     1     -45.022 -49.998  26.257  1.00  0.00     0.008 C 
ATOM      2  C   UNL     1     -43.631 -49.828  26.888  1.00  0.00    -0.007 C 
ATOM      3  C   UNL     1     -42.849 -48.780  26.079  1.00  0.00     0.004 C 
ATOM      4  C   UNL     1     -41.467 -48.540  26.675  1.00  0.00     0.004 C 
ATOM      5  C   UNL     1     -41.557 -47.849  28.055  1.00  0.00    -0.004 C 
ATOM      6  C   UNL     1     -42.657 -48.452  28.970  1.00  0.00     0.007 C 
ATOM      7  C   UNL     1     -43.693 -49.440  28.400  1.00  0.00    -0.013 C 
ATOM      8  C   UNL     1     -42.510 -49.944  29.240  1.00  0.00     0.025 C 
ATOM      9  C   UNL     1     -43.119 -50.423  30.511  1.00  0.00    -0.073 C 
ATOM     10  C   UNL     1     -44.438 -50.290  30.527  1.00  0.00    -0.027 C 
ATOM     11  C   UNL     1     -44.952 -49.695  29.260  1.00  0.00     0.035 C 
ATOM     12  C   UNL     1     -42.328 -50.967  31.659  1.00  0.00     0.039 C 
ENDROOT
BRANCH   5  13
ATOM     13  C   UNL     1     -40.172 -47.818  28.778  1.00  0.00    -0.014 C 
ATOM     14  C   UNL     1     -39.513 -46.429  28.695  1.00  0.00     0.007 C 
ATOM     15  C   UNL     1     -39.202 -48.867  28.205  1.00  0.00     0.007 C 
ENDBRANCH   5  13
TORSDOF 1
ENDMDL
MODEL 9
REMARK VINA RESULT:    -5.728      9.109     12.689
REMARK INTER + INTRA:          -6.353
REMARK INTER:                  -6.097
REMARK INTRA:                  -0.256
REMARK UNBOUND:                -0.291
REMARK SMILES CC1=CC[C@]23[C@H]([C@@H](C(C)C)CC[C@@H]2C)[C@@H]13
REMARK SMILES IDX 14 1 13 2 12 3 11 4 7 5 6 6 5 7 15 8 2 9 3 10 4 11 1 12 8 13
REMARK SMILES IDX 9 14 10 15
REMARK H PARENT
REMARK Flexibility Score: inf
ROOT
ATOM      1  C   UNL     1     -53.977 -48.881  20.516  1.00  0.00     0.008 C 
ATOM      2  C   UNL     1     -52.628 -49.582  20.288  1.00  0.00    -0.007 C 
ATOM      3  C   UNL     1     -52.409 -49.744  18.775  1.00  0.00     0.004 C 
ATOM      4  C   UNL     1     -51.068 -50.406  18.479  1.00  0.00     0.004 C 
ATOM      5  C   UNL     1     -49.886 -49.485  18.858  1.00  0.00    -0.004 C 
ATOM      6  C   UNL     1     -50.072 -48.784  20.231  1.00  0.00     0.007 C 
ATOM      7  C   UNL     1     -51.433 -48.829  20.953  1.00  0.00    -0.013 C 
ATOM      8  C   UNL     1     -50.277 -49.733  21.405  1.00  0.00     0.025 C 
ATOM      9  C   UNL     1     -49.869 -49.198  22.733  1.00  0.00    -0.073 C 
ATOM     10  C   UNL     1     -50.601 -48.162  23.113  1.00  0.00    -0.027 C 
ATOM     11  C   UNL     1     -51.639 -47.814  22.101  1.00  0.00     0.035 C 
ATOM     12  C   UNL     1     -48.735 -49.751  23.538  1.00  0.00     0.039 C 
ENDROOT
BRANCH   5  13
ATOM     13  C   UNL     1     -48.519 -50.239  18.787  1.00  0.00    -0.014 C 
ATOM     14  C   UNL     1     -47.362 -49.294  18.414  1.00  0.00     0.007 C 
ATOM     15  C   UNL     1     -48.557 -51.403  17.781  1.00  0.00     0.007 C 
ENDBRANCH   5  13
TORSDOF 1
ENDMDL
