MODEL 1
REMARK VINA RESULT:    -5.036      0.000      0.000
REMARK INTER + INTRA:         -17.711
REMARK INTER:                 -13.280
REMARK INTRA:                  -4.431
REMARK UNBOUND:                -4.431
REMARK SMILES CCCCCCCCCCCCCCCCCCCCCCCCCCCCCC(=O)[O-]
REMARK SMILES IDX 16 1 17 2 18 3 19 4 20 5 21 6 22 7 23 8 24 9 25 10 26 11
REMARK SMILES IDX 27 12 28 13 29 14 30 15 31 16 32 17 15 18 14 19 13 20 12 21
REMARK SMILES IDX 11 22 10 23 9 24 8 25 7 26 6 27 5 28 4 29 3 30 2 31 1 32
REMARK H PARENT
REMARK Flexibility Score: inf
ROOT
ATOM      1  C   UNL     1      12.373 -20.316 -14.408  1.00  0.00     0.000 C 
ENDROOT
BRANCH   1   2
ATOM      2  C   UNL     1      11.845 -20.081 -12.985  1.00  0.00     0.000 C 
BRANCH   2   3
ATOM      3  C   UNL     1      11.005 -18.801 -12.862  1.00  0.00     0.000 C 
BRANCH   3   4
ATOM      4  C   UNL     1      11.222 -18.130 -11.500  1.00  0.00     0.000 C 
BRANCH   4   5
ATOM      5  C   UNL     1      10.650 -18.986 -10.360  1.00  0.00     0.000 C 
BRANCH   5   6
ATOM      6  C   UNL     1      11.258 -18.631  -8.986  1.00  0.00     0.000 C 
BRANCH   6   7
ATOM      7  C   UNL     1      12.330 -17.524  -9.038  1.00  0.00     0.000 C 
BRANCH   7   8
ATOM      8  C   UNL     1      12.105 -16.345  -8.078  1.00  0.00     0.000 C 
BRANCH   8   9
ATOM      9  C   UNL     1      10.641 -15.870  -8.048  1.00  0.00     0.000 C 
BRANCH   9  10
ATOM     10  C   UNL     1      10.200 -15.394  -6.655  1.00  0.00     0.000 C 
BRANCH  10  11
ATOM     11  C   UNL     1       8.905 -16.076  -6.181  1.00  0.00     0.000 C 
BRANCH  11  12
ATOM     12  C   UNL     1       8.916 -17.599  -6.398  1.00  0.00     0.000 C 
BRANCH  12  13
ATOM     13  C   UNL     1       9.703 -18.412  -5.350  1.00  0.00     0.006 C 
BRANCH  13  14
ATOM     14  C   UNL     1       8.864 -18.858  -4.138  1.00  0.00     0.053 C 
BRANCH  14  15
ATOM     15  C   UNL     1       9.005 -17.931  -2.966  1.00  0.00     0.041 C 
ATOM     16  O   UNL     1       8.230 -18.030  -1.978  1.00  0.00    -0.550 OA
ATOM     17  O   UNL     1      10.021 -16.983  -2.947  1.00  0.00    -0.550 OA
ENDBRANCH  14  15
ENDBRANCH  13  14
ENDBRANCH  12  13
ENDBRANCH  11  12
ENDBRANCH  10  11
ENDBRANCH   9  10
ENDBRANCH   8   9
ENDBRANCH   7   8
ENDBRANCH   6   7
ENDBRANCH   5   6
ENDBRANCH   4   5
ENDBRANCH   3   4
ENDBRANCH   2   3
ENDBRANCH   1   2
BRANCH   1  18
ATOM     18  C   UNL     1      12.052 -19.155 -15.366  1.00  0.00     0.000 C 
BRANCH  18  19
ATOM     19  C   UNL     1      13.230 -18.836 -16.307  1.00  0.00     0.000 C 
BRANCH  19  20
ATOM     20  C   UNL     1      14.280 -17.884 -15.696  1.00  0.00     0.000 C 
BRANCH  20  21
ATOM     21  C   UNL     1      13.694 -16.645 -14.988  1.00  0.00     0.000 C 
BRANCH  21  22
ATOM     22  C   UNL     1      13.909 -16.588 -13.460  1.00  0.00     0.000 C 
BRANCH  22  23
ATOM     23  C   UNL     1      15.140 -17.355 -12.938  1.00  0.00     0.000 C 
BRANCH  23  24
ATOM     24  C   UNL     1      15.031 -17.721 -11.448  1.00  0.00    -0.000 C 
BRANCH  24  25
ATOM     25  C   UNL     1      15.096 -19.237 -11.205  1.00  0.00    -0.000 C 
BRANCH  25  26
ATOM     26  C   UNL     1      15.455 -20.030 -12.474  1.00  0.00    -0.000 C 
BRANCH  26  27
ATOM     27  C   UNL     1      15.414 -21.550 -12.249  1.00  0.00    -0.000 C 
BRANCH  27  28
ATOM     28  C   UNL     1      15.211 -22.334 -13.559  1.00  0.00    -0.000 C 
BRANCH  28  29
ATOM     29  C   UNL     1      14.061 -23.350 -13.473  1.00  0.00    -0.000 C 
BRANCH  29  30
ATOM     30  C   UNL     1      14.537 -24.748 -13.041  1.00  0.00    -0.000 C 
BRANCH  30  31
ATOM     31  C   UNL     1      13.832 -25.874 -13.814  1.00  0.00    -0.003 C 
ATOM     32  C   UNL     1      12.372 -25.549 -14.134  1.00  0.00     0.004 C 
ENDBRANCH  30  31
ENDBRANCH  29  30
ENDBRANCH  28  29
ENDBRANCH  27  28
ENDBRANCH  26  27
ENDBRANCH  25  26
ENDBRANCH  24  25
ENDBRANCH  23  24
ENDBRANCH  22  23
ENDBRANCH  21  22
ENDBRANCH  20  21
ENDBRANCH  19  20
ENDBRANCH  18  19
ENDBRANCH   1  18
TORSDOF 28
ENDMDL
MODEL 2
REMARK VINA RESULT:    -4.996      2.632      6.917
REMARK INTER + INTRA:         -17.604
REMARK INTER:                 -13.791
REMARK INTRA:                  -3.813
REMARK UNBOUND:                -4.431
REMARK SMILES CCCCCCCCCCCCCCCCCCCCCCCCCCCCCC(=O)[O-]
REMARK SMILES IDX 16 1 17 2 18 3 19 4 20 5 21 6 22 7 23 8 24 9 25 10 26 11
REMARK SMILES IDX 27 12 28 13 29 14 30 15 31 16 32 17 15 18 14 19 13 20 12 21
REMARK SMILES IDX 11 22 10 23 9 24 8 25 7 26 6 27 5 28 4 29 3 30 2 31 1 32
REMARK H PARENT
REMARK Flexibility Score: inf
ROOT
ATOM      1  C   UNL     1      11.386 -23.410 -14.255  1.00  0.00     0.000 C 
ENDROOT
BRANCH   1   2
ATOM      2  C   UNL     1      12.739 -22.827 -13.821  1.00  0.00     0.000 C 
BRANCH   2   3
ATOM      3  C   UNL     1      12.826 -21.307 -14.018  1.00  0.00     0.000 C 
BRANCH   3   4
ATOM      4  C   UNL     1      11.844 -20.835 -15.098  1.00  0.00     0.000 C 
BRANCH   4   5
ATOM      5  C   UNL     1      12.310 -19.517 -15.735  1.00  0.00     0.000 C 
BRANCH   5   6
ATOM      6  C   UNL     1      13.745 -19.128 -15.315  1.00  0.00     0.000 C 
BRANCH   6   7
ATOM      7  C   UNL     1      14.208 -17.757 -15.847  1.00  0.00     0.000 C 
BRANCH   7   8
ATOM      8  C   UNL     1      14.514 -16.703 -14.771  1.00  0.00     0.000 C 
BRANCH   8   9
ATOM      9  C   UNL     1      13.341 -16.486 -13.797  1.00  0.00     0.000 C 
BRANCH   9  10
ATOM     10  C   UNL     1      13.704 -16.833 -12.345  1.00  0.00     0.000 C 
BRANCH  10  11
ATOM     11  C   UNL     1      13.135 -18.193 -11.905  1.00  0.00     0.000 C 
BRANCH  11  12
ATOM     12  C   UNL     1      11.655 -18.375 -12.284  1.00  0.00     0.000 C 
BRANCH  12  13
ATOM     13  C   UNL     1      10.644 -18.137 -11.144  1.00  0.00     0.006 C 
BRANCH  13  14
ATOM     14  C   UNL     1      10.973 -18.893  -9.842  1.00  0.00     0.053 C 
BRANCH  14  15
ATOM     15  C   UNL     1      11.080 -17.980  -8.656  1.00  0.00     0.041 C 
ATOM     16  O   UNL     1      11.126 -16.731  -8.816  1.00  0.00    -0.550 OA
ATOM     17  O   UNL     1      11.088 -18.507  -7.370  1.00  0.00    -0.550 OA
ENDBRANCH  14  15
ENDBRANCH  13  14
ENDBRANCH  12  13
ENDBRANCH  11  12
ENDBRANCH  10  11
ENDBRANCH   9  10
ENDBRANCH   8   9
ENDBRANCH   7   8
ENDBRANCH   6   7
ENDBRANCH   5   6
ENDBRANCH   4   5
ENDBRANCH   3   4
ENDBRANCH   2   3
ENDBRANCH   1   2
BRANCH   1  18
ATOM     18  C   UNL     1      11.326 -24.944 -14.133  1.00  0.00     0.000 C 
BRANCH  18  19
ATOM     19  C   UNL     1      12.724 -25.569 -13.965  1.00  0.00     0.000 C 
BRANCH  19  20
ATOM     20  C   UNL     1      12.844 -26.999 -14.529  1.00  0.00     0.000 C 
BRANCH  20  21
ATOM     21  C   UNL     1      14.262 -27.392 -14.996  1.00  0.00     0.000 C 
BRANCH  21  22
ATOM     22  C   UNL     1      14.927 -28.541 -14.209  1.00  0.00     0.000 C 
BRANCH  22  23
ATOM     23  C   UNL     1      16.285 -29.019 -14.760  1.00  0.00     0.000 C 
BRANCH  23  24
ATOM     24  C   UNL     1      17.448 -28.771 -13.784  1.00  0.00    -0.000 C 
BRANCH  24  25
ATOM     25  C   UNL     1      17.020 -27.974 -12.542  1.00  0.00    -0.000 C 
BRANCH  25  26
ATOM     26  C   UNL     1      17.334 -26.472 -12.658  1.00  0.00    -0.000 C 
BRANCH  26  27
ATOM     27  C   UNL     1      17.362 -25.769 -11.291  1.00  0.00    -0.000 C 
BRANCH  27  28
ATOM     28  C   UNL     1      15.986 -25.204 -10.892  1.00  0.00    -0.000 C 
BRANCH  28  29
ATOM     29  C   UNL     1      15.423 -24.218 -11.928  1.00  0.00    -0.000 C 
BRANCH  29  30
ATOM     30  C   UNL     1      16.045 -22.815 -11.809  1.00  0.00    -0.000 C 
BRANCH  30  31
ATOM     31  C   UNL     1      16.618 -22.312 -13.143  1.00  0.00    -0.003 C 
ATOM     32  C   UNL     1      16.339 -23.264 -14.306  1.00  0.00     0.004 C 
ENDBRANCH  30  31
ENDBRANCH  29  30
ENDBRANCH  28  29
ENDBRANCH  27  28
ENDBRANCH  26  27
ENDBRANCH  25  26
ENDBRANCH  24  25
ENDBRANCH  23  24
ENDBRANCH  22  23
ENDBRANCH  21  22
ENDBRANCH  20  21
ENDBRANCH  19  20
ENDBRANCH  18  19
ENDBRANCH   1  18
TORSDOF 28
ENDMDL
MODEL 3
REMARK VINA RESULT:    -4.991      3.802      8.728
REMARK INTER + INTRA:         -17.592
REMARK INTER:                 -12.420
REMARK INTRA:                  -5.172
REMARK UNBOUND:                -4.431
REMARK SMILES CCCCCCCCCCCCCCCCCCCCCCCCCCCCCC(=O)[O-]
REMARK SMILES IDX 16 1 17 2 18 3 19 4 20 5 21 6 22 7 23 8 24 9 25 10 26 11
REMARK SMILES IDX 27 12 28 13 29 14 30 15 31 16 32 17 15 18 14 19 13 20 12 21
REMARK SMILES IDX 11 22 10 23 9 24 8 25 7 26 6 27 5 28 4 29 3 30 2 31 1 32
REMARK H PARENT
REMARK Flexibility Score: inf
ROOT
ATOM      1  C   UNL     1      11.707 -21.298 -15.113  1.00  0.00     0.000 C 
ENDROOT
BRANCH   1   2
ATOM      2  C   UNL     1      12.925 -20.640 -15.779  1.00  0.00     0.000 C 
BRANCH   2   3
ATOM      3  C   UNL     1      12.585 -19.309 -16.466  1.00  0.00     0.000 C 
BRANCH   3   4
ATOM      4  C   UNL     1      13.838 -18.441 -16.634  1.00  0.00     0.000 C 
BRANCH   4   5
ATOM      5  C   UNL     1      14.399 -18.004 -15.272  1.00  0.00     0.000 C 
BRANCH   5   6
ATOM      6  C   UNL     1      13.916 -16.598 -14.854  1.00  0.00     0.000 C 
BRANCH   6   7
ATOM      7  C   UNL     1      13.639 -16.449 -13.345  1.00  0.00     0.000 C 
BRANCH   7   8
ATOM      8  C   UNL     1      14.788 -16.883 -12.419  1.00  0.00     0.000 C 
BRANCH   8   9
ATOM      9  C   UNL     1      14.290 -17.488 -11.094  1.00  0.00     0.000 C 
BRANCH   9  10
ATOM     10  C   UNL     1      14.966 -18.827 -10.762  1.00  0.00     0.000 C 
BRANCH  10  11
ATOM     11  C   UNL     1      15.887 -19.319 -11.893  1.00  0.00     0.000 C 
BRANCH  11  12
ATOM     12  C   UNL     1      15.602 -20.771 -12.310  1.00  0.00     0.000 C 
BRANCH  12  13
ATOM     13  C   UNL     1      15.951 -21.123 -13.770  1.00  0.00     0.006 C 
BRANCH  13  14
ATOM     14  C   UNL     1      16.675 -22.473 -13.938  1.00  0.00     0.053 C 
BRANCH  14  15
ATOM     15  C   UNL     1      15.727 -23.636 -13.965  1.00  0.00     0.041 C 
ATOM     16  O   UNL     1      14.489 -23.446 -14.100  1.00  0.00    -0.550 OA
ATOM     17  O   UNL     1      16.216 -24.934 -13.883  1.00  0.00    -0.550 OA
ENDBRANCH  14  15
ENDBRANCH  13  14
ENDBRANCH  12  13
ENDBRANCH  11  12
ENDBRANCH  10  11
ENDBRANCH   9  10
ENDBRANCH   8   9
ENDBRANCH   7   8
ENDBRANCH   6   7
ENDBRANCH   5   6
ENDBRANCH   4   5
ENDBRANCH   3   4
ENDBRANCH   2   3
ENDBRANCH   1   2
BRANCH   1  18
ATOM     18  C   UNL     1      11.807 -21.329 -13.577  1.00  0.00     0.000 C 
BRANCH  18  19
ATOM     19  C   UNL     1      12.195 -19.958 -12.991  1.00  0.00     0.000 C 
BRANCH  19  20
ATOM     20  C   UNL     1      11.042 -18.934 -12.972  1.00  0.00     0.000 C 
BRANCH  20  21
ATOM     21  C   UNL     1      10.839 -18.215 -11.622  1.00  0.00     0.000 C 
BRANCH  21  22
ATOM     22  C   UNL     1      10.687 -19.136 -10.392  1.00  0.00     0.000 C 
BRANCH  22  23
ATOM     23  C   UNL     1      10.681 -18.420  -9.028  1.00  0.00     0.000 C 
BRANCH  23  24
ATOM     24  C   UNL     1      11.941 -18.709  -8.194  1.00  0.00    -0.000 C 
BRANCH  24  25
ATOM     25  C   UNL     1      11.762 -18.353  -6.710  1.00  0.00    -0.000 C 
BRANCH  25  26
ATOM     26  C   UNL     1      10.311 -18.519  -6.226  1.00  0.00    -0.000 C 
BRANCH  26  27
ATOM     27  C   UNL     1       9.811 -17.302  -5.433  1.00  0.00    -0.000 C 
BRANCH  27  28
ATOM     28  C   UNL     1       8.960 -16.348  -6.292  1.00  0.00    -0.000 C 
BRANCH  28  29
ATOM     29  C   UNL     1       9.658 -15.004  -6.559  1.00  0.00    -0.000 C 
BRANCH  29  30
ATOM     30  C   UNL     1      10.351 -14.959  -7.932  1.00  0.00    -0.000 C 
BRANCH  30  31
ATOM     31  C   UNL     1      11.707 -14.237  -7.881  1.00  0.00    -0.003 C 
ATOM     32  C   UNL     1      12.876 -15.142  -8.271  1.00  0.00     0.004 C 
ENDBRANCH  30  31
ENDBRANCH  29  30
ENDBRANCH  28  29
ENDBRANCH  27  28
ENDBRANCH  26  27
ENDBRANCH  25  26
ENDBRANCH  24  25
ENDBRANCH  23  24
ENDBRANCH  22  23
ENDBRANCH  21  22
ENDBRANCH  20  21
ENDBRANCH  19  20
ENDBRANCH  18  19
ENDBRANCH   1  18
TORSDOF 28
ENDMDL
MODEL 4
REMARK VINA RESULT:    -4.974      2.740      5.628
REMARK INTER + INTRA:         -17.548
REMARK INTER:                 -12.373
REMARK INTRA:                  -5.174
REMARK UNBOUND:                -4.431
REMARK SMILES CCCCCCCCCCCCCCCCCCCCCCCCCCCCCC(=O)[O-]
REMARK SMILES IDX 16 1 17 2 18 3 19 4 20 5 21 6 22 7 23 8 24 9 25 10 26 11
REMARK SMILES IDX 27 12 28 13 29 14 30 15 31 16 32 17 15 18 14 19 13 20 12 21
REMARK SMILES IDX 11 22 10 23 9 24 8 25 7 26 6 27 5 28 4 29 3 30 2 31 1 32
REMARK H PARENT
REMARK Flexibility Score: inf
ROOT
ATOM      1  C   UNL     1      13.108 -15.333  -7.714  1.00  0.00     0.000 C 
ENDROOT
BRANCH   1   2
ATOM      2  C   UNL     1      11.766 -14.692  -7.332  1.00  0.00     0.000 C 
BRANCH   2   3
ATOM      3  C   UNL     1      10.614 -15.706  -7.269  1.00  0.00     0.000 C 
BRANCH   3   4
ATOM      4  C   UNL     1       9.420 -15.135  -6.494  1.00  0.00     0.000 C 
BRANCH   4   5
ATOM      5  C   UNL     1       8.495 -16.255  -5.993  1.00  0.00     0.000 C 
BRANCH   5   6
ATOM      6  C   UNL     1       9.168 -17.644  -6.035  1.00  0.00     0.000 C 
BRANCH   6   7
ATOM      7  C   UNL     1       8.724 -18.594  -4.904  1.00  0.00     0.000 C 
BRANCH   7   8
ATOM      8  C   UNL     1       8.902 -18.048  -3.478  1.00  0.00     0.000 C 
BRANCH   8   9
ATOM      9  C   UNL     1      10.375 -18.001  -3.036  1.00  0.00     0.000 C 
BRANCH   9  10
ATOM     10  C   UNL     1      10.928 -16.569  -2.964  1.00  0.00     0.000 C 
BRANCH  10  11
ATOM     11  C   UNL     1      12.014 -16.303  -4.021  1.00  0.00     0.000 C 
BRANCH  11  12
ATOM     12  C   UNL     1      13.283 -17.145  -3.803  1.00  0.00     0.000 C 
BRANCH  12  13
ATOM     13  C   UNL     1      13.773 -17.938  -5.032  1.00  0.00     0.006 C 
BRANCH  13  14
ATOM     14  C   UNL     1      12.640 -18.548  -5.881  1.00  0.00     0.053 C 
BRANCH  14  15
ATOM     15  C   UNL     1      12.588 -20.044  -5.783  1.00  0.00     0.041 C 
ATOM     16  O   UNL     1      13.281 -20.758  -6.556  1.00  0.00    -0.550 OA
ATOM     17  O   UNL     1      11.805 -20.651  -4.808  1.00  0.00    -0.550 OA
ENDBRANCH  14  15
ENDBRANCH  13  14
ENDBRANCH  12  13
ENDBRANCH  11  12
ENDBRANCH  10  11
ENDBRANCH   9  10
ENDBRANCH   8   9
ENDBRANCH   7   8
ENDBRANCH   6   7
ENDBRANCH   5   6
ENDBRANCH   4   5
ENDBRANCH   3   4
ENDBRANCH   2   3
ENDBRANCH   1   2
BRANCH   1  18
ATOM     18  C   UNL     1      13.084 -15.992  -9.105  1.00  0.00     0.000 C 
BRANCH  18  19
ATOM     19  C   UNL     1      14.200 -17.041  -9.271  1.00  0.00     0.000 C 
BRANCH  19  20
ATOM     20  C   UNL     1      14.328 -17.600 -10.703  1.00  0.00     0.000 C 
BRANCH  20  21
ATOM     21  C   UNL     1      13.935 -16.611 -11.820  1.00  0.00     0.000 C 
BRANCH  21  22
ATOM     22  C   UNL     1      14.458 -16.958 -13.231  1.00  0.00     0.000 C 
BRANCH  22  23
ATOM     23  C   UNL     1      14.989 -18.394 -13.402  1.00  0.00     0.000 C 
BRANCH  23  24
ATOM     24  C   UNL     1      14.729 -18.966 -14.806  1.00  0.00    -0.000 C 
BRANCH  24  25
ATOM     25  C   UNL     1      13.565 -18.266 -15.524  1.00  0.00    -0.000 C 
BRANCH  25  26
ATOM     26  C   UNL     1      12.609 -19.253 -16.216  1.00  0.00    -0.000 C 
BRANCH  26  27
ATOM     27  C   UNL     1      11.455 -19.694 -15.302  1.00  0.00    -0.000 C 
BRANCH  27  28
ATOM     28  C   UNL     1      11.220 -18.717 -14.136  1.00  0.00    -0.000 C 
BRANCH  28  29
ATOM     29  C   UNL     1      11.425 -19.370 -12.760  1.00  0.00    -0.000 C 
BRANCH  29  30
ATOM     30  C   UNL     1      10.862 -18.518 -11.609  1.00  0.00    -0.000 C 
BRANCH  30  31
ATOM     31  C   UNL     1      10.454 -19.367 -10.395  1.00  0.00    -0.003 C 
ATOM     32  C   UNL     1      10.833 -18.719  -9.063  1.00  0.00     0.004 C 
ENDBRANCH  30  31
ENDBRANCH  29  30
ENDBRANCH  28  29
ENDBRANCH  27  28
ENDBRANCH  26  27
ENDBRANCH  25  26
ENDBRANCH  24  25
ENDBRANCH  23  24
ENDBRANCH  22  23
ENDBRANCH  21  22
ENDBRANCH  20  21
ENDBRANCH  19  20
ENDBRANCH  18  19
ENDBRANCH   1  18
TORSDOF 28
ENDMDL
MODEL 5
REMARK VINA RESULT:    -4.969      3.620      8.377
REMARK INTER + INTRA:         -17.534
REMARK INTER:                 -12.394
REMARK INTRA:                  -5.140
REMARK UNBOUND:                -4.431
REMARK SMILES CCCCCCCCCCCCCCCCCCCCCCCCCCCCCC(=O)[O-]
REMARK SMILES IDX 16 1 17 2 18 3 19 4 20 5 21 6 22 7 23 8 24 9 25 10 26 11
REMARK SMILES IDX 27 12 28 13 29 14 30 15 31 16 32 17 15 18 14 19 13 20 12 21
REMARK SMILES IDX 11 22 10 23 9 24 8 25 7 26 6 27 5 28 4 29 3 30 2 31 1 32
REMARK H PARENT
REMARK Flexibility Score: inf
ROOT
ATOM      1  C   UNL     1      12.559 -20.457 -14.793  1.00  0.00     0.000 C 
ENDROOT
BRANCH   1   2
ATOM      2  C   UNL     1      12.124 -19.542 -15.947  1.00  0.00     0.000 C 
BRANCH   2   3
ATOM      3  C   UNL     1      13.295 -18.774 -16.577  1.00  0.00     0.000 C 
BRANCH   3   4
ATOM      4  C   UNL     1      14.271 -18.280 -15.501  1.00  0.00     0.000 C 
BRANCH   4   5
ATOM      5  C   UNL     1      14.097 -16.775 -15.242  1.00  0.00     0.000 C 
BRANCH   5   6
ATOM      6  C   UNL     1      13.845 -16.453 -13.753  1.00  0.00     0.000 C 
BRANCH   6   7
ATOM      7  C   UNL     1      14.996 -16.867 -12.815  1.00  0.00     0.000 C 
BRANCH   7   8
ATOM      8  C   UNL     1      14.625 -16.982 -11.327  1.00  0.00     0.000 C 
BRANCH   8   9
ATOM      9  C   UNL     1      14.871 -18.390 -10.757  1.00  0.00     0.000 C 
BRANCH   9  10
ATOM     10  C   UNL     1      14.618 -19.501 -11.788  1.00  0.00     0.000 C 
BRANCH  10  11
ATOM     11  C   UNL     1      15.863 -20.370 -12.036  1.00  0.00     0.000 C 
BRANCH  11  12
ATOM     12  C   UNL     1      16.023 -20.780 -13.510  1.00  0.00     0.000 C 
BRANCH  12  13
ATOM     13  C   UNL     1      15.886 -22.290 -13.797  1.00  0.00     0.006 C 
BRANCH  13  14
ATOM     14  C   UNL     1      15.141 -23.075 -12.700  1.00  0.00     0.053 C 
BRANCH  14  15
ATOM     15  C   UNL     1      14.232 -24.128 -13.262  1.00  0.00     0.041 C 
ATOM     16  O   UNL     1      13.291 -23.810 -14.037  1.00  0.00    -0.550 OA
ATOM     17  O   UNL     1      14.449 -25.467 -12.963  1.00  0.00    -0.550 OA
ENDBRANCH  14  15
ENDBRANCH  13  14
ENDBRANCH  12  13
ENDBRANCH  11  12
ENDBRANCH  10  11
ENDBRANCH   9  10
ENDBRANCH   8   9
ENDBRANCH   7   8
ENDBRANCH   6   7
ENDBRANCH   5   6
ENDBRANCH   4   5
ENDBRANCH   3   4
ENDBRANCH   2   3
ENDBRANCH   1   2
BRANCH   1  18
ATOM     18  C   UNL     1      11.746 -20.230 -13.506  1.00  0.00     0.000 C 
BRANCH  18  19
ATOM     19  C   UNL     1      11.129 -18.819 -13.450  1.00  0.00     0.000 C 
BRANCH  19  20
ATOM     20  C   UNL     1      11.145 -18.183 -12.044  1.00  0.00     0.000 C 
BRANCH  20  21
ATOM     21  C   UNL     1      10.619 -19.096 -10.916  1.00  0.00     0.000 C 
BRANCH  21  22
ATOM     22  C   UNL     1      11.241 -18.860  -9.523  1.00  0.00     0.000 C 
BRANCH  22  23
ATOM     23  C   UNL     1      11.474 -17.384  -9.148  1.00  0.00     0.000 C 
BRANCH  23  24
ATOM     24  C   UNL     1      12.041 -17.209  -7.728  1.00  0.00    -0.000 C 
BRANCH  24  25
ATOM     25  C   UNL     1      11.208 -16.242  -6.873  1.00  0.00    -0.000 C 
BRANCH  25  26
ATOM     26  C   UNL     1       9.702 -16.556  -6.912  1.00  0.00    -0.000 C 
BRANCH  26  27
ATOM     27  C   UNL     1       9.380 -17.966  -6.392  1.00  0.00    -0.000 C 
BRANCH  27  28
ATOM     28  C   UNL     1       9.489 -18.068  -4.859  1.00  0.00    -0.000 C 
BRANCH  28  29
ATOM     29  C   UNL     1      10.353 -19.254  -4.401  1.00  0.00    -0.000 C 
BRANCH  29  30
ATOM     30  C   UNL     1      11.705 -18.811  -3.817  1.00  0.00    -0.000 C 
BRANCH  30  31
ATOM     31  C   UNL     1      12.887 -19.187  -4.724  1.00  0.00    -0.003 C 
ATOM     32  C   UNL     1      12.538 -20.284  -5.731  1.00  0.00     0.004 C 
ENDBRANCH  30  31
ENDBRANCH  29  30
ENDBRANCH  28  29
ENDBRANCH  27  28
ENDBRANCH  26  27
ENDBRANCH  25  26
ENDBRANCH  24  25
ENDBRANCH  23  24
ENDBRANCH  22  23
ENDBRANCH  21  22
ENDBRANCH  20  21
ENDBRANCH  19  20
ENDBRANCH  18  19
ENDBRANCH   1  18
TORSDOF 28
ENDMDL
MODEL 6
REMARK VINA RESULT:    -4.944      3.653      8.496
REMARK INTER + INTRA:         -17.467
REMARK INTER:                 -12.639
REMARK INTRA:                  -4.827
REMARK UNBOUND:                -4.431
REMARK SMILES CCCCCCCCCCCCCCCCCCCCCCCCCCCCCC(=O)[O-]
REMARK SMILES IDX 16 1 17 2 18 3 19 4 20 5 21 6 22 7 23 8 24 9 25 10 26 11
REMARK SMILES IDX 27 12 28 13 29 14 30 15 31 16 32 17 15 18 14 19 13 20 12 21
REMARK SMILES IDX 11 22 10 23 9 24 8 25 7 26 6 27 5 28 4 29 3 30 2 31 1 32
REMARK H PARENT
REMARK Flexibility Score: inf
ROOT
ATOM      1  C   UNL     1      14.896 -16.633 -14.076  1.00  0.00     0.000 C 
ENDROOT
BRANCH   1   2
ATOM      2  C   UNL     1      14.992 -17.522 -12.828  1.00  0.00     0.000 C 
BRANCH   2   3
ATOM      3  C   UNL     1      14.407 -16.857 -11.573  1.00  0.00     0.000 C 
BRANCH   3   4
ATOM      4  C   UNL     1      14.931 -17.530 -10.298  1.00  0.00     0.000 C 
BRANCH   4   5
ATOM      5  C   UNL     1      14.652 -19.041 -10.312  1.00  0.00     0.000 C 
BRANCH   5   6
ATOM      6  C   UNL     1      15.530 -19.817  -9.306  1.00  0.00     0.000 C 
BRANCH   6   7
ATOM      7  C   UNL     1      17.033 -19.812  -9.647  1.00  0.00     0.000 C 
BRANCH   7   8
ATOM      8  C   UNL     1      17.517 -20.989 -10.510  1.00  0.00     0.000 C 
BRANCH   8   9
ATOM      9  C   UNL     1      17.775 -20.589 -11.974  1.00  0.00     0.000 C 
BRANCH   9  10
ATOM     10  C   UNL     1      17.102 -21.539 -12.977  1.00  0.00     0.000 C 
BRANCH  10  11
ATOM     11  C   UNL     1      15.956 -20.864 -13.751  1.00  0.00     0.000 C 
BRANCH  11  12
ATOM     12  C   UNL     1      14.565 -21.290 -13.253  1.00  0.00     0.000 C 
BRANCH  12  13
ATOM     13  C   UNL     1      13.823 -22.305 -14.147  1.00  0.00     0.006 C 
BRANCH  13  14
ATOM     14  C   UNL     1      13.788 -23.737 -13.581  1.00  0.00     0.053 C 
BRANCH  14  15
ATOM     15  C   UNL     1      12.527 -24.468 -13.937  1.00  0.00     0.041 C 
ATOM     16  O   UNL     1      12.565 -25.685 -14.260  1.00  0.00    -0.550 OA
ATOM     17  O   UNL     1      11.302 -23.814 -13.873  1.00  0.00    -0.550 OA
ENDBRANCH  14  15
ENDBRANCH  13  14
ENDBRANCH  12  13
ENDBRANCH  11  12
ENDBRANCH  10  11
ENDBRANCH   9  10
ENDBRANCH   8   9
ENDBRANCH   7   8
ENDBRANCH   6   7
ENDBRANCH   5   6
ENDBRANCH   4   5
ENDBRANCH   3   4
ENDBRANCH   2   3
ENDBRANCH   1   2
BRANCH   1  18
ATOM     18  C   UNL     1      13.679 -16.967 -14.958  1.00  0.00     0.000 C 
BRANCH  18  19
ATOM     19  C   UNL     1      13.714 -18.419 -15.472  1.00  0.00     0.000 C 
BRANCH  19  20
ATOM     20  C   UNL     1      12.359 -19.150 -15.378  1.00  0.00     0.000 C 
BRANCH  20  21
ATOM     21  C   UNL     1      11.406 -18.608 -14.292  1.00  0.00     0.000 C 
BRANCH  21  22
ATOM     22  C   UNL     1      11.624 -19.175 -12.872  1.00  0.00     0.000 C 
BRANCH  22  23
ATOM     23  C   UNL     1      10.570 -18.761 -11.827  1.00  0.00     0.000 C 
BRANCH  23  24
ATOM     24  C   UNL     1      11.184 -18.071 -10.597  1.00  0.00    -0.000 C 
BRANCH  24  25
ATOM     25  C   UNL     1      10.951 -18.860  -9.299  1.00  0.00    -0.000 C 
BRANCH  25  26
ATOM     26  C   UNL     1      11.568 -18.177  -8.066  1.00  0.00    -0.000 C 
BRANCH  26  27
ATOM     27  C   UNL     1      11.736 -16.661  -8.254  1.00  0.00    -0.000 C 
BRANCH  27  28
ATOM     28  C   UNL     1      10.531 -15.864  -7.718  1.00  0.00    -0.000 C 
BRANCH  28  29
ATOM     29  C   UNL     1      10.189 -16.210  -6.260  1.00  0.00    -0.000 C 
BRANCH  29  30
ATOM     30  C   UNL     1       8.820 -16.898  -6.121  1.00  0.00    -0.000 C 
BRANCH  30  31
ATOM     31  C   UNL     1       8.927 -18.296  -5.492  1.00  0.00    -0.003 C 
ATOM     32  C   UNL     1       8.763 -18.278  -3.972  1.00  0.00     0.004 C 
ENDBRANCH  30  31
ENDBRANCH  29  30
ENDBRANCH  28  29
ENDBRANCH  27  28
ENDBRANCH  26  27
ENDBRANCH  25  26
ENDBRANCH  24  25
ENDBRANCH  23  24
ENDBRANCH  22  23
ENDBRANCH  21  22
ENDBRANCH  20  21
ENDBRANCH  19  20
ENDBRANCH  18  19
ENDBRANCH   1  18
TORSDOF 28
ENDMDL
MODEL 7
REMARK VINA RESULT:    -4.941      3.271      7.313
REMARK INTER + INTRA:         -17.459
REMARK INTER:                 -12.670
REMARK INTRA:                  -4.789
REMARK UNBOUND:                -4.431
REMARK SMILES CCCCCCCCCCCCCCCCCCCCCCCCCCCCCC(=O)[O-]
REMARK SMILES IDX 16 1 17 2 18 3 19 4 20 5 21 6 22 7 23 8 24 9 25 10 26 11
REMARK SMILES IDX 27 12 28 13 29 14 30 15 31 16 32 17 15 18 14 19 13 20 12 21
REMARK SMILES IDX 11 22 10 23 9 24 8 25 7 26 6 27 5 28 4 29 3 30 2 31 1 32
REMARK H PARENT
REMARK Flexibility Score: inf
ROOT
ATOM      1  C   UNL     1      11.516 -25.142 -14.111  1.00  0.00     0.000 C 
ENDROOT
BRANCH   1   2
ATOM      2  C   UNL     1      11.332 -23.649 -14.423  1.00  0.00     0.000 C 
BRANCH   2   3
ATOM      3  C   UNL     1      12.428 -22.770 -13.803  1.00  0.00     0.000 C 
BRANCH   3   4
ATOM      4  C   UNL     1      12.670 -21.514 -14.651  1.00  0.00     0.000 C 
BRANCH   4   5
ATOM      5  C   UNL     1      11.499 -20.527 -14.529  1.00  0.00     0.000 C 
BRANCH   5   6
ATOM      6  C   UNL     1      11.598 -19.360 -15.535  1.00  0.00     0.000 C 
BRANCH   6   7
ATOM      7  C   UNL     1      12.714 -19.526 -16.586  1.00  0.00     0.000 C 
BRANCH   7   8
ATOM      8  C   UNL     1      13.752 -18.392 -16.628  1.00  0.00     0.000 C 
BRANCH   8   9
ATOM      9  C   UNL     1      14.290 -18.023 -15.233  1.00  0.00     0.000 C 
BRANCH   9  10
ATOM     10  C   UNL     1      13.927 -16.589 -14.818  1.00  0.00     0.000 C 
BRANCH  10  11
ATOM     11  C   UNL     1      13.090 -16.543 -13.527  1.00  0.00     0.000 C 
BRANCH  11  12
ATOM     12  C   UNL     1      13.724 -17.337 -12.373  1.00  0.00     0.000 C 
BRANCH  12  13
ATOM     13  C   UNL     1      12.970 -18.616 -11.955  1.00  0.00     0.006 C 
BRANCH  13  14
ATOM     14  C   UNL     1      11.586 -18.356 -11.329  1.00  0.00     0.053 C 
BRANCH  14  15
ATOM     15  C   UNL     1      11.567 -18.604  -9.849  1.00  0.00     0.041 C 
ATOM     16  O   UNL     1      10.478 -18.820  -9.254  1.00  0.00    -0.550 OA
ATOM     17  O   UNL     1      12.758 -18.638  -9.134  1.00  0.00    -0.550 OA
ENDBRANCH  14  15
ENDBRANCH  13  14
ENDBRANCH  12  13
ENDBRANCH  11  12
ENDBRANCH  10  11
ENDBRANCH   9  10
ENDBRANCH   8   9
ENDBRANCH   7   8
ENDBRANCH   6   7
ENDBRANCH   5   6
ENDBRANCH   4   5
ENDBRANCH   3   4
ENDBRANCH   2   3
ENDBRANCH   1   2
BRANCH   1  18
ATOM     18  C   UNL     1      12.991 -25.582 -14.126  1.00  0.00     0.000 C 
BRANCH  18  19
ATOM     19  C   UNL     1      13.142 -27.101 -14.335  1.00  0.00     0.000 C 
BRANCH  19  20
ATOM     20  C   UNL     1      14.580 -27.548 -14.668  1.00  0.00     0.000 C 
BRANCH  20  21
ATOM     21  C   UNL     1      15.337 -26.618 -15.640  1.00  0.00     0.000 C 
BRANCH  21  22
ATOM     22  C   UNL     1      16.720 -26.131 -15.156  1.00  0.00     0.000 C 
BRANCH  22  23
ATOM     23  C   UNL     1      17.651 -27.230 -14.610  1.00  0.00     0.000 C 
BRANCH  23  24
ATOM     24  C   UNL     1      18.178 -26.923 -13.197  1.00  0.00    -0.000 C 
BRANCH  24  25
ATOM     25  C   UNL     1      17.398 -27.665 -12.101  1.00  0.00    -0.000 C 
BRANCH  25  26
ATOM     26  C   UNL     1      16.292 -26.803 -11.466  1.00  0.00    -0.000 C 
BRANCH  26  27
ATOM     27  C   UNL     1      16.644 -25.307 -11.458  1.00  0.00    -0.000 C 
BRANCH  27  28
ATOM     28  C   UNL     1      15.488 -24.427 -11.970  1.00  0.00    -0.000 C 
BRANCH  28  29
ATOM     29  C   UNL     1      15.978 -23.197 -12.751  1.00  0.00    -0.000 C 
BRANCH  29  30
ATOM     30  C   UNL     1      15.669 -21.875 -12.028  1.00  0.00    -0.000 C 
BRANCH  30  31
ATOM     31  C   UNL     1      15.611 -20.679 -12.991  1.00  0.00    -0.003 C 
ATOM     32  C   UNL     1      16.831 -19.764 -12.875  1.00  0.00     0.004 C 
ENDBRANCH  30  31
ENDBRANCH  29  30
ENDBRANCH  28  29
ENDBRANCH  27  28
ENDBRANCH  26  27
ENDBRANCH  25  26
ENDBRANCH  24  25
ENDBRANCH  23  24
ENDBRANCH  22  23
ENDBRANCH  21  22
ENDBRANCH  20  21
ENDBRANCH  19  20
ENDBRANCH  18  19
ENDBRANCH   1  18
TORSDOF 28
ENDMDL
MODEL 8
REMARK VINA RESULT:    -4.932      1.212      2.289
REMARK INTER + INTRA:         -17.437
REMARK INTER:                 -12.596
REMARK INTRA:                  -4.841
REMARK UNBOUND:                -4.431
REMARK SMILES CCCCCCCCCCCCCCCCCCCCCCCCCCCCCC(=O)[O-]
REMARK SMILES IDX 16 1 17 2 18 3 19 4 20 5 21 6 22 7 23 8 24 9 25 10 26 11
REMARK SMILES IDX 27 12 28 13 29 14 30 15 31 16 32 17 15 18 14 19 13 20 12 21
REMARK SMILES IDX 11 22 10 23 9 24 8 25 7 26 6 27 5 28 4 29 3 30 2 31 1 32
REMARK H PARENT
REMARK Flexibility Score: inf
ROOT
ATOM      1  C   UNL     1      13.456 -19.468 -14.901  1.00  0.00     0.000 C 
ENDROOT
BRANCH   1   2
ATOM      2  C   UNL     1      12.039 -19.215 -15.438  1.00  0.00     0.000 C 
BRANCH   2   3
ATOM      3  C   UNL     1      11.004 -19.011 -14.321  1.00  0.00     0.000 C 
BRANCH   3   4
ATOM      4  C   UNL     1      11.582 -19.406 -12.957  1.00  0.00     0.000 C 
BRANCH   4   5
ATOM      5  C   UNL     1      11.091 -18.460 -11.850  1.00  0.00     0.000 C 
BRANCH   5   6
ATOM      6  C   UNL     1      10.587 -19.217 -10.602  1.00  0.00     0.000 C 
BRANCH   6   7
ATOM      7  C   UNL     1      10.838 -18.478  -9.272  1.00  0.00     0.000 C 
BRANCH   7   8
ATOM      8  C   UNL     1      12.304 -18.430  -8.812  1.00  0.00     0.000 C 
BRANCH   8   9
ATOM      9  C   UNL     1      12.815 -16.994  -8.598  1.00  0.00     0.000 C 
BRANCH   9  10
ATOM     10  C   UNL     1      11.687 -16.006  -8.265  1.00  0.00     0.000 C 
BRANCH  10  11
ATOM     11  C   UNL     1      11.801 -15.438  -6.839  1.00  0.00     0.000 C 
BRANCH  11  12
ATOM     12  C   UNL     1      10.721 -15.983  -5.889  1.00  0.00     0.000 C 
BRANCH  12  13
ATOM     13  C   UNL     1       9.359 -16.294  -6.543  1.00  0.00     0.006 C 
BRANCH  13  14
ATOM     14  C   UNL     1       8.794 -17.684  -6.193  1.00  0.00     0.053 C 
BRANCH  14  15
ATOM     15  C   UNL     1       9.687 -18.452  -5.264  1.00  0.00     0.041 C 
ATOM     16  O   UNL     1      10.682 -19.082  -5.712  1.00  0.00    -0.550 OA
ATOM     17  O   UNL     1       9.445 -18.439  -3.896  1.00  0.00    -0.550 OA
ENDBRANCH  14  15
ENDBRANCH  13  14
ENDBRANCH  12  13
ENDBRANCH  11  12
ENDBRANCH  10  11
ENDBRANCH   9  10
ENDBRANCH   8   9
ENDBRANCH   7   8
ENDBRANCH   6   7
ENDBRANCH   5   6
ENDBRANCH   4   5
ENDBRANCH   3   4
ENDBRANCH   2   3
ENDBRANCH   1   2
BRANCH   1  18
ATOM     18  C   UNL     1      14.464 -18.389 -15.338  1.00  0.00     0.000 C 
BRANCH  18  19
ATOM     19  C   UNL     1      13.888 -16.967 -15.204  1.00  0.00     0.000 C 
BRANCH  19  20
ATOM     20  C   UNL     1      13.703 -16.499 -13.746  1.00  0.00     0.000 C 
BRANCH  20  21
ATOM     21  C   UNL     1      14.948 -16.670 -12.850  1.00  0.00     0.000 C 
BRANCH  21  22
ATOM     22  C   UNL     1      14.707 -17.392 -11.506  1.00  0.00     0.000 C 
BRANCH  22  23
ATOM     23  C   UNL     1      14.930 -18.916 -11.527  1.00  0.00     0.000 C 
BRANCH  23  24
ATOM     24  C   UNL     1      16.267 -19.334 -10.892  1.00  0.00    -0.000 C 
BRANCH  24  25
ATOM     25  C   UNL     1      16.931 -20.508 -11.630  1.00  0.00    -0.000 C 
BRANCH  25  26
ATOM     26  C   UNL     1      16.571 -20.554 -13.125  1.00  0.00    -0.000 C 
BRANCH  26  27
ATOM     27  C   UNL     1      16.226 -21.973 -13.605  1.00  0.00    -0.000 C 
BRANCH  27  28
ATOM     28  C   UNL     1      15.538 -22.813 -12.513  1.00  0.00    -0.000 C 
BRANCH  28  29
ATOM     29  C   UNL     1      14.432 -23.723 -13.070  1.00  0.00    -0.000 C 
BRANCH  29  30
ATOM     30  C   UNL     1      13.544 -23.011 -14.104  1.00  0.00    -0.000 C 
BRANCH  30  31
ATOM     31  C   UNL     1      12.065 -22.985 -13.689  1.00  0.00    -0.003 C 
ATOM     32  C   UNL     1      11.242 -24.087 -14.357  1.00  0.00     0.004 C 
ENDBRANCH  30  31
ENDBRANCH  29  30
ENDBRANCH  28  29
ENDBRANCH  27  28
ENDBRANCH  26  27
ENDBRANCH  25  26
ENDBRANCH  24  25
ENDBRANCH  23  24
ENDBRANCH  22  23
ENDBRANCH  21  22
ENDBRANCH  20  21
ENDBRANCH  19  20
ENDBRANCH  18  19
ENDBRANCH   1  18
TORSDOF 28
ENDMDL
MODEL 9
REMARK VINA RESULT:    -4.913      3.489      8.952
REMARK INTER + INTRA:         -17.387
REMARK INTER:                 -12.530
REMARK INTRA:                  -4.857
REMARK UNBOUND:                -4.431
REMARK SMILES CCCCCCCCCCCCCCCCCCCCCCCCCCCCCC(=O)[O-]
REMARK SMILES IDX 16 1 17 2 18 3 19 4 20 5 21 6 22 7 23 8 24 9 25 10 26 11
REMARK SMILES IDX 27 12 28 13 29 14 30 15 31 16 32 17 15 18 14 19 13 20 12 21
REMARK SMILES IDX 11 22 10 23 9 24 8 25 7 26 6 27 5 28 4 29 3 30 2 31 1 32
REMARK H PARENT
REMARK Flexibility Score: inf
ROOT
ATOM      1  C   UNL     1      10.487 -18.806 -11.063  1.00  0.00     0.000 C 
ENDROOT
BRANCH   1   2
ATOM      2  C   UNL     1      11.089 -18.668 -12.469  1.00  0.00     0.000 C 
BRANCH   2   3
ATOM      3  C   UNL     1      12.060 -19.806 -12.819  1.00  0.00     0.000 C 
BRANCH   3   4
ATOM      4  C   UNL     1      11.691 -20.451 -14.160  1.00  0.00     0.000 C 
BRANCH   4   5
ATOM      5  C   UNL     1      11.416 -19.386 -15.233  1.00  0.00     0.000 C 
BRANCH   5   6
ATOM      6  C   UNL     1      12.200 -19.642 -16.539  1.00  0.00     0.000 C 
BRANCH   6   7
ATOM      7  C   UNL     1      13.354 -18.650 -16.787  1.00  0.00     0.000 C 
BRANCH   7   8
ATOM      8  C   UNL     1      14.165 -18.259 -15.541  1.00  0.00     0.000 C 
BRANCH   8   9
ATOM      9  C   UNL     1      14.055 -16.762 -15.202  1.00  0.00     0.000 C 
BRANCH   9  10
ATOM     10  C   UNL     1      13.717 -16.511 -13.724  1.00  0.00     0.000 C 
BRANCH  10  11
ATOM     11  C   UNL     1      14.931 -16.713 -12.799  1.00  0.00     0.000 C 
BRANCH  11  12
ATOM     12  C   UNL     1      14.540 -17.200 -11.394  1.00  0.00     0.000 C 
BRANCH  12  13
ATOM     13  C   UNL     1      15.093 -18.582 -10.993  1.00  0.00     0.006 C 
BRANCH  13  14
ATOM     14  C   UNL     1      15.870 -19.300 -12.113  1.00  0.00     0.053 C 
BRANCH  14  15
ATOM     15  C   UNL     1      16.505 -20.577 -11.648  1.00  0.00     0.041 C 
ATOM     16  O   UNL     1      15.986 -21.243 -10.713  1.00  0.00    -0.550 OA
ATOM     17  O   UNL     1      17.649 -21.055 -12.276  1.00  0.00    -0.550 OA
ENDBRANCH  14  15
ENDBRANCH  13  14
ENDBRANCH  12  13
ENDBRANCH  11  12
ENDBRANCH  10  11
ENDBRANCH   9  10
ENDBRANCH   8   9
ENDBRANCH   7   8
ENDBRANCH   6   7
ENDBRANCH   5   6
ENDBRANCH   4   5
ENDBRANCH   3   4
ENDBRANCH   2   3
ENDBRANCH   1   2
BRANCH   1  18
ATOM     18  C   UNL     1      11.293 -18.054  -9.989  1.00  0.00     0.000 C 
BRANCH  18  19
ATOM     19  C   UNL     1      11.340 -18.821  -8.653  1.00  0.00     0.000 C 
BRANCH  19  20
ATOM     20  C   UNL     1      12.751 -18.926  -8.039  1.00  0.00     0.000 C 
BRANCH  20  21
ATOM     21  C   UNL     1      13.277 -17.622  -7.403  1.00  0.00     0.000 C 
BRANCH  21  22
ATOM     22  C   UNL     1      12.854 -17.378  -5.938  1.00  0.00     0.000 C 
BRANCH  22  23
ATOM     23  C   UNL     1      12.719 -18.644  -5.071  1.00  0.00     0.000 C 
BRANCH  23  24
ATOM     24  C   UNL     1      12.201 -18.347  -3.653  1.00  0.00    -0.000 C 
BRANCH  24  25
ATOM     25  C   UNL     1      10.670 -18.228  -3.595  1.00  0.00    -0.000 C 
BRANCH  25  26
ATOM     26  C   UNL     1       9.955 -19.294  -4.444  1.00  0.00    -0.000 C 
BRANCH  26  27
ATOM     27  C   UNL     1       8.727 -18.735  -5.180  1.00  0.00    -0.000 C 
BRANCH  27  28
ATOM     28  C   UNL     1       9.093 -17.614  -6.170  1.00  0.00    -0.000 C 
BRANCH  28  29
ATOM     29  C   UNL     1       8.417 -16.276  -5.830  1.00  0.00    -0.000 C 
BRANCH  29  30
ATOM     30  C   UNL     1       9.175 -15.067  -6.406  1.00  0.00    -0.000 C 
BRANCH  30  31
ATOM     31  C   UNL     1      10.132 -15.461  -7.541  1.00  0.00    -0.003 C 
ATOM     32  C   UNL     1      11.255 -14.444  -7.751  1.00  0.00     0.004 C 
ENDBRANCH  30  31
ENDBRANCH  29  30
ENDBRANCH  28  29
ENDBRANCH  27  28
ENDBRANCH  26  27
ENDBRANCH  25  26
ENDBRANCH  24  25
ENDBRANCH  23  24
ENDBRANCH  22  23
ENDBRANCH  21  22
ENDBRANCH  20  21
ENDBRANCH  19  20
ENDBRANCH  18  19
ENDBRANCH   1  18
TORSDOF 28
ENDMDL
