MODEL 1
REMARK VINA RESULT:    -3.081      0.000      0.000
REMARK INTER + INTRA:          -3.379
REMARK INTER:                  -3.351
REMARK INTRA:                  -0.028
REMARK UNBOUND:                -0.028
REMARK SMILES COc1ccccc1O
REMARK SMILES IDX 3 1 4 2 5 3 6 4 7 5 8 6 2 7 1 8 9 9
REMARK H PARENT 9 10
REMARK Flexibility Score: inf
ROOT
ATOM      1  C   UNL     1      20.031  -1.295  11.625  1.00  0.00     0.160 A 
ATOM      2  C   UNL     1      18.937  -0.812  12.372  1.00  0.00     0.050 A 
ATOM      3  C   UNL     1      19.103  -0.449  13.711  1.00  0.00     0.004 A 
ATOM      4  C   UNL     1      20.356  -0.562  14.318  1.00  0.00     0.004 A 
ATOM      5  C   UNL     1      21.446  -1.039  13.586  1.00  0.00     0.050 A 
ATOM      6  C   UNL     1      21.287  -1.405  12.242  1.00  0.00     0.157 A 
ENDROOT
BRANCH   1   7
ATOM      7  O   UNL     1      19.910  -1.671  10.278  1.00  0.00    -0.493 OA
ATOM      8  C   UNL     1      18.675  -1.955   9.630  1.00  0.00     0.278 C 
ENDBRANCH   1   7
BRANCH   6   9
ATOM      9  O   UNL     1      22.374  -1.881  11.511  1.00  0.00    -0.504 OA
ATOM     10  H   UNL     1      22.872  -1.290  10.855  1.00  0.00     0.293 HD
ENDBRANCH   6   9
TORSDOF 2
ENDMDL
MODEL 2
REMARK VINA RESULT:    -3.016      1.200      1.685
REMARK INTER + INTRA:          -3.308
REMARK INTER:                  -3.279
REMARK INTRA:                  -0.029
REMARK UNBOUND:                -0.028
REMARK SMILES COc1ccccc1O
REMARK SMILES IDX 3 1 4 2 5 3 6 4 7 5 8 6 2 7 1 8 9 9
REMARK H PARENT 9 10
REMARK Flexibility Score: inf
ROOT
ATOM      1  C   UNL     1      19.030  -0.969  11.893  1.00  0.00     0.160 A 
ATOM      2  C   UNL     1      18.847  -0.511  13.213  1.00  0.00     0.050 A 
ATOM      3  C   UNL     1      19.919  -0.498  14.110  1.00  0.00     0.004 A 
ATOM      4  C   UNL     1      21.179  -0.940  13.703  1.00  0.00     0.004 A 
ATOM      5  C   UNL     1      21.370  -1.395  12.396  1.00  0.00     0.050 A 
ATOM      6  C   UNL     1      20.300  -1.410  11.491  1.00  0.00     0.157 A 
ENDROOT
BRANCH   1   7
ATOM      7  O   UNL     1      17.982  -0.999  10.960  1.00  0.00    -0.493 OA
ATOM      8  C   UNL     1      16.833  -0.161  11.012  1.00  0.00     0.278 C 
ENDBRANCH   1   7
BRANCH   6   9
ATOM      9  O   UNL     1      20.490  -1.865  10.186  1.00  0.00    -0.504 OA
ATOM     10  H   UNL     1      19.733  -2.276   9.652  1.00  0.00     0.293 HD
ENDBRANCH   6   9
TORSDOF 2
ENDMDL
MODEL 3
REMARK VINA RESULT:    -3.007      2.892      4.258
REMARK INTER + INTRA:          -3.298
REMARK INTER:                  -3.271
REMARK INTRA:                  -0.027
REMARK UNBOUND:                -0.028
REMARK SMILES COc1ccccc1O
REMARK SMILES IDX 3 1 4 2 5 3 6 4 7 5 8 6 2 7 1 8 9 9
REMARK H PARENT 9 10
REMARK Flexibility Score: inf
ROOT
ATOM      1  C   UNL     1      17.413  -0.323  11.739  1.00  0.00     0.160 A 
ATOM      2  C   UNL     1      18.583  -0.523  12.499  1.00  0.00     0.050 A 
ATOM      3  C   UNL     1      19.660  -1.234  11.962  1.00  0.00     0.004 A 
ATOM      4  C   UNL     1      19.582  -1.752  10.668  1.00  0.00     0.004 A 
ATOM      5  C   UNL     1      18.427  -1.558   9.906  1.00  0.00     0.050 A 
ATOM      6  C   UNL     1      17.343  -0.845  10.438  1.00  0.00     0.157 A 
ENDROOT
BRANCH   1   7
ATOM      7  O   UNL     1      16.309   0.385  12.237  1.00  0.00    -0.493 OA
ATOM      8  C   UNL     1      16.173   0.820  13.586  1.00  0.00     0.278 C 
ENDBRANCH   1   7
BRANCH   6   9
ATOM      9  O   UNL     1      16.190  -0.652   9.679  1.00  0.00    -0.504 OA
ATOM     10  H   UNL     1      15.699  -1.430   9.253  1.00  0.00     0.293 HD
ENDBRANCH   6   9
TORSDOF 2
ENDMDL
MODEL 4
REMARK VINA RESULT:    -2.912      6.935      8.334
REMARK INTER + INTRA:          -3.195
REMARK INTER:                  -3.153
REMARK INTRA:                  -0.042
REMARK UNBOUND:                -0.028
REMARK SMILES COc1ccccc1O
REMARK SMILES IDX 3 1 4 2 5 3 6 4 7 5 8 6 2 7 1 8 9 9
REMARK H PARENT 9 10
REMARK Flexibility Score: inf
ROOT
ATOM      1  C   UNL     1      13.658   1.775  13.066  1.00  0.00     0.160 A 
ATOM      2  C   UNL     1      13.051   0.518  12.872  1.00  0.00     0.050 A 
ATOM      3  C   UNL     1      11.984   0.381  11.980  1.00  0.00     0.004 A 
ATOM      4  C   UNL     1      11.513   1.491  11.275  1.00  0.00     0.004 A 
ATOM      5  C   UNL     1      12.108   2.741  11.461  1.00  0.00     0.050 A 
ATOM      6  C   UNL     1      13.180   2.885  12.354  1.00  0.00     0.157 A 
ENDROOT
BRANCH   1   7
ATOM      7  O   UNL     1      14.732   1.958  13.951  1.00  0.00    -0.493 OA
ATOM      8  C   UNL     1      15.992   1.305  13.835  1.00  0.00     0.278 C 
ENDBRANCH   1   7
BRANCH   6   9
ATOM      9  O   UNL     1      13.775   4.132  12.540  1.00  0.00    -0.504 OA
ATOM     10  H   UNL     1      13.530   4.928  11.962  1.00  0.00     0.293 HD
ENDBRANCH   6   9
TORSDOF 2
ENDMDL
MODEL 5
REMARK VINA RESULT:    -2.909     15.785     16.554
REMARK INTER + INTRA:          -3.192
REMARK INTER:                  -3.146
REMARK INTRA:                  -0.046
REMARK UNBOUND:                -0.028
REMARK SMILES COc1ccccc1O
REMARK SMILES IDX 3 1 4 2 5 3 6 4 7 5 8 6 2 7 1 8 9 9
REMARK H PARENT 9 10
REMARK Flexibility Score: inf
ROOT
ATOM      1  C   UNL     1      28.970   5.141  -0.925  1.00  0.00     0.160 A 
ATOM      2  C   UNL     1      30.143   5.246  -0.152  1.00  0.00     0.050 A 
ATOM      3  C   UNL     1      30.133   4.884   1.198  1.00  0.00     0.004 A 
ATOM      4  C   UNL     1      28.958   4.417   1.790  1.00  0.00     0.004 A 
ATOM      5  C   UNL     1      27.790   4.309   1.032  1.00  0.00     0.050 A 
ATOM      6  C   UNL     1      27.793   4.669  -0.323  1.00  0.00     0.157 A 
ENDROOT
BRANCH   1   7
ATOM      7  O   UNL     1      28.934   5.492  -2.283  1.00  0.00    -0.493 OA
ATOM      8  C   UNL     1      28.815   6.825  -2.768  1.00  0.00     0.278 C 
ENDBRANCH   1   7
BRANCH   6   9
ATOM      9  O   UNL     1      26.627   4.562  -1.080  1.00  0.00    -0.504 OA
ATOM     10  H   UNL     1      25.735   4.895  -0.732  1.00  0.00     0.293 HD
ENDBRANCH   6   9
TORSDOF 2
ENDMDL
MODEL 6
REMARK VINA RESULT:    -2.879      1.250      3.147
REMARK INTER + INTRA:          -3.160
REMARK INTER:                  -3.133
REMARK INTRA:                  -0.027
REMARK UNBOUND:                -0.028
REMARK SMILES COc1ccccc1O
REMARK SMILES IDX 3 1 4 2 5 3 6 4 7 5 8 6 2 7 1 8 9 9
REMARK H PARENT 9 10
REMARK Flexibility Score: inf
ROOT
ATOM      1  C   UNL     1      20.590  -1.101  12.779  1.00  0.00     0.160 A 
ATOM      2  C   UNL     1      19.268  -0.707  13.064  1.00  0.00     0.050 A 
ATOM      3  C   UNL     1      18.262  -0.867  12.106  1.00  0.00     0.004 A 
ATOM      4  C   UNL     1      18.564  -1.419  10.859  1.00  0.00     0.004 A 
ATOM      5  C   UNL     1      19.872  -1.813  10.568  1.00  0.00     0.050 A 
ATOM      6  C   UNL     1      20.885  -1.656  11.524  1.00  0.00     0.157 A 
ENDROOT
BRANCH   1   7
ATOM      7  O   UNL     1      21.630  -0.959  13.711  1.00  0.00    -0.493 OA
ATOM      8  C   UNL     1      21.512  -0.273  14.952  1.00  0.00     0.278 C 
ENDBRANCH   1   7
BRANCH   6   9
ATOM      9  O   UNL     1      22.191  -2.049  11.234  1.00  0.00    -0.504 OA
ATOM     10  H   UNL     1      22.448  -3.028  11.166  1.00  0.00     0.293 HD
ENDBRANCH   6   9
TORSDOF 2
ENDMDL
MODEL 7
REMARK VINA RESULT:    -2.873      6.754      8.007
REMARK INTER + INTRA:          -3.152
REMARK INTER:                  -3.111
REMARK INTRA:                  -0.041
REMARK UNBOUND:                -0.028
REMARK SMILES COc1ccccc1O
REMARK SMILES IDX 3 1 4 2 5 3 6 4 7 5 8 6 2 7 1 8 9 9
REMARK H PARENT 9 10
REMARK Flexibility Score: inf
ROOT
ATOM      1  C   UNL     1      13.572   0.859  11.468  1.00  0.00     0.160 A 
ATOM      2  C   UNL     1      12.554   0.316  10.659  1.00  0.00     0.050 A 
ATOM      3  C   UNL     1      11.346   0.999  10.492  1.00  0.00     0.004 A 
ATOM      4  C   UNL     1      11.140   2.225  11.128  1.00  0.00     0.004 A 
ATOM      5  C   UNL     1      12.144   2.771  11.932  1.00  0.00     0.050 A 
ATOM      6  C   UNL     1      13.358   2.092  12.103  1.00  0.00     0.157 A 
ENDROOT
BRANCH   1   7
ATOM      7  O   UNL     1      14.800   0.208  11.662  1.00  0.00    -0.493 OA
ATOM      8  C   UNL     1      15.712  -0.119  10.619  1.00  0.00     0.278 C 
ENDBRANCH   1   7
BRANCH   6   9
ATOM      9  O   UNL     1      14.360   2.637  12.905  1.00  0.00    -0.504 OA
ATOM     10  H   UNL     1      15.342   2.501  12.694  1.00  0.00     0.293 HD
ENDBRANCH   6   9
TORSDOF 2
ENDMDL
MODEL 8
REMARK VINA RESULT:    -2.865      2.958      3.832
REMARK INTER + INTRA:          -3.144
REMARK INTER:                  -3.098
REMARK INTRA:                  -0.046
REMARK UNBOUND:                -0.028
REMARK SMILES COc1ccccc1O
REMARK SMILES IDX 3 1 4 2 5 3 6 4 7 5 8 6 2 7 1 8 9 9
REMARK H PARENT 9 10
REMARK Flexibility Score: inf
ROOT
ATOM      1  C   UNL     1      17.195  -0.332  10.998  1.00  0.00     0.160 A 
ATOM      2  C   UNL     1      18.051  -1.301  10.437  1.00  0.00     0.050 A 
ATOM      3  C   UNL     1      19.206  -1.699  11.117  1.00  0.00     0.004 A 
ATOM      4  C   UNL     1      19.518  -1.138  12.356  1.00  0.00     0.004 A 
ATOM      5  C   UNL     1      18.676  -0.177  12.920  1.00  0.00     0.050 A 
ATOM      6  C   UNL     1      17.515   0.227  12.244  1.00  0.00     0.157 A 
ENDROOT
BRANCH   1   7
ATOM      7  O   UNL     1      16.026   0.097  10.351  1.00  0.00    -0.493 OA
ATOM      8  C   UNL     1      14.798  -0.622  10.346  1.00  0.00     0.278 C 
ENDBRANCH   1   7
BRANCH   6   9
ATOM      9  O   UNL     1      16.674   1.186  12.807  1.00  0.00    -0.504 OA
ATOM     10  H   UNL     1      15.675   1.183  12.633  1.00  0.00     0.293 HD
ENDBRANCH   6   9
TORSDOF 2
ENDMDL
MODEL 9
REMARK VINA RESULT:    -2.844      3.685      4.946
REMARK INTER + INTRA:          -3.120
REMARK INTER:                  -3.076
REMARK INTRA:                  -0.045
REMARK UNBOUND:                -0.028
REMARK SMILES COc1ccccc1O
REMARK SMILES IDX 3 1 4 2 5 3 6 4 7 5 8 6 2 7 1 8 9 9
REMARK H PARENT 9 10
REMARK Flexibility Score: inf
ROOT
ATOM      1  C   UNL     1      17.174   0.574  13.622  1.00  0.00     0.160 A 
ATOM      2  C   UNL     1      17.890  -0.232  14.530  1.00  0.00     0.050 A 
ATOM      3  C   UNL     1      17.506  -0.295  15.872  1.00  0.00     0.004 A 
ATOM      4  C   UNL     1      16.408   0.441  16.322  1.00  0.00     0.004 A 
ATOM      5  C   UNL     1      15.691   1.242  15.429  1.00  0.00     0.050 A 
ATOM      6  C   UNL     1      16.071   1.309  14.081  1.00  0.00     0.157 A 
ENDROOT
BRANCH   1   7
ATOM      7  O   UNL     1      17.525   0.666  12.266  1.00  0.00    -0.493 OA
ATOM      8  C   UNL     1      17.160  -0.286  11.274  1.00  0.00     0.278 C 
ENDBRANCH   1   7
BRANCH   6   9
ATOM      9  O   UNL     1      15.356   2.108  13.190  1.00  0.00    -0.504 OA
ATOM     10  H   UNL     1      14.780   2.879  13.512  1.00  0.00     0.293 HD
ENDBRANCH   6   9
TORSDOF 2
ENDMDL
