MODEL 1
REMARK VINA RESULT:    -3.810      0.000      0.000
REMARK INTER + INTRA:          -4.732
REMARK INTER:                  -4.479
REMARK INTRA:                  -0.254
REMARK UNBOUND:                -0.254
REMARK SMILES [NH3+][C@@H](CO)C(=O)[O-]
REMARK SMILES IDX 3 1 2 2 1 3 5 7 6 8 7 9 4 10
REMARK H PARENT 1 4 1 5 1 6 4 11
REMARK Flexibility Score: inf
ROOT
ATOM      1  C   UNL     1      -9.557 -40.275  -8.765  1.00  0.00     0.227 C 
ENDROOT
BRANCH   1   2
ATOM      2  C   UNL     1      -8.392 -39.273  -8.807  1.00  0.00     0.253 C 
BRANCH   2   3
ATOM      3  N   UNL     1      -8.762 -38.079  -9.574  1.00  0.00    -0.348 N 
ATOM      4  H   UNL     1      -9.132 -38.344 -10.518  1.00  0.00     0.345 HD
ATOM      5  H   UNL     1      -7.926 -37.462  -9.695  1.00  0.00     0.345 HD
ATOM      6  H   UNL     1      -9.495 -37.539  -9.060  1.00  0.00     0.345 HD
ENDBRANCH   2   3
BRANCH   2   7
ATOM      7  C   UNL     1      -7.160 -39.913  -9.390  1.00  0.00     0.102 C 
ATOM      8  O   UNL     1      -6.535 -39.357 -10.332  1.00  0.00    -0.544 OA
ATOM      9  O   UNL     1      -6.712 -41.133  -8.898  1.00  0.00    -0.544 OA
ENDBRANCH   2   7
ENDBRANCH   1   2
BRANCH   1  10
ATOM     10  O   UNL     1      -9.548 -41.070  -9.920  1.00  0.00    -0.390 OA
ATOM     11  H   UNL     1     -10.247 -41.760  -9.784  1.00  0.00     0.210 HD
ENDBRANCH   1  10
TORSDOF 4
ENDMDL
MODEL 2
REMARK VINA RESULT:    -3.692      1.811      2.335
REMARK INTER + INTRA:          -4.593
REMARK INTER:                  -4.371
REMARK INTRA:                  -0.222
REMARK UNBOUND:                -0.254
REMARK SMILES [NH3+][C@@H](CO)C(=O)[O-]
REMARK SMILES IDX 3 1 2 2 1 3 5 7 6 8 7 9 4 10
REMARK H PARENT 1 4 1 5 1 6 4 11
REMARK Flexibility Score: inf
ROOT
ATOM      1  C   UNL     1      -7.440 -41.642  -8.825  1.00  0.00     0.227 C 
ENDROOT
BRANCH   1   2
ATOM      2  C   UNL     1      -8.278 -40.353  -8.862  1.00  0.00     0.253 C 
BRANCH   2   3
ATOM      3  N   UNL     1      -9.568 -40.594  -9.519  1.00  0.00    -0.348 N 
ATOM      4  H   UNL     1     -10.047 -39.689  -9.738  1.00  0.00     0.345 HD
ATOM      5  H   UNL     1     -10.182 -41.165  -8.895  1.00  0.00     0.345 HD
ATOM      6  H   UNL     1      -9.420 -41.125 -10.408  1.00  0.00     0.345 HD
ENDBRANCH   2   3
BRANCH   2   7
ATOM      7  C   UNL     1      -7.529 -39.250  -9.559  1.00  0.00     0.102 C 
ATOM      8  O   UNL     1      -7.980 -38.073  -9.563  1.00  0.00    -0.544 OA
ATOM      9  O   UNL     1      -6.338 -39.528 -10.218  1.00  0.00    -0.544 OA
ENDBRANCH   2   7
ENDBRANCH   1   2
BRANCH   1  10
ATOM     10  O   UNL     1      -6.243 -41.416  -8.129  1.00  0.00    -0.390 OA
ATOM     11  H   UNL     1      -6.503 -41.010  -7.262  1.00  0.00     0.210 HD
ENDBRANCH   1  10
TORSDOF 4
ENDMDL
MODEL 3
REMARK VINA RESULT:    -3.566      5.413      6.752
REMARK INTER + INTRA:          -4.445
REMARK INTER:                  -4.216
REMARK INTRA:                  -0.228
REMARK UNBOUND:                -0.254
REMARK SMILES [NH3+][C@@H](CO)C(=O)[O-]
REMARK SMILES IDX 3 1 2 2 1 3 5 7 6 8 7 9 4 10
REMARK H PARENT 1 4 1 5 1 6 4 11
REMARK Flexibility Score: inf
ROOT
ATOM      1  C   UNL     1     -11.873 -42.521  -9.394  1.00  0.00     0.227 C 
ENDROOT
BRANCH   1   2
ATOM      2  C   UNL     1     -13.402 -42.366  -9.343  1.00  0.00     0.253 C 
BRANCH   2   3
ATOM      3  N   UNL     1     -13.947 -42.998  -8.136  1.00  0.00    -0.348 N 
ATOM      4  H   UNL     1     -13.315 -42.838  -7.316  1.00  0.00     0.345 HD
ATOM      5  H   UNL     1     -14.052 -44.027  -8.292  1.00  0.00     0.345 HD
ATOM      6  H   UNL     1     -14.891 -42.601  -7.922  1.00  0.00     0.345 HD
ENDBRANCH   2   3
BRANCH   2   7
ATOM      7  C   UNL     1     -14.039 -42.949 -10.576  1.00  0.00     0.102 C 
ATOM      8  O   UNL     1     -14.121 -44.198 -10.724  1.00  0.00    -0.544 OA
ATOM      9  O   UNL     1     -14.528 -42.109 -11.568  1.00  0.00    -0.544 OA
ENDBRANCH   2   7
ENDBRANCH   1   2
BRANCH   1  10
ATOM     10  O   UNL     1     -11.534 -43.872  -9.556  1.00  0.00    -0.390 OA
ATOM     11  H   UNL     1     -12.179 -44.240 -10.213  1.00  0.00     0.210 HD
ENDBRANCH   1  10
TORSDOF 4
ENDMDL
MODEL 4
REMARK VINA RESULT:    -3.525      2.085      2.210
REMARK INTER + INTRA:          -4.397
REMARK INTER:                  -4.169
REMARK INTRA:                  -0.228
REMARK UNBOUND:                -0.254
REMARK SMILES [NH3+][C@@H](CO)C(=O)[O-]
REMARK SMILES IDX 3 1 2 2 1 3 5 7 6 8 7 9 4 10
REMARK H PARENT 1 4 1 5 1 6 4 11
REMARK Flexibility Score: inf
ROOT
ATOM      1  C   UNL     1      -8.612 -40.905  -8.328  1.00  0.00     0.227 C 
ENDROOT
BRANCH   1   2
ATOM      2  C   UNL     1      -7.345 -40.903  -9.199  1.00  0.00     0.253 C 
BRANCH   2   3
ATOM      3  N   UNL     1      -6.184 -41.356  -8.424  1.00  0.00    -0.348 N 
ATOM      4  H   UNL     1      -5.292 -41.038  -8.872  1.00  0.00     0.345 HD
ATOM      5  H   UNL     1      -6.184 -42.400  -8.363  1.00  0.00     0.345 HD
ATOM      6  H   UNL     1      -6.233 -40.972  -7.452  1.00  0.00     0.345 HD
ENDBRANCH   2   3
BRANCH   2   7
ATOM      7  C   UNL     1      -7.094 -39.534  -9.772  1.00  0.00     0.102 C 
ATOM      8  O   UNL     1      -6.117 -39.332 -10.542  1.00  0.00    -0.544 OA
ATOM      9  O   UNL     1      -7.934 -38.479  -9.441  1.00  0.00    -0.544 OA
ENDBRANCH   2   7
ENDBRANCH   1   2
BRANCH   1  10
ATOM     10  O   UNL     1      -9.751 -40.789  -9.138  1.00  0.00    -0.390 OA
ATOM     11  H   UNL     1     -10.352 -40.149  -8.676  1.00  0.00     0.210 HD
ENDBRANCH   1  10
TORSDOF 4
ENDMDL
MODEL 5
REMARK VINA RESULT:    -3.514      2.106      2.962
REMARK INTER + INTRA:          -4.384
REMARK INTER:                  -4.178
REMARK INTRA:                  -0.207
REMARK UNBOUND:                -0.254
REMARK SMILES [NH3+][C@@H](CO)C(=O)[O-]
REMARK SMILES IDX 3 1 2 2 1 3 5 7 6 8 7 9 4 10
REMARK H PARENT 1 4 1 5 1 6 4 11
REMARK Flexibility Score: inf
ROOT
ATOM      1  C   UNL     1      -7.554 -38.992  -9.704  1.00  0.00     0.227 C 
ENDROOT
BRANCH   1   2
ATOM      2  C   UNL     1      -7.588 -40.182  -8.731  1.00  0.00     0.253 C 
BRANCH   2   3
ATOM      3  N   UNL     1      -6.328 -40.933  -8.787  1.00  0.00    -0.348 N 
ATOM      4  H   UNL     1      -5.624 -40.432  -9.379  1.00  0.00     0.345 HD
ATOM      5  H   UNL     1      -6.501 -41.883  -9.190  1.00  0.00     0.345 HD
ATOM      6  H   UNL     1      -5.942 -41.051  -7.823  1.00  0.00     0.345 HD
ENDBRANCH   2   3
BRANCH   2   7
ATOM      7  C   UNL     1      -8.754 -41.085  -9.034  1.00  0.00     0.102 C 
ATOM      8  O   UNL     1      -8.572 -42.314  -9.249  1.00  0.00    -0.544 OA
ATOM      9  O   UNL     1     -10.040 -40.563  -9.092  1.00  0.00    -0.544 OA
ENDBRANCH   2   7
ENDBRANCH   1   2
BRANCH   1  10
ATOM     10  O   UNL     1      -8.690 -38.191  -9.520  1.00  0.00    -0.390 OA
ATOM     11  H   UNL     1      -8.847 -38.156  -8.542  1.00  0.00     0.210 HD
ENDBRANCH   1  10
TORSDOF 4
ENDMDL
MODEL 6
REMARK VINA RESULT:    -3.509      1.732      2.686
REMARK INTER + INTRA:          -4.378
REMARK INTER:                  -4.006
REMARK INTRA:                  -0.372
REMARK UNBOUND:                -0.254
REMARK SMILES [NH3+][C@@H](CO)C(=O)[O-]
REMARK SMILES IDX 3 1 2 2 1 3 5 7 6 8 7 9 4 10
REMARK H PARENT 1 4 1 5 1 6 4 11
REMARK Flexibility Score: inf
ROOT
ATOM      1  C   UNL     1      -7.079 -39.811  -9.466  1.00  0.00     0.227 C 
ENDROOT
BRANCH   1   2
ATOM      2  C   UNL     1      -8.554 -39.406  -9.305  1.00  0.00     0.253 C 
BRANCH   2   3
ATOM      3  N   UNL     1      -8.734 -37.980  -9.599  1.00  0.00    -0.348 N 
ATOM      4  H   UNL     1      -9.137 -37.479  -8.773  1.00  0.00     0.345 HD
ATOM      5  H   UNL     1      -9.377 -37.865 -10.417  1.00  0.00     0.345 HD
ATOM      6  H   UNL     1      -7.813 -37.549  -9.844  1.00  0.00     0.345 HD
ENDBRANCH   2   3
BRANCH   2   7
ATOM      7  C   UNL     1      -9.045 -39.724  -7.918  1.00  0.00     0.102 C 
ATOM      8  O   UNL     1      -8.975 -38.862  -7.001  1.00  0.00    -0.544 OA
ATOM      9  O   UNL     1      -9.568 -40.980  -7.637  1.00  0.00    -0.544 OA
ENDBRANCH   2   7
ENDBRANCH   1   2
BRANCH   1  10
ATOM     10  O   UNL     1      -6.698 -40.660  -8.418  1.00  0.00    -0.390 OA
ATOM     11  H   UNL     1      -5.966 -41.226  -8.775  1.00  0.00     0.210 HD
ENDBRANCH   1  10
TORSDOF 4
ENDMDL
MODEL 7
REMARK VINA RESULT:    -3.429      1.412      2.699
REMARK INTER + INTRA:          -4.284
REMARK INTER:                  -4.037
REMARK INTRA:                  -0.246
REMARK UNBOUND:                -0.254
REMARK SMILES [NH3+][C@@H](CO)C(=O)[O-]
REMARK SMILES IDX 3 1 2 2 1 3 5 7 6 8 7 9 4 10
REMARK H PARENT 1 4 1 5 1 6 4 11
REMARK Flexibility Score: inf
ROOT
ATOM      1  C   UNL     1      -6.997 -39.770  -9.549  1.00  0.00     0.227 C 
ENDROOT
BRANCH   1   2
ATOM      2  C   UNL     1      -8.404 -39.948  -8.955  1.00  0.00     0.253 C 
BRANCH   2   3
ATOM      3  N   UNL     1      -8.462 -39.404  -7.592  1.00  0.00    -0.348 N 
ATOM      4  H   UNL     1      -9.050 -38.538  -7.564  1.00  0.00     0.345 HD
ATOM      5  H   UNL     1      -7.497 -39.175  -7.261  1.00  0.00     0.345 HD
ATOM      6  H   UNL     1      -8.871 -40.115  -6.944  1.00  0.00     0.345 HD
ENDBRANCH   2   3
BRANCH   2   7
ATOM      7  C   UNL     1      -8.806 -41.399  -8.960  1.00  0.00     0.102 C 
ATOM      8  O   UNL     1      -9.587 -41.843  -9.844  1.00  0.00    -0.544 OA
ATOM      9  O   UNL     1      -8.326 -42.255  -7.978  1.00  0.00    -0.544 OA
ENDBRANCH   2   7
ENDBRANCH   1   2
BRANCH   1  10
ATOM     10  O   UNL     1      -6.195 -40.873  -9.221  1.00  0.00    -0.390 OA
ATOM     11  H   UNL     1      -6.190 -40.923  -8.230  1.00  0.00     0.210 HD
ENDBRANCH   1  10
TORSDOF 4
ENDMDL
MODEL 8
REMARK VINA RESULT:    -3.402      2.403      2.814
REMARK INTER + INTRA:          -4.253
REMARK INTER:                  -4.028
REMARK INTRA:                  -0.225
REMARK UNBOUND:                -0.254
REMARK SMILES [NH3+][C@@H](CO)C(=O)[O-]
REMARK SMILES IDX 3 1 2 2 1 3 5 7 6 8 7 9 4 10
REMARK H PARENT 1 4 1 5 1 6 4 11
REMARK Flexibility Score: inf
ROOT
ATOM      1  C   UNL     1      -8.374 -42.443  -8.044  1.00  0.00     0.227 C 
ENDROOT
BRANCH   1   2
ATOM      2  C   UNL     1      -7.618 -41.394  -8.875  1.00  0.00     0.253 C 
BRANCH   2   3
ATOM      3  N   UNL     1      -6.197 -41.368  -8.508  1.00  0.00    -0.348 N 
ATOM      4  H   UNL     1      -5.612 -41.042  -9.313  1.00  0.00     0.345 HD
ATOM      5  H   UNL     1      -5.888 -42.325  -8.223  1.00  0.00     0.345 HD
ATOM      6  H   UNL     1      -6.052 -40.722  -7.698  1.00  0.00     0.345 HD
ENDBRANCH   2   3
BRANCH   2   7
ATOM      7  C   UNL     1      -8.233 -40.030  -8.698  1.00  0.00     0.102 C 
ATOM      8  O   UNL     1      -9.293 -39.888  -8.033  1.00  0.00    -0.544 OA
ATOM      9  O   UNL     1      -7.638 -38.920  -9.284  1.00  0.00    -0.544 OA
ENDBRANCH   2   7
ENDBRANCH   1   2
BRANCH   1  10
ATOM     10  O   UNL     1      -9.578 -42.781  -8.679  1.00  0.00    -0.390 OA
ATOM     11  H   UNL     1      -9.560 -43.766  -8.796  1.00  0.00     0.210 HD
ENDBRANCH   1  10
TORSDOF 4
ENDMDL
MODEL 9
REMARK VINA RESULT:    -3.390      2.122      2.493
REMARK INTER + INTRA:          -4.239
REMARK INTER:                  -3.836
REMARK INTRA:                  -0.403
REMARK UNBOUND:                -0.254
REMARK SMILES [NH3+][C@@H](CO)C(=O)[O-]
REMARK SMILES IDX 3 1 2 2 1 3 5 7 6 8 7 9 4 10
REMARK H PARENT 1 4 1 5 1 6 4 11
REMARK Flexibility Score: inf
ROOT
ATOM      1  C   UNL     1      -9.680 -40.367  -7.838  1.00  0.00     0.227 C 
ENDROOT
BRANCH   1   2
ATOM      2  C   UNL     1      -8.997 -40.841  -9.131  1.00  0.00     0.253 C 
BRANCH   2   3
ATOM      3  N   UNL     1      -8.987 -42.307  -9.203  1.00  0.00    -0.348 N 
ATOM      4  H   UNL     1      -8.479 -42.715  -8.383  1.00  0.00     0.345 HD
ATOM      5  H   UNL     1      -8.516 -42.614 -10.085  1.00  0.00     0.345 HD
ATOM      6  H   UNL     1      -9.968 -42.669  -9.212  1.00  0.00     0.345 HD
ENDBRANCH   2   3
BRANCH   2   7
ATOM      7  C   UNL     1      -7.595 -40.300  -9.223  1.00  0.00     0.102 C 
ATOM      8  O   UNL     1      -6.617 -40.983  -8.817  1.00  0.00    -0.544 OA
ATOM      9  O   UNL     1      -7.374 -39.032  -9.745  1.00  0.00    -0.544 OA
ENDBRANCH   2   7
ENDBRANCH   1   2
BRANCH   1  10
ATOM     10  O   UNL     1      -8.829 -39.502  -7.135  1.00  0.00    -0.390 OA
ATOM     11  H   UNL     1      -7.922 -39.643  -7.512  1.00  0.00     0.210 HD
ENDBRANCH   1  10
TORSDOF 4
ENDMDL
