MODEL 1
REMARK VINA RESULT:    -3.746      0.000      0.000
REMARK INTER + INTRA:          -9.957
REMARK INTER:                  -7.250
REMARK INTRA:                  -2.707
REMARK UNBOUND:                -2.707
REMARK SMILES CCCCCCCCCCCCCCCCCC(=O)[O-]
REMARK SMILES IDX 10 1 11 2 12 3 13 4 14 5 15 6 16 7 17 8 18 9 19 10 20 11
REMARK SMILES IDX 9 12 8 13 7 14 6 15 5 16 4 17 3 18 2 19 1 20
REMARK H PARENT
REMARK Flexibility Score: inf
ROOT
ATOM      1  C   UNL     1      55.049 -38.768 -27.264  1.00  0.00     0.000 C 
ENDROOT
BRANCH   1   2
ATOM      2  C   UNL     1      53.637 -39.347 -27.074  1.00  0.00     0.000 C 
BRANCH   2   3
ATOM      3  C   UNL     1      53.185 -40.218 -28.258  1.00  0.00     0.000 C 
BRANCH   3   4
ATOM      4  C   UNL     1      51.825 -40.915 -28.036  1.00  0.00     0.000 C 
BRANCH   4   5
ATOM      5  C   UNL     1      51.100 -41.204 -29.362  1.00  0.00     0.000 C 
BRANCH   5   6
ATOM      6  C   UNL     1      51.733 -40.472 -30.556  1.00  0.00     0.000 C 
BRANCH   6   7
ATOM      7  C   UNL     1      52.409 -41.434 -31.547  1.00  0.00     0.006 C 
BRANCH   7   8
ATOM      8  C   UNL     1      53.611 -40.789 -32.251  1.00  0.00     0.053 C 
BRANCH   8   9
ATOM      9  C   UNL     1      54.912 -41.255 -31.670  1.00  0.00     0.041 C 
ATOM     10  O   UNL     1      55.960 -40.580 -31.844  1.00  0.00    -0.550 OA
ATOM     11  O   UNL     1      54.962 -42.431 -30.931  1.00  0.00    -0.550 OA
ENDBRANCH   8   9
ENDBRANCH   7   8
ENDBRANCH   6   7
ENDBRANCH   5   6
ENDBRANCH   4   5
ENDBRANCH   3   4
ENDBRANCH   2   3
ENDBRANCH   1   2
BRANCH   1  12
ATOM     12  C   UNL     1      55.834 -39.453 -28.399  1.00  0.00     0.000 C 
BRANCH  12  13
ATOM     13  C   UNL     1      57.058 -40.276 -27.954  1.00  0.00    -0.000 C 
BRANCH  13  14
ATOM     14  C   UNL     1      57.119 -41.665 -28.610  1.00  0.00    -0.000 C 
BRANCH  14  15
ATOM     15  C   UNL     1      56.760 -42.795 -27.630  1.00  0.00    -0.000 C 
BRANCH  15  16
ATOM     16  C   UNL     1      55.242 -42.942 -27.427  1.00  0.00    -0.000 C 
BRANCH  16  17
ATOM     17  C   UNL     1      54.805 -42.654 -25.979  1.00  0.00    -0.000 C 
BRANCH  17  18
ATOM     18  C   UNL     1      55.919 -42.116 -25.061  1.00  0.00    -0.000 C 
BRANCH  18  19
ATOM     19  C   UNL     1      55.485 -40.880 -24.258  1.00  0.00    -0.003 C 
ATOM     20  C   UNL     1      56.668 -39.950 -24.002  1.00  0.00     0.004 C 
ENDBRANCH  18  19
ENDBRANCH  17  18
ENDBRANCH  16  17
ENDBRANCH  15  16
ENDBRANCH  14  15
ENDBRANCH  13  14
ENDBRANCH  12  13
ENDBRANCH   1  12
TORSDOF 16
ENDMDL
MODEL 2
REMARK VINA RESULT:    -3.540      2.752      6.049
REMARK INTER + INTRA:          -9.558
REMARK INTER:                  -6.503
REMARK INTRA:                  -3.055
REMARK UNBOUND:                -2.707
REMARK SMILES CCCCCCCCCCCCCCCCCC(=O)[O-]
REMARK SMILES IDX 10 1 11 2 12 3 13 4 14 5 15 6 16 7 17 8 18 9 19 10 20 11
REMARK SMILES IDX 9 12 8 13 7 14 6 15 5 16 4 17 3 18 2 19 1 20
REMARK H PARENT
REMARK Flexibility Score: inf
ROOT
ATOM      1  C   UNL     1      57.678 -40.308 -28.148  1.00  0.00     0.000 C 
ENDROOT
BRANCH   1   2
ATOM      2  C   UNL     1      57.162 -41.475 -29.005  1.00  0.00     0.000 C 
BRANCH   2   3
ATOM      3  C   UNL     1      56.978 -42.772 -28.200  1.00  0.00     0.000 C 
BRANCH   3   4
ATOM      4  C   UNL     1      55.537 -43.327 -28.230  1.00  0.00     0.000 C 
BRANCH   4   5
ATOM      5  C   UNL     1      54.906 -43.376 -26.828  1.00  0.00     0.000 C 
BRANCH   5   6
ATOM      6  C   UNL     1      55.877 -42.925 -25.725  1.00  0.00     0.000 C 
BRANCH   6   7
ATOM      7  C   UNL     1      55.388 -41.669 -24.984  1.00  0.00     0.006 C 
BRANCH   7   8
ATOM      8  C   UNL     1      56.541 -40.899 -24.326  1.00  0.00     0.053 C 
BRANCH   8   9
ATOM      9  C   UNL     1      56.076 -39.606 -23.727  1.00  0.00     0.041 C 
ATOM     10  O   UNL     1      56.543 -38.513 -24.139  1.00  0.00    -0.550 OA
ATOM     11  O   UNL     1      55.120 -39.611 -22.717  1.00  0.00    -0.550 OA
ENDBRANCH   8   9
ENDBRANCH   7   8
ENDBRANCH   6   7
ENDBRANCH   5   6
ENDBRANCH   4   5
ENDBRANCH   3   4
ENDBRANCH   2   3
ENDBRANCH   1   2
BRANCH   1  12
ATOM     12  C   UNL     1      56.566 -39.327 -27.733  1.00  0.00     0.000 C 
BRANCH  12  13
ATOM     13  C   UNL     1      55.186 -39.584 -28.367  1.00  0.00    -0.000 C 
BRANCH  13  14
ATOM     14  C   UNL     1      54.020 -39.313 -27.401  1.00  0.00    -0.000 C 
BRANCH  14  15
ATOM     15  C   UNL     1      52.908 -40.370 -27.509  1.00  0.00    -0.000 C 
BRANCH  15  16
ATOM     16  C   UNL     1      52.251 -40.399 -28.901  1.00  0.00    -0.000 C 
BRANCH  16  17
ATOM     17  C   UNL     1      52.460 -41.738 -29.630  1.00  0.00    -0.000 C 
BRANCH  17  18
ATOM     18  C   UNL     1      52.207 -41.696 -31.149  1.00  0.00    -0.000 C 
BRANCH  18  19
ATOM     19  C   UNL     1      53.246 -40.853 -31.904  1.00  0.00    -0.003 C 
ATOM     20  C   UNL     1      54.661 -41.354 -31.631  1.00  0.00     0.004 C 
ENDBRANCH  18  19
ENDBRANCH  17  18
ENDBRANCH  16  17
ENDBRANCH  15  16
ENDBRANCH  14  15
ENDBRANCH  13  14
ENDBRANCH  12  13
ENDBRANCH   1  12
TORSDOF 16
ENDMDL
MODEL 3
REMARK VINA RESULT:    -3.535      2.048      3.690
REMARK INTER + INTRA:          -9.549
REMARK INTER:                  -6.768
REMARK INTRA:                  -2.781
REMARK UNBOUND:                -2.707
REMARK SMILES CCCCCCCCCCCCCCCCCC(=O)[O-]
REMARK SMILES IDX 10 1 11 2 12 3 13 4 14 5 15 6 16 7 17 8 18 9 19 10 20 11
REMARK SMILES IDX 9 12 8 13 7 14 6 15 5 16 4 17 3 18 2 19 1 20
REMARK H PARENT
REMARK Flexibility Score: inf
ROOT
ATOM      1  C   UNL     1      54.311 -40.158 -27.325  1.00  0.00     0.000 C 
ENDROOT
BRANCH   1   2
ATOM      2  C   UNL     1      54.681 -41.604 -26.956  1.00  0.00     0.000 C 
BRANCH   2   3
ATOM      3  C   UNL     1      56.198 -41.855 -26.974  1.00  0.00     0.000 C 
BRANCH   3   4
ATOM      4  C   UNL     1      56.621 -43.061 -27.840  1.00  0.00     0.000 C 
BRANCH   4   5
ATOM      5  C   UNL     1      55.882 -43.093 -29.189  1.00  0.00     0.000 C 
BRANCH   5   6
ATOM      6  C   UNL     1      56.385 -42.018 -30.166  1.00  0.00     0.000 C 
BRANCH   6   7
ATOM      7  C   UNL     1      55.236 -41.240 -30.829  1.00  0.00     0.006 C 
BRANCH   7   8
ATOM      8  C   UNL     1      55.691 -40.505 -32.097  1.00  0.00     0.053 C 
BRANCH   8   9
ATOM      9  C   UNL     1      54.595 -40.421 -33.116  1.00  0.00     0.041 C 
ATOM     10  O   UNL     1      53.419 -40.751 -32.810  1.00  0.00    -0.550 OA
ATOM     11  O   UNL     1      54.872 -39.973 -34.403  1.00  0.00    -0.550 OA
ENDBRANCH   8   9
ENDBRANCH   7   8
ENDBRANCH   6   7
ENDBRANCH   5   6
ENDBRANCH   4   5
ENDBRANCH   3   4
ENDBRANCH   2   3
ENDBRANCH   1   2
BRANCH   1  12
ATOM     12  C   UNL     1      55.542 -39.262 -27.559  1.00  0.00     0.000 C 
BRANCH  12  13
ATOM     13  C   UNL     1      55.424 -37.822 -27.025  1.00  0.00    -0.000 C 
BRANCH  13  14
ATOM     14  C   UNL     1      56.535 -37.458 -26.025  1.00  0.00    -0.000 C 
BRANCH  14  15
ATOM     15  C   UNL     1      57.510 -38.622 -25.779  1.00  0.00    -0.000 C 
BRANCH  15  16
ATOM     16  C   UNL     1      57.751 -38.886 -24.282  1.00  0.00    -0.000 C 
BRANCH  16  17
ATOM     17  C   UNL     1      56.442 -38.991 -23.478  1.00  0.00    -0.000 C 
BRANCH  17  18
ATOM     18  C   UNL     1      55.654 -40.296 -23.691  1.00  0.00    -0.000 C 
BRANCH  18  19
ATOM     19  C   UNL     1      54.163 -40.156 -23.348  1.00  0.00    -0.003 C 
ATOM     20  C   UNL     1      53.584 -38.872 -23.934  1.00  0.00     0.004 C 
ENDBRANCH  18  19
ENDBRANCH  17  18
ENDBRANCH  16  17
ENDBRANCH  15  16
ENDBRANCH  14  15
ENDBRANCH  13  14
ENDBRANCH  12  13
ENDBRANCH   1  12
TORSDOF 16
ENDMDL
MODEL 4
REMARK VINA RESULT:    -3.513      2.930      5.750
REMARK INTER + INTRA:          -9.505
REMARK INTER:                  -6.663
REMARK INTRA:                  -2.843
REMARK UNBOUND:                -2.707
REMARK SMILES CCCCCCCCCCCCCCCCCC(=O)[O-]
REMARK SMILES IDX 10 1 11 2 12 3 13 4 14 5 15 6 16 7 17 8 18 9 19 10 20 11
REMARK SMILES IDX 9 12 8 13 7 14 6 15 5 16 4 17 3 18 2 19 1 20
REMARK H PARENT
REMARK Flexibility Score: inf
ROOT
ATOM      1  C   UNL     1      51.253 -41.131 -27.919  1.00  0.00     0.000 C 
ENDROOT
BRANCH   1   2
ATOM      2  C   UNL     1      51.792 -42.290 -27.064  1.00  0.00     0.000 C 
BRANCH   2   3
ATOM      3  C   UNL     1      52.686 -43.254 -27.861  1.00  0.00     0.000 C 
BRANCH   3   4
ATOM      4  C   UNL     1      53.997 -43.631 -27.139  1.00  0.00     0.000 C 
BRANCH   4   5
ATOM      5  C   UNL     1      54.402 -42.583 -26.088  1.00  0.00     0.000 C 
BRANCH   5   6
ATOM      6  C   UNL     1      55.808 -42.829 -25.517  1.00  0.00     0.000 C 
BRANCH   6   7
ATOM      7  C   UNL     1      56.277 -41.692 -24.593  1.00  0.00     0.006 C 
BRANCH   7   8
ATOM      8  C   UNL     1      55.120 -40.775 -24.172  1.00  0.00     0.053 C 
BRANCH   8   9
ATOM      9  C   UNL     1      55.609 -39.571 -23.425  1.00  0.00     0.041 C 
ATOM     10  O   UNL     1      55.084 -39.252 -22.326  1.00  0.00    -0.550 OA
ATOM     11  O   UNL     1      56.649 -38.806 -23.940  1.00  0.00    -0.550 OA
ENDBRANCH   8   9
ENDBRANCH   7   8
ENDBRANCH   6   7
ENDBRANCH   5   6
ENDBRANCH   4   5
ENDBRANCH   3   4
ENDBRANCH   2   3
ENDBRANCH   1   2
BRANCH   1  12
ATOM     12  C   UNL     1      52.279 -40.607 -28.940  1.00  0.00     0.000 C 
BRANCH  12  13
ATOM     13  C   UNL     1      51.802 -40.577 -30.404  1.00  0.00    -0.000 C 
BRANCH  13  14
ATOM     14  C   UNL     1      52.941 -40.797 -31.413  1.00  0.00    -0.000 C 
BRANCH  14  15
ATOM     15  C   UNL     1      53.944 -41.863 -30.944  1.00  0.00    -0.000 C 
BRANCH  15  16
ATOM     16  C   UNL     1      55.383 -41.324 -30.854  1.00  0.00    -0.000 C 
BRANCH  16  17
ATOM     17  C   UNL     1      56.166 -41.913 -29.667  1.00  0.00    -0.000 C 
BRANCH  17  18
ATOM     18  C   UNL     1      56.546 -40.898 -28.573  1.00  0.00    -0.000 C 
BRANCH  18  19
ATOM     19  C   UNL     1      55.844 -39.543 -28.747  1.00  0.00    -0.003 C 
ATOM     20  C   UNL     1      55.259 -39.055 -27.425  1.00  0.00     0.004 C 
ENDBRANCH  18  19
ENDBRANCH  17  18
ENDBRANCH  16  17
ENDBRANCH  15  16
ENDBRANCH  14  15
ENDBRANCH  13  14
ENDBRANCH  12  13
ENDBRANCH   1  12
TORSDOF 16
ENDMDL
MODEL 5
REMARK VINA RESULT:    -3.512      1.815      5.299
REMARK INTER + INTRA:          -9.504
REMARK INTER:                  -6.598
REMARK INTRA:                  -2.906
REMARK UNBOUND:                -2.707
REMARK SMILES CCCCCCCCCCCCCCCCCC(=O)[O-]
REMARK SMILES IDX 10 1 11 2 12 3 13 4 14 5 15 6 16 7 17 8 18 9 19 10 20 11
REMARK SMILES IDX 9 12 8 13 7 14 6 15 5 16 4 17 3 18 2 19 1 20
REMARK H PARENT
REMARK Flexibility Score: inf
ROOT
ATOM      1  C   UNL     1      53.288 -40.387 -26.427  1.00  0.00     0.000 C 
ENDROOT
BRANCH   1   2
ATOM      2  C   UNL     1      53.482 -41.305 -25.210  1.00  0.00     0.000 C 
BRANCH   2   3
ATOM      3  C   UNL     1      54.872 -41.160 -24.568  1.00  0.00     0.000 C 
BRANCH   3   4
ATOM      4  C   UNL     1      56.030 -41.632 -25.473  1.00  0.00     0.000 C 
BRANCH   4   5
ATOM      5  C   UNL     1      55.845 -43.086 -25.940  1.00  0.00     0.000 C 
BRANCH   5   6
ATOM      6  C   UNL     1      56.253 -43.293 -27.408  1.00  0.00     0.000 C 
BRANCH   6   7
ATOM      7  C   UNL     1      56.930 -42.051 -28.013  1.00  0.00     0.006 C 
BRANCH   7   8
ATOM      8  C   UNL     1      56.374 -41.709 -29.402  1.00  0.00     0.053 C 
BRANCH   8   9
ATOM      9  C   UNL     1      56.217 -40.230 -29.590  1.00  0.00     0.041 C 
ATOM     10  O   UNL     1      55.951 -39.491 -28.606  1.00  0.00    -0.550 OA
ATOM     11  O   UNL     1      56.374 -39.668 -30.852  1.00  0.00    -0.550 OA
ENDBRANCH   8   9
ENDBRANCH   7   8
ENDBRANCH   6   7
ENDBRANCH   5   6
ENDBRANCH   4   5
ENDBRANCH   3   4
ENDBRANCH   2   3
ENDBRANCH   1   2
BRANCH   1  12
ATOM     12  C   UNL     1      52.877 -41.152 -27.700  1.00  0.00     0.000 C 
BRANCH  12  13
ATOM     13  C   UNL     1      52.484 -42.626 -27.489  1.00  0.00    -0.000 C 
BRANCH  13  14
ATOM     14  C   UNL     1      52.656 -43.482 -28.755  1.00  0.00    -0.000 C 
BRANCH  14  15
ATOM     15  C   UNL     1      52.951 -42.634 -30.003  1.00  0.00    -0.000 C 
BRANCH  15  16
ATOM     16  C   UNL     1      51.672 -42.209 -30.746  1.00  0.00    -0.000 C 
BRANCH  16  17
ATOM     17  C   UNL     1      50.542 -43.247 -30.628  1.00  0.00    -0.000 C 
BRANCH  17  18
ATOM     18  C   UNL     1      49.329 -42.792 -29.795  1.00  0.00    -0.000 C 
BRANCH  18  19
ATOM     19  C   UNL     1      49.403 -41.312 -29.392  1.00  0.00    -0.003 C 
ATOM     20  C   UNL     1      49.044 -41.125 -27.920  1.00  0.00     0.004 C 
ENDBRANCH  18  19
ENDBRANCH  17  18
ENDBRANCH  16  17
ENDBRANCH  15  16
ENDBRANCH  14  15
ENDBRANCH  13  14
ENDBRANCH  12  13
ENDBRANCH   1  12
TORSDOF 16
ENDMDL
MODEL 6
REMARK VINA RESULT:    -3.496      3.192      5.927
REMARK INTER + INTRA:          -9.474
REMARK INTER:                  -7.114
REMARK INTRA:                  -2.359
REMARK UNBOUND:                -2.707
REMARK SMILES CCCCCCCCCCCCCCCCCC(=O)[O-]
REMARK SMILES IDX 10 1 11 2 12 3 13 4 14 5 15 6 16 7 17 8 18 9 19 10 20 11
REMARK SMILES IDX 9 12 8 13 7 14 6 15 5 16 4 17 3 18 2 19 1 20
REMARK H PARENT
REMARK Flexibility Score: inf
ROOT
ATOM      1  C   UNL     1      55.495 -40.871 -30.573  1.00  0.00     0.000 C 
ENDROOT
BRANCH   1   2
ATOM      2  C   UNL     1      56.491 -41.991 -30.231  1.00  0.00     0.000 C 
BRANCH   2   3
ATOM      3  C   UNL     1      55.812 -43.228 -29.620  1.00  0.00     0.000 C 
BRANCH   3   4
ATOM      4  C   UNL     1      56.327 -43.591 -28.210  1.00  0.00     0.000 C 
BRANCH   4   5
ATOM      5  C   UNL     1      56.080 -42.462 -27.195  1.00  0.00     0.000 C 
BRANCH   5   6
ATOM      6  C   UNL     1      55.817 -42.990 -25.775  1.00  0.00     0.000 C 
BRANCH   6   7
ATOM      7  C   UNL     1      56.216 -41.979 -24.686  1.00  0.00     0.006 C 
BRANCH   7   8
ATOM      8  C   UNL     1      55.184 -40.852 -24.537  1.00  0.00     0.053 C 
BRANCH   8   9
ATOM      9  C   UNL     1      55.624 -39.824 -23.539  1.00  0.00     0.041 C 
ATOM     10  O   UNL     1      56.717 -39.218 -23.695  1.00  0.00    -0.550 OA
ATOM     11  O   UNL     1      54.823 -39.530 -22.442  1.00  0.00    -0.550 OA
ENDBRANCH   8   9
ENDBRANCH   7   8
ENDBRANCH   6   7
ENDBRANCH   5   6
ENDBRANCH   4   5
ENDBRANCH   3   4
ENDBRANCH   2   3
ENDBRANCH   1   2
BRANCH   1  12
ATOM     12  C   UNL     1      54.627 -41.191 -31.805  1.00  0.00     0.000 C 
BRANCH  12  13
ATOM     13  C   UNL     1      53.117 -40.946 -31.632  1.00  0.00    -0.000 C 
BRANCH  13  14
ATOM     14  C   UNL     1      52.470 -41.877 -30.593  1.00  0.00    -0.000 C 
BRANCH  14  15
ATOM     15  C   UNL     1      51.949 -41.114 -29.364  1.00  0.00    -0.000 C 
BRANCH  15  16
ATOM     16  C   UNL     1      52.511 -41.667 -28.041  1.00  0.00    -0.000 C 
BRANCH  16  17
ATOM     17  C   UNL     1      52.518 -43.206 -27.995  1.00  0.00    -0.000 C 
BRANCH  17  18
ATOM     18  C   UNL     1      52.139 -43.815 -26.633  1.00  0.00    -0.000 C 
BRANCH  18  19
ATOM     19  C   UNL     1      52.094 -42.774 -25.505  1.00  0.00    -0.003 C 
ATOM     20  C   UNL     1      50.992 -43.099 -24.501  1.00  0.00     0.004 C 
ENDBRANCH  18  19
ENDBRANCH  17  18
ENDBRANCH  16  17
ENDBRANCH  15  16
ENDBRANCH  14  15
ENDBRANCH  13  14
ENDBRANCH  12  13
ENDBRANCH   1  12
TORSDOF 16
ENDMDL
MODEL 7
REMARK VINA RESULT:    -3.495      2.524      4.619
REMARK INTER + INTRA:          -9.472
REMARK INTER:                  -6.515
REMARK INTRA:                  -2.957
REMARK UNBOUND:                -2.707
REMARK SMILES CCCCCCCCCCCCCCCCCC(=O)[O-]
REMARK SMILES IDX 10 1 11 2 12 3 13 4 14 5 15 6 16 7 17 8 18 9 19 10 20 11
REMARK SMILES IDX 9 12 8 13 7 14 6 15 5 16 4 17 3 18 2 19 1 20
REMARK H PARENT
REMARK Flexibility Score: inf
ROOT
ATOM      1  C   UNL     1      55.490 -39.082 -22.953  1.00  0.00     0.000 C 
ENDROOT
BRANCH   1   2
ATOM      2  C   UNL     1      55.438 -40.490 -23.569  1.00  0.00     0.000 C 
BRANCH   2   3
ATOM      3  C   UNL     1      54.155 -40.739 -24.380  1.00  0.00     0.000 C 
BRANCH   3   4
ATOM      4  C   UNL     1      54.289 -41.862 -25.431  1.00  0.00     0.000 C 
BRANCH   4   5
ATOM      5  C   UNL     1      55.752 -42.291 -25.638  1.00  0.00     0.000 C 
BRANCH   5   6
ATOM      6  C   UNL     1      55.882 -43.750 -26.103  1.00  0.00     0.000 C 
BRANCH   6   7
ATOM      7  C   UNL     1      56.502 -43.869 -27.505  1.00  0.00     0.006 C 
BRANCH   7   8
ATOM      8  C   UNL     1      56.692 -42.499 -28.172  1.00  0.00     0.053 C 
BRANCH   8   9
ATOM      9  C   UNL     1      55.774 -42.319 -29.343  1.00  0.00     0.041 C 
ATOM     10  O   UNL     1      55.225 -41.206 -29.552  1.00  0.00    -0.550 OA
ATOM     11  O   UNL     1      55.532 -43.380 -30.208  1.00  0.00    -0.550 OA
ENDBRANCH   8   9
ENDBRANCH   7   8
ENDBRANCH   6   7
ENDBRANCH   5   6
ENDBRANCH   4   5
ENDBRANCH   3   4
ENDBRANCH   2   3
ENDBRANCH   1   2
BRANCH   1  12
ATOM     12  C   UNL     1      56.624 -38.213 -23.531  1.00  0.00     0.000 C 
BRANCH  12  13
ATOM     13  C   UNL     1      57.740 -38.982 -24.263  1.00  0.00    -0.000 C 
BRANCH  13  14
ATOM     14  C   UNL     1      58.053 -38.407 -25.655  1.00  0.00    -0.000 C 
BRANCH  14  15
ATOM     15  C   UNL     1      57.360 -39.189 -26.783  1.00  0.00    -0.000 C 
BRANCH  15  16
ATOM     16  C   UNL     1      56.357 -38.328 -27.571  1.00  0.00    -0.000 C 
BRANCH  16  17
ATOM     17  C   UNL     1      54.893 -38.630 -27.201  1.00  0.00    -0.000 C 
BRANCH  17  18
ATOM     18  C   UNL     1      54.242 -37.611 -26.247  1.00  0.00    -0.000 C 
BRANCH  18  19
ATOM     19  C   UNL     1      55.034 -36.299 -26.145  1.00  0.00    -0.003 C 
ATOM     20  C   UNL     1      54.380 -35.339 -25.154  1.00  0.00     0.004 C 
ENDBRANCH  18  19
ENDBRANCH  17  18
ENDBRANCH  16  17
ENDBRANCH  15  16
ENDBRANCH  14  15
ENDBRANCH  13  14
ENDBRANCH  12  13
ENDBRANCH   1  12
TORSDOF 16
ENDMDL
MODEL 8
REMARK VINA RESULT:    -3.475      3.230      6.568
REMARK INTER + INTRA:          -9.433
REMARK INTER:                  -6.552
REMARK INTRA:                  -2.880
REMARK UNBOUND:                -2.707
REMARK SMILES CCCCCCCCCCCCCCCCCC(=O)[O-]
REMARK SMILES IDX 10 1 11 2 12 3 13 4 14 5 15 6 16 7 17 8 18 9 19 10 20 11
REMARK SMILES IDX 9 12 8 13 7 14 6 15 5 16 4 17 3 18 2 19 1 20
REMARK H PARENT
REMARK Flexibility Score: inf
ROOT
ATOM      1  C   UNL     1      50.815 -42.114 -26.241  1.00  0.00     0.000 C 
ENDROOT
BRANCH   1   2
ATOM      2  C   UNL     1      51.746 -43.175 -25.633  1.00  0.00     0.000 C 
BRANCH   2   3
ATOM      3  C   UNL     1      52.367 -44.102 -26.691  1.00  0.00     0.000 C 
BRANCH   3   4
ATOM      4  C   UNL     1      53.909 -44.037 -26.750  1.00  0.00     0.000 C 
BRANCH   4   5
ATOM      5  C   UNL     1      54.467 -42.819 -25.996  1.00  0.00     0.000 C 
BRANCH   5   6
ATOM      6  C   UNL     1      55.841 -42.373 -26.524  1.00  0.00     0.000 C 
BRANCH   6   7
ATOM      7  C   UNL     1      56.097 -40.872 -26.308  1.00  0.00     0.006 C 
BRANCH   7   8
ATOM      8  C   UNL     1      55.080 -40.244 -25.345  1.00  0.00     0.053 C 
BRANCH   8   9
ATOM      9  C   UNL     1      55.683 -39.973 -23.999  1.00  0.00     0.041 C 
ATOM     10  O   UNL     1      54.963 -39.997 -22.967  1.00  0.00    -0.550 OA
ATOM     11  O   UNL     1      57.042 -39.701 -23.887  1.00  0.00    -0.550 OA
ENDBRANCH   8   9
ENDBRANCH   7   8
ENDBRANCH   6   7
ENDBRANCH   5   6
ENDBRANCH   4   5
ENDBRANCH   3   4
ENDBRANCH   2   3
ENDBRANCH   1   2
BRANCH   1  12
ATOM     12  C   UNL     1      49.330 -42.519 -26.196  1.00  0.00     0.000 C 
BRANCH  12  13
ATOM     13  C   UNL     1      48.581 -42.439 -27.540  1.00  0.00    -0.000 C 
BRANCH  13  14
ATOM     14  C   UNL     1      48.924 -41.175 -28.346  1.00  0.00    -0.000 C 
BRANCH  14  15
ATOM     15  C   UNL     1      49.527 -41.502 -29.722  1.00  0.00    -0.000 C 
BRANCH  15  16
ATOM     16  C   UNL     1      50.132 -42.916 -29.784  1.00  0.00    -0.000 C 
BRANCH  16  17
ATOM     17  C   UNL     1      51.609 -42.914 -30.218  1.00  0.00    -0.000 C 
BRANCH  17  18
ATOM     18  C   UNL     1      52.266 -41.522 -30.269  1.00  0.00    -0.000 C 
BRANCH  18  19
ATOM     19  C   UNL     1      53.205 -41.262 -29.081  1.00  0.00    -0.003 C 
ATOM     20  C   UNL     1      52.848 -39.956 -28.377  1.00  0.00     0.004 C 
ENDBRANCH  18  19
ENDBRANCH  17  18
ENDBRANCH  16  17
ENDBRANCH  15  16
ENDBRANCH  14  15
ENDBRANCH  13  14
ENDBRANCH  12  13
ENDBRANCH   1  12
TORSDOF 16
ENDMDL
MODEL 9
REMARK VINA RESULT:    -3.412      2.843      5.069
REMARK INTER + INTRA:          -9.310
REMARK INTER:                  -6.753
REMARK INTRA:                  -2.556
REMARK UNBOUND:                -2.707
REMARK SMILES CCCCCCCCCCCCCCCCCC(=O)[O-]
REMARK SMILES IDX 10 1 11 2 12 3 13 4 14 5 15 6 16 7 17 8 18 9 19 10 20 11
REMARK SMILES IDX 9 12 8 13 7 14 6 15 5 16 4 17 3 18 2 19 1 20
REMARK H PARENT
REMARK Flexibility Score: inf
ROOT
ATOM      1  C   UNL     1      49.609 -41.560 -28.607  1.00  0.00     0.000 C 
ENDROOT
BRANCH   1   2
ATOM      2  C   UNL     1      49.341 -42.103 -30.020  1.00  0.00     0.000 C 
BRANCH   2   3
ATOM      3  C   UNL     1      49.948 -43.497 -30.249  1.00  0.00     0.000 C 
BRANCH   3   4
ATOM      4  C   UNL     1      51.087 -43.851 -29.269  1.00  0.00     0.000 C 
BRANCH   4   5
ATOM      5  C   UNL     1      52.476 -43.647 -29.896  1.00  0.00     0.000 C 
BRANCH   5   6
ATOM      6  C   UNL     1      53.295 -42.559 -29.182  1.00  0.00     0.000 C 
BRANCH   6   7
ATOM      7  C   UNL     1      53.090 -41.165 -29.800  1.00  0.00     0.006 C 
BRANCH   7   8
ATOM      8  C   UNL     1      52.849 -41.233 -31.314  1.00  0.00     0.053 C 
BRANCH   8   9
ATOM      9  C   UNL     1      54.084 -40.890 -32.090  1.00  0.00     0.041 C 
ATOM     10  O   UNL     1      53.991 -40.439 -33.262  1.00  0.00    -0.550 OA
ATOM     11  O   UNL     1      55.338 -41.062 -31.515  1.00  0.00    -0.550 OA
ENDBRANCH   8   9
ENDBRANCH   7   8
ENDBRANCH   6   7
ENDBRANCH   5   6
ENDBRANCH   4   5
ENDBRANCH   3   4
ENDBRANCH   2   3
ENDBRANCH   1   2
BRANCH   1  12
ATOM     12  C   UNL     1      48.367 -40.915 -27.963  1.00  0.00     0.000 C 
BRANCH  12  13
ATOM     13  C   UNL     1      47.854 -41.600 -26.682  1.00  0.00    -0.000 C 
BRANCH  13  14
ATOM     14  C   UNL     1      48.264 -43.079 -26.584  1.00  0.00    -0.000 C 
BRANCH  14  15
ATOM     15  C   UNL     1      49.144 -43.365 -25.356  1.00  0.00    -0.000 C 
BRANCH  15  16
ATOM     16  C   UNL     1      50.433 -44.125 -25.715  1.00  0.00    -0.000 C 
BRANCH  16  17
ATOM     17  C   UNL     1      51.704 -43.295 -25.457  1.00  0.00    -0.000 C 
BRANCH  17  18
ATOM     18  C   UNL     1      51.457 -41.909 -24.833  1.00  0.00    -0.000 C 
BRANCH  18  19
ATOM     19  C   UNL     1      52.747 -41.092 -24.663  1.00  0.00    -0.003 C 
ATOM     20  C   UNL     1      53.857 -41.627 -25.564  1.00  0.00     0.004 C 
ENDBRANCH  18  19
ENDBRANCH  17  18
ENDBRANCH  16  17
ENDBRANCH  15  16
ENDBRANCH  14  15
ENDBRANCH  13  14
ENDBRANCH  12  13
ENDBRANCH   1  12
TORSDOF 16
ENDMDL
