MODEL 1
REMARK VINA RESULT:    -5.725      0.000      0.000
REMARK INTER + INTRA:          -6.889
REMARK INTER:                  -8.068
REMARK INTRA:                   1.179
REMARK UNBOUND:                 1.179
REMARK SMILES CC1=CCC(=C(C)C)C(=O)CC(C)=CCC1
REMARK SMILES IDX 12 1 14 2 13 3 15 4 16 5 2 6 1 7 3 8 11 10 9 11 10 12 5 13
REMARK SMILES IDX 6 14 7 15 8 16 4 17
REMARK H PARENT
REMARK Flexibility Score: 60.00
ROOT
ATOM      1  C   UNL     1      41.162 -12.908   8.927  1.00  0.00    -0.070 C 
ATOM      2  C   UNL     1      40.463 -11.834   8.489  1.00  0.00    -0.027 C 
ATOM      3  C   UNL     1      40.435 -13.936   9.755  1.00  0.00     0.039 C 
ENDROOT
BRANCH   2   4
ATOM      4  C   UNL     1      41.042 -10.681   7.702  1.00  0.00     0.032 C 
BRANCH   4   5
ATOM      5  C   UNL     1      41.809  -9.706   8.609  1.00  0.00     0.034 C 
BRANCH   5   6
ATOM      6  C   UNL     1      41.403  -9.790  10.073  1.00  0.00    -0.077 C 
ATOM      7  C   UNL     1      40.074  -9.214  10.493  1.00  0.00     0.039 C 
ATOM      8  C   UNL     1      42.183 -10.341  11.031  1.00  0.00    -0.023 CG0
ATOM      9  G   UNL     1      43.509 -11.027  10.795  1.00  0.00     0.000 G0
ENDBRANCH   5   6
ENDBRANCH   4   5
ENDBRANCH   2   4
BRANCH   1  10
ATOM     10  C   UNL     1      42.631 -13.119   8.619  1.00  0.00     0.111 C 
BRANCH  10  11
ATOM     11  C   UNL     1      43.400 -13.468   9.863  1.00  0.00     0.163 C 
ATOM     12  O   UNL     1      44.011 -14.569   9.923  1.00  0.00    -0.294 OA
BRANCH  11  13
ATOM     13  C   UNL     1      43.434 -12.552  11.032  1.00  0.00    -0.002 C 
ATOM     14  C   UNL     1      43.401 -13.053  12.297  1.00  0.00    -0.069 C 
ATOM     15  C   UNL     1      43.234 -14.536  12.548  1.00  0.00     0.039 C 
ATOM     16  C   UNL     1      43.487 -12.141  13.499  1.00  0.00     0.039 C 
BRANCH  13  17
ATOM     17  C   UNL     1      43.505 -11.048  10.795  1.00  0.00     0.066 CG0
ATOM     18  G   UNL     1      42.194 -10.332  11.024  1.00  0.00     0.000 G0
ENDBRANCH  13  17
ENDBRANCH  11  13
ENDBRANCH  10  11
ENDBRANCH   1  10
TORSDOF 0
ENDMDL
MODEL 2
REMARK VINA RESULT:    -5.696      2.049      4.899
REMARK INTER + INTRA:          -6.848
REMARK INTER:                  -7.425
REMARK INTRA:                   0.578
REMARK UNBOUND:                 1.179
REMARK SMILES CC1=CCC(=C(C)C)C(=O)CC(C)=CCC1
REMARK SMILES IDX 12 1 14 2 13 3 15 4 16 5 2 6 1 7 3 8 11 10 9 11 10 12 5 13
REMARK SMILES IDX 6 14 7 15 8 16 4 17
REMARK H PARENT
REMARK Flexibility Score: 60.00
ROOT
ATOM      1  C   UNL     1      40.744 -10.105  10.363  1.00  0.00    -0.070 C 
ATOM      2  C   UNL     1      42.002 -10.098  10.863  1.00  0.00    -0.027 C 
ATOM      3  C   UNL     1      40.128  -8.784   9.977  1.00  0.00     0.039 C 
ENDROOT
BRANCH   2   4
ATOM      4  C   UNL     1      42.749 -11.316  11.356  1.00  0.00     0.032 C 
BRANCH   4   5
ATOM      5  C   UNL     1      43.926 -11.670  10.433  1.00  0.00     0.034 C 
BRANCH   5   6
ATOM      6  C   UNL     1      43.627 -12.819   9.481  1.00  0.00    -0.077 C 
ATOM      7  C   UNL     1      44.042 -14.215   9.873  1.00  0.00     0.039 C 
ATOM      8  C   UNL     1      43.023 -12.654   8.282  1.00  0.00    -0.023 CG0
ATOM      9  G   UNL     1      42.476 -11.350   7.748  1.00  0.00     0.000 G0
ENDBRANCH   5   6
ENDBRANCH   4   5
ENDBRANCH   2   4
BRANCH   1  10
ATOM     10  C   UNL     1      39.937 -11.374  10.174  1.00  0.00     0.111 C 
BRANCH  10  11
ATOM     11  C   UNL     1      40.206 -11.992   8.831  1.00  0.00     0.163 C 
ATOM     12  O   UNL     1      39.813 -13.167   8.601  1.00  0.00    -0.294 OA
BRANCH  11  13
ATOM     13  C   UNL     1      40.947 -11.254   7.776  1.00  0.00    -0.002 C 
ATOM     14  C   UNL     1      40.273 -10.509   6.858  1.00  0.00    -0.069 C 
ATOM     15  C   UNL     1      38.761 -10.487   6.826  1.00  0.00     0.039 C 
ATOM     16  C   UNL     1      41.012  -9.709   5.809  1.00  0.00     0.039 C 
BRANCH  13  17
ATOM     17  C   UNL     1      42.469 -11.343   7.737  1.00  0.00     0.066 CG0
ATOM     18  G   UNL     1      43.016 -12.640   8.285  1.00  0.00     0.000 G0
ENDBRANCH  13  17
ENDBRANCH  11  13
ENDBRANCH  10  11
ENDBRANCH   1  10
TORSDOF 0
ENDMDL
MODEL 3
REMARK VINA RESULT:    -5.631      2.133      4.496
REMARK INTER + INTRA:          -6.757
REMARK INTER:                  -7.307
REMARK INTRA:                   0.550
REMARK UNBOUND:                 1.179
REMARK SMILES CC1=CCC(=C(C)C)C(=O)CC(C)=CCC1
REMARK SMILES IDX 12 1 14 2 13 3 15 4 16 5 2 6 1 7 3 8 11 10 9 11 10 12 5 13
REMARK SMILES IDX 6 14 7 15 8 16 4 17
REMARK H PARENT
REMARK Flexibility Score: 60.00
ROOT
ATOM      1  C   UNL     1      39.672 -12.812   9.403  1.00  0.00    -0.070 C 
ATOM      2  C   UNL     1      40.537 -13.683   9.974  1.00  0.00    -0.027 C 
ATOM      3  C   UNL     1      38.395 -12.497  10.139  1.00  0.00     0.039 C 
ENDROOT
BRANCH   2   4
ATOM      4  C   UNL     1      41.831 -14.158   9.352  1.00  0.00     0.032 C 
BRANCH   4   5
ATOM      5  C   UNL     1      43.024 -13.943  10.296  1.00  0.00     0.034 C 
BRANCH   5   6
ATOM      6  C   UNL     1      43.228 -12.489  10.697  1.00  0.00    -0.077 C 
ATOM      7  C   UNL     1      43.319 -12.145  12.162  1.00  0.00     0.039 C 
ATOM      8  C   UNL     1      43.313 -11.477   9.804  1.00  0.00    -0.023 CG0
ATOM      9  G   UNL     1      43.314 -11.631   8.301  1.00  0.00     0.000 G0
ENDBRANCH   5   6
ENDBRANCH   4   5
ENDBRANCH   2   4
BRANCH   1  10
ATOM     10  C   UNL     1      39.932 -12.146   8.066  1.00  0.00     0.111 C 
BRANCH  10  11
ATOM     11  C   UNL     1      40.812 -10.937   8.227  1.00  0.00     0.163 C 
ATOM     12  O   UNL     1      40.383  -9.943   8.873  1.00  0.00    -0.294 OA
BRANCH  11  13
ATOM     13  C   UNL     1      42.166 -10.882   7.619  1.00  0.00    -0.002 C 
ATOM     14  C   UNL     1      42.373 -10.187   6.467  1.00  0.00    -0.069 C 
ATOM     15  C   UNL     1      41.224  -9.537   5.728  1.00  0.00     0.039 C 
ATOM     16  C   UNL     1      43.753 -10.076   5.862  1.00  0.00     0.039 C 
BRANCH  13  17
ATOM     17  C   UNL     1      43.317 -11.613   8.302  1.00  0.00     0.066 CG0
ATOM     18  G   UNL     1      43.310 -11.486   9.808  1.00  0.00     0.000 G0
ENDBRANCH  13  17
ENDBRANCH  11  13
ENDBRANCH  10  11
ENDBRANCH   1  10
TORSDOF 0
ENDMDL
MODEL 4
REMARK VINA RESULT:    -5.550      2.128      3.062
REMARK INTER + INTRA:          -6.642
REMARK INTER:                  -7.171
REMARK INTRA:                   0.529
REMARK UNBOUND:                 1.179
REMARK SMILES CC1=CCC(=C(C)C)C(=O)CC(C)=CCC1
REMARK SMILES IDX 12 1 14 2 13 3 15 4 16 5 2 6 1 7 3 8 11 10 9 11 10 12 5 13
REMARK SMILES IDX 6 14 7 15 8 16 4 17
REMARK H PARENT
REMARK Flexibility Score: 60.00
ROOT
ATOM      1  C   UNL     1      39.616 -12.392   9.434  1.00  0.00    -0.070 C 
ATOM      2  C   UNL     1      39.239 -12.072   8.174  1.00  0.00    -0.027 C 
ATOM      3  C   UNL     1      39.589 -13.846   9.834  1.00  0.00     0.039 C 
ENDROOT
BRANCH   2   4
ATOM      4  C   UNL     1      39.148 -10.667   7.623  1.00  0.00     0.032 C 
BRANCH   4   5
ATOM      5  C   UNL     1      40.177 -10.429   6.508  1.00  0.00     0.034 C 
BRANCH   5   6
ATOM      6  C   UNL     1      41.373  -9.599   6.951  1.00  0.00    -0.077 C 
ATOM      7  C   UNL     1      41.363  -8.114   6.696  1.00  0.00     0.039 C 
ATOM      8  C   UNL     1      42.465 -10.129   7.549  1.00  0.00    -0.023 CG0
ATOM      9  G   UNL     1      42.629 -11.578   7.948  1.00  0.00     0.000 G0
ENDBRANCH   5   6
ENDBRANCH   4   5
ENDBRANCH   2   4
BRANCH   1  10
ATOM     10  C   UNL     1      40.061 -11.360  10.451  1.00  0.00     0.111 C 
BRANCH  10  11
ATOM     11  C   UNL     1      41.490 -10.952  10.218  1.00  0.00     0.163 C 
ATOM     12  O   UNL     1      41.892  -9.838  10.647  1.00  0.00    -0.294 OA
BRANCH  11  13
ATOM     13  C   UNL     1      42.430 -11.827   9.471  1.00  0.00    -0.002 C 
ATOM     14  C   UNL     1      43.093 -12.827  10.113  1.00  0.00    -0.069 C 
ATOM     15  C   UNL     1      42.967 -13.016  11.608  1.00  0.00     0.039 C 
ATOM     16  C   UNL     1      44.014 -13.760   9.360  1.00  0.00     0.039 C 
BRANCH  13  17
ATOM     17  C   UNL     1      42.640 -11.589   7.980  1.00  0.00     0.066 CG0
ATOM     18  G   UNL     1      42.472 -10.145   7.565  1.00  0.00     0.000 G0
ENDBRANCH  13  17
ENDBRANCH  11  13
ENDBRANCH  10  11
ENDBRANCH   1  10
TORSDOF 0
ENDMDL
MODEL 5
REMARK VINA RESULT:    -5.517      2.839      4.571
REMARK INTER + INTRA:          -6.596
REMARK INTER:                  -7.254
REMARK INTRA:                   0.658
REMARK UNBOUND:                 1.179
REMARK SMILES CC1=CCC(=C(C)C)C(=O)CC(C)=CCC1
REMARK SMILES IDX 12 1 14 2 13 3 15 4 16 5 2 6 1 7 3 8 11 10 9 11 10 12 5 13
REMARK SMILES IDX 6 14 7 15 8 16 4 17
REMARK H PARENT
REMARK Flexibility Score: 60.00
ROOT
ATOM      1  C   UNL     1      39.494 -12.925   9.379  1.00  0.00    -0.070 C 
ATOM      2  C   UNL     1      38.505 -13.315   8.540  1.00  0.00    -0.027 C 
ATOM      3  C   UNL     1      40.702 -13.817   9.511  1.00  0.00     0.039 C 
ENDROOT
BRANCH   2   4
ATOM      4  C   UNL     1      37.202 -12.577   8.330  1.00  0.00     0.032 C 
BRANCH   4   5
ATOM      5  C   UNL     1      37.436 -11.152   7.806  1.00  0.00     0.034 C 
BRANCH   5   6
ATOM      6  C   UNL     1      38.342 -11.095   6.585  1.00  0.00    -0.077 C 
ATOM      7  C   UNL     1      37.905 -11.793   5.322  1.00  0.00     0.039 C 
ATOM      8  C   UNL     1      39.538 -10.463   6.574  1.00  0.00    -0.023 CG0
ATOM      9  G   UNL     1      40.112  -9.654   7.715  1.00  0.00     0.000 G0
ENDBRANCH   5   6
ENDBRANCH   4   5
ENDBRANCH   2   4
BRANCH   1  10
ATOM     10  C   UNL     1      39.439 -11.640  10.181  1.00  0.00     0.111 C 
BRANCH  10  11
ATOM     11  C   UNL     1      40.674 -10.811   9.961  1.00  0.00     0.163 C 
ATOM     12  O   UNL     1      41.348 -10.432  10.956  1.00  0.00    -0.294 OA
BRANCH  11  13
ATOM     13  C   UNL     1      41.101 -10.410   8.596  1.00  0.00    -0.002 C 
ATOM     14  C   UNL     1      42.346 -10.726   8.146  1.00  0.00    -0.069 C 
ATOM     15  C   UNL     1      43.355 -11.404   9.047  1.00  0.00     0.039 C 
ATOM     16  C   UNL     1      42.780 -10.372   6.743  1.00  0.00     0.039 C 
BRANCH  13  17
ATOM     17  C   UNL     1      40.127  -9.642   7.709  1.00  0.00     0.066 CG0
ATOM     18  G   UNL     1      39.539 -10.471   6.591  1.00  0.00     0.000 G0
ENDBRANCH  13  17
ENDBRANCH  11  13
ENDBRANCH  10  11
ENDBRANCH   1  10
TORSDOF 0
ENDMDL
MODEL 6
REMARK VINA RESULT:    -5.386      1.867      4.789
REMARK INTER + INTRA:          -6.411
REMARK INTER:                  -7.089
REMARK INTRA:                   0.678
REMARK UNBOUND:                 1.179
REMARK SMILES CC1=CCC(=C(C)C)C(=O)CC(C)=CCC1
REMARK SMILES IDX 12 1 14 2 13 3 15 4 16 5 2 6 1 7 3 8 11 10 9 11 10 12 5 13
REMARK SMILES IDX 6 14 7 15 8 16 4 17
REMARK H PARENT
REMARK Flexibility Score: 60.00
ROOT
ATOM      1  C   UNL     1      41.440  -9.888  10.181  1.00  0.00    -0.070 C 
ATOM      2  C   UNL     1      41.992 -10.458  11.278  1.00  0.00    -0.027 C 
ATOM      3  C   UNL     1      40.237  -9.000  10.373  1.00  0.00     0.039 C 
ENDROOT
BRANCH   2   4
ATOM      4  C   UNL     1      43.159 -11.420  11.264  1.00  0.00     0.032 C 
BRANCH   4   5
ATOM      5  C   UNL     1      42.789 -12.766  11.907  1.00  0.00     0.034 C 
BRANCH   5   6
ATOM      6  C   UNL     1      42.656 -13.903  10.904  1.00  0.00    -0.077 C 
ATOM      7  C   UNL     1      43.718 -14.973  10.873  1.00  0.00     0.039 C 
ATOM      8  C   UNL     1      41.639 -13.997  10.017  1.00  0.00    -0.023 CG0
ATOM      9  G   UNL     1      40.452 -13.065   9.942  1.00  0.00     0.000 G0
ENDBRANCH   5   6
ENDBRANCH   4   5
ENDBRANCH   2   4
BRANCH   1  10
ATOM     10  C   UNL     1      41.978 -10.101   8.780  1.00  0.00     0.111 C 
BRANCH  10  11
ATOM     11  C   UNL     1      41.665 -11.486   8.284  1.00  0.00     0.163 C 
ATOM     12  O   UNL     1      42.459 -12.051   7.485  1.00  0.00    -0.294 OA
BRANCH  11  13
ATOM     13  C   UNL     1      40.425 -12.192   8.699  1.00  0.00    -0.002 C 
ATOM     14  C   UNL     1      39.280 -12.048   7.978  1.00  0.00    -0.069 C 
ATOM     15  C   UNL     1      39.210 -11.100   6.801  1.00  0.00     0.039 C 
ATOM     16  C   UNL     1      38.023 -12.798   8.354  1.00  0.00     0.039 C 
BRANCH  13  17
ATOM     17  C   UNL     1      40.455 -13.077   9.940  1.00  0.00     0.066 CG0
ATOM     18  G   UNL     1      41.644 -14.008   9.995  1.00  0.00     0.000 G0
ENDBRANCH  13  17
ENDBRANCH  11  13
ENDBRANCH  10  11
ENDBRANCH   1  10
TORSDOF 0
ENDMDL
MODEL 7
REMARK VINA RESULT:    -5.370      3.189      5.810
REMARK INTER + INTRA:          -6.389
REMARK INTER:                  -6.782
REMARK INTRA:                   0.393
REMARK UNBOUND:                 1.179
REMARK SMILES CC1=CCC(=C(C)C)C(=O)CC(C)=CCC1
REMARK SMILES IDX 12 1 14 2 13 3 15 4 16 5 2 6 1 7 3 8 11 10 9 11 10 12 5 13
REMARK SMILES IDX 6 14 7 15 8 16 4 17
REMARK H PARENT
REMARK Flexibility Score: 60.00
ROOT
ATOM      1  C   UNL     1      41.276  -9.718   7.991  1.00  0.00    -0.070 C 
ATOM      2  C   UNL     1      42.131 -10.076   8.978  1.00  0.00    -0.027 C 
ATOM      3  C   UNL     1      41.110  -8.249   7.697  1.00  0.00     0.039 C 
ENDROOT
BRANCH   2   4
ATOM      4  C   UNL     1      42.374 -11.494   9.446  1.00  0.00     0.032 C 
BRANCH   4   5
ATOM      5  C   UNL     1      41.160 -12.056  10.202  1.00  0.00     0.034 C 
BRANCH   5   6
ATOM      6  C   UNL     1      40.767 -13.459   9.761  1.00  0.00    -0.077 C 
ATOM      7  C   UNL     1      41.776 -14.571   9.889  1.00  0.00     0.039 C 
ATOM      8  C   UNL     1      39.556 -13.762   9.239  1.00  0.00    -0.023 CG0
ATOM      9  G   UNL     1      38.397 -12.802   9.097  1.00  0.00     0.000 G0
ENDBRANCH   5   6
ENDBRANCH   4   5
ENDBRANCH   2   4
BRANCH   1  10
ATOM     10  C   UNL     1      40.489 -10.723   7.175  1.00  0.00     0.111 C 
BRANCH  10  11
ATOM     11  C   UNL     1      39.053 -10.776   7.619  1.00  0.00     0.163 C 
ATOM     12  O   UNL     1      38.454  -9.704   7.899  1.00  0.00    -0.294 OA
BRANCH  11  13
ATOM     13  C   UNL     1      38.335 -12.069   7.757  1.00  0.00    -0.002 C 
ATOM     14  C   UNL     1      37.646 -12.587   6.704  1.00  0.00    -0.069 C 
ATOM     15  C   UNL     1      37.512 -11.823   5.405  1.00  0.00     0.039 C 
ATOM     16  C   UNL     1      36.953 -13.925   6.809  1.00  0.00     0.039 C 
BRANCH  13  17
ATOM     17  C   UNL     1      38.382 -12.805   9.092  1.00  0.00     0.066 CG0
ATOM     18  G   UNL     1      39.558 -13.744   9.228  1.00  0.00     0.000 G0
ENDBRANCH  13  17
ENDBRANCH  11  13
ENDBRANCH  10  11
ENDBRANCH   1  10
TORSDOF 0
ENDMDL
MODEL 8
REMARK VINA RESULT:    -5.368      2.443      4.481
REMARK INTER + INTRA:          -6.386
REMARK INTER:                  -7.084
REMARK INTRA:                   0.698
REMARK UNBOUND:                 1.179
REMARK SMILES CC1=CCC(=C(C)C)C(=O)CC(C)=CCC1
REMARK SMILES IDX 12 1 14 2 13 3 15 4 16 5 2 6 1 7 3 8 11 10 9 11 10 12 5 13
REMARK SMILES IDX 6 14 7 15 8 16 4 17
REMARK H PARENT
REMARK Flexibility Score: 60.00
ROOT
ATOM      1  C   UNL     1      41.495 -13.645  10.140  1.00  0.00    -0.070 C 
ATOM      2  C   UNL     1      40.389 -14.250   9.649  1.00  0.00    -0.027 C 
ATOM      3  C   UNL     1      42.734 -14.482  10.335  1.00  0.00     0.039 C 
ENDROOT
BRANCH   2   4
ATOM      4  C   UNL     1      39.048 -13.581   9.447  1.00  0.00     0.032 C 
BRANCH   4   5
ATOM      5  C   UNL     1      38.774 -13.300   7.962  1.00  0.00     0.034 C 
BRANCH   5   6
ATOM      6  C   UNL     1      38.034 -11.993   7.717  1.00  0.00    -0.077 C 
ATOM      7  C   UNL     1      36.527 -11.991   7.762  1.00  0.00     0.039 C 
ATOM      8  C   UNL     1      38.658 -10.826   7.438  1.00  0.00    -0.023 CG0
ATOM      9  G   UNL     1      40.154 -10.615   7.417  1.00  0.00     0.000 G0
ENDBRANCH   5   6
ENDBRANCH   4   5
ENDBRANCH   2   4
BRANCH   1  10
ATOM     10  C   UNL     1      41.542 -12.173  10.498  1.00  0.00     0.111 C 
BRANCH  10  11
ATOM     11  C   UNL     1      41.805 -11.328   9.282  1.00  0.00     0.163 C 
ATOM     12  O   UNL     1      42.915 -11.422   8.693  1.00  0.00    -0.294 OA
BRANCH  11  13
ATOM     13  C   UNL     1      40.791 -10.368   8.776  1.00  0.00    -0.002 C 
ATOM     14  C   UNL     1      40.428  -9.293   9.527  1.00  0.00    -0.069 C 
ATOM     15  C   UNL     1      40.969  -9.098  10.926  1.00  0.00     0.039 C 
ATOM     16  C   UNL     1      39.437  -8.278   9.007  1.00  0.00     0.039 C 
BRANCH  13  17
ATOM     17  C   UNL     1      40.165 -10.603   7.405  1.00  0.00     0.066 CG0
ATOM     18  G   UNL     1      38.670 -10.820   7.449  1.00  0.00     0.000 G0
ENDBRANCH  13  17
ENDBRANCH  11  13
ENDBRANCH  10  11
ENDBRANCH   1  10
TORSDOF 0
ENDMDL
MODEL 9
REMARK VINA RESULT:    -5.299      2.569      5.070
REMARK INTER + INTRA:          -6.288
REMARK INTER:                  -6.976
REMARK INTRA:                   0.688
REMARK UNBOUND:                 1.179
REMARK SMILES CC1=CCC(=C(C)C)C(=O)CC(C)=CCC1
REMARK SMILES IDX 12 1 14 2 13 3 15 4 16 5 2 6 1 7 3 8 11 10 9 11 10 12 5 13
REMARK SMILES IDX 6 14 7 15 8 16 4 17
REMARK H PARENT
REMARK Flexibility Score: 60.00
ROOT
ATOM      1  C   UNL     1      42.347 -10.379   8.216  1.00  0.00    -0.070 C 
ATOM      2  C   UNL     1      43.313 -11.178   8.728  1.00  0.00    -0.027 C 
ATOM      3  C   UNL     1      42.152 -10.370   6.722  1.00  0.00     0.039 C 
ENDROOT
BRANCH   2   4
ATOM      4  C   UNL     1      43.685 -11.266  10.191  1.00  0.00     0.032 C 
BRANCH   4   5
ATOM      5  C   UNL     1      42.531 -11.828  11.034  1.00  0.00     0.034 C 
BRANCH   5   6
ATOM      6  C   UNL     1      41.899 -13.080  10.443  1.00  0.00    -0.077 C 
ATOM      7  C   UNL     1      42.735 -14.329  10.320  1.00  0.00     0.039 C 
ATOM      8  C   UNL     1      40.622 -13.130   9.999  1.00  0.00    -0.023 CG0
ATOM      9  G   UNL     1      39.614 -12.008  10.100  1.00  0.00     0.000 G0
ENDBRANCH   5   6
ENDBRANCH   4   5
ENDBRANCH   2   4
BRANCH   1  10
ATOM     10  C   UNL     1      41.458  -9.503   9.077  1.00  0.00     0.111 C 
BRANCH  10  11
ATOM     11  C   UNL     1      40.005  -9.786   8.818  1.00  0.00     0.163 C 
ATOM     12  O   UNL     1      39.216  -8.825   8.607  1.00  0.00    -0.294 OA
BRANCH  11  13
ATOM     13  C   UNL     1      39.475 -11.173   8.831  1.00  0.00    -0.002 C 
ATOM     14  C   UNL     1      38.878 -11.690   7.723  1.00  0.00    -0.069 C 
ATOM     15  C   UNL     1      38.654 -10.845   6.489  1.00  0.00     0.039 C 
ATOM     16  C   UNL     1      38.379 -13.117   7.700  1.00  0.00     0.039 C 
BRANCH  13  17
ATOM     17  C   UNL     1      39.608 -12.007  10.101  1.00  0.00     0.066 CG0
ATOM     18  G   UNL     1      40.618 -13.126   9.991  1.00  0.00     0.000 G0
ENDBRANCH  13  17
ENDBRANCH  11  13
ENDBRANCH  10  11
ENDBRANCH   1  10
TORSDOF 0
ENDMDL
