MODEL 1
REMARK VINA RESULT:    -4.551      0.000      0.000
REMARK INTER + INTRA:          -7.210
REMARK INTER:                  -6.546
REMARK INTRA:                  -0.664
REMARK UNBOUND:                -0.664
REMARK SMILES O=C(CO)[C@H](O)[C@@H](O)[C@H](O)CO
REMARK SMILES IDX 7 1 9 2 11 3 12 4 10 6 5 8 2 9 1 10 3 11 4 12 6 14 8 16
REMARK H PARENT 12 5 10 7 4 13 6 15 8 17
REMARK Flexibility Score: inf
ROOT
ATOM      1  C   UNL     1      44.095  11.517  33.899  1.00  0.00     0.181 C 
ENDROOT
BRANCH   1   2
ATOM      2  C   UNL     1      44.329  12.991  34.333  1.00  0.00     0.171 C 
BRANCH   2   3
ATOM      3  C   UNL     1      43.159  13.528  35.181  1.00  0.00     0.190 C 
BRANCH   3   4
ATOM      4  O   UNL     1      42.989  12.745  36.331  1.00  0.00    -0.394 OA
ATOM      5  H   UNL     1      42.857  13.373  37.088  1.00  0.00     0.210 HD
ENDBRANCH   3   4
ENDBRANCH   2   3
BRANCH   2   6
ATOM      6  O   UNL     1      45.556  13.142  35.004  1.00  0.00    -0.388 OA
ATOM      7  H   UNL     1      45.498  12.653  35.865  1.00  0.00     0.211 HD
ENDBRANCH   2   6
ENDBRANCH   1   2
BRANCH   1   8
ATOM      8  C   UNL     1      42.684  11.284  33.290  1.00  0.00     0.214 C 
BRANCH   8   9
ATOM      9  C   UNL     1      41.902  10.237  34.057  1.00  0.00     0.189 C 
ATOM     10  O   UNL     1      41.169  10.601  34.965  1.00  0.00    -0.294 OA
BRANCH   9  11
ATOM     11  C   UNL     1      42.006   8.757  33.779  1.00  0.00     0.234 C 
BRANCH  11  12
ATOM     12  O   UNL     1      43.280   8.405  33.316  1.00  0.00    -0.388 OA
ATOM     13  H   UNL     1      43.918   8.688  34.023  1.00  0.00     0.211 HD
ENDBRANCH  11  12
ENDBRANCH   9  11
ENDBRANCH   8   9
BRANCH   8  14
ATOM     14  O   UNL     1      42.793  10.883  31.948  1.00  0.00    -0.382 OA
ATOM     15  H   UNL     1      41.929  10.465  31.696  1.00  0.00     0.211 HD
ENDBRANCH   8  14
ENDBRANCH   1   8
BRANCH   1  16
ATOM     16  O   UNL     1      45.100  11.090  33.011  1.00  0.00    -0.387 OA
ATOM     17  H   UNL     1      44.730  10.350  32.464  1.00  0.00     0.211 HD
ENDBRANCH   1  16
TORSDOF 10
ENDMDL
MODEL 2
REMARK VINA RESULT:    -4.441      1.479      4.386
REMARK INTER + INTRA:          -7.052
REMARK INTER:                  -6.403
REMARK INTRA:                  -0.650
REMARK UNBOUND:                -0.664
REMARK SMILES O=C(CO)[C@H](O)[C@@H](O)[C@H](O)CO
REMARK SMILES IDX 7 1 9 2 11 3 12 4 10 6 5 8 2 9 1 10 3 11 4 12 6 14 8 16
REMARK H PARENT 12 5 10 7 4 13 6 15 8 17
REMARK Flexibility Score: inf
ROOT
ATOM      1  C   UNL     1      44.346  12.667  34.177  1.00  0.00     0.181 C 
ENDROOT
BRANCH   1   2
ATOM      2  C   UNL     1      44.566  11.207  33.694  1.00  0.00     0.171 C 
BRANCH   2   3
ATOM      3  C   UNL     1      43.306  10.635  33.013  1.00  0.00     0.190 C 
BRANCH   3   4
ATOM      4  O   UNL     1      43.662   9.674  32.057  1.00  0.00    -0.394 OA
ATOM      5  H   UNL     1      44.326  10.100  31.456  1.00  0.00     0.210 HD
ENDBRANCH   3   4
ENDBRANCH   2   3
BRANCH   2   6
ATOM      6  O   UNL     1      45.689  11.107  32.853  1.00  0.00    -0.388 OA
ATOM      7  H   UNL     1      46.210  11.947  32.934  1.00  0.00     0.211 HD
ENDBRANCH   2   6
ENDBRANCH   1   2
BRANCH   1   8
ATOM      8  C   UNL     1      42.991  12.861  34.915  1.00  0.00     0.214 C 
BRANCH   8   9
ATOM      9  C   UNL     1      42.634  14.326  35.066  1.00  0.00     0.189 C 
ATOM     10  O   UNL     1      42.280  14.948  34.075  1.00  0.00    -0.294 OA
BRANCH   9  11
ATOM     11  C   UNL     1      42.724  15.070  36.376  1.00  0.00     0.234 C 
BRANCH  11  12
ATOM     12  O   UNL     1      43.981  14.913  36.975  1.00  0.00    -0.388 OA
ATOM     13  H   UNL     1      44.190  15.782  37.408  1.00  0.00     0.211 HD
ENDBRANCH  11  12
ENDBRANCH   9  11
ENDBRANCH   8   9
BRANCH   8  14
ATOM     14  O   UNL     1      43.039  12.267  36.187  1.00  0.00    -0.382 OA
ATOM     15  H   UNL     1      42.957  11.287  36.057  1.00  0.00     0.211 HD
ENDBRANCH   8  14
ENDBRANCH   1   8
BRANCH   1  16
ATOM     16  O   UNL     1      45.418  13.097  34.982  1.00  0.00    -0.387 OA
ATOM     17  H   UNL     1      45.204  14.004  35.319  1.00  0.00     0.211 HD
ENDBRANCH   1  16
TORSDOF 10
ENDMDL
MODEL 3
REMARK VINA RESULT:    -4.433      1.512      2.152
REMARK INTER + INTRA:          -7.041
REMARK INTER:                  -6.705
REMARK INTRA:                  -0.336
REMARK UNBOUND:                -0.664
REMARK SMILES O=C(CO)[C@H](O)[C@@H](O)[C@H](O)CO
REMARK SMILES IDX 7 1 9 2 11 3 12 4 10 6 5 8 2 9 1 10 3 11 4 12 6 14 8 16
REMARK H PARENT 12 5 10 7 4 13 6 15 8 17
REMARK Flexibility Score: inf
ROOT
ATOM      1  C   UNL     1      44.045  10.984  33.637  1.00  0.00     0.181 C 
ENDROOT
BRANCH   1   2
ATOM      2  C   UNL     1      43.388  12.361  33.933  1.00  0.00     0.171 C 
BRANCH   2   3
ATOM      3  C   UNL     1      44.439  13.427  34.301  1.00  0.00     0.190 C 
BRANCH   3   4
ATOM      4  O   UNL     1      45.478  12.851  35.046  1.00  0.00    -0.394 OA
ATOM      5  H   UNL     1      46.292  13.389  34.865  1.00  0.00     0.210 HD
ENDBRANCH   3   4
ENDBRANCH   2   3
BRANCH   2   6
ATOM      6  O   UNL     1      42.582  12.788  32.863  1.00  0.00    -0.388 OA
ATOM      7  H   UNL     1      42.058  12.009  32.542  1.00  0.00     0.211 HD
ENDBRANCH   2   6
ENDBRANCH   1   2
BRANCH   1   8
ATOM      8  C   UNL     1      43.116  10.034  32.831  1.00  0.00     0.214 C 
BRANCH   8   9
ATOM      9  C   UNL     1      42.559   8.920  33.695  1.00  0.00     0.189 C 
ATOM     10  O   UNL     1      42.576   7.778  33.260  1.00  0.00    -0.294 OA
BRANCH   9  11
ATOM     11  C   UNL     1      41.950   9.152  35.056  1.00  0.00     0.234 C 
BRANCH  11  12
ATOM     12  O   UNL     1      42.617   8.428  36.052  1.00  0.00    -0.388 OA
ATOM     13  H   UNL     1      43.396   8.981  36.321  1.00  0.00     0.211 HD
ENDBRANCH  11  12
ENDBRANCH   9  11
ENDBRANCH   8   9
BRANCH   8  14
ATOM     14  O   UNL     1      43.815   9.470  31.751  1.00  0.00    -0.382 OA
ATOM     15  H   UNL     1      44.057   8.542  32.009  1.00  0.00     0.211 HD
ENDBRANCH   8  14
ENDBRANCH   1   8
BRANCH   1  16
ATOM     16  O   UNL     1      45.281  11.148  32.983  1.00  0.00    -0.387 OA
ATOM     17  H   UNL     1      45.909  10.471  33.342  1.00  0.00     0.211 HD
ENDBRANCH   1  16
TORSDOF 10
ENDMDL
MODEL 4
REMARK VINA RESULT:    -4.328      1.444      4.265
REMARK INTER + INTRA:          -6.890
REMARK INTER:                  -6.480
REMARK INTRA:                  -0.410
REMARK UNBOUND:                -0.664
REMARK SMILES O=C(CO)[C@H](O)[C@@H](O)[C@H](O)CO
REMARK SMILES IDX 7 1 9 2 11 3 12 4 10 6 5 8 2 9 1 10 3 11 4 12 6 14 8 16
REMARK H PARENT 12 5 10 7 4 13 6 15 8 17
REMARK Flexibility Score: inf
ROOT
ATOM      1  C   UNL     1      43.085  10.118  32.872  1.00  0.00     0.181 C 
ENDROOT
BRANCH   1   2
ATOM      2  C   UNL     1      42.293   9.143  33.787  1.00  0.00     0.171 C 
BRANCH   2   3
ATOM      3  C   UNL     1      42.291   7.708  33.225  1.00  0.00     0.190 C 
BRANCH   3   4
ATOM      4  O   UNL     1      41.781   6.812  34.176  1.00  0.00    -0.394 OA
ATOM      5  H   UNL     1      41.979   7.199  35.068  1.00  0.00     0.210 HD
ENDBRANCH   3   4
ENDBRANCH   2   3
BRANCH   2   6
ATOM      6  O   UNL     1      42.773   9.173  35.108  1.00  0.00    -0.388 OA
ATOM      7  H   UNL     1      43.163   8.284  35.314  1.00  0.00     0.211 HD
ENDBRANCH   2   6
ENDBRANCH   1   2
BRANCH   1   8
ATOM      8  C   UNL     1      44.100  10.994  33.658  1.00  0.00     0.214 C 
BRANCH   8   9
ATOM      9  C   UNL     1      43.579  12.400  33.882  1.00  0.00     0.189 C 
ATOM     10  O   UNL     1      42.663  12.804  33.181  1.00  0.00    -0.294 OA
BRANCH   9  11
ATOM     11  C   UNL     1      44.157  13.343  34.909  1.00  0.00     0.234 C 
BRANCH  11  12
ATOM     12  O   UNL     1      45.551  13.228  34.991  1.00  0.00    -0.388 OA
ATOM     13  H   UNL     1      45.911  13.642  34.164  1.00  0.00     0.211 HD
ENDBRANCH  11  12
ENDBRANCH   9  11
ENDBRANCH   8   9
BRANCH   8  14
ATOM     14  O   UNL     1      45.322  11.063  32.968  1.00  0.00    -0.382 OA
ATOM     15  H   UNL     1      45.215  11.737  32.247  1.00  0.00     0.211 HD
ENDBRANCH   8  14
ENDBRANCH   1   8
BRANCH   1  16
ATOM     16  O   UNL     1      43.729   9.419  31.832  1.00  0.00    -0.387 OA
ATOM     17  H   UNL     1      43.493   9.858  30.976  1.00  0.00     0.211 HD
ENDBRANCH   1  16
TORSDOF 10
ENDMDL
MODEL 5
REMARK VINA RESULT:    -4.072      1.523      4.253
REMARK INTER + INTRA:          -6.522
REMARK INTER:                  -6.011
REMARK INTRA:                  -0.511
REMARK UNBOUND:                -0.664
REMARK SMILES O=C(CO)[C@H](O)[C@@H](O)[C@H](O)CO
REMARK SMILES IDX 7 1 9 2 11 3 12 4 10 6 5 8 2 9 1 10 3 11 4 12 6 14 8 16
REMARK H PARENT 12 5 10 7 4 13 6 15 8 17
REMARK Flexibility Score: inf
ROOT
ATOM      1  C   UNL     1      43.040  11.848  33.631  1.00  0.00     0.181 C 
ENDROOT
BRANCH   1   2
ATOM      2  C   UNL     1      43.902  10.575  33.410  1.00  0.00     0.171 C 
BRANCH   2   3
ATOM      3  C   UNL     1      43.137   9.499  32.615  1.00  0.00     0.190 C 
BRANCH   3   4
ATOM      4  O   UNL     1      43.178   8.271  33.292  1.00  0.00    -0.394 OA
ATOM      5  H   UNL     1      42.769   7.598  32.688  1.00  0.00     0.210 HD
ENDBRANCH   3   4
ENDBRANCH   2   3
BRANCH   2   6
ATOM      6  O   UNL     1      45.130  10.885  32.797  1.00  0.00    -0.388 OA
ATOM      7  H   UNL     1      45.859  10.608  33.412  1.00  0.00     0.211 HD
ENDBRANCH   2   6
ENDBRANCH   1   2
BRANCH   1   8
ATOM      8  C   UNL     1      43.734  12.897  34.544  1.00  0.00     0.214 C 
BRANCH   8   9
ATOM      9  C   UNL     1      42.858  14.112  34.779  1.00  0.00     0.189 C 
ATOM     10  O   UNL     1      42.579  14.825  33.826  1.00  0.00    -0.294 OA
BRANCH   9  11
ATOM     11  C   UNL     1      42.337  14.507  36.139  1.00  0.00     0.234 C 
BRANCH  11  12
ATOM     12  O   UNL     1      42.803  13.649  37.142  1.00  0.00    -0.388 OA
ATOM     13  H   UNL     1      42.515  12.735  36.880  1.00  0.00     0.211 HD
ENDBRANCH  11  12
ENDBRANCH   9  11
ENDBRANCH   8   9
BRANCH   8  14
ATOM     14  O   UNL     1      44.949  13.312  33.975  1.00  0.00    -0.382 OA
ATOM     15  H   UNL     1      45.063  14.273  34.194  1.00  0.00     0.211 HD
ENDBRANCH   8  14
ENDBRANCH   1   8
BRANCH   1  16
ATOM     16  O   UNL     1      42.671  12.425  32.400  1.00  0.00    -0.387 OA
ATOM     17  H   UNL     1      43.468  12.878  32.023  1.00  0.00     0.211 HD
ENDBRANCH   1  16
TORSDOF 10
ENDMDL
MODEL 6
REMARK VINA RESULT:    -4.068      1.574      4.616
REMARK INTER + INTRA:          -6.516
REMARK INTER:                  -5.799
REMARK INTRA:                  -0.717
REMARK UNBOUND:                -0.664
REMARK SMILES O=C(CO)[C@H](O)[C@@H](O)[C@H](O)CO
REMARK SMILES IDX 7 1 9 2 11 3 12 4 10 6 5 8 2 9 1 10 3 11 4 12 6 14 8 16
REMARK H PARENT 12 5 10 7 4 13 6 15 8 17
REMARK Flexibility Score: inf
ROOT
ATOM      1  C   UNL     1      41.883   8.777  33.990  1.00  0.00     0.181 C 
ENDROOT
BRANCH   1   2
ATOM      2  C   UNL     1      41.450   7.982  35.253  1.00  0.00     0.171 C 
BRANCH   2   3
ATOM      3  C   UNL     1      40.963   6.564  34.895  1.00  0.00     0.190 C 
BRANCH   3   4
ATOM      4  O   UNL     1      41.513   6.153  33.673  1.00  0.00    -0.394 OA
ATOM      5  H   UNL     1      41.489   6.939  33.069  1.00  0.00     0.210 HD
ENDBRANCH   3   4
ENDBRANCH   2   3
BRANCH   2   6
ATOM      6  O   UNL     1      42.478   7.941  36.212  1.00  0.00    -0.388 OA
ATOM      7  H   UNL     1      42.060   7.841  37.107  1.00  0.00     0.211 HD
ENDBRANCH   2   6
ENDBRANCH   1   2
BRANCH   1   8
ATOM      8  C   UNL     1      41.908  10.314  34.223  1.00  0.00     0.214 C 
BRANCH   8   9
ATOM      9  C   UNL     1      42.894  11.009  33.306  1.00  0.00     0.189 C 
ATOM     10  O   UNL     1      42.638  11.075  32.112  1.00  0.00    -0.294 OA
BRANCH   9  11
ATOM     11  C   UNL     1      44.198  11.599  33.786  1.00  0.00     0.234 C 
BRANCH  11  12
ATOM     12  O   UNL     1      45.278  11.179  32.998  1.00  0.00    -0.388 OA
ATOM     13  H   UNL     1      46.065  11.696  33.311  1.00  0.00     0.211 HD
ENDBRANCH  11  12
ENDBRANCH   9  11
ENDBRANCH   8   9
BRANCH   8  14
ATOM     14  O   UNL     1      42.243  10.599  35.557  1.00  0.00    -0.382 OA
ATOM     15  H   UNL     1      42.671  11.495  35.567  1.00  0.00     0.211 HD
ENDBRANCH   8  14
ENDBRANCH   1   8
BRANCH   1  16
ATOM     16  O   UNL     1      43.127   8.324  33.513  1.00  0.00    -0.387 OA
ATOM     17  H   UNL     1      43.235   7.378  33.788  1.00  0.00     0.211 HD
ENDBRANCH   1  16
TORSDOF 10
ENDMDL
MODEL 7
REMARK VINA RESULT:    -3.997      1.416      2.362
REMARK INTER + INTRA:          -6.413
REMARK INTER:                  -5.231
REMARK INTRA:                  -1.182
REMARK UNBOUND:                -0.664
REMARK SMILES O=C(CO)[C@H](O)[C@@H](O)[C@H](O)CO
REMARK SMILES IDX 7 1 9 2 11 3 12 4 10 6 5 8 2 9 1 10 3 11 4 12 6 14 8 16
REMARK H PARENT 12 5 10 7 4 13 6 15 8 17
REMARK Flexibility Score: inf
ROOT
ATOM      1  C   UNL     1      42.367  11.472  34.840  1.00  0.00     0.181 C 
ENDROOT
BRANCH   1   2
ATOM      2  C   UNL     1      42.727  12.626  33.864  1.00  0.00     0.171 C 
BRANCH   2   3
ATOM      3  C   UNL     1      44.043  13.321  34.264  1.00  0.00     0.190 C 
BRANCH   3   4
ATOM      4  O   UNL     1      45.142  12.520  33.922  1.00  0.00    -0.394 OA
ATOM      5  H   UNL     1      45.946  13.100  33.972  1.00  0.00     0.210 HD
ENDBRANCH   3   4
ENDBRANCH   2   3
BRANCH   2   6
ATOM      6  O   UNL     1      42.771  12.178  32.531  1.00  0.00    -0.388 OA
ATOM      7  H   UNL     1      43.266  11.318  32.512  1.00  0.00     0.211 HD
ENDBRANCH   2   6
ENDBRANCH   1   2
BRANCH   1   8
ATOM      8  C   UNL     1      42.516  10.066  34.194  1.00  0.00     0.214 C 
BRANCH   8   9
ATOM      9  C   UNL     1      41.965   8.971  35.086  1.00  0.00     0.189 C 
ATOM     10  O   UNL     1      41.874   9.185  36.286  1.00  0.00    -0.294 OA
BRANCH   9  11
ATOM     11  C   UNL     1      41.551   7.614  34.573  1.00  0.00     0.234 C 
BRANCH  11  12
ATOM     12  O   UNL     1      42.201   7.293  33.375  1.00  0.00    -0.388 OA
ATOM     13  H   UNL     1      41.488   7.198  32.690  1.00  0.00     0.211 HD
ENDBRANCH  11  12
ENDBRANCH   9  11
ENDBRANCH   8   9
BRANCH   8  14
ATOM     14  O   UNL     1      43.867   9.796  33.920  1.00  0.00    -0.382 OA
ATOM     15  H   UNL     1      44.081   8.920  34.334  1.00  0.00     0.211 HD
ENDBRANCH   8  14
ENDBRANCH   1   8
BRANCH   1  16
ATOM     16  O   UNL     1      43.125  11.561  36.023  1.00  0.00    -0.387 OA
ATOM     17  H   UNL     1      43.156  12.513  36.296  1.00  0.00     0.211 HD
ENDBRANCH   1  16
TORSDOF 10
ENDMDL
MODEL 8
REMARK VINA RESULT:    -3.983      1.683      4.352
REMARK INTER + INTRA:          -6.393
REMARK INTER:                  -5.370
REMARK INTRA:                  -1.023
REMARK UNBOUND:                -0.664
REMARK SMILES O=C(CO)[C@H](O)[C@@H](O)[C@H](O)CO
REMARK SMILES IDX 7 1 9 2 11 3 12 4 10 6 5 8 2 9 1 10 3 11 4 12 6 14 8 16
REMARK H PARENT 12 5 10 7 4 13 6 15 8 17
REMARK Flexibility Score: inf
ROOT
ATOM      1  C   UNL     1      43.167  10.719  33.142  1.00  0.00     0.181 C 
ENDROOT
BRANCH   1   2
ATOM      2  C   UNL     1      42.162   9.571  32.849  1.00  0.00     0.171 C 
BRANCH   2   3
ATOM      3  C   UNL     1      42.667   8.219  33.393  1.00  0.00     0.190 C 
BRANCH   3   4
ATOM      4  O   UNL     1      42.613   8.206  34.794  1.00  0.00    -0.394 OA
ATOM      5  H   UNL     1      43.367   7.639  35.103  1.00  0.00     0.210 HD
ENDBRANCH   3   4
ENDBRANCH   2   3
BRANCH   2   6
ATOM      6  O   UNL     1      40.879   9.870  33.341  1.00  0.00    -0.388 OA
ATOM      7  H   UNL     1      40.978  10.225  34.263  1.00  0.00     0.211 HD
ENDBRANCH   2   6
ENDBRANCH   1   2
BRANCH   1   8
ATOM      8  C   UNL     1      42.622  11.751  34.169  1.00  0.00     0.214 C 
BRANCH   8   9
ATOM      9  C   UNL     1      43.430  13.033  34.167  1.00  0.00     0.189 C 
ATOM     10  O   UNL     1      44.633  12.967  34.372  1.00  0.00    -0.294 OA
BRANCH   9  11
ATOM     11  C   UNL     1      42.819  14.397  33.958  1.00  0.00     0.234 C 
BRANCH  11  12
ATOM     12  O   UNL     1      42.761  14.736  32.600  1.00  0.00    -0.388 OA
ATOM     13  H   UNL     1      43.219  14.001  32.113  1.00  0.00     0.211 HD
ENDBRANCH  11  12
ENDBRANCH   9  11
ENDBRANCH   8   9
BRANCH   8  14
ATOM     14  O   UNL     1      42.635  11.203  35.463  1.00  0.00    -0.382 OA
ATOM     15  H   UNL     1      42.799  11.950  36.096  1.00  0.00     0.211 HD
ENDBRANCH   8  14
ENDBRANCH   1   8
BRANCH   1  16
ATOM     16  O   UNL     1      44.409  10.205  33.561  1.00  0.00    -0.387 OA
ATOM     17  H   UNL     1      44.277   9.762  34.437  1.00  0.00     0.211 HD
ENDBRANCH   1  16
TORSDOF 10
ENDMDL
MODEL 9
REMARK VINA RESULT:    -3.806      1.703      3.124
REMARK INTER + INTRA:          -6.139
REMARK INTER:                  -4.904
REMARK INTRA:                  -1.235
REMARK UNBOUND:                -0.664
REMARK SMILES O=C(CO)[C@H](O)[C@@H](O)[C@H](O)CO
REMARK SMILES IDX 7 1 9 2 11 3 12 4 10 6 5 8 2 9 1 10 3 11 4 12 6 14 8 16
REMARK H PARENT 12 5 10 7 4 13 6 15 8 17
REMARK Flexibility Score: inf
ROOT
ATOM      1  C   UNL     1      42.248  12.970  35.845  1.00  0.00     0.181 C 
ENDROOT
BRANCH   1   2
ATOM      2  C   UNL     1      41.968  14.490  36.005  1.00  0.00     0.171 C 
BRANCH   2   3
ATOM      3  C   UNL     1      42.621  15.060  37.279  1.00  0.00     0.190 C 
BRANCH   3   4
ATOM      4  O   UNL     1      44.018  15.050  37.158  1.00  0.00    -0.394 OA
ATOM      5  H   UNL     1      44.278  14.123  36.916  1.00  0.00     0.210 HD
ENDBRANCH   3   4
ENDBRANCH   2   3
BRANCH   2   6
ATOM      6  O   UNL     1      42.365  15.210  34.863  1.00  0.00    -0.388 OA
ATOM      7  H   UNL     1      41.547  15.548  34.413  1.00  0.00     0.211 HD
ENDBRANCH   2   6
ENDBRANCH   1   2
BRANCH   1   8
ATOM      8  C   UNL     1      43.227  12.656  34.679  1.00  0.00     0.214 C 
BRANCH   8   9
ATOM      9  C   UNL     1      43.211  11.186  34.308  1.00  0.00     0.189 C 
ATOM     10  O   UNL     1      42.620  10.404  35.037  1.00  0.00    -0.294 OA
BRANCH   9  11
ATOM     11  C   UNL     1      43.918  10.631  33.096  1.00  0.00     0.234 C 
BRANCH  11  12
ATOM     12  O   UNL     1      45.238  11.093  33.008  1.00  0.00    -0.388 OA
ATOM     13  H   UNL     1      45.476  11.419  33.916  1.00  0.00     0.211 HD
ENDBRANCH  11  12
ENDBRANCH   9  11
ENDBRANCH   8   9
BRANCH   8  14
ATOM     14  O   UNL     1      44.536  13.026  35.028  1.00  0.00    -0.382 OA
ATOM     15  H   UNL     1      44.921  13.510  34.252  1.00  0.00     0.211 HD
ENDBRANCH   8  14
ENDBRANCH   1   8
BRANCH   1  16
ATOM     16  O   UNL     1      42.716  12.417  37.053  1.00  0.00    -0.387 OA
ATOM     17  H   UNL     1      42.462  13.030  37.789  1.00  0.00     0.211 HD
ENDBRANCH   1  16
TORSDOF 10
ENDMDL
