MODEL 1
REMARK VINA RESULT:    -3.341      0.000      0.000
REMARK INTER + INTRA:          -4.898
REMARK INTER:                  -4.318
REMARK INTRA:                  -0.580
REMARK UNBOUND:                -0.580
REMARK SMILES C=CC(=O)CCCCC
REMARK SMILES IDX 6 1 7 2 8 3 9 4 5 5 3 6 4 7 2 8 1 9
REMARK H PARENT
REMARK Flexibility Score: inf
ROOT
ATOM      1  C   UNL     1      16.646  20.185  17.178  1.00  0.00     0.008 C 
ENDROOT
BRANCH   1   2
ATOM      2  C   UNL     1      18.085  19.682  17.378  1.00  0.00     0.000 C 
BRANCH   2   3
ATOM      3  C   UNL     1      18.379  19.297  18.835  1.00  0.00    -0.003 C 
ATOM      4  C   UNL     1      17.988  17.847  19.108  1.00  0.00     0.004 C 
ENDBRANCH   2   3
ENDBRANCH   1   2
BRANCH   1   5
ATOM      5  C   UNL     1      15.912  19.443  16.053  1.00  0.00     0.080 C 
BRANCH   5   6
ATOM      6  C   UNL     1      15.400  18.120  16.544  1.00  0.00     0.155 C 
ATOM      7  O   UNL     1      14.539  18.095  17.465  1.00  0.00    -0.295 OA
BRANCH   6   8
ATOM      8  C   UNL     1      15.936  16.866  15.982  1.00  0.00     0.039 C 
ATOM      9  C   UNL     1      17.084  16.818  15.308  1.00  0.00     0.012 C 
ENDBRANCH   6   8
ENDBRANCH   5   6
ENDBRANCH   1   5
TORSDOF 5
ENDMDL
MODEL 2
REMARK VINA RESULT:    -3.247      1.554      1.723
REMARK INTER + INTRA:          -4.776
REMARK INTER:                  -4.269
REMARK INTRA:                  -0.507
REMARK UNBOUND:                -0.580
REMARK SMILES C=CC(=O)CCCCC
REMARK SMILES IDX 6 1 7 2 8 3 9 4 5 5 3 6 4 7 2 8 1 9
REMARK H PARENT
REMARK Flexibility Score: inf
ROOT
ATOM      1  C   UNL     1      16.790  20.485  17.506  1.00  0.00     0.008 C 
ENDROOT
BRANCH   1   2
ATOM      2  C   UNL     1      17.797  20.366  18.661  1.00  0.00     0.000 C 
BRANCH   2   3
ATOM      3  C   UNL     1      18.664  19.102  18.561  1.00  0.00    -0.003 C 
ATOM      4  C   UNL     1      17.992  17.921  19.257  1.00  0.00     0.004 C 
ENDBRANCH   2   3
ENDBRANCH   1   2
BRANCH   1   5
ATOM      5  C   UNL     1      17.458  20.397  16.128  1.00  0.00     0.080 C 
BRANCH   5   6
ATOM      6  C   UNL     1      16.717  19.436  15.245  1.00  0.00     0.155 C 
ATOM      7  O   UNL     1      15.566  19.742  14.829  1.00  0.00    -0.295 OA
BRANCH   6   8
ATOM      8  C   UNL     1      17.313  18.129  14.912  1.00  0.00     0.039 C 
ATOM      9  C   UNL     1      17.236  17.078  15.728  1.00  0.00     0.012 C 
ENDBRANCH   6   8
ENDBRANCH   5   6
ENDBRANCH   1   5
TORSDOF 5
ENDMDL
MODEL 3
REMARK VINA RESULT:    -3.232      1.915      3.777
REMARK INTER + INTRA:          -4.757
REMARK INTER:                  -4.468
REMARK INTRA:                  -0.289
REMARK UNBOUND:                -0.580
REMARK SMILES C=CC(=O)CCCCC
REMARK SMILES IDX 6 1 7 2 8 3 9 4 5 5 3 6 4 7 2 8 1 9
REMARK H PARENT
REMARK Flexibility Score: inf
ROOT
ATOM      1  C   UNL     1      16.431  20.492  16.230  1.00  0.00     0.008 C 
ENDROOT
BRANCH   1   2
ATOM      2  C   UNL     1      16.439  20.648  14.701  1.00  0.00     0.000 C 
BRANCH   2   3
ATOM      3  C   UNL     1      15.773  19.464  13.984  1.00  0.00    -0.003 C 
ATOM      4  C   UNL     1      14.614  18.906  14.805  1.00  0.00     0.004 C 
ENDBRANCH   2   3
ENDBRANCH   1   2
BRANCH   1   5
ATOM      5  C   UNL     1      17.813  20.139  16.796  1.00  0.00     0.080 C 
BRANCH   5   6
ATOM      6  C   UNL     1      17.796  18.768  17.405  1.00  0.00     0.155 C 
ATOM      7  O   UNL     1      17.400  17.790  16.713  1.00  0.00    -0.295 OA
BRANCH   6   8
ATOM      8  C   UNL     1      18.194  18.580  18.813  1.00  0.00     0.039 C 
ATOM      9  C   UNL     1      17.880  17.486  19.505  1.00  0.00     0.012 C 
ENDBRANCH   6   8
ENDBRANCH   5   6
ENDBRANCH   1   5
TORSDOF 5
ENDMDL
MODEL 4
REMARK VINA RESULT:    -3.162      1.903      3.646
REMARK INTER + INTRA:          -4.666
REMARK INTER:                  -4.134
REMARK INTRA:                  -0.532
REMARK UNBOUND:                -0.580
REMARK SMILES C=CC(=O)CCCCC
REMARK SMILES IDX 6 1 7 2 8 3 9 4 5 5 3 6 4 7 2 8 1 9
REMARK H PARENT
REMARK Flexibility Score: inf
ROOT
ATOM      1  C   UNL     1      17.220  19.100  16.168  1.00  0.00     0.008 C 
ENDROOT
BRANCH   1   2
ATOM      2  C   UNL     1      15.773  18.760  15.775  1.00  0.00     0.000 C 
BRANCH   2   3
ATOM      3  C   UNL     1      15.323  17.392  16.309  1.00  0.00    -0.003 C 
ATOM      4  C   UNL     1      14.461  17.547  17.560  1.00  0.00     0.004 C 
ENDBRANCH   2   3
ENDBRANCH   1   2
BRANCH   1   5
ATOM      5  C   UNL     1      17.297  20.066  17.357  1.00  0.00     0.080 C 
BRANCH   5   6
ATOM      6  C   UNL     1      18.024  19.428  18.505  1.00  0.00     0.155 C 
ATOM      7  O   UNL     1      18.628  20.160  19.336  1.00  0.00    -0.295 OA
BRANCH   6   8
ATOM      8  C   UNL     1      18.067  17.959  18.627  1.00  0.00     0.039 C 
ATOM      9  C   UNL     1      17.727  17.324  19.747  1.00  0.00     0.012 C 
ENDBRANCH   6   8
ENDBRANCH   5   6
ENDBRANCH   1   5
TORSDOF 5
ENDMDL
MODEL 5
REMARK VINA RESULT:    -3.105      1.773      3.960
REMARK INTER + INTRA:          -4.592
REMARK INTER:                  -4.156
REMARK INTRA:                  -0.435
REMARK UNBOUND:                -0.580
REMARK SMILES C=CC(=O)CCCCC
REMARK SMILES IDX 6 1 7 2 8 3 9 4 5 5 3 6 4 7 2 8 1 9
REMARK H PARENT
REMARK Flexibility Score: inf
ROOT
ATOM      1  C   UNL     1      17.262  18.284  15.440  1.00  0.00     0.008 C 
ENDROOT
BRANCH   1   2
ATOM      2  C   UNL     1      15.841  18.464  14.884  1.00  0.00     0.000 C 
BRANCH   2   3
ATOM      3  C   UNL     1      15.386  19.931  14.888  1.00  0.00    -0.003 C 
ATOM      4  C   UNL     1      16.582  20.876  14.829  1.00  0.00     0.004 C 
ENDBRANCH   2   3
ENDBRANCH   1   2
BRANCH   1   5
ATOM      5  C   UNL     1      17.312  17.327  16.638  1.00  0.00     0.080 C 
BRANCH   5   6
ATOM      6  C   UNL     1      17.716  18.063  17.882  1.00  0.00     0.155 C 
ATOM      7  O   UNL     1      17.703  17.459  18.989  1.00  0.00    -0.295 OA
BRANCH   6   8
ATOM      8  C   UNL     1      18.080  19.491  17.809  1.00  0.00     0.039 C 
ATOM      9  C   UNL     1      17.948  20.316  18.848  1.00  0.00     0.012 C 
ENDBRANCH   6   8
ENDBRANCH   5   6
ENDBRANCH   1   5
TORSDOF 5
ENDMDL
MODEL 6
REMARK VINA RESULT:    -3.072      9.100     10.049
REMARK INTER + INTRA:          -4.549
REMARK INTER:                  -4.275
REMARK INTRA:                  -0.274
REMARK UNBOUND:                -0.580
REMARK SMILES C=CC(=O)CCCCC
REMARK SMILES IDX 6 1 7 2 8 3 9 4 5 5 3 6 4 7 2 8 1 9
REMARK H PARENT
REMARK Flexibility Score: inf
ROOT
ATOM      1  C   UNL     1      20.454  23.576   8.921  1.00  0.00     0.008 C 
ENDROOT
BRANCH   1   2
ATOM      2  C   UNL     1      19.234  24.281   8.310  1.00  0.00     0.000 C 
BRANCH   2   3
ATOM      3  C   UNL     1      18.013  24.265   9.242  1.00  0.00    -0.003 C 
ATOM      4  C   UNL     1      17.535  22.838   9.496  1.00  0.00     0.004 C 
ENDBRANCH   2   3
ENDBRANCH   1   2
BRANCH   1   5
ATOM      5  C   UNL     1      21.035  22.494   8.000  1.00  0.00     0.080 C 
BRANCH   5   6
ATOM      6  C   UNL     1      20.912  21.141   8.638  1.00  0.00     0.155 C 
ATOM      7  O   UNL     1      20.851  21.054   9.895  1.00  0.00    -0.295 OA
BRANCH   6   8
ATOM      8  C   UNL     1      20.911  19.927   7.800  1.00  0.00     0.039 C 
ATOM      9  C   UNL     1      20.107  18.892   8.042  1.00  0.00     0.012 C 
ENDBRANCH   6   8
ENDBRANCH   5   6
ENDBRANCH   1   5
TORSDOF 5
ENDMDL
MODEL 7
REMARK VINA RESULT:    -3.051     10.311     11.370
REMARK INTER + INTRA:          -4.523
REMARK INTER:                  -3.997
REMARK INTRA:                  -0.526
REMARK UNBOUND:                -0.580
REMARK SMILES C=CC(=O)CCCCC
REMARK SMILES IDX 6 1 7 2 8 3 9 4 5 5 3 6 4 7 2 8 1 9
REMARK H PARENT
REMARK Flexibility Score: inf
ROOT
ATOM      1  C   UNL     1      21.008  22.834   7.691  1.00  0.00     0.008 C 
ENDROOT
BRANCH   1   2
ATOM      2  C   UNL     1      21.719  23.911   6.855  1.00  0.00     0.000 C 
BRANCH   2   3
ATOM      3  C   UNL     1      20.772  24.619   5.875  1.00  0.00    -0.003 C 
ATOM      4  C   UNL     1      20.091  25.814   6.537  1.00  0.00     0.004 C 
ENDBRANCH   2   3
ENDBRANCH   1   2
BRANCH   1   5
ATOM      5  C   UNL     1      21.240  23.007   9.198  1.00  0.00     0.080 C 
BRANCH   5   6
ATOM      6  C   UNL     1      19.968  23.420   9.880  1.00  0.00     0.155 C 
ATOM      7  O   UNL     1      19.999  23.749  11.097  1.00  0.00    -0.295 OA
BRANCH   6   8
ATOM      8  C   UNL     1      18.691  23.394   9.140  1.00  0.00     0.039 C 
ATOM      9  C   UNL     1      17.857  24.433   9.117  1.00  0.00     0.012 C 
ENDBRANCH   6   8
ENDBRANCH   5   6
ENDBRANCH   1   5
TORSDOF 5
ENDMDL
MODEL 8
REMARK VINA RESULT:    -3.051      9.436     10.504
REMARK INTER + INTRA:          -4.522
REMARK INTER:                  -4.212
REMARK INTRA:                  -0.310
REMARK UNBOUND:                -0.580
REMARK SMILES C=CC(=O)CCCCC
REMARK SMILES IDX 6 1 7 2 8 3 9 4 5 5 3 6 4 7 2 8 1 9
REMARK H PARENT
REMARK Flexibility Score: inf
ROOT
ATOM      1  C   UNL     1      20.990  22.266   8.089  1.00  0.00     0.008 C 
ENDROOT
BRANCH   1   2
ATOM      2  C   UNL     1      21.014  20.901   8.796  1.00  0.00     0.000 C 
BRANCH   2   3
ATOM      3  C   UNL     1      20.814  19.729   7.823  1.00  0.00    -0.003 C 
ATOM      4  C   UNL     1      19.389  19.188   7.903  1.00  0.00     0.004 C 
ENDBRANCH   2   3
ENDBRANCH   1   2
BRANCH   1   5
ATOM      5  C   UNL     1      20.561  23.407   9.022  1.00  0.00     0.080 C 
BRANCH   5   6
ATOM      6  C   UNL     1      19.368  24.123   8.459  1.00  0.00     0.155 C 
ATOM      7  O   UNL     1      19.513  24.865   7.449  1.00  0.00    -0.295 OA
BRANCH   6   8
ATOM      8  C   UNL     1      18.053  23.995   9.115  1.00  0.00     0.039 C 
ATOM      9  C   UNL     1      17.584  22.828   9.554  1.00  0.00     0.012 C 
ENDBRANCH   6   8
ENDBRANCH   5   6
ENDBRANCH   1   5
TORSDOF 5
ENDMDL
MODEL 9
REMARK VINA RESULT:    -3.027     10.157     11.155
REMARK INTER + INTRA:          -4.492
REMARK INTER:                  -3.998
REMARK INTRA:                  -0.494
REMARK UNBOUND:                -0.580
REMARK SMILES C=CC(=O)CCCCC
REMARK SMILES IDX 6 1 7 2 8 3 9 4 5 5 3 6 4 7 2 8 1 9
REMARK H PARENT
REMARK Flexibility Score: inf
ROOT
ATOM      1  C   UNL     1      20.136  21.932   9.435  1.00  0.00     0.008 C 
ENDROOT
BRANCH   1   2
ATOM      2  C   UNL     1      18.623  22.158   9.293  1.00  0.00     0.000 C 
BRANCH   2   3
ATOM      3  C   UNL     1      18.154  23.458   9.964  1.00  0.00    -0.003 C 
ATOM      4  C   UNL     1      17.924  24.557   8.930  1.00  0.00     0.004 C 
ENDBRANCH   2   3
ENDBRANCH   1   2
BRANCH   1   5
ATOM      5  C   UNL     1      20.882  22.067   8.101  1.00  0.00     0.080 C 
BRANCH   5   6
ATOM      6  C   UNL     1      21.340  23.482   7.897  1.00  0.00     0.155 C 
ATOM      7  O   UNL     1      21.561  24.210   8.903  1.00  0.00    -0.295 OA
BRANCH   6   8
ATOM      8  C   UNL     1      21.484  24.022   6.532  1.00  0.00     0.039 C 
ATOM      9  C   UNL     1      20.577  24.829   5.983  1.00  0.00     0.012 C 
ENDBRANCH   6   8
ENDBRANCH   5   6
ENDBRANCH   1   5
TORSDOF 5
ENDMDL
