MODEL 1
REMARK VINA RESULT:    12.259      0.000      0.000
REMARK INTER + INTRA:          22.288
REMARK INTER:                  23.008
REMARK INTRA:                  -0.720
REMARK UNBOUND:                -0.720
REMARK SMILES O=C([O-])CCCCCCCCCCCCCCC(=O)[O-]
REMARK SMILES IDX 10 1 9 2 8 3 7 4 6 5 5 6 4 7 2 8 1 9 3 10 11 11 12 12 13 13
REMARK SMILES IDX 14 14 15 15 16 16 17 17 18 18 19 19 20 20
REMARK H PARENT
REMARK Flexibility Score: inf
ROOT
ATOM      1  C   UNL     1       6.309  18.275  25.301  1.00  0.00     0.000 C 
ENDROOT
BRANCH   1   2
ATOM      2  C   UNL     1       6.300  17.970  26.809  1.00  0.00     0.000 C 
BRANCH   2   3
ATOM      3  C   UNL     1       7.475  17.075  27.237  1.00  0.00     0.000 C 
BRANCH   3   4
ATOM      4  C   UNL     1       8.759  17.872  27.513  1.00  0.00     0.000 C 
BRANCH   4   5
ATOM      5  C   UNL     1       9.397  17.439  28.842  1.00  0.00     0.000 C 
BRANCH   5   6
ATOM      6  C   UNL     1       8.396  17.449  30.010  1.00  0.00     0.006 C 
BRANCH   6   7
ATOM      7  C   UNL     1       9.068  17.722  31.361  1.00  0.00     0.053 C 
BRANCH   7   8
ATOM      8  C   UNL     1       8.103  17.492  32.481  1.00  0.00     0.041 C 
ATOM      9  O   UNL     1       7.582  18.471  33.079  1.00  0.00    -0.550 OA
ATOM     10  O   UNL     1       7.817  16.199  32.898  1.00  0.00    -0.550 OA
ENDBRANCH   7   8
ENDBRANCH   6   7
ENDBRANCH   5   6
ENDBRANCH   4   5
ENDBRANCH   3   4
ENDBRANCH   2   3
ENDBRANCH   1   2
BRANCH   1  11
ATOM     11  C   UNL     1       5.060  19.051  24.852  1.00  0.00     0.000 C 
BRANCH  11  12
ATOM     12  C   UNL     1       5.022  19.277  23.330  1.00  0.00     0.000 C 
BRANCH  12  13
ATOM     13  C   UNL     1       4.400  20.630  22.938  1.00  0.00     0.000 C 
BRANCH  13  14
ATOM     14  C   UNL     1       3.001  20.549  22.298  1.00  0.00     0.000 C 
BRANCH  14  15
ATOM     15  C   UNL     1       1.875  20.945  23.268  1.00  0.00     0.000 C 
BRANCH  15  16
ATOM     16  C   UNL     1       0.832  19.827  23.457  1.00  0.00     0.006 C 
BRANCH  16  17
ATOM     17  C   UNL     1       0.668  19.351  24.910  1.00  0.00     0.053 C 
BRANCH  17  18
ATOM     18  C   UNL     1       0.930  17.883  25.054  1.00  0.00     0.041 C 
ATOM     19  O   UNL     1       1.669  17.460  25.981  1.00  0.00    -0.550 OA
ATOM     20  O   UNL     1       0.331  16.980  24.184  1.00  0.00    -0.550 OA
ENDBRANCH  17  18
ENDBRANCH  16  17
ENDBRANCH  15  16
ENDBRANCH  14  15
ENDBRANCH  13  14
ENDBRANCH  12  13
ENDBRANCH  11  12
ENDBRANCH   1  11
TORSDOF 15
ENDMDL
MODEL 2
REMARK VINA RESULT:    12.502      0.601      8.950
REMARK INTER + INTRA:          22.745
REMARK INTER:                  23.458
REMARK INTRA:                  -0.713
REMARK UNBOUND:                -0.720
REMARK SMILES O=C([O-])CCCCCCCCCCCCCCC(=O)[O-]
REMARK SMILES IDX 10 1 9 2 8 3 7 4 6 5 5 6 4 7 2 8 1 9 3 10 11 11 12 12 13 13
REMARK SMILES IDX 14 14 15 15 16 16 17 17 18 18 19 19 20 20
REMARK H PARENT
REMARK Flexibility Score: inf
ROOT
ATOM      1  C   UNL     1       5.278  18.879  25.466  1.00  0.00     0.000 C 
ENDROOT
BRANCH   1   2
ATOM      2  C   UNL     1       5.035  19.028  23.954  1.00  0.00     0.000 C 
BRANCH   2   3
ATOM      3  C   UNL     1       4.690  20.470  23.550  1.00  0.00     0.000 C 
BRANCH   3   4
ATOM      4  C   UNL     1       3.775  20.539  22.317  1.00  0.00     0.000 C 
BRANCH   4   5
ATOM      5  C   UNL     1       2.349  20.950  22.716  1.00  0.00     0.000 C 
BRANCH   5   6
ATOM      6  C   UNL     1       1.382  19.756  22.768  1.00  0.00     0.006 C 
BRANCH   6   7
ATOM      7  C   UNL     1       0.726  19.587  24.144  1.00  0.00     0.053 C 
BRANCH   7   8
ATOM      8  C   UNL     1       0.727  18.147  24.550  1.00  0.00     0.041 C 
ATOM      9  O   UNL     1       0.094  17.297  23.870  1.00  0.00    -0.550 OA
ATOM     10  O   UNL     1       1.385  17.751  25.707  1.00  0.00    -0.550 OA
ENDBRANCH   7   8
ENDBRANCH   6   7
ENDBRANCH   5   6
ENDBRANCH   4   5
ENDBRANCH   3   4
ENDBRANCH   2   3
ENDBRANCH   1   2
BRANCH   1  11
ATOM     11  C   UNL     1       6.637  18.233  25.782  1.00  0.00     0.000 C 
BRANCH  11  12
ATOM     12  C   UNL     1       6.684  17.619  27.192  1.00  0.00     0.000 C 
BRANCH  12  13
ATOM     13  C   UNL     1       8.032  16.949  27.512  1.00  0.00     0.000 C 
BRANCH  13  14
ATOM     14  C   UNL     1       9.230  17.909  27.639  1.00  0.00     0.000 C 
BRANCH  14  15
ATOM     15  C   UNL     1       9.598  18.218  29.100  1.00  0.00     0.000 C 
BRANCH  15  16
ATOM     16  C   UNL     1       8.798  17.371  30.108  1.00  0.00     0.006 C 
BRANCH  16  17
ATOM     17  C   UNL     1       9.281  17.491  31.563  1.00  0.00     0.053 C 
BRANCH  17  18
ATOM     18  C   UNL     1       8.145  17.453  32.538  1.00  0.00     0.041 C 
ATOM     19  O   UNL     1       7.745  16.352  33.002  1.00  0.00    -0.550 OA
ATOM     20  O   UNL     1       7.550  18.635  32.960  1.00  0.00    -0.550 OA
ENDBRANCH  17  18
ENDBRANCH  16  17
ENDBRANCH  15  16
ENDBRANCH  14  15
ENDBRANCH  13  14
ENDBRANCH  12  13
ENDBRANCH  11  12
ENDBRANCH   1  11
TORSDOF 15
ENDMDL
MODEL 3
REMARK VINA RESULT:    12.925      2.257      3.115
REMARK INTER + INTRA:          23.539
REMARK INTER:                  24.258
REMARK INTRA:                  -0.719
REMARK UNBOUND:                -0.720
REMARK SMILES O=C([O-])CCCCCCCCCCCCCCC(=O)[O-]
REMARK SMILES IDX 10 1 9 2 8 3 7 4 6 5 5 6 4 7 2 8 1 9 3 10 11 11 12 12 13 13
REMARK SMILES IDX 14 14 15 15 16 16 17 17 18 18 19 19 20 20
REMARK H PARENT
REMARK Flexibility Score: inf
ROOT
ATOM      1  C   UNL     1       7.659  16.820  26.995  1.00  0.00     0.000 C 
ENDROOT
BRANCH   1   2
ATOM      2  C   UNL     1       9.105  16.901  27.515  1.00  0.00     0.000 C 
BRANCH   2   3
ATOM      3  C   UNL     1       9.345  18.133  28.403  1.00  0.00     0.000 C 
BRANCH   3   4
ATOM      4  C   UNL     1       9.658  17.763  29.861  1.00  0.00     0.000 C 
BRANCH   4   5
ATOM      5  C   UNL     1       8.373  17.408  30.623  1.00  0.00     0.000 C 
BRANCH   5   6
ATOM      6  C   UNL     1       8.614  17.205  32.128  1.00  0.00     0.006 C 
BRANCH   6   7
ATOM      7  C   UNL     1       7.533  17.866  32.993  1.00  0.00     0.053 C 
BRANCH   7   8
ATOM      8  C   UNL     1       7.565  19.352  32.824  1.00  0.00     0.041 C 
ATOM      9  O   UNL     1       6.540  20.041  33.076  1.00  0.00    -0.550 OA
ATOM     10  O   UNL     1       8.709  19.973  32.341  1.00  0.00    -0.550 OA
ENDBRANCH   7   8
ENDBRANCH   6   7
ENDBRANCH   5   6
ENDBRANCH   4   5
ENDBRANCH   3   4
ENDBRANCH   2   3
ENDBRANCH   1   2
BRANCH   1  11
ATOM     11  C   UNL     1       7.294  18.006  26.086  1.00  0.00     0.000 C 
BRANCH  11  12
ATOM     12  C   UNL     1       5.812  18.401  26.200  1.00  0.00     0.000 C 
BRANCH  12  13
ATOM     13  C   UNL     1       5.130  17.824  27.454  1.00  0.00     0.000 C 
BRANCH  13  14
ATOM     14  C   UNL     1       3.599  17.982  27.502  1.00  0.00     0.000 C 
BRANCH  14  15
ATOM     15  C   UNL     1       2.943  17.887  26.114  1.00  0.00     0.000 C 
BRANCH  15  16
ATOM     16  C   UNL     1       1.410  17.750  26.188  1.00  0.00     0.006 C 
BRANCH  16  17
ATOM     17  C   UNL     1       0.776  17.052  24.973  1.00  0.00     0.053 C 
BRANCH  17  18
ATOM     18  C   UNL     1       0.209  18.033  23.993  1.00  0.00     0.041 C 
ATOM     19  O   UNL     1       0.234  19.266  24.245  1.00  0.00    -0.550 OA
ATOM     20  O   UNL     1      -0.317  17.587  22.787  1.00  0.00    -0.550 OA
ENDBRANCH  17  18
ENDBRANCH  16  17
ENDBRANCH  15  16
ENDBRANCH  14  15
ENDBRANCH  13  14
ENDBRANCH  12  13
ENDBRANCH  11  12
ENDBRANCH   1  11
TORSDOF 15
ENDMDL
MODEL 4
REMARK VINA RESULT:    13.000      2.030      3.010
REMARK INTER + INTRA:          23.680
REMARK INTER:                  24.469
REMARK INTRA:                  -0.789
REMARK UNBOUND:                -0.720
REMARK SMILES O=C([O-])CCCCCCCCCCCCCCC(=O)[O-]
REMARK SMILES IDX 10 1 9 2 8 3 7 4 6 5 5 6 4 7 2 8 1 9 3 10 11 11 12 12 13 13
REMARK SMILES IDX 14 14 15 15 16 16 17 17 18 18 19 19 20 20
REMARK H PARENT
REMARK Flexibility Score: inf
ROOT
ATOM      1  C   UNL     1       5.165  18.520  26.207  1.00  0.00     0.000 C 
ENDROOT
BRANCH   1   2
ATOM      2  C   UNL     1       6.645  18.097  26.166  1.00  0.00     0.000 C 
BRANCH   2   3
ATOM      3  C   UNL     1       7.092  17.385  27.453  1.00  0.00     0.000 C 
BRANCH   3   4
ATOM      4  C   UNL     1       8.598  17.082  27.472  1.00  0.00     0.000 C 
BRANCH   4   5
ATOM      5  C   UNL     1       9.243  17.594  28.768  1.00  0.00     0.000 C 
BRANCH   5   6
ATOM      6  C   UNL     1       8.306  17.480  29.981  1.00  0.00     0.006 C 
BRANCH   6   7
ATOM      7  C   UNL     1       9.058  17.540  31.317  1.00  0.00     0.053 C 
BRANCH   7   8
ATOM      8  C   UNL     1       8.108  17.370  32.460  1.00  0.00     0.041 C 
ATOM      9  O   UNL     1       7.801  16.217  32.863  1.00  0.00    -0.550 OA
ATOM     10  O   UNL     1       7.520  18.483  33.048  1.00  0.00    -0.550 OA
ENDBRANCH   7   8
ENDBRANCH   6   7
ENDBRANCH   5   6
ENDBRANCH   4   5
ENDBRANCH   3   4
ENDBRANCH   2   3
ENDBRANCH   1   2
BRANCH   1  11
ATOM     11  C   UNL     1       4.384  17.812  27.327  1.00  0.00     0.000 C 
BRANCH  11  12
ATOM     12  C   UNL     1       2.862  17.873  27.112  1.00  0.00     0.000 C 
BRANCH  12  13
ATOM     13  C   UNL     1       2.466  17.918  25.624  1.00  0.00     0.000 C 
BRANCH  13  14
ATOM     14  C   UNL     1       1.059  17.383  25.302  1.00  0.00     0.000 C 
BRANCH  14  15
ATOM     15  C   UNL     1       0.315  18.238  24.262  1.00  0.00     0.000 C 
BRANCH  15  16
ATOM     16  C   UNL     1       0.981  19.609  24.033  1.00  0.00     0.006 C 
BRANCH  16  17
ATOM     17  C   UNL     1       1.710  19.744  22.686  1.00  0.00     0.053 C 
BRANCH  17  18
ATOM     18  C   UNL     1       2.610  20.941  22.650  1.00  0.00     0.041 C 
ATOM     19  O   UNL     1       2.194  22.058  23.057  1.00  0.00    -0.550 OA
ATOM     20  O   UNL     1       3.917  20.816  22.199  1.00  0.00    -0.550 OA
ENDBRANCH  17  18
ENDBRANCH  16  17
ENDBRANCH  15  16
ENDBRANCH  14  15
ENDBRANCH  13  14
ENDBRANCH  12  13
ENDBRANCH  11  12
ENDBRANCH   1  11
TORSDOF 15
ENDMDL
MODEL 5
REMARK VINA RESULT:    13.306      5.442      7.921
REMARK INTER + INTRA:          24.254
REMARK INTER:                  25.086
REMARK INTRA:                  -0.832
REMARK UNBOUND:                -0.720
REMARK SMILES O=C([O-])CCCCCCCCCCCCCCC(=O)[O-]
REMARK SMILES IDX 10 1 9 2 8 3 7 4 6 5 5 6 4 7 2 8 1 9 3 10 11 11 12 12 13 13
REMARK SMILES IDX 14 14 15 15 16 16 17 17 18 18 19 19 20 20
REMARK H PARENT
REMARK Flexibility Score: inf
ROOT
ATOM      1  C   UNL     1      10.128  15.271  26.997  1.00  0.00     0.000 C 
ENDROOT
BRANCH   1   2
ATOM      2  C   UNL     1       8.633  15.569  26.784  1.00  0.00     0.000 C 
BRANCH   2   3
ATOM      3  C   UNL     1       8.179  16.853  27.497  1.00  0.00     0.000 C 
BRANCH   3   4
ATOM      4  C   UNL     1       9.314  17.876  27.657  1.00  0.00     0.000 C 
BRANCH   4   5
ATOM      5  C   UNL     1       9.719  18.017  29.132  1.00  0.00     0.000 C 
BRANCH   5   6
ATOM      6  C   UNL     1       8.713  17.357  30.089  1.00  0.00     0.006 C 
BRANCH   6   7
ATOM      7  C   UNL     1       9.224  17.297  31.534  1.00  0.00     0.053 C 
BRANCH   7   8
ATOM      8  C   UNL     1       8.085  17.414  32.496  1.00  0.00     0.041 C 
ATOM      9  O   UNL     1       7.605  18.545  32.775  1.00  0.00    -0.550 OA
ATOM     10  O   UNL     1       7.586  16.281  33.124  1.00  0.00    -0.550 OA
ENDBRANCH   7   8
ENDBRANCH   6   7
ENDBRANCH   5   6
ENDBRANCH   4   5
ENDBRANCH   3   4
ENDBRANCH   2   3
ENDBRANCH   1   2
BRANCH   1  11
ATOM     11  C   UNL     1      10.603  14.047  26.197  1.00  0.00     0.000 C 
BRANCH  11  12
ATOM     12  C   UNL     1      11.609  13.186  26.980  1.00  0.00     0.000 C 
BRANCH  12  13
ATOM     13  C   UNL     1      10.968  11.935  27.609  1.00  0.00     0.000 C 
BRANCH  13  14
ATOM     14  C   UNL     1       9.931  11.214  26.728  1.00  0.00     0.000 C 
BRANCH  14  15
ATOM     15  C   UNL     1       9.827   9.710  27.034  1.00  0.00     0.000 C 
BRANCH  15  16
ATOM     16  C   UNL     1       8.405   9.283  27.446  1.00  0.00     0.006 C 
BRANCH  16  17
ATOM     17  C   UNL     1       7.330   9.536  26.376  1.00  0.00     0.053 C 
BRANCH  17  18
ATOM     18  C   UNL     1       6.135  10.244  26.935  1.00  0.00     0.041 C 
ATOM     19  O   UNL     1       5.703  11.290  26.383  1.00  0.00    -0.550 OA
ATOM     20  O   UNL     1       5.478   9.731  28.046  1.00  0.00    -0.550 OA
ENDBRANCH  17  18
ENDBRANCH  16  17
ENDBRANCH  15  16
ENDBRANCH  14  15
ENDBRANCH  13  14
ENDBRANCH  12  13
ENDBRANCH  11  12
ENDBRANCH   1  11
TORSDOF 15
ENDMDL
MODEL 6
REMARK VINA RESULT:    13.722      5.244      8.743
REMARK INTER + INTRA:          25.035
REMARK INTER:                  25.479
REMARK INTRA:                  -0.444
REMARK UNBOUND:                -0.720
REMARK SMILES O=C([O-])CCCCCCCCCCCCCCC(=O)[O-]
REMARK SMILES IDX 10 1 9 2 8 3 7 4 6 5 5 6 4 7 2 8 1 9 3 10 11 11 12 12 13 13
REMARK SMILES IDX 14 14 15 15 16 16 17 17 18 18 19 19 20 20
REMARK H PARENT
REMARK Flexibility Score: inf
ROOT
ATOM      1  C   UNL     1       9.909  14.267  26.406  1.00  0.00     0.000 C 
ENDROOT
BRANCH   1   2
ATOM      2  C   UNL     1      11.274  13.638  26.737  1.00  0.00     0.000 C 
BRANCH   2   3
ATOM      3  C   UNL     1      11.152  12.189  27.235  1.00  0.00     0.000 C 
BRANCH   3   4
ATOM      4  C   UNL     1       9.901  11.479  26.696  1.00  0.00     0.000 C 
BRANCH   4   5
ATOM      5  C   UNL     1       9.944   9.976  27.015  1.00  0.00     0.000 C 
BRANCH   5   6
ATOM      6  C   UNL     1       8.654   9.476  27.685  1.00  0.00     0.006 C 
BRANCH   6   7
ATOM      7  C   UNL     1       7.516   9.251  26.681  1.00  0.00     0.053 C 
BRANCH   7   8
ATOM      8  C   UNL     1       6.296  10.012  27.096  1.00  0.00     0.041 C 
ATOM      9  O   UNL     1       5.621   9.635  28.090  1.00  0.00    -0.550 OA
ATOM     10  O   UNL     1       5.876  11.109  26.355  1.00  0.00    -0.550 OA
ENDBRANCH   7   8
ENDBRANCH   6   7
ENDBRANCH   5   6
ENDBRANCH   4   5
ENDBRANCH   3   4
ENDBRANCH   2   3
ENDBRANCH   1   2
BRANCH   1  11
ATOM     11  C   UNL     1       9.707  15.627  27.094  1.00  0.00     0.000 C 
BRANCH  11  12
ATOM     12  C   UNL     1       8.349  16.264  26.752  1.00  0.00     0.000 C 
BRANCH  12  13
ATOM     13  C   UNL     1       8.271  17.755  27.127  1.00  0.00     0.000 C 
BRANCH  13  14
ATOM     14  C   UNL     1       9.193  18.191  28.282  1.00  0.00     0.000 C 
BRANCH  14  15
ATOM     15  C   UNL     1       8.895  17.453  29.598  1.00  0.00     0.000 C 
BRANCH  15  16
ATOM     16  C   UNL     1       9.365  18.236  30.839  1.00  0.00     0.006 C 
BRANCH  16  17
ATOM     17  C   UNL     1       9.414  17.406  32.133  1.00  0.00     0.053 C 
BRANCH  17  18
ATOM     18  C   UNL     1       8.077  17.334  32.806  1.00  0.00     0.041 C 
ATOM     19  O   UNL     1       7.438  18.389  33.058  1.00  0.00    -0.550 OA
ATOM     20  O   UNL     1       7.524  16.101  33.125  1.00  0.00    -0.550 OA
ENDBRANCH  17  18
ENDBRANCH  16  17
ENDBRANCH  15  16
ENDBRANCH  14  15
ENDBRANCH  13  14
ENDBRANCH  12  13
ENDBRANCH  11  12
ENDBRANCH   1  11
TORSDOF 15
ENDMDL
MODEL 7
REMARK VINA RESULT:    13.723      1.273      1.996
REMARK INTER + INTRA:          25.037
REMARK INTER:                  25.487
REMARK INTRA:                  -0.450
REMARK UNBOUND:                -0.720
REMARK SMILES O=C([O-])CCCCCCCCCCCCCCC(=O)[O-]
REMARK SMILES IDX 10 1 9 2 8 3 7 4 6 5 5 6 4 7 2 8 1 9 3 10 11 11 12 12 13 13
REMARK SMILES IDX 14 14 15 15 16 16 17 17 18 18 19 19 20 20
REMARK H PARENT
REMARK Flexibility Score: inf
ROOT
ATOM      1  C   UNL     1       7.571  17.517  26.351  1.00  0.00     0.000 C 
ENDROOT
BRANCH   1   2
ATOM      2  C   UNL     1       7.761  17.149  27.833  1.00  0.00     0.000 C 
BRANCH   2   3
ATOM      3  C   UNL     1       9.185  17.436  28.335  1.00  0.00     0.000 C 
BRANCH   3   4
ATOM      4  C   UNL     1       9.210  17.988  29.769  1.00  0.00     0.000 C 
BRANCH   4   5
ATOM      5  C   UNL     1       8.205  17.242  30.660  1.00  0.00     0.000 C 
BRANCH   5   6
ATOM      6  C   UNL     1       8.625  17.221  32.138  1.00  0.00     0.006 C 
BRANCH   6   7
ATOM      7  C   UNL     1       7.622  17.942  33.048  1.00  0.00     0.053 C 
BRANCH   7   8
ATOM      8  C   UNL     1       7.588  19.403  32.733  1.00  0.00     0.041 C 
ATOM      9  O   UNL     1       8.626  19.988  32.324  1.00  0.00    -0.550 OA
ATOM     10  O   UNL     1       6.424  20.132  32.938  1.00  0.00    -0.550 OA
ENDBRANCH   7   8
ENDBRANCH   6   7
ENDBRANCH   5   6
ENDBRANCH   4   5
ENDBRANCH   3   4
ENDBRANCH   2   3
ENDBRANCH   1   2
BRANCH   1  11
ATOM     11  C   UNL     1       6.252  18.265  26.096  1.00  0.00     0.000 C 
BRANCH  11  12
ATOM     12  C   UNL     1       6.037  18.588  24.607  1.00  0.00     0.000 C 
BRANCH  12  13
ATOM     13  C   UNL     1       4.633  19.146  24.310  1.00  0.00     0.000 C 
BRANCH  13  14
ATOM     14  C   UNL     1       4.488  19.875  22.961  1.00  0.00     0.000 C 
BRANCH  14  15
ATOM     15  C   UNL     1       3.263  20.804  22.910  1.00  0.00     0.000 C 
BRANCH  15  16
ATOM     16  C   UNL     1       1.950  20.043  22.639  1.00  0.00     0.006 C 
BRANCH  16  17
ATOM     17  C   UNL     1       0.965  20.037  23.820  1.00  0.00     0.053 C 
BRANCH  17  18
ATOM     18  C   UNL     1       0.714  18.653  24.336  1.00  0.00     0.041 C 
ATOM     19  O   UNL     1       1.237  18.275  25.417  1.00  0.00    -0.550 OA
ATOM     20  O   UNL     1      -0.124  17.792  23.639  1.00  0.00    -0.550 OA
ENDBRANCH  17  18
ENDBRANCH  16  17
ENDBRANCH  15  16
ENDBRANCH  14  15
ENDBRANCH  13  14
ENDBRANCH  12  13
ENDBRANCH  11  12
ENDBRANCH   1  11
TORSDOF 15
ENDMDL
MODEL 8
REMARK VINA RESULT:    13.815      2.235      9.071
REMARK INTER + INTRA:          25.209
REMARK INTER:                  25.785
REMARK INTRA:                  -0.576
REMARK UNBOUND:                -0.720
REMARK SMILES O=C([O-])CCCCCCCCCCCCCCC(=O)[O-]
REMARK SMILES IDX 10 1 9 2 8 3 7 4 6 5 5 6 4 7 2 8 1 9 3 10 11 11 12 12 13 13
REMARK SMILES IDX 14 14 15 15 16 16 17 17 18 18 19 19 20 20
REMARK H PARENT
REMARK Flexibility Score: inf
ROOT
ATOM      1  C   UNL     1       6.939  18.092  26.080  1.00  0.00     0.000 C 
ENDROOT
BRANCH   1   2
ATOM      2  C   UNL     1       5.424  18.350  26.171  1.00  0.00     0.000 C 
BRANCH   2   3
ATOM      3  C   UNL     1       4.818  17.846  27.491  1.00  0.00     0.000 C 
BRANCH   3   4
ATOM      4  C   UNL     1       3.282  17.884  27.492  1.00  0.00     0.000 C 
BRANCH   4   5
ATOM      5  C   UNL     1       2.734  17.876  26.057  1.00  0.00     0.000 C 
BRANCH   5   6
ATOM      6  C   UNL     1       1.214  17.652  26.004  1.00  0.00     0.006 C 
BRANCH   6   7
ATOM      7  C   UNL     1       0.755  17.020  24.684  1.00  0.00     0.053 C 
BRANCH   7   8
ATOM      8  C   UNL     1       0.244  18.072  23.751  1.00  0.00     0.041 C 
ATOM      9  O   UNL     1      -0.152  17.758  22.597  1.00  0.00    -0.550 OA
ATOM     10  O   UNL     1       0.252  19.406  24.136  1.00  0.00    -0.550 OA
ENDBRANCH   7   8
ENDBRANCH   6   7
ENDBRANCH   5   6
ENDBRANCH   4   5
ENDBRANCH   3   4
ENDBRANCH   2   3
ENDBRANCH   1   2
BRANCH   1  11
ATOM     11  C   UNL     1       7.530  17.591  27.408  1.00  0.00     0.000 C 
BRANCH  11  12
ATOM     12  C   UNL     1       8.863  16.847  27.215  1.00  0.00     0.000 C 
BRANCH  12  13
ATOM     13  C   UNL     1       9.857  17.085  28.368  1.00  0.00     0.000 C 
BRANCH  13  14
ATOM     14  C   UNL     1       9.315  17.924  29.540  1.00  0.00     0.000 C 
BRANCH  14  15
ATOM     15  C   UNL     1       8.395  17.121  30.477  1.00  0.00     0.000 C 
BRANCH  15  16
ATOM     16  C   UNL     1       8.781  17.271  31.961  1.00  0.00     0.006 C 
BRANCH  16  17
ATOM     17  C   UNL     1       7.675  17.869  32.847  1.00  0.00     0.053 C 
BRANCH  17  18
ATOM     18  C   UNL     1       7.612  19.362  32.736  1.00  0.00     0.041 C 
ATOM     19  O   UNL     1       6.587  19.982  33.125  1.00  0.00    -0.550 OA
ATOM     20  O   UNL     1       8.696  20.069  32.234  1.00  0.00    -0.550 OA
ENDBRANCH  17  18
ENDBRANCH  16  17
ENDBRANCH  15  16
ENDBRANCH  14  15
ENDBRANCH  13  14
ENDBRANCH  12  13
ENDBRANCH  11  12
ENDBRANCH   1  11
TORSDOF 15
ENDMDL
