MODEL 1
REMARK VINA RESULT:    -3.606      0.000      0.000
REMARK INTER + INTRA:          -5.875
REMARK INTER:                  -5.503
REMARK INTRA:                  -0.372
REMARK UNBOUND:                -0.372
REMARK SMILES CC1=CCC[C@H](C)C(=O)C[C@H](C(C)C)C(=O)C1
REMARK SMILES IDX 8 1 9 2 6 3 7 4 5 5 4 6 3 7 2 8 1 9 10 11 11 12 15 13 16 14
REMARK SMILES IDX 17 15 12 17 13 18 14 19
REMARK H PARENT
REMARK Flexibility Score: 70.00
ROOT
ATOM      1  C   UNL     1      25.580  29.302 139.892  1.00  0.00     0.136 C 
ATOM      2  O   UNL     1      24.838  28.339 139.773  1.00  0.00    -0.299 OA
ENDROOT
BRANCH   1   3
ATOM      3  C   UNL     1      25.037  30.599 140.467  1.00  0.00     0.053 C 
ATOM      4  C   UNL     1      23.788  31.049 139.695  1.00  0.00     0.016 C 
BRANCH   3   5
ATOM      5  C   UNL     1      24.724  30.428 141.970  1.00  0.00     0.015 C 
BRANCH   5   6
ATOM      6  C   UNL     1      25.616  31.324 142.853  1.00  0.00     0.028 C 
BRANCH   6   7
ATOM      7  C   UNL     1      26.560  30.489 143.682  1.00  0.00    -0.028 C 
ATOM      8  C   UNL     1      27.873  30.312 143.410  1.00  0.00    -0.070 CG0
ATOM      9  C   UNL     1      28.660  29.377 144.293  1.00  0.00     0.039 C 
ATOM     10  G   UNL     1      28.584  31.027 142.271  1.00  0.00     0.000 G0
ENDBRANCH   6   7
ENDBRANCH   5   6
ENDBRANCH   3   5
ENDBRANCH   1   3
BRANCH   1  11
ATOM     11  C   UNL     1      27.026  29.185 139.462  1.00  0.00     0.087 C 
BRANCH  11  12
ATOM     12  C   UNL     1      27.928  30.409 139.821  1.00  0.00     0.066 C 
BRANCH  12  13
ATOM     13  C   UNL     1      28.808  30.188 141.047  1.00  0.00     0.140 C 
ATOM     14  O   UNL     1      29.723  29.379 141.008  1.00  0.00    -0.299 OA
BRANCH  13  15
ATOM     15  C   UNL     1      28.622  31.025 142.291  1.00  0.00     0.106 CG0
ATOM     16  G   UNL     1      27.873  30.279 143.386  1.00  0.00     0.000 G0
ENDBRANCH  13  15
ENDBRANCH  12  13
BRANCH  12  17
ATOM     17  C   UNL     1      28.740  31.004 138.623  1.00  0.00    -0.006 C 
ATOM     18  C   UNL     1      28.926  32.524 138.762  1.00  0.00     0.008 C 
ATOM     19  C   UNL     1      28.160  30.675 137.237  1.00  0.00     0.008 C 
ENDBRANCH  12  17
ENDBRANCH  11  12
ENDBRANCH   1  11
TORSDOF 1
ENDMDL
MODEL 2
REMARK VINA RESULT:    -3.531      1.827      2.280
REMARK INTER + INTRA:          -5.761
REMARK INTER:                  -5.523
REMARK INTRA:                  -0.237
REMARK UNBOUND:                -0.372
REMARK SMILES CC1=CCC[C@H](C)C(=O)C[C@H](C(C)C)C(=O)C1
REMARK SMILES IDX 8 1 9 2 6 3 7 4 5 5 4 6 3 7 2 8 1 9 10 11 11 12 15 13 16 14
REMARK SMILES IDX 17 15 12 17 13 18 14 19
REMARK H PARENT
REMARK Flexibility Score: 70.00
ROOT
ATOM      1  C   UNL     1      25.295  31.886 138.332  1.00  0.00     0.136 C 
ATOM      2  O   UNL     1      25.327  33.078 138.067  1.00  0.00    -0.299 OA
ENDROOT
BRANCH   1   3
ATOM      3  C   UNL     1      24.056  31.297 138.984  1.00  0.00     0.053 C 
ATOM      4  C   UNL     1      24.006  29.777 138.770  1.00  0.00     0.016 C 
BRANCH   3   5
ATOM      5  C   UNL     1      24.027  31.643 140.489  1.00  0.00     0.015 C 
BRANCH   5   6
ATOM      6  C   UNL     1      24.708  30.557 141.347  1.00  0.00     0.028 C 
BRANCH   6   7
ATOM      7  C   UNL     1      25.889  31.126 142.092  1.00  0.00    -0.028 C 
ATOM      8  C   UNL     1      27.184  30.861 141.802  1.00  0.00    -0.070 CG0
ATOM      9  C   UNL     1      28.245  31.446 142.699  1.00  0.00     0.039 C 
ATOM     10  G   UNL     1      27.607  30.022 140.606  1.00  0.00     0.000 G0
ENDBRANCH   6   7
ENDBRANCH   5   6
ENDBRANCH   3   5
ENDBRANCH   1   3
BRANCH   1  11
ATOM     11  C   UNL     1      26.493  31.020 138.011  1.00  0.00     0.087 C 
BRANCH  11  12
ATOM     12  C   UNL     1      27.870  31.584 138.489  1.00  0.00     0.066 C 
BRANCH  12  13
ATOM     13  C   UNL     1      28.499  30.788 139.628  1.00  0.00     0.140 C 
ATOM     14  O   UNL     1      29.707  30.828 139.809  1.00  0.00    -0.299 OA
BRANCH  13  15
ATOM     15  C   UNL     1      27.637  30.016 140.600  1.00  0.00     0.106 CG0
ATOM     16  G   UNL     1      27.192  30.864 141.781  1.00  0.00     0.000 G0
ENDBRANCH  13  15
ENDBRANCH  12  13
BRANCH  12  17
ATOM     17  C   UNL     1      28.897  31.875 137.347  1.00  0.00    -0.006 C 
ATOM     18  C   UNL     1      28.822  33.337 136.874  1.00  0.00     0.008 C 
ATOM     19  C   UNL     1      28.787  30.932 136.137  1.00  0.00     0.008 C 
ENDBRANCH  12  17
ENDBRANCH  11  12
ENDBRANCH   1  11
TORSDOF 1
ENDMDL
MODEL 3
REMARK VINA RESULT:    -3.469      2.181      4.181
REMARK INTER + INTRA:          -5.667
REMARK INTER:                  -5.257
REMARK INTRA:                  -0.410
REMARK UNBOUND:                -0.372
REMARK SMILES CC1=CCC[C@H](C)C(=O)C[C@H](C(C)C)C(=O)C1
REMARK SMILES IDX 8 1 9 2 6 3 7 4 5 5 4 6 3 7 2 8 1 9 10 11 11 12 15 13 16 14
REMARK SMILES IDX 17 15 12 17 13 18 14 19
REMARK H PARENT
REMARK Flexibility Score: 70.00
ROOT
ATOM      1  C   UNL     1      27.308  32.573 138.054  1.00  0.00     0.136 C 
ATOM      2  O   UNL     1      27.640  33.574 137.437  1.00  0.00    -0.299 OA
ENDROOT
BRANCH   1   3
ATOM      3  C   UNL     1      28.130  31.303 137.919  1.00  0.00     0.053 C 
ATOM      4  C   UNL     1      28.359  30.964 136.439  1.00  0.00     0.016 C 
BRANCH   3   5
ATOM      5  C   UNL     1      29.474  31.455 138.664  1.00  0.00     0.015 C 
BRANCH   5   6
ATOM      6  C   UNL     1      29.492  30.674 139.994  1.00  0.00     0.028 C 
BRANCH   6   7
ATOM      7  C   UNL     1      29.515  31.619 141.169  1.00  0.00    -0.028 C 
ATOM      8  C   UNL     1      28.512  31.756 142.068  1.00  0.00    -0.070 CG0
ATOM      9  C   UNL     1      28.659  32.806 143.139  1.00  0.00     0.039 C 
ATOM     10  G   UNL     1      27.264  30.886 142.051  1.00  0.00     0.000 G0
ENDBRANCH   6   7
ENDBRANCH   5   6
ENDBRANCH   3   5
ENDBRANCH   1   3
BRANCH   1  11
ATOM     11  C   UNL     1      26.081  32.617 138.939  1.00  0.00     0.087 C 
BRANCH  11  12
ATOM     12  C   UNL     1      25.862  31.358 139.837  1.00  0.00     0.066 C 
BRANCH  12  13
ATOM     13  C   UNL     1      26.108  31.609 141.321  1.00  0.00     0.140 C 
ATOM     14  O   UNL     1      25.342  32.316 141.959  1.00  0.00    -0.299 OA
BRANCH  13  15
ATOM     15  C   UNL     1      27.242  30.919 142.043  1.00  0.00     0.106 CG0
ATOM     16  G   UNL     1      28.506  31.764 142.081  1.00  0.00     0.000 G0
ENDBRANCH  13  15
ENDBRANCH  12  13
BRANCH  12  17
ATOM     17  C   UNL     1      24.518  30.597 139.592  1.00  0.00    -0.006 C 
ATOM     18  C   UNL     1      24.736  29.079 139.482  1.00  0.00     0.008 C 
ATOM     19  C   UNL     1      23.718  31.096 138.376  1.00  0.00     0.008 C 
ENDBRANCH  12  17
ENDBRANCH  11  12
ENDBRANCH   1  11
TORSDOF 1
ENDMDL
MODEL 4
REMARK VINA RESULT:    -3.042      1.706      4.150
REMARK INTER + INTRA:          -5.014
REMARK INTER:                  -4.630
REMARK INTRA:                  -0.384
REMARK UNBOUND:                -0.372
REMARK SMILES CC1=CCC[C@H](C)C(=O)C[C@H](C(C)C)C(=O)C1
REMARK SMILES IDX 8 1 9 2 6 3 7 4 5 5 4 6 3 7 2 8 1 9 10 11 11 12 15 13 16 14
REMARK SMILES IDX 17 15 12 17 13 18 14 19
REMARK H PARENT
REMARK Flexibility Score: 70.00
ROOT
ATOM      1  C   UNL     1      24.900  30.998 140.431  1.00  0.00     0.136 C 
ATOM      2  O   UNL     1      23.820  31.463 140.100  1.00  0.00    -0.299 OA
ENDROOT
BRANCH   1   3
ATOM      3  C   UNL     1      25.469  29.811 139.672  1.00  0.00     0.053 C 
ATOM      4  C   UNL     1      24.337  28.939 139.109  1.00  0.00     0.016 C 
BRANCH   3   5
ATOM      5  C   UNL     1      26.403  30.298 138.542  1.00  0.00     0.015 C 
BRANCH   5   6
ATOM      6  C   UNL     1      27.873  29.909 138.796  1.00  0.00     0.028 C 
BRANCH   6   7
ATOM      7  C   UNL     1      28.673  31.105 139.250  1.00  0.00    -0.028 C 
ATOM      8  C   UNL     1      29.076  31.325 140.523  1.00  0.00    -0.070 CG0
ATOM      9  C   UNL     1      29.797  32.614 140.825  1.00  0.00     0.039 C 
ATOM     10  G   UNL     1      28.849  30.323 141.645  1.00  0.00     0.000 G0
ENDBRANCH   6   7
ENDBRANCH   5   6
ENDBRANCH   3   5
ENDBRANCH   1   3
BRANCH   1  11
ATOM     11  C   UNL     1      25.650  31.611 141.594  1.00  0.00     0.087 C 
BRANCH  11  12
ATOM     12  C   UNL     1      26.357  30.590 142.542  1.00  0.00     0.066 C 
BRANCH  12  13
ATOM     13  C   UNL     1      27.854  30.832 142.701  1.00  0.00     0.140 C 
ATOM     14  O   UNL     1      28.284  31.375 143.709  1.00  0.00    -0.299 OA
BRANCH  13  15
ATOM     15  C   UNL     1      28.832  30.326 141.667  1.00  0.00     0.106 CG0
ATOM     16  G   UNL     1      29.066  31.330 140.549  1.00  0.00     0.000 G0
ENDBRANCH  13  15
ENDBRANCH  12  13
BRANCH  12  17
ATOM     17  C   UNL     1      25.653  30.374 143.923  1.00  0.00    -0.006 C 
ATOM     18  C   UNL     1      24.781  29.108 143.924  1.00  0.00     0.008 C 
ATOM     19  C   UNL     1      24.825  31.576 144.408  1.00  0.00     0.008 C 
ENDBRANCH  12  17
ENDBRANCH  11  12
ENDBRANCH   1  11
TORSDOF 1
ENDMDL
MODEL 5
REMARK VINA RESULT:    -3.013      2.952      5.136
REMARK INTER + INTRA:          -4.970
REMARK INTER:                  -4.659
REMARK INTRA:                  -0.311
REMARK UNBOUND:                -0.372
REMARK SMILES CC1=CCC[C@H](C)C(=O)C[C@H](C(C)C)C(=O)C1
REMARK SMILES IDX 8 1 9 2 6 3 7 4 5 5 4 6 3 7 2 8 1 9 10 11 11 12 15 13 16 14
REMARK SMILES IDX 17 15 12 17 13 18 14 19
REMARK H PARENT
REMARK Flexibility Score: 70.00
ROOT
ATOM      1  C   UNL     1      27.561  32.567 137.906  1.00  0.00     0.136 C 
ATOM      2  O   UNL     1      28.353  32.895 137.035  1.00  0.00    -0.299 OA
ENDROOT
BRANCH   1   3
ATOM      3  C   UNL     1      27.131  33.584 138.949  1.00  0.00     0.053 C 
ATOM      4  C   UNL     1      28.357  34.196 139.642  1.00  0.00     0.016 C 
BRANCH   3   5
ATOM      5  C   UNL     1      26.261  34.681 138.298  1.00  0.00     0.015 C 
BRANCH   5   6
ATOM      6  C   UNL     1      24.812  34.208 138.061  1.00  0.00     0.028 C 
BRANCH   6   7
ATOM      7  C   UNL     1      24.178  33.759 139.354  1.00  0.00    -0.028 C 
ATOM      8  C   UNL     1      23.654  32.529 139.568  1.00  0.00    -0.070 CG0
ATOM      9  C   UNL     1      22.981  32.267 140.891  1.00  0.00     0.039 C 
ATOM     10  G   UNL     1      23.735  31.407 138.544  1.00  0.00     0.000 G0
ENDBRANCH   6   7
ENDBRANCH   5   6
ENDBRANCH   3   5
ENDBRANCH   1   3
BRANCH   1  11
ATOM     11  C   UNL     1      27.027  31.151 137.930  1.00  0.00     0.087 C 
BRANCH  11  12
ATOM     12  C   UNL     1      26.207  30.771 139.204  1.00  0.00     0.066 C 
BRANCH  12  13
ATOM     13  C   UNL     1      24.768  30.360 138.912  1.00  0.00     0.140 C 
ATOM     14  O   UNL     1      24.424  29.194 139.043  1.00  0.00    -0.299 OA
BRANCH  13  15
ATOM     15  C   UNL     1      23.728  31.393 138.546  1.00  0.00     0.106 CG0
ATOM     16  G   UNL     1      23.662  32.532 139.553  1.00  0.00     0.000 G0
ENDBRANCH  13  15
ENDBRANCH  12  13
BRANCH  12  17
ATOM     17  C   UNL     1      26.915  29.763 140.168  1.00  0.00    -0.006 C 
ATOM     18  C   UNL     1      27.375  30.446 141.467  1.00  0.00     0.008 C 
ATOM     19  C   UNL     1      28.092  29.000 139.537  1.00  0.00     0.008 C 
ENDBRANCH  12  17
ENDBRANCH  11  12
ENDBRANCH   1  11
TORSDOF 1
ENDMDL
MODEL 6
REMARK VINA RESULT:    -2.871      2.999      5.099
REMARK INTER + INTRA:          -4.753
REMARK INTER:                  -4.287
REMARK INTRA:                  -0.465
REMARK UNBOUND:                -0.372
REMARK SMILES CC1=CCC[C@H](C)C(=O)C[C@H](C(C)C)C(=O)C1
REMARK SMILES IDX 8 1 9 2 6 3 7 4 5 5 4 6 3 7 2 8 1 9 10 11 11 12 15 13 16 14
REMARK SMILES IDX 17 15 12 17 13 18 14 19
REMARK H PARENT
REMARK Flexibility Score: 70.00
ROOT
ATOM      1  C   UNL     1      27.961  30.898 138.239  1.00  0.00     0.136 C 
ATOM      2  O   UNL     1      28.725  30.674 137.311  1.00  0.00    -0.299 OA
ENDROOT
BRANCH   1   3
ATOM      3  C   UNL     1      28.441  30.706 139.667  1.00  0.00     0.053 C 
ATOM      4  C   UNL     1      28.898  29.257 139.892  1.00  0.00     0.016 C 
BRANCH   3   5
ATOM      5  C   UNL     1      29.581  31.699 139.986  1.00  0.00     0.015 C 
BRANCH   5   6
ATOM      6  C   UNL     1      29.095  32.879 140.852  1.00  0.00     0.028 C 
BRANCH   6   7
ATOM      7  C   UNL     1      28.887  34.112 140.008  1.00  0.00    -0.028 C 
ATOM      8  C   UNL     1      27.680  34.645 139.709  1.00  0.00    -0.070 CG0
ATOM      9  C   UNL     1      27.642  35.834 138.783  1.00  0.00     0.039 C 
ATOM     10  G   UNL     1      26.376  34.111 140.281  1.00  0.00     0.000 G0
ENDBRANCH   6   7
ENDBRANCH   5   6
ENDBRANCH   3   5
ENDBRANCH   1   3
BRANCH   1  11
ATOM     11  C   UNL     1      26.551  31.360 137.946  1.00  0.00     0.087 C 
BRANCH  11  12
ATOM     12  C   UNL     1      25.725  31.810 139.193  1.00  0.00     0.066 C 
BRANCH  12  13
ATOM     13  C   UNL     1      25.550  33.321 139.304  1.00  0.00     0.140 C 
ATOM     14  O   UNL     1      24.693  33.889 138.643  1.00  0.00    -0.299 OA
BRANCH  13  15
ATOM     15  C   UNL     1      26.364  34.122 140.294  1.00  0.00     0.106 CG0
ATOM     16  G   UNL     1      27.668  34.629 139.698  1.00  0.00     0.000 G0
ENDBRANCH  13  15
ENDBRANCH  12  13
BRANCH  12  17
ATOM     17  C   UNL     1      24.372  31.052 139.398  1.00  0.00    -0.006 C 
ATOM     18  C   UNL     1      23.734  31.385 140.757  1.00  0.00     0.008 C 
ATOM     19  C   UNL     1      24.467  29.526 139.228  1.00  0.00     0.008 C 
ENDBRANCH  12  17
ENDBRANCH  11  12
ENDBRANCH   1  11
TORSDOF 1
ENDMDL
MODEL 7
REMARK VINA RESULT:    -2.858      2.543      4.501
REMARK INTER + INTRA:          -4.733
REMARK INTER:                  -4.381
REMARK INTRA:                  -0.352
REMARK UNBOUND:                -0.372
REMARK SMILES CC1=CCC[C@H](C)C(=O)C[C@H](C(C)C)C(=O)C1
REMARK SMILES IDX 8 1 9 2 6 3 7 4 5 5 4 6 3 7 2 8 1 9 10 11 11 12 15 13 16 14
REMARK SMILES IDX 17 15 12 17 13 18 14 19
REMARK H PARENT
REMARK Flexibility Score: 70.00
ROOT
ATOM      1  C   UNL     1      27.213  30.699 141.340  1.00  0.00     0.136 C 
ATOM      2  O   UNL     1      28.007  30.163 142.098  1.00  0.00    -0.299 OA
ENDROOT
BRANCH   1   3
ATOM      3  C   UNL     1      26.415  31.900 141.817  1.00  0.00     0.053 C 
ATOM      4  C   UNL     1      25.757  31.606 143.173  1.00  0.00     0.016 C 
BRANCH   3   5
ATOM      5  C   UNL     1      27.325  33.145 141.905  1.00  0.00     0.015 C 
BRANCH   5   6
ATOM      6  C   UNL     1      27.279  33.989 140.615  1.00  0.00     0.028 C 
BRANCH   6   7
ATOM      7  C   UNL     1      28.604  33.941 139.896  1.00  0.00    -0.028 C 
ATOM      8  C   UNL     1      28.776  33.506 138.626  1.00  0.00    -0.070 CG0
ATOM      9  C   UNL     1      30.181  33.443 138.083  1.00  0.00     0.039 C 
ATOM     10  G   UNL     1      27.617  33.101 137.728  1.00  0.00     0.000 G0
ENDBRANCH   6   7
ENDBRANCH   5   6
ENDBRANCH   3   5
ENDBRANCH   1   3
BRANCH   1  11
ATOM     11  C   UNL     1      27.036  30.152 139.940  1.00  0.00     0.087 C 
BRANCH  11  12
ATOM     12  C   UNL     1      26.352  31.125 138.927  1.00  0.00     0.066 C 
BRANCH  12  13
ATOM     13  C   UNL     1      27.281  31.621 137.824  1.00  0.00     0.140 C 
ATOM     14  O   UNL     1      27.700  30.844 136.979  1.00  0.00    -0.299 OA
BRANCH  13  15
ATOM     15  C   UNL     1      27.623  33.088 137.705  1.00  0.00     0.106 CG0
ATOM     16  G   UNL     1      28.767  33.495 138.620  1.00  0.00     0.000 G0
ENDBRANCH  13  15
ENDBRANCH  12  13
BRANCH  12  17
ATOM     17  C   UNL     1      24.984  30.626 138.353  1.00  0.00    -0.006 C 
ATOM     18  C   UNL     1      23.891  31.699 138.476  1.00  0.00     0.008 C 
ATOM     19  C   UNL     1      24.486  29.304 138.960  1.00  0.00     0.008 C 
ENDBRANCH  12  17
ENDBRANCH  11  12
ENDBRANCH   1  11
TORSDOF 1
ENDMDL
MODEL 8
REMARK VINA RESULT:    -2.797      3.027      5.476
REMARK INTER + INTRA:          -4.641
REMARK INTER:                  -4.426
REMARK INTRA:                  -0.215
REMARK UNBOUND:                -0.372
REMARK SMILES CC1=CCC[C@H](C)C(=O)C[C@H](C(C)C)C(=O)C1
REMARK SMILES IDX 8 1 9 2 6 3 7 4 5 5 4 6 3 7 2 8 1 9 10 11 11 12 15 13 16 14
REMARK SMILES IDX 17 15 12 17 13 18 14 19
REMARK H PARENT
REMARK Flexibility Score: 70.00
ROOT
ATOM      1  C   UNL     1      27.801  30.755 138.388  1.00  0.00     0.136 C 
ATOM      2  O   UNL     1      28.258  29.703 138.810  1.00  0.00    -0.299 OA
ENDROOT
BRANCH   1   3
ATOM      3  C   UNL     1      28.741  31.903 138.062  1.00  0.00     0.053 C 
ATOM      4  C   UNL     1      28.587  32.327 136.594  1.00  0.00     0.016 C 
BRANCH   3   5
ATOM      5  C   UNL     1      28.478  33.094 139.010  1.00  0.00     0.015 C 
BRANCH   5   6
ATOM      6  C   UNL     1      27.843  34.291 138.275  1.00  0.00     0.028 C 
BRANCH   6   7
ATOM      7  C   UNL     1      26.854  35.002 139.164  1.00  0.00    -0.028 C 
ATOM      8  C   UNL     1      25.523  34.758 139.185  1.00  0.00    -0.070 CG0
ATOM      9  C   UNL     1      24.659  35.617 140.075  1.00  0.00     0.039 C 
ATOM     10  G   UNL     1      24.873  33.650 138.371  1.00  0.00     0.000 G0
ENDBRANCH   6   7
ENDBRANCH   5   6
ENDBRANCH   3   5
ENDBRANCH   1   3
BRANCH   1  11
ATOM     11  C   UNL     1      26.306  30.895 138.201  1.00  0.00     0.087 C 
BRANCH  11  12
ATOM     12  C   UNL     1      25.515  31.340 139.473  1.00  0.00     0.066 C 
BRANCH  12  13
ATOM     13  C   UNL     1      24.495  32.443 139.210  1.00  0.00     0.140 C 
ATOM     14  O   UNL     1      23.397  32.404 139.745  1.00  0.00    -0.299 OA
BRANCH  13  15
ATOM     15  C   UNL     1      24.855  33.642 138.363  1.00  0.00     0.106 CG0
ATOM     16  G   UNL     1      25.527  34.742 139.170  1.00  0.00     0.000 G0
ENDBRANCH  13  15
ENDBRANCH  12  13
BRANCH  12  17
ATOM     17  C   UNL     1      24.902  30.170 140.312  1.00  0.00    -0.006 C 
ATOM     18  C   UNL     1      25.556  30.063 141.699  1.00  0.00     0.008 C 
ATOM     19  C   UNL     1      24.938  28.801 139.613  1.00  0.00     0.008 C 
ENDBRANCH  12  17
ENDBRANCH  11  12
ENDBRANCH   1  11
TORSDOF 1
ENDMDL
MODEL 9
REMARK VINA RESULT:    -2.753     10.830     12.230
REMARK INTER + INTRA:          -4.574
REMARK INTER:                  -4.904
REMARK INTRA:                   0.331
REMARK UNBOUND:                -0.372
REMARK SMILES CC1=CCC[C@H](C)C(=O)C[C@H](C(C)C)C(=O)C1
REMARK SMILES IDX 8 1 9 2 6 3 7 4 5 5 4 6 3 7 2 8 1 9 10 11 11 12 15 13 16 14
REMARK SMILES IDX 17 15 12 17 13 18 14 19
REMARK H PARENT
REMARK Flexibility Score: 70.00
ROOT
ATOM      1  C   UNL     1      25.546  43.436 143.148  1.00  0.00     0.136 C 
ATOM      2  O   UNL     1      24.625  44.222 143.310  1.00  0.00    -0.299 OA
ENDROOT
BRANCH   1   3
ATOM      3  C   UNL     1      26.902  43.953 142.701  1.00  0.00     0.053 C 
ATOM      4  C   UNL     1      26.750  45.273 141.931  1.00  0.00     0.016 C 
BRANCH   3   5
ATOM      5  C   UNL     1      27.834  44.132 143.921  1.00  0.00     0.015 C 
BRANCH   5   6
ATOM      6  C   UNL     1      28.715  42.890 144.164  1.00  0.00     0.028 C 
BRANCH   6   7
ATOM      7  C   UNL     1      29.294  42.382 142.868  1.00  0.00    -0.028 C 
ATOM      8  C   UNL     1      28.890  41.259 142.230  1.00  0.00    -0.070 CG0
ATOM      9  C   UNL     1      29.631  40.845 140.984  1.00  0.00     0.039 C 
ATOM     10  G   UNL     1      27.715  40.417 142.706  1.00  0.00     0.000 G0
ENDBRANCH   6   7
ENDBRANCH   5   6
ENDBRANCH   3   5
ENDBRANCH   1   3
BRANCH   1  11
ATOM     11  C   UNL     1      25.315  41.960 143.391  1.00  0.00     0.087 C 
BRANCH  11  12
ATOM     12  C   UNL     1      25.240  41.077 142.104  1.00  0.00     0.066 C 
BRANCH  12  13
ATOM     13  C   UNL     1      26.557  40.398 141.745  1.00  0.00     0.140 C 
ATOM     14  O   UNL     1      26.712  39.906 140.637  1.00  0.00    -0.299 OA
BRANCH  13  15
ATOM     15  C   UNL     1      27.717  40.401 142.713  1.00  0.00     0.106 CG0
ATOM     16  G   UNL     1      28.876  41.259 142.228  1.00  0.00     0.000 G0
ENDBRANCH  13  15
ENDBRANCH  12  13
BRANCH  12  17
ATOM     17  C   UNL     1      24.039  40.076 142.059  1.00  0.00    -0.006 C 
ATOM     18  C   UNL     1      22.792  40.714 141.424  1.00  0.00     0.008 C 
ATOM     19  C   UNL     1      23.672  39.463 143.421  1.00  0.00     0.008 C 
ENDBRANCH  12  17
ENDBRANCH  11  12
ENDBRANCH   1  11
TORSDOF 1
ENDMDL
