MODEL 1
REMARK VINA RESULT:    -5.781      0.000      0.000
REMARK INTER + INTRA:          -8.464
REMARK INTER:                  -7.809
REMARK INTRA:                  -0.655
REMARK UNBOUND:                -0.655
REMARK SMILES CC[C@@H](CC[C@H](C)[C@H]1CC[C@@H]2[C@H]3CC(=O)C4=CC(=O)CC[C@@]4(C)[C@@H]3CC[C@]21C)C(C)C
REMARK SMILES IDX 4 1 3 2 2 3 1 4 29 5 30 6 31 7 5 8 6 9 7 10 8 11 9 12 27 13
REMARK SMILES IDX 10 14 11 15 26 16 28 17 12 18 25 19 24 20 13 21 22 22 14 23
REMARK SMILES IDX 16 24 21 25 23 26 15 27 17 28 20 29 18 30 19 31
REMARK H PARENT
REMARK Flexibility Score: inf
ROOT
ATOM      1  C   UNL     1      22.590  50.432  -2.389  1.00  0.00     0.004 C 
ENDROOT
BRANCH   1   2
ATOM      2  C   UNL     1      22.654  50.190  -0.851  1.00  0.00    -0.009 C 
BRANCH   2   3
ATOM      3  C   UNL     1      21.496  49.234  -0.440  1.00  0.00     0.000 C 
ATOM      4  C   UNL     1      21.994  47.903   0.130  1.00  0.00     0.004 C 
ENDBRANCH   2   3
BRANCH   2   5
ATOM      5  C   UNL     1      22.642  51.485   0.040  1.00  0.00    -0.014 C 
ATOM      6  C   UNL     1      22.095  51.231   1.455  1.00  0.00     0.007 C 
ATOM      7  C   UNL     1      23.985  52.232   0.094  1.00  0.00     0.007 C 
ENDBRANCH   2   5
ENDBRANCH   1   2
BRANCH   1   8
ATOM      8  C   UNL     1      21.526  49.587  -3.117  1.00  0.00     0.004 C 
BRANCH   8   9
ATOM      9  C   UNL     1      22.075  48.393  -3.948  1.00  0.00    -0.011 C 
ATOM     10  C   UNL     1      23.591  48.206  -3.731  1.00  0.00     0.008 C 
BRANCH   9  11
ATOM     11  C   UNL     1      21.581  48.390  -5.446  1.00  0.00    -0.002 C 
ATOM     12  C   UNL     1      20.076  48.051  -5.660  1.00  0.00     0.005 C 
ATOM     13  C   UNL     1      21.805  49.701  -6.283  1.00  0.00    -0.026 C 
ATOM     14  C   UNL     1      19.439  49.215  -6.428  1.00  0.00     0.005 C 
ATOM     15  C   UNL     1      20.421  50.360  -6.247  1.00  0.00    -0.001 C 
ATOM     16  C   UNL     1      22.821  50.744  -5.751  1.00  0.00     0.007 C 
ATOM     17  C   UNL     1      22.238  49.259  -7.721  1.00  0.00     0.012 C 
ATOM     18  C   UNL     1      20.302  51.583  -7.187  1.00  0.00     0.004 C 
ATOM     19  C   UNL     1      22.798  52.042  -6.588  1.00  0.00     0.005 C 
ATOM     20  C   UNL     1      21.368  52.654  -6.766  1.00  0.00     0.003 C 
ATOM     21  C   UNL     1      18.886  52.179  -7.106  1.00  0.00     0.085 C 
ATOM     22  C   UNL     1      21.340  53.932  -7.696  1.00  0.00    -0.000 C 
ATOM     23  C   UNL     1      18.783  53.468  -7.857  1.00  0.00     0.159 C 
ATOM     24  C   UNL     1      19.899  54.442  -7.827  1.00  0.00     0.005 C 
ATOM     25  C   UNL     1      22.230  55.048  -7.063  1.00  0.00     0.020 C 
ATOM     26  C   UNL     1      21.857  53.613  -9.125  1.00  0.00     0.017 C 
ATOM     27  O   UNL     1      17.704  53.747  -8.449  1.00  0.00    -0.295 OA
ATOM     28  C   UNL     1      19.632  55.748  -8.019  1.00  0.00     0.055 C 
ATOM     29  C   UNL     1      22.117  56.396  -7.787  1.00  0.00     0.081 C 
ATOM     30  C   UNL     1      20.686  56.771  -8.003  1.00  0.00     0.156 C 
ATOM     31  O   UNL     1      20.384  57.976  -8.213  1.00  0.00    -0.295 OA
ENDBRANCH   9  11
ENDBRANCH   8   9
ENDBRANCH   1   8
TORSDOF 6
ENDMDL
MODEL 2
REMARK VINA RESULT:    -5.754      6.535     10.812
REMARK INTER + INTRA:          -8.427
REMARK INTER:                  -7.262
REMARK INTRA:                  -1.166
REMARK UNBOUND:                -0.655
REMARK SMILES CC[C@@H](CC[C@H](C)[C@H]1CC[C@@H]2[C@H]3CC(=O)C4=CC(=O)CC[C@@]4(C)[C@@H]3CC[C@]21C)C(C)C
REMARK SMILES IDX 4 1 3 2 2 3 1 4 29 5 30 6 31 7 5 8 6 9 7 10 8 11 9 12 27 13
REMARK SMILES IDX 10 14 11 15 26 16 28 17 12 18 25 19 24 20 13 21 22 22 14 23
REMARK SMILES IDX 16 24 21 25 23 26 15 27 17 28 20 29 18 30 19 31
REMARK H PARENT
REMARK Flexibility Score: inf
ROOT
ATOM      1  C   UNL     1      29.301  48.879   7.080  1.00  0.00     0.004 C 
ENDROOT
BRANCH   1   2
ATOM      2  C   UNL     1      30.722  48.292   6.821  1.00  0.00    -0.009 C 
BRANCH   2   3
ATOM      3  C   UNL     1      31.427  48.052   8.188  1.00  0.00     0.000 C 
ATOM      4  C   UNL     1      31.560  49.328   9.024  1.00  0.00     0.004 C 
ENDBRANCH   2   3
BRANCH   2   5
ATOM      5  C   UNL     1      31.642  49.139   5.867  1.00  0.00    -0.014 C 
ATOM      6  C   UNL     1      32.278  48.295   4.750  1.00  0.00     0.007 C 
ATOM      7  C   UNL     1      30.974  50.400   5.295  1.00  0.00     0.007 C 
ENDBRANCH   2   5
ENDBRANCH   1   2
BRANCH   1   8
ATOM      8  C   UNL     1      28.149  47.906   6.763  1.00  0.00     0.004 C 
BRANCH   8   9
ATOM      9  C   UNL     1      27.364  48.203   5.454  1.00  0.00    -0.011 C 
ATOM     10  C   UNL     1      28.272  48.079   4.212  1.00  0.00     0.008 C 
BRANCH   9  11
ATOM     11  C   UNL     1      26.472  49.501   5.537  1.00  0.00    -0.002 C 
ATOM     12  C   UNL     1      27.236  50.854   5.424  1.00  0.00     0.005 C 
ATOM     13  C   UNL     1      25.294  49.636   4.506  1.00  0.00    -0.026 C 
ATOM     14  C   UNL     1      26.630  51.638   4.255  1.00  0.00     0.005 C 
ATOM     15  C   UNL     1      25.878  50.589   3.455  1.00  0.00    -0.001 C 
ATOM     16  C   UNL     1      24.828  48.362   3.757  1.00  0.00     0.007 C 
ATOM     17  C   UNL     1      24.076  50.246   5.278  1.00  0.00     0.012 C 
ATOM     18  C   UNL     1      24.836  51.066   2.417  1.00  0.00     0.004 C 
ATOM     19  C   UNL     1      23.789  48.691   2.662  1.00  0.00     0.005 C 
ATOM     20  C   UNL     1      24.247  49.816   1.675  1.00  0.00     0.003 C 
ATOM     21  C   UNL     1      25.491  52.025   1.408  1.00  0.00     0.085 C 
ATOM     22  C   UNL     1      23.145  50.209   0.611  1.00  0.00    -0.000 C 
ATOM     23  C   UNL     1      24.566  52.365   0.284  1.00  0.00     0.159 C 
ATOM     24  C   UNL     1      23.677  51.330  -0.291  1.00  0.00     0.005 C 
ATOM     25  C   UNL     1      22.803  48.958  -0.261  1.00  0.00     0.020 C 
ATOM     26  C   UNL     1      21.850  50.728   1.291  1.00  0.00     0.017 C 
ATOM     27  O   UNL     1      24.613  53.521  -0.219  1.00  0.00    -0.295 OA
ATOM     28  C   UNL     1      23.271  51.453  -1.569  1.00  0.00     0.055 C 
ATOM     29  C   UNL     1      21.887  49.281  -1.448  1.00  0.00     0.081 C 
ATOM     30  C   UNL     1      22.388  50.467  -2.207  1.00  0.00     0.156 C 
ATOM     31  O   UNL     1      22.019  50.644  -3.399  1.00  0.00    -0.295 OA
ENDBRANCH   9  11
ENDBRANCH   8   9
ENDBRANCH   1   8
TORSDOF 6
ENDMDL
MODEL 3
REMARK VINA RESULT:    -5.679      2.419      5.321
REMARK INTER + INTRA:          -8.326
REMARK INTER:                  -7.107
REMARK INTRA:                  -1.220
REMARK UNBOUND:                -0.655
REMARK SMILES CC[C@@H](CC[C@H](C)[C@H]1CC[C@@H]2[C@H]3CC(=O)C4=CC(=O)CC[C@@]4(C)[C@@H]3CC[C@]21C)C(C)C
REMARK SMILES IDX 4 1 3 2 2 3 1 4 29 5 30 6 31 7 5 8 6 9 7 10 8 11 9 12 27 13
REMARK SMILES IDX 10 14 11 15 26 16 28 17 12 18 25 19 24 20 13 21 22 22 14 23
REMARK SMILES IDX 16 24 21 25 23 26 15 27 17 28 20 29 18 30 19 31
REMARK H PARENT
REMARK Flexibility Score: inf
ROOT
ATOM      1  C   UNL     1      24.649  52.649   1.536  1.00  0.00     0.004 C 
ENDROOT
BRANCH   1   2
ATOM      2  C   UNL     1      26.013  53.252   1.082  1.00  0.00    -0.009 C 
BRANCH   2   3
ATOM      3  C   UNL     1      26.603  54.103   2.244  1.00  0.00     0.000 C 
ATOM      4  C   UNL     1      27.029  53.258   3.447  1.00  0.00     0.004 C 
ENDBRANCH   2   3
BRANCH   2   5
ATOM      5  C   UNL     1      25.974  54.088  -0.250  1.00  0.00    -0.014 C 
ATOM      6  C   UNL     1      24.563  54.185  -0.851  1.00  0.00     0.007 C 
ATOM      7  C   UNL     1      26.629  55.476  -0.148  1.00  0.00     0.007 C 
ENDBRANCH   2   5
ENDBRANCH   1   2
BRANCH   1   8
ATOM      8  C   UNL     1      24.551  51.120   1.374  1.00  0.00     0.004 C 
BRANCH   8   9
ATOM      9  C   UNL     1      23.182  50.588   0.859  1.00  0.00    -0.011 C 
ATOM     10  C   UNL     1      22.135  50.542   1.992  1.00  0.00     0.008 C 
BRANCH   9  11
ATOM     11  C   UNL     1      23.305  49.291  -0.028  1.00  0.00    -0.002 C 
ATOM     12  C   UNL     1      22.228  48.195   0.224  1.00  0.00     0.005 C 
ATOM     13  C   UNL     1      23.306  49.480  -1.588  1.00  0.00    -0.026 C 
ATOM     14  C   UNL     1      21.524  47.914  -1.108  1.00  0.00     0.005 C 
ATOM     15  C   UNL     1      21.864  49.119  -1.969  1.00  0.00    -0.001 C 
ATOM     16  C   UNL     1      23.585  50.896  -2.154  1.00  0.00     0.007 C 
ATOM     17  C   UNL     1      24.362  48.483  -2.172  1.00  0.00     0.012 C 
ATOM     18  C   UNL     1      21.642  49.015  -3.495  1.00  0.00     0.004 C 
ATOM     19  C   UNL     1      23.379  50.951  -3.684  1.00  0.00     0.005 C 
ATOM     20  C   UNL     1      21.994  50.394  -4.155  1.00  0.00     0.003 C 
ATOM     21  C   UNL     1      20.182  48.638  -3.796  1.00  0.00     0.085 C 
ATOM     22  C   UNL     1      21.826  50.371  -5.727  1.00  0.00    -0.000 C 
ATOM     23  C   UNL     1      19.880  48.706  -5.259  1.00  0.00     0.159 C 
ATOM     24  C   UNL     1      20.453  49.791  -6.090  1.00  0.00     0.005 C 
ATOM     25  C   UNL     1      21.934  51.830  -6.277  1.00  0.00     0.020 C 
ATOM     26  C   UNL     1      22.904  49.487  -6.408  1.00  0.00     0.017 C 
ATOM     27  O   UNL     1      19.070  47.878  -5.757  1.00  0.00    -0.295 OA
ATOM     28  C   UNL     1      19.802  50.172  -7.205  1.00  0.00     0.055 C 
ATOM     29  C   UNL     1      21.591  51.942  -7.768  1.00  0.00     0.081 C 
ATOM     30  C   UNL     1      20.309  51.240  -8.079  1.00  0.00     0.156 C 
ATOM     31  O   UNL     1      19.674  51.540  -9.124  1.00  0.00    -0.295 OA
ENDBRANCH   9  11
ENDBRANCH   8   9
ENDBRANCH   1   8
TORSDOF 6
ENDMDL
MODEL 4
REMARK VINA RESULT:    -5.575      6.234     11.579
REMARK INTER + INTRA:          -8.185
REMARK INTER:                  -7.165
REMARK INTRA:                  -1.021
REMARK UNBOUND:                -0.655
REMARK SMILES CC[C@@H](CC[C@H](C)[C@H]1CC[C@@H]2[C@H]3CC(=O)C4=CC(=O)CC[C@@]4(C)[C@@H]3CC[C@]21C)C(C)C
REMARK SMILES IDX 4 1 3 2 2 3 1 4 29 5 30 6 31 7 5 8 6 9 7 10 8 11 9 12 27 13
REMARK SMILES IDX 10 14 11 15 26 16 28 17 12 18 25 19 24 20 13 21 22 22 14 23
REMARK SMILES IDX 16 24 21 25 23 26 15 27 17 28 20 29 18 30 19 31
REMARK H PARENT
REMARK Flexibility Score: inf
ROOT
ATOM      1  C   UNL     1      22.139  50.390  -2.261  1.00  0.00     0.004 C 
ENDROOT
BRANCH   1   2
ATOM      2  C   UNL     1      21.944  50.134  -3.786  1.00  0.00    -0.009 C 
BRANCH   2   3
ATOM      3  C   UNL     1      21.703  48.613  -4.019  1.00  0.00     0.000 C 
ATOM      4  C   UNL     1      20.351  48.316  -4.673  1.00  0.00     0.004 C 
ENDBRANCH   2   3
BRANCH   2   5
ATOM      5  C   UNL     1      23.101  50.656  -4.714  1.00  0.00    -0.014 C 
ATOM      6  C   UNL     1      24.310  49.707  -4.752  1.00  0.00     0.007 C 
ATOM      7  C   UNL     1      22.654  51.038  -6.135  1.00  0.00     0.007 C 
ENDBRANCH   2   5
ENDBRANCH   1   2
BRANCH   1   8
ATOM      8  C   UNL     1      22.686  49.177  -1.484  1.00  0.00     0.004 C 
BRANCH   8   9
ATOM      9  C   UNL     1      21.780  48.658  -0.331  1.00  0.00    -0.011 C 
ATOM     10  C   UNL     1      20.561  47.887  -0.879  1.00  0.00     0.008 C 
BRANCH   9  11
ATOM     11  C   UNL     1      21.478  49.746   0.770  1.00  0.00    -0.002 C 
ATOM     12  C   UNL     1      20.188  49.516   1.611  1.00  0.00     0.005 C 
ATOM     13  C   UNL     1      22.594  50.018   1.842  1.00  0.00    -0.026 C 
ATOM     14  C   UNL     1      20.593  49.476   3.089  1.00  0.00     0.005 C 
ATOM     15  C   UNL     1      22.091  49.227   3.056  1.00  0.00    -0.001 C 
ATOM     16  C   UNL     1      24.033  49.525   1.541  1.00  0.00     0.007 C 
ATOM     17  C   UNL     1      22.628  51.564   2.087  1.00  0.00     0.012 C 
ATOM     18  C   UNL     1      22.907  49.497   4.341  1.00  0.00     0.004 C 
ATOM     19  C   UNL     1      24.967  49.713   2.758  1.00  0.00     0.005 C 
ATOM     20  C   UNL     1      24.404  49.105   4.086  1.00  0.00     0.003 C 
ATOM     21  C   UNL     1      22.335  48.682   5.514  1.00  0.00     0.085 C 
ATOM     22  C   UNL     1      25.323  49.378   5.343  1.00  0.00    -0.000 C 
ATOM     23  C   UNL     1      23.203  48.772   6.728  1.00  0.00     0.159 C 
ATOM     24  C   UNL     1      24.679  48.766   6.594  1.00  0.00     0.005 C 
ATOM     25  C   UNL     1      26.723  48.725   5.108  1.00  0.00     0.020 C 
ATOM     26  C   UNL     1      25.504  50.897   5.604  1.00  0.00     0.017 C 
ATOM     27  O   UNL     1      22.664  48.771   7.869  1.00  0.00    -0.295 OA
ATOM     28  C   UNL     1      25.427  48.317   7.620  1.00  0.00     0.055 C 
ATOM     29  C   UNL     1      27.625  48.765   6.348  1.00  0.00     0.081 C 
ATOM     30  C   UNL     1      26.895  48.282   7.560  1.00  0.00     0.156 C 
ATOM     31  O   UNL     1      27.547  47.876   8.558  1.00  0.00    -0.295 OA
ENDBRANCH   9  11
ENDBRANCH   8   9
ENDBRANCH   1   8
TORSDOF 6
ENDMDL
MODEL 5
REMARK VINA RESULT:    -5.570      2.885      5.552
REMARK INTER + INTRA:          -8.179
REMARK INTER:                  -7.069
REMARK INTRA:                  -1.110
REMARK UNBOUND:                -0.655
REMARK SMILES CC[C@@H](CC[C@H](C)[C@H]1CC[C@@H]2[C@H]3CC(=O)C4=CC(=O)CC[C@@]4(C)[C@@H]3CC[C@]21C)C(C)C
REMARK SMILES IDX 4 1 3 2 2 3 1 4 29 5 30 6 31 7 5 8 6 9 7 10 8 11 9 12 27 13
REMARK SMILES IDX 10 14 11 15 26 16 28 17 12 18 25 19 24 20 13 21 22 22 14 23
REMARK SMILES IDX 16 24 21 25 23 26 15 27 17 28 20 29 18 30 19 31
REMARK H PARENT
REMARK Flexibility Score: inf
ROOT
ATOM      1  C   UNL     1      23.001  49.237   3.622  1.00  0.00     0.004 C 
ENDROOT
BRANCH   1   2
ATOM      2  C   UNL     1      24.238  49.127   4.564  1.00  0.00    -0.009 C 
BRANCH   2   3
ATOM      3  C   UNL     1      23.921  49.852   5.904  1.00  0.00     0.000 C 
ATOM      4  C   UNL     1      23.234  48.944   6.927  1.00  0.00     0.004 C 
ENDBRANCH   2   3
BRANCH   2   5
ATOM      5  C   UNL     1      25.595  49.647   3.964  1.00  0.00    -0.014 C 
ATOM      6  C   UNL     1      26.283  50.690   4.860  1.00  0.00     0.007 C 
ATOM      7  C   UNL     1      26.577  48.536   3.555  1.00  0.00     0.007 C 
ENDBRANCH   2   5
ENDBRANCH   1   2
BRANCH   1   8
ATOM      8  C   UNL     1      22.907  50.573   2.859  1.00  0.00     0.004 C 
BRANCH   8   9
ATOM      9  C   UNL     1      22.127  50.521   1.514  1.00  0.00    -0.011 C 
ATOM     10  C   UNL     1      20.619  50.765   1.729  1.00  0.00     0.008 C 
BRANCH   9  11
ATOM     11  C   UNL     1      22.511  49.285   0.613  1.00  0.00    -0.002 C 
ATOM     12  C   UNL     1      21.479  48.118   0.592  1.00  0.00     0.005 C 
ATOM     13  C   UNL     1      22.811  49.562  -0.904  1.00  0.00    -0.026 C 
ATOM     14  C   UNL     1      21.076  47.875  -0.867  1.00  0.00     0.005 C 
ATOM     15  C   UNL     1      21.501  49.144  -1.585  1.00  0.00    -0.001 C 
ATOM     16  C   UNL     1      23.103  51.021  -1.337  1.00  0.00     0.007 C 
ATOM     17  C   UNL     1      24.026  48.660  -1.305  1.00  0.00     0.012 C 
ATOM     18  C   UNL     1      21.597  49.116  -3.128  1.00  0.00     0.004 C 
ATOM     19  C   UNL     1      23.205  51.152  -2.873  1.00  0.00     0.005 C 
ATOM     20  C   UNL     1      21.982  50.547  -3.641  1.00  0.00     0.003 C 
ATOM     21  C   UNL     1      20.254  48.676  -3.736  1.00  0.00     0.085 C 
ATOM     22  C   UNL     1      22.134  50.605  -5.214  1.00  0.00    -0.000 C 
ATOM     23  C   UNL     1      20.248  48.811  -5.225  1.00  0.00     0.159 C 
ATOM     24  C   UNL     1      20.902  49.971  -5.873  1.00  0.00     0.005 C 
ATOM     25  C   UNL     1      22.254  52.096  -5.664  1.00  0.00     0.020 C 
ATOM     26  C   UNL     1      23.382  49.822  -5.700  1.00  0.00     0.017 C 
ATOM     27  O   UNL     1      19.609  47.968  -5.914  1.00  0.00    -0.295 OA
ATOM     28  C   UNL     1      20.464  50.379  -7.080  1.00  0.00     0.055 C 
ATOM     29  C   UNL     1      22.210  52.274  -7.187  1.00  0.00     0.081 C 
ATOM     30  C   UNL     1      21.065  51.521  -7.783  1.00  0.00     0.156 C 
ATOM     31  O   UNL     1      20.633  51.844  -8.921  1.00  0.00    -0.295 OA
ENDBRANCH   9  11
ENDBRANCH   8   9
ENDBRANCH   1   8
TORSDOF 6
ENDMDL
MODEL 6
REMARK VINA RESULT:    -4.971      4.415      8.037
REMARK INTER + INTRA:          -7.369
REMARK INTER:                  -6.304
REMARK INTRA:                  -1.065
REMARK UNBOUND:                -0.655
REMARK SMILES CC[C@@H](CC[C@H](C)[C@H]1CC[C@@H]2[C@H]3CC(=O)C4=CC(=O)CC[C@@]4(C)[C@@H]3CC[C@]21C)C(C)C
REMARK SMILES IDX 4 1 3 2 2 3 1 4 29 5 30 6 31 7 5 8 6 9 7 10 8 11 9 12 27 13
REMARK SMILES IDX 10 14 11 15 26 16 28 17 12 18 25 19 24 20 13 21 22 22 14 23
REMARK SMILES IDX 16 24 21 25 23 26 15 27 17 28 20 29 18 30 19 31
REMARK H PARENT
REMARK Flexibility Score: inf
ROOT
ATOM      1  C   UNL     1      25.064  50.590   5.886  1.00  0.00     0.004 C 
ENDROOT
BRANCH   1   2
ATOM      2  C   UNL     1      26.136  49.925   6.801  1.00  0.00    -0.009 C 
BRANCH   2   3
ATOM      3  C   UNL     1      25.530  49.711   8.219  1.00  0.00     0.000 C 
ATOM      4  C   UNL     1      25.001  48.290   8.434  1.00  0.00     0.004 C 
ENDBRANCH   2   3
BRANCH   2   5
ATOM      5  C   UNL     1      27.510  50.683   6.898  1.00  0.00    -0.014 C 
ATOM      6  C   UNL     1      28.527  49.962   7.797  1.00  0.00     0.007 C 
ATOM      7  C   UNL     1      28.133  51.046   5.539  1.00  0.00     0.007 C 
ENDBRANCH   2   5
ENDBRANCH   1   2
BRANCH   1   8
ATOM      8  C   UNL     1      24.257  49.593   5.032  1.00  0.00     0.004 C 
BRANCH   8   9
ATOM      9  C   UNL     1      24.400  49.762   3.492  1.00  0.00    -0.011 C 
ATOM     10  C   UNL     1      25.348  50.928   3.140  1.00  0.00     0.008 C 
BRANCH   9  11
ATOM     11  C   UNL     1      23.022  49.730   2.726  1.00  0.00    -0.002 C 
ATOM     12  C   UNL     1      22.291  51.099   2.593  1.00  0.00     0.005 C 
ATOM     13  C   UNL     1      23.020  49.148   1.267  1.00  0.00    -0.026 C 
ATOM     14  C   UNL     1      22.054  51.360   1.101  1.00  0.00     0.005 C 
ATOM     15  C   UNL     1      23.015  50.415   0.402  1.00  0.00    -0.001 C 
ATOM     16  C   UNL     1      24.233  48.294   0.818  1.00  0.00     0.007 C 
ATOM     17  C   UNL     1      21.716  48.295   1.115  1.00  0.00     0.012 C 
ATOM     18  C   UNL     1      22.796  50.127  -1.101  1.00  0.00     0.004 C 
ATOM     19  C   UNL     1      24.162  47.945  -0.685  1.00  0.00     0.005 C 
ATOM     20  C   UNL     1      23.944  49.187  -1.612  1.00  0.00     0.003 C 
ATOM     21  C   UNL     1      22.790  51.443  -1.898  1.00  0.00     0.085 C 
ATOM     22  C   UNL     1      23.783  48.813  -3.140  1.00  0.00    -0.000 C 
ATOM     23  C   UNL     1      22.765  51.198  -3.373  1.00  0.00     0.159 C 
ATOM     24  C   UNL     1      23.552  50.089  -3.961  1.00  0.00     0.005 C 
ATOM     25  C   UNL     1      25.085  48.106  -3.635  1.00  0.00     0.020 C 
ATOM     26  C   UNL     1      22.569  47.876  -3.377  1.00  0.00     0.017 C 
ATOM     27  O   UNL     1      22.130  51.996  -4.116  1.00  0.00    -0.295 OA
ATOM     28  C   UNL     1      23.960  50.183  -5.241  1.00  0.00     0.055 C 
ATOM     29  C   UNL     1      25.109  47.876  -5.152  1.00  0.00     0.081 C 
ATOM     30  C   UNL     1      24.743  49.123  -5.890  1.00  0.00     0.156 C 
ATOM     31  O   UNL     1      25.078  49.251  -7.098  1.00  0.00    -0.295 OA
ENDBRANCH   9  11
ENDBRANCH   8   9
ENDBRANCH   1   8
TORSDOF 6
ENDMDL
MODEL 7
REMARK VINA RESULT:    -4.779      5.916     11.458
REMARK INTER + INTRA:          -7.110
REMARK INTER:                  -5.641
REMARK INTRA:                  -1.469
REMARK UNBOUND:                -0.655
REMARK SMILES CC[C@@H](CC[C@H](C)[C@H]1CC[C@@H]2[C@H]3CC(=O)C4=CC(=O)CC[C@@]4(C)[C@@H]3CC[C@]21C)C(C)C
REMARK SMILES IDX 4 1 3 2 2 3 1 4 29 5 30 6 31 7 5 8 6 9 7 10 8 11 9 12 27 13
REMARK SMILES IDX 10 14 11 15 26 16 28 17 12 18 25 19 24 20 13 21 22 22 14 23
REMARK SMILES IDX 16 24 21 25 23 26 15 27 17 28 20 29 18 30 19 31
REMARK H PARENT
REMARK Flexibility Score: inf
ROOT
ATOM      1  C   UNL     1      23.464  50.191  -1.810  1.00  0.00     0.004 C 
ENDROOT
BRANCH   1   2
ATOM      2  C   UNL     1      22.779  50.313  -3.205  1.00  0.00    -0.009 C 
BRANCH   2   3
ATOM      3  C   UNL     1      21.544  49.367  -3.247  1.00  0.00     0.000 C 
ATOM      4  C   UNL     1      21.019  49.006  -1.855  1.00  0.00     0.004 C 
ENDBRANCH   2   3
BRANCH   2   5
ATOM      5  C   UNL     1      23.713  50.056  -4.443  1.00  0.00    -0.014 C 
ATOM      6  C   UNL     1      24.176  48.594  -4.548  1.00  0.00     0.007 C 
ATOM      7  C   UNL     1      23.144  50.553  -5.783  1.00  0.00     0.007 C 
ENDBRANCH   2   5
ENDBRANCH   1   2
BRANCH   1   8
ATOM      8  C   UNL     1      23.602  51.527  -1.056  1.00  0.00     0.004 C 
BRANCH   8   9
ATOM      9  C   UNL     1      23.740  51.413   0.489  1.00  0.00    -0.011 C 
ATOM     10  C   UNL     1      24.890  52.295   1.018  1.00  0.00     0.008 C 
BRANCH   9  11
ATOM     11  C   UNL     1      23.705  49.926   1.014  1.00  0.00    -0.002 C 
ATOM     12  C   UNL     1      24.962  49.460   1.807  1.00  0.00     0.005 C 
ATOM     13  C   UNL     1      22.496  49.511   1.928  1.00  0.00    -0.026 C 
ATOM     14  C   UNL     1      24.494  48.975   3.184  1.00  0.00     0.005 C 
ATOM     15  C   UNL     1      23.106  49.571   3.335  1.00  0.00    -0.001 C 
ATOM     16  C   UNL     1      21.240  50.419   1.937  1.00  0.00     0.007 C 
ATOM     17  C   UNL     1      22.074  48.065   1.503  1.00  0.00     0.012 C 
ATOM     18  C   UNL     1      22.176  48.996   4.428  1.00  0.00     0.004 C 
ATOM     19  C   UNL     1      20.220  49.973   3.008  1.00  0.00     0.005 C 
ATOM     20  C   UNL     1      20.836  49.811   4.438  1.00  0.00     0.003 C 
ATOM     21  C   UNL     1      22.860  49.078   5.804  1.00  0.00     0.085 C 
ATOM     22  C   UNL     1      19.808  49.270   5.510  1.00  0.00    -0.000 C 
ATOM     23  C   UNL     1      21.927  48.702   6.911  1.00  0.00     0.159 C 
ATOM     24  C   UNL     1      20.507  49.124   6.867  1.00  0.00     0.005 C 
ATOM     25  C   UNL     1      18.624  50.281   5.643  1.00  0.00     0.020 C 
ATOM     26  C   UNL     1      19.249  47.876   5.117  1.00  0.00     0.017 C 
ATOM     27  O   UNL     1      22.384  48.093   7.917  1.00  0.00    -0.295 OA
ATOM     28  C   UNL     1      19.833  49.269   8.024  1.00  0.00     0.055 C 
ATOM     29  C   UNL     1      17.669  49.947   6.796  1.00  0.00     0.081 C 
ATOM     30  C   UNL     1      18.424  49.683   8.059  1.00  0.00     0.156 C 
ATOM     31  O   UNL     1      17.833  49.779   9.168  1.00  0.00    -0.295 OA
ENDBRANCH   9  11
ENDBRANCH   8   9
ENDBRANCH   1   8
TORSDOF 6
ENDMDL
MODEL 8
REMARK VINA RESULT:    -4.664      7.481     12.216
REMARK INTER + INTRA:          -6.956
REMARK INTER:                  -5.190
REMARK INTRA:                  -1.765
REMARK UNBOUND:                -0.655
REMARK SMILES CC[C@@H](CC[C@H](C)[C@H]1CC[C@@H]2[C@H]3CC(=O)C4=CC(=O)CC[C@@]4(C)[C@@H]3CC[C@]21C)C(C)C
REMARK SMILES IDX 4 1 3 2 2 3 1 4 29 5 30 6 31 7 5 8 6 9 7 10 8 11 9 12 27 13
REMARK SMILES IDX 10 14 11 15 26 16 28 17 12 18 25 19 24 20 13 21 22 22 14 23
REMARK SMILES IDX 16 24 21 25 23 26 15 27 17 28 20 29 18 30 19 31
REMARK H PARENT
REMARK Flexibility Score: inf
ROOT
ATOM      1  C   UNL     1      27.605  48.971  10.162  1.00  0.00     0.004 C 
ENDROOT
BRANCH   1   2
ATOM      2  C   UNL     1      28.768  49.171   9.144  1.00  0.00    -0.009 C 
BRANCH   2   3
ATOM      3  C   UNL     1      28.919  47.880   8.287  1.00  0.00     0.000 C 
ATOM      4  C   UNL     1      29.402  48.162   6.862  1.00  0.00     0.004 C 
ENDBRANCH   2   3
BRANCH   2   5
ATOM      5  C   UNL     1      30.151  49.583   9.768  1.00  0.00    -0.014 C 
ATOM      6  C   UNL     1      30.065  50.864  10.615  1.00  0.00     0.007 C 
ATOM      7  C   UNL     1      30.862  48.458  10.539  1.00  0.00     0.007 C 
ENDBRANCH   2   5
ENDBRANCH   1   2
BRANCH   1   8
ATOM      8  C   UNL     1      26.612  50.148  10.224  1.00  0.00     0.004 C 
BRANCH   8   9
ATOM      9  C   UNL     1      25.893  50.488   8.887  1.00  0.00    -0.011 C 
ATOM     10  C   UNL     1      24.869  51.626   9.073  1.00  0.00     0.008 C 
BRANCH   9  11
ATOM     11  C   UNL     1      25.386  49.215   8.105  1.00  0.00    -0.002 C 
ATOM     12  C   UNL     1      23.945  48.739   8.453  1.00  0.00     0.005 C 
ATOM     13  C   UNL     1      25.404  49.277   6.535  1.00  0.00    -0.026 C 
ATOM     14  C   UNL     1      23.133  48.713   7.152  1.00  0.00     0.005 C 
ATOM     15  C   UNL     1      23.938  49.576   6.196  1.00  0.00    -0.001 C 
ATOM     16  C   UNL     1      26.261  50.375   5.856  1.00  0.00     0.007 C 
ATOM     17  C   UNL     1      25.879  47.875   6.025  1.00  0.00     0.012 C 
ATOM     18  C   UNL     1      23.629  49.479   4.684  1.00  0.00     0.004 C 
ATOM     19  C   UNL     1      26.037  50.412   4.328  1.00  0.00     0.005 C 
ATOM     20  C   UNL     1      24.530  50.505   3.913  1.00  0.00     0.003 C 
ATOM     21  C   UNL     1      22.142  49.777   4.426  1.00  0.00     0.085 C 
ATOM     22  C   UNL     1      24.302  50.453   2.349  1.00  0.00    -0.000 C 
ATOM     23  C   UNL     1      21.840  49.874   2.965  1.00  0.00     0.159 C 
ATOM     24  C   UNL     1      22.801  50.527   2.045  1.00  0.00     0.005 C 
ATOM     25  C   UNL     1      25.027  51.667   1.684  1.00  0.00     0.020 C 
ATOM     26  C   UNL     1      24.842  49.134   1.734  1.00  0.00     0.017 C 
ATOM     27  O   UNL     1      20.724  49.465   2.541  1.00  0.00    -0.295 OA
ATOM     28  C   UNL     1      22.342  51.082   0.907  1.00  0.00     0.055 C 
ATOM     29  C   UNL     1      24.707  51.819   0.191  1.00  0.00     0.081 C 
ATOM     30  C   UNL     1      23.234  51.746  -0.053  1.00  0.00     0.156 C 
ATOM     31  O   UNL     1      22.755  52.228  -1.114  1.00  0.00    -0.295 OA
ENDBRANCH   9  11
ENDBRANCH   8   9
ENDBRANCH   1   8
TORSDOF 6
ENDMDL
