MODEL 1
REMARK VINA RESULT:    -4.047      0.000      0.000
REMARK INTER + INTRA:          -8.523
REMARK INTER:                  -7.359
REMARK INTRA:                  -1.165
REMARK UNBOUND:                -1.165
REMARK SMILES CCCCCCCCCCCCCC[C@@H](C)C(=O)[O-]
REMARK SMILES IDX 9 1 10 2 11 3 12 4 13 5 14 6 15 7 16 8 17 9 18 10 19 11 8 12
REMARK SMILES IDX 7 13 6 14 5 15 4 16 3 17 2 18 1 19
REMARK H PARENT
REMARK Flexibility Score: inf
ROOT
ATOM      1  C   UNL     1     -25.362 -15.959   3.102  1.00  0.00     0.000 C 
ENDROOT
BRANCH   1   2
ATOM      2  C   UNL     1     -26.417 -16.298   4.168  1.00  0.00     0.000 C 
BRANCH   2   3
ATOM      3  C   UNL     1     -27.652 -17.010   3.583  1.00  0.00     0.000 C 
BRANCH   3   4
ATOM      4  C   UNL     1     -28.542 -16.139   2.678  1.00  0.00     0.000 C 
BRANCH   4   5
ATOM      5  C   UNL     1     -29.243 -15.001   3.439  1.00  0.00     0.001 C 
BRANCH   5   6
ATOM      6  C   UNL     1     -29.254 -13.679   2.637  1.00  0.00     0.009 C 
BRANCH   6   7
ATOM      7  C   UNL     1     -30.461 -13.500   1.688  1.00  0.00     0.032 C 
ATOM      8  C   UNL     1     -31.767 -13.200   2.435  1.00  0.00     0.014 C 
BRANCH   7   9
ATOM      9  C   UNL     1     -30.179 -12.471   0.623  1.00  0.00     0.044 C 
ATOM     10  O   UNL     1     -29.127 -11.780   0.686  1.00  0.00    -0.550 OA
ATOM     11  O   UNL     1     -31.086 -12.237  -0.405  1.00  0.00    -0.550 OA
ENDBRANCH   7   9
ENDBRANCH   6   7
ENDBRANCH   5   6
ENDBRANCH   4   5
ENDBRANCH   3   4
ENDBRANCH   2   3
ENDBRANCH   1   2
BRANCH   1  12
ATOM     12  C   UNL     1     -24.746 -14.565   3.303  1.00  0.00     0.000 C 
BRANCH  12  13
ATOM     13  C   UNL     1     -25.768 -13.525   3.788  1.00  0.00    -0.000 C 
BRANCH  13  14
ATOM     14  C   UNL     1     -25.099 -12.481   4.693  1.00  0.00    -0.000 C 
BRANCH  14  15
ATOM     15  C   UNL     1     -23.568 -12.630   4.758  1.00  0.00    -0.000 C 
BRANCH  15  16
ATOM     16  C   UNL     1     -22.777 -11.315   4.628  1.00  0.00    -0.000 C 
BRANCH  16  17
ATOM     17  C   UNL     1     -21.286 -11.476   4.972  1.00  0.00    -0.000 C 
BRANCH  17  18
ATOM     18  C   UNL     1     -20.384 -10.589   4.102  1.00  0.00    -0.003 C 
ATOM     19  C   UNL     1     -19.192 -11.347   3.517  1.00  0.00     0.004 C 
ENDBRANCH  17  18
ENDBRANCH  16  17
ENDBRANCH  15  16
ENDBRANCH  14  15
ENDBRANCH  13  14
ENDBRANCH  12  13
ENDBRANCH   1  12
TORSDOF 14
ENDMDL
MODEL 2
REMARK VINA RESULT:    -4.033      2.307      2.914
REMARK INTER + INTRA:          -8.499
REMARK INTER:                  -7.477
REMARK INTRA:                  -1.022
REMARK UNBOUND:                -1.165
REMARK SMILES CCCCCCCCCCCCCC[C@@H](C)C(=O)[O-]
REMARK SMILES IDX 9 1 10 2 11 3 12 4 13 5 14 6 15 7 16 8 17 9 18 10 19 11 8 12
REMARK SMILES IDX 7 13 6 14 5 15 4 16 3 17 2 18 1 19
REMARK H PARENT
REMARK Flexibility Score: inf
ROOT
ATOM      1  C   UNL     1     -24.080 -14.786   3.265  1.00  0.00     0.000 C 
ENDROOT
BRANCH   1   2
ATOM      2  C   UNL     1     -25.125 -15.914   3.217  1.00  0.00     0.000 C 
BRANCH   2   3
ATOM      3  C   UNL     1     -26.331 -15.652   4.140  1.00  0.00     0.000 C 
BRANCH   3   4
ATOM      4  C   UNL     1     -27.499 -16.642   3.985  1.00  0.00     0.000 C 
BRANCH   4   5
ATOM      5  C   UNL     1     -27.620 -17.214   2.563  1.00  0.00     0.001 C 
BRANCH   5   6
ATOM      6  C   UNL     1     -29.093 -17.406   2.131  1.00  0.00     0.009 C 
BRANCH   6   7
ATOM      7  C   UNL     1     -30.036 -16.233   2.485  1.00  0.00     0.032 C 
ATOM      8  C   UNL     1     -29.769 -14.978   1.643  1.00  0.00     0.014 C 
BRANCH   7   9
ATOM      9  C   UNL     1     -31.483 -16.650   2.422  1.00  0.00     0.044 C 
ATOM     10  O   UNL     1     -31.847 -17.520   1.587  1.00  0.00    -0.550 OA
ATOM     11  O   UNL     1     -32.436 -16.054   3.242  1.00  0.00    -0.550 OA
ENDBRANCH   7   9
ENDBRANCH   6   7
ENDBRANCH   5   6
ENDBRANCH   4   5
ENDBRANCH   3   4
ENDBRANCH   2   3
ENDBRANCH   1   2
BRANCH   1  12
ATOM     12  C   UNL     1     -24.190 -13.933   4.539  1.00  0.00     0.000 C 
BRANCH  12  13
ATOM     13  C   UNL     1     -24.758 -12.531   4.271  1.00  0.00    -0.000 C 
BRANCH  13  14
ATOM     14  C   UNL     1     -24.134 -11.497   5.219  1.00  0.00    -0.000 C 
BRANCH  14  15
ATOM     15  C   UNL     1     -23.666 -10.220   4.495  1.00  0.00    -0.000 C 
BRANCH  15  16
ATOM     16  C   UNL     1     -22.139 -10.046   4.399  1.00  0.00    -0.000 C 
BRANCH  16  17
ATOM     17  C   UNL     1     -21.361 -11.211   5.035  1.00  0.00    -0.000 C 
BRANCH  17  18
ATOM     18  C   UNL     1     -20.583 -12.034   3.997  1.00  0.00    -0.003 C 
ATOM     19  C   UNL     1     -19.261 -11.382   3.594  1.00  0.00     0.004 C 
ENDBRANCH  17  18
ENDBRANCH  16  17
ENDBRANCH  15  16
ENDBRANCH  14  15
ENDBRANCH  13  14
ENDBRANCH  12  13
ENDBRANCH   1  12
TORSDOF 14
ENDMDL
MODEL 3
REMARK VINA RESULT:    -4.018      1.297      1.961
REMARK INTER + INTRA:          -8.470
REMARK INTER:                  -6.986
REMARK INTRA:                  -1.484
REMARK UNBOUND:                -1.165
REMARK SMILES CCCCCCCCCCCCCC[C@@H](C)C(=O)[O-]
REMARK SMILES IDX 9 1 10 2 11 3 12 4 13 5 14 6 15 7 16 8 17 9 18 10 19 11 8 12
REMARK SMILES IDX 7 13 6 14 5 15 4 16 3 17 2 18 1 19
REMARK H PARENT
REMARK Flexibility Score: inf
ROOT
ATOM      1  C   UNL     1     -24.782 -14.096   3.325  1.00  0.00     0.000 C 
ENDROOT
BRANCH   1   2
ATOM      2  C   UNL     1     -24.978 -15.621   3.370  1.00  0.00     0.000 C 
BRANCH   2   3
ATOM      3  C   UNL     1     -26.004 -16.062   4.431  1.00  0.00     0.000 C 
BRANCH   3   4
ATOM      4  C   UNL     1     -27.477 -15.962   3.998  1.00  0.00     0.000 C 
BRANCH   4   5
ATOM      5  C   UNL     1     -28.200 -14.744   4.599  1.00  0.00     0.001 C 
BRANCH   5   6
ATOM      6  C   UNL     1     -29.559 -14.471   3.913  1.00  0.00     0.009 C 
BRANCH   6   7
ATOM      7  C   UNL     1     -29.534 -13.370   2.828  1.00  0.00     0.032 C 
ATOM      8  C   UNL     1     -28.252 -12.528   2.862  1.00  0.00     0.014 C 
BRANCH   7   9
ATOM      9  C   UNL     1     -29.792 -13.940   1.456  1.00  0.00     0.044 C 
ATOM     10  O   UNL     1     -29.877 -15.187   1.304  1.00  0.00    -0.550 OA
ATOM     11  O   UNL     1     -29.890 -13.111   0.344  1.00  0.00    -0.550 OA
ENDBRANCH   7   9
ENDBRANCH   6   7
ENDBRANCH   5   6
ENDBRANCH   4   5
ENDBRANCH   3   4
ENDBRANCH   2   3
ENDBRANCH   1   2
BRANCH   1  12
ATOM     12  C   UNL     1     -23.542 -13.636   4.110  1.00  0.00     0.000 C 
BRANCH  12  13
ATOM     13  C   UNL     1     -23.897 -12.817   5.359  1.00  0.00    -0.000 C 
BRANCH  13  14
ATOM     14  C   UNL     1     -24.712 -11.571   4.984  1.00  0.00    -0.000 C 
BRANCH  14  15
ATOM     15  C   UNL     1     -23.833 -10.382   4.555  1.00  0.00    -0.000 C 
BRANCH  15  16
ATOM     16  C   UNL     1     -22.449 -10.316   5.227  1.00  0.00    -0.000 C 
BRANCH  16  17
ATOM     17  C   UNL     1     -21.304 -10.108   4.221  1.00  0.00    -0.000 C 
BRANCH  17  18
ATOM     18  C   UNL     1     -20.626 -11.428   3.822  1.00  0.00    -0.003 C 
ATOM     19  C   UNL     1     -19.104 -11.313   3.743  1.00  0.00     0.004 C 
ENDBRANCH  17  18
ENDBRANCH  16  17
ENDBRANCH  15  16
ENDBRANCH  14  15
ENDBRANCH  13  14
ENDBRANCH  12  13
ENDBRANCH   1  12
TORSDOF 14
ENDMDL
MODEL 4
REMARK VINA RESULT:    -3.938      1.704      3.633
REMARK INTER + INTRA:          -8.326
REMARK INTER:                  -6.543
REMARK INTRA:                  -1.784
REMARK UNBOUND:                -1.165
REMARK SMILES CCCCCCCCCCCCCC[C@@H](C)C(=O)[O-]
REMARK SMILES IDX 9 1 10 2 11 3 12 4 13 5 14 6 15 7 16 8 17 9 18 10 19 11 8 12
REMARK SMILES IDX 7 13 6 14 5 15 4 16 3 17 2 18 1 19
REMARK H PARENT
REMARK Flexibility Score: inf
ROOT
ATOM      1  C   UNL     1     -23.950 -14.279   2.806  1.00  0.00     0.000 C 
ENDROOT
BRANCH   1   2
ATOM      2  C   UNL     1     -24.578 -15.608   3.259  1.00  0.00     0.000 C 
BRANCH   2   3
ATOM      3  C   UNL     1     -25.463 -15.456   4.511  1.00  0.00     0.000 C 
BRANCH   3   4
ATOM      4  C   UNL     1     -26.716 -16.349   4.539  1.00  0.00     0.000 C 
BRANCH   4   5
ATOM      5  C   UNL     1     -27.387 -16.488   3.162  1.00  0.00     0.001 C 
BRANCH   5   6
ATOM      6  C   UNL     1     -28.892 -16.133   3.205  1.00  0.00     0.009 C 
BRANCH   6   7
ATOM      7  C   UNL     1     -29.549 -15.901   1.825  1.00  0.00     0.032 C 
ATOM      8  C   UNL     1     -30.531 -17.016   1.438  1.00  0.00     0.014 C 
BRANCH   7   9
ATOM      9  C   UNL     1     -30.189 -14.539   1.739  1.00  0.00     0.044 C 
ATOM     10  O   UNL     1     -31.045 -14.197   2.598  1.00  0.00    -0.550 OA
ATOM     11  O   UNL     1     -29.885 -13.670   0.697  1.00  0.00    -0.550 OA
ENDBRANCH   7   9
ENDBRANCH   6   7
ENDBRANCH   5   6
ENDBRANCH   4   5
ENDBRANCH   3   4
ENDBRANCH   2   3
ENDBRANCH   1   2
BRANCH   1  12
ATOM     12  C   UNL     1     -22.421 -14.264   2.965  1.00  0.00     0.000 C 
BRANCH  12  13
ATOM     13  C   UNL     1     -21.907 -12.998   3.668  1.00  0.00    -0.000 C 
BRANCH  13  14
ATOM     14  C   UNL     1     -22.901 -12.526   4.740  1.00  0.00    -0.000 C 
BRANCH  14  15
ATOM     15  C   UNL     1     -23.115 -11.002   4.733  1.00  0.00    -0.000 C 
BRANCH  15  16
ATOM     16  C   UNL     1     -24.584 -10.548   4.633  1.00  0.00    -0.000 C 
BRANCH  16  17
ATOM     17  C   UNL     1     -25.581 -11.711   4.775  1.00  0.00    -0.000 C 
BRANCH  17  18
ATOM     18  C   UNL     1     -26.957 -11.381   4.176  1.00  0.00    -0.003 C 
ATOM     19  C   UNL     1     -27.604 -12.578   3.481  1.00  0.00     0.004 C 
ENDBRANCH  17  18
ENDBRANCH  16  17
ENDBRANCH  15  16
ENDBRANCH  14  15
ENDBRANCH  13  14
ENDBRANCH  12  13
ENDBRANCH   1  12
TORSDOF 14
ENDMDL
MODEL 5
REMARK VINA RESULT:    -3.888      2.230      3.977
REMARK INTER + INTRA:          -8.235
REMARK INTER:                  -6.642
REMARK INTRA:                  -1.592
REMARK UNBOUND:                -1.165
REMARK SMILES CCCCCCCCCCCCCC[C@@H](C)C(=O)[O-]
REMARK SMILES IDX 9 1 10 2 11 3 12 4 13 5 14 6 15 7 16 8 17 9 18 10 19 11 8 12
REMARK SMILES IDX 7 13 6 14 5 15 4 16 3 17 2 18 1 19
REMARK H PARENT
REMARK Flexibility Score: inf
ROOT
ATOM      1  C   UNL     1     -23.129 -14.410   2.940  1.00  0.00     0.000 C 
ENDROOT
BRANCH   1   2
ATOM      2  C   UNL     1     -24.301 -15.169   3.584  1.00  0.00     0.000 C 
BRANCH   2   3
ATOM      3  C   UNL     1     -24.599 -14.701   5.022  1.00  0.00     0.000 C 
BRANCH   3   4
ATOM      4  C   UNL     1     -26.050 -14.912   5.491  1.00  0.00     0.000 C 
BRANCH   4   5
ATOM      5  C   UNL     1     -26.456 -16.394   5.544  1.00  0.00     0.001 C 
BRANCH   5   6
ATOM      6  C   UNL     1     -27.796 -16.661   4.820  1.00  0.00     0.009 C 
BRANCH   6   7
ATOM      7  C   UNL     1     -27.800 -16.335   3.308  1.00  0.00     0.032 C 
ATOM      8  C   UNL     1     -27.913 -17.587   2.429  1.00  0.00     0.014 C 
BRANCH   7   9
ATOM      9  C   UNL     1     -28.856 -15.315   2.966  1.00  0.00     0.044 C 
ATOM     10  O   UNL     1     -29.072 -14.353   3.750  1.00  0.00    -0.550 OA
ATOM     11  O   UNL     1     -29.631 -15.445   1.819  1.00  0.00    -0.550 OA
ENDBRANCH   7   9
ENDBRANCH   6   7
ENDBRANCH   5   6
ENDBRANCH   4   5
ENDBRANCH   3   4
ENDBRANCH   2   3
ENDBRANCH   1   2
BRANCH   1  12
ATOM     12  C   UNL     1     -22.611 -13.262   3.822  1.00  0.00     0.000 C 
BRANCH  12  13
ATOM     13  C   UNL     1     -21.199 -12.800   3.432  1.00  0.00    -0.000 C 
BRANCH  13  14
ATOM     14  C   UNL     1     -20.643 -11.808   4.463  1.00  0.00    -0.000 C 
BRANCH  14  15
ATOM     15  C   UNL     1     -21.387 -10.460   4.465  1.00  0.00    -0.000 C 
BRANCH  15  16
ATOM     16  C   UNL     1     -21.877  -9.986   5.846  1.00  0.00    -0.000 C 
BRANCH  16  17
ATOM     17  C   UNL     1     -23.404 -10.080   6.005  1.00  0.00    -0.000 C 
BRANCH  17  18
ATOM     18  C   UNL     1     -24.137 -10.073   4.655  1.00  0.00    -0.003 C 
ATOM     19  C   UNL     1     -25.398 -10.936   4.660  1.00  0.00     0.004 C 
ENDBRANCH  17  18
ENDBRANCH  16  17
ENDBRANCH  15  16
ENDBRANCH  14  15
ENDBRANCH  13  14
ENDBRANCH  12  13
ENDBRANCH   1  12
TORSDOF 14
ENDMDL
MODEL 6
REMARK VINA RESULT:    -3.871     11.292     12.403
REMARK INTER + INTRA:          -8.203
REMARK INTER:                  -7.338
REMARK INTRA:                  -0.865
REMARK UNBOUND:                -1.165
REMARK SMILES CCCCCCCCCCCCCC[C@@H](C)C(=O)[O-]
REMARK SMILES IDX 9 1 10 2 11 3 12 4 13 5 14 6 15 7 16 8 17 9 18 10 19 11 8 12
REMARK SMILES IDX 7 13 6 14 5 15 4 16 3 17 2 18 1 19
REMARK H PARENT
REMARK Flexibility Score: inf
ROOT
ATOM      1  C   UNL     1     -17.798 -18.654  -4.749  1.00  0.00     0.000 C 
ENDROOT
BRANCH   1   2
ATOM      2  C   UNL     1     -18.371 -20.033  -5.117  1.00  0.00     0.000 C 
BRANCH   2   3
ATOM      3  C   UNL     1     -19.850 -20.193  -4.719  1.00  0.00     0.000 C 
BRANCH   3   4
ATOM      4  C   UNL     1     -20.541 -21.456  -5.263  1.00  0.00     0.000 C 
BRANCH   4   5
ATOM      5  C   UNL     1     -22.065 -21.300  -5.396  1.00  0.00     0.001 C 
BRANCH   5   6
ATOM      6  C   UNL     1     -22.508 -21.093  -6.863  1.00  0.00     0.009 C 
BRANCH   6   7
ATOM      7  C   UNL     1     -23.546 -19.968  -7.081  1.00  0.00     0.032 C 
ATOM      8  C   UNL     1     -23.193 -18.678  -6.330  1.00  0.00     0.014 C 
BRANCH   7   9
ATOM      9  C   UNL     1     -23.784 -19.713  -8.548  1.00  0.00     0.044 C 
ATOM     10  O   UNL     1     -24.898 -20.005  -9.060  1.00  0.00    -0.550 OA
ATOM     11  O   UNL     1     -22.776 -19.203  -9.358  1.00  0.00    -0.550 OA
ENDBRANCH   7   9
ENDBRANCH   6   7
ENDBRANCH   5   6
ENDBRANCH   4   5
ENDBRANCH   3   4
ENDBRANCH   2   3
ENDBRANCH   1   2
BRANCH   1  12
ATOM     12  C   UNL     1     -18.248 -18.179  -3.357  1.00  0.00     0.000 C 
BRANCH  12  13
ATOM     13  C   UNL     1     -17.512 -16.913  -2.892  1.00  0.00    -0.000 C 
BRANCH  13  14
ATOM     14  C   UNL     1     -16.012 -17.005  -3.209  1.00  0.00    -0.000 C 
BRANCH  14  15
ATOM     15  C   UNL     1     -15.501 -15.821  -4.051  1.00  0.00    -0.000 C 
BRANCH  15  16
ATOM     16  C   UNL     1     -16.332 -14.530  -3.937  1.00  0.00    -0.000 C 
BRANCH  16  17
ATOM     17  C   UNL     1     -15.899 -13.447  -4.940  1.00  0.00    -0.000 C 
BRANCH  17  18
ATOM     18  C   UNL     1     -16.407 -13.728  -6.363  1.00  0.00    -0.003 C 
ATOM     19  C   UNL     1     -15.306 -14.227  -7.298  1.00  0.00     0.004 C 
ENDBRANCH  17  18
ENDBRANCH  16  17
ENDBRANCH  15  16
ENDBRANCH  14  15
ENDBRANCH  13  14
ENDBRANCH  12  13
ENDBRANCH   1  12
TORSDOF 14
ENDMDL
MODEL 7
REMARK VINA RESULT:    -3.869      3.282      7.044
REMARK INTER + INTRA:          -8.199
REMARK INTER:                  -6.289
REMARK INTRA:                  -1.911
REMARK UNBOUND:                -1.165
REMARK SMILES CCCCCCCCCCCCCC[C@@H](C)C(=O)[O-]
REMARK SMILES IDX 9 1 10 2 11 3 12 4 13 5 14 6 15 7 16 8 17 9 18 10 19 11 8 12
REMARK SMILES IDX 7 13 6 14 5 15 4 16 3 17 2 18 1 19
REMARK H PARENT
REMARK Flexibility Score: inf
ROOT
ATOM      1  C   UNL     1     -27.213 -16.695   3.421  1.00  0.00     0.000 C 
ENDROOT
BRANCH   1   2
ATOM      2  C   UNL     1     -27.535 -16.263   4.862  1.00  0.00     0.000 C 
BRANCH   2   3
ATOM      3  C   UNL     1     -27.490 -14.735   5.054  1.00  0.00     0.000 C 
BRANCH   3   4
ATOM      4  C   UNL     1     -27.412 -13.915   3.754  1.00  0.00     0.000 C 
BRANCH   4   5
ATOM      5  C   UNL     1     -26.128 -13.075   3.648  1.00  0.00     0.001 C 
BRANCH   5   6
ATOM      6  C   UNL     1     -25.074 -13.480   4.705  1.00  0.00     0.009 C 
BRANCH   6   7
ATOM      7  C   UNL     1     -23.766 -14.073   4.131  1.00  0.00     0.032 C 
ATOM      8  C   UNL     1     -23.977 -14.802   2.798  1.00  0.00     0.014 C 
BRANCH   7   9
ATOM      9  C   UNL     1     -22.683 -13.028   4.030  1.00  0.00     0.044 C 
ATOM     10  O   UNL     1     -21.610 -13.298   3.429  1.00  0.00    -0.550 OA
ATOM     11  O   UNL     1     -22.832 -11.784   4.633  1.00  0.00    -0.550 OA
ENDBRANCH   7   9
ENDBRANCH   6   7
ENDBRANCH   5   6
ENDBRANCH   4   5
ENDBRANCH   3   4
ENDBRANCH   2   3
ENDBRANCH   1   2
BRANCH   1  12
ATOM     12  C   UNL     1     -28.362 -17.481   2.768  1.00  0.00     0.000 C 
BRANCH  12  13
ATOM     13  C   UNL     1     -29.250 -16.605   1.872  1.00  0.00    -0.000 C 
BRANCH  13  14
ATOM     14  C   UNL     1     -30.421 -16.014   2.671  1.00  0.00    -0.000 C 
BRANCH  14  15
ATOM     15  C   UNL     1     -30.734 -14.555   2.291  1.00  0.00    -0.000 C 
BRANCH  15  16
ATOM     16  C   UNL     1     -29.935 -14.004   1.096  1.00  0.00    -0.000 C 
BRANCH  16  17
ATOM     17  C   UNL     1     -29.567 -12.519   1.255  1.00  0.00    -0.000 C 
BRANCH  17  18
ATOM     18  C   UNL     1     -29.388 -11.811  -0.097  1.00  0.00    -0.003 C 
ATOM     19  C   UNL     1     -30.228 -10.539  -0.217  1.00  0.00     0.004 C 
ENDBRANCH  17  18
ENDBRANCH  16  17
ENDBRANCH  15  16
ENDBRANCH  14  15
ENDBRANCH  13  14
ENDBRANCH  12  13
ENDBRANCH   1  12
TORSDOF 14
ENDMDL
MODEL 8
REMARK VINA RESULT:    -3.769      1.384      2.066
REMARK INTER + INTRA:          -8.019
REMARK INTER:                  -6.729
REMARK INTRA:                  -1.290
REMARK UNBOUND:                -1.165
REMARK SMILES CCCCCCCCCCCCCC[C@@H](C)C(=O)[O-]
REMARK SMILES IDX 9 1 10 2 11 3 12 4 13 5 14 6 15 7 16 8 17 9 18 10 19 11 8 12
REMARK SMILES IDX 7 13 6 14 5 15 4 16 3 17 2 18 1 19
REMARK H PARENT
REMARK Flexibility Score: inf
ROOT
ATOM      1  C   UNL     1     -26.134 -16.010   4.529  1.00  0.00     0.000 C 
ENDROOT
BRANCH   1   2
ATOM      2  C   UNL     1     -27.569 -16.294   4.053  1.00  0.00     0.000 C 
BRANCH   2   3
ATOM      3  C   UNL     1     -28.202 -15.101   3.314  1.00  0.00     0.000 C 
BRANCH   3   4
ATOM      4  C   UNL     1     -28.241 -13.784   4.109  1.00  0.00     0.000 C 
BRANCH   4   5
ATOM      5  C   UNL     1     -28.325 -12.539   3.210  1.00  0.00     0.001 C 
BRANCH   5   6
ATOM      6  C   UNL     1     -29.110 -12.810   1.906  1.00  0.00     0.009 C 
BRANCH   6   7
ATOM      7  C   UNL     1     -29.603 -11.546   1.164  1.00  0.00     0.032 C 
ATOM      8  C   UNL     1     -29.490 -11.668  -0.362  1.00  0.00     0.014 C 
BRANCH   7   9
ATOM      9  C   UNL     1     -30.997 -11.162   1.591  1.00  0.00     0.044 C 
ATOM     10  O   UNL     1     -31.991 -11.704   1.039  1.00  0.00    -0.550 OA
ATOM     11  O   UNL     1     -31.205 -10.183   2.557  1.00  0.00    -0.550 OA
ENDBRANCH   7   9
ENDBRANCH   6   7
ENDBRANCH   5   6
ENDBRANCH   4   5
ENDBRANCH   3   4
ENDBRANCH   2   3
ENDBRANCH   1   2
BRANCH   1  12
ATOM     12  C   UNL     1     -25.207 -15.571   3.384  1.00  0.00     0.000 C 
BRANCH  12  13
ATOM     13  C   UNL     1     -24.554 -14.204   3.637  1.00  0.00    -0.000 C 
BRANCH  13  14
ATOM     14  C   UNL     1     -24.223 -14.022   5.125  1.00  0.00    -0.000 C 
BRANCH  14  15
ATOM     15  C   UNL     1     -24.194 -12.545   5.561  1.00  0.00    -0.000 C 
BRANCH  15  16
ATOM     16  C   UNL     1     -23.532 -11.581   4.559  1.00  0.00    -0.000 C 
BRANCH  16  17
ATOM     17  C   UNL     1     -22.056 -11.296   4.887  1.00  0.00    -0.000 C 
BRANCH  17  18
ATOM     18  C   UNL     1     -21.094 -12.181   4.079  1.00  0.00    -0.003 C 
ATOM     19  C   UNL     1     -19.748 -11.505   3.815  1.00  0.00     0.004 C 
ENDBRANCH  17  18
ENDBRANCH  16  17
ENDBRANCH  15  16
ENDBRANCH  14  15
ENDBRANCH  13  14
ENDBRANCH  12  13
ENDBRANCH   1  12
TORSDOF 14
ENDMDL
MODEL 9
REMARK VINA RESULT:    -3.756      3.428      7.557
REMARK INTER + INTRA:          -7.995
REMARK INTER:                  -5.649
REMARK INTRA:                  -2.347
REMARK UNBOUND:                -1.165
REMARK SMILES CCCCCCCCCCCCCC[C@@H](C)C(=O)[O-]
REMARK SMILES IDX 9 1 10 2 11 3 12 4 13 5 14 6 15 7 16 8 17 9 18 10 19 11 8 12
REMARK SMILES IDX 7 13 6 14 5 15 4 16 3 17 2 18 1 19
REMARK H PARENT
REMARK Flexibility Score: inf
ROOT
ATOM      1  C   UNL     1     -28.294 -13.016   4.448  1.00  0.00     0.000 C 
ENDROOT
BRANCH   1   2
ATOM      2  C   UNL     1     -28.546 -14.510   4.710  1.00  0.00     0.000 C 
BRANCH   2   3
ATOM      3  C   UNL     1     -28.272 -15.390   3.475  1.00  0.00     0.000 C 
BRANCH   3   4
ATOM      4  C   UNL     1     -26.960 -16.193   3.523  1.00  0.00     0.000 C 
BRANCH   4   5
ATOM      5  C   UNL     1     -26.316 -16.212   4.920  1.00  0.00     0.001 C 
BRANCH   5   6
ATOM      6  C   UNL     1     -24.916 -15.555   4.928  1.00  0.00     0.009 C 
BRANCH   6   7
ATOM      7  C   UNL     1     -24.661 -14.543   3.787  1.00  0.00     0.032 C 
ATOM      8  C   UNL     1     -24.508 -13.102   4.291  1.00  0.00     0.014 C 
BRANCH   7   9
ATOM      9  C   UNL     1     -23.493 -14.961   2.929  1.00  0.00     0.044 C 
ATOM     10  O   UNL     1     -23.520 -16.071   2.336  1.00  0.00    -0.550 OA
ATOM     11  O   UNL     1     -22.363 -14.158   2.819  1.00  0.00    -0.550 OA
ENDBRANCH   7   9
ENDBRANCH   6   7
ENDBRANCH   5   6
ENDBRANCH   4   5
ENDBRANCH   3   4
ENDBRANCH   2   3
ENDBRANCH   1   2
BRANCH   1  12
ATOM     12  C   UNL     1     -27.990 -12.718   2.971  1.00  0.00     0.000 C 
BRANCH  12  13
ATOM     13  C   UNL     1     -29.094 -11.896   2.289  1.00  0.00    -0.000 C 
BRANCH  13  14
ATOM     14  C   UNL     1     -29.982 -12.792   1.412  1.00  0.00    -0.000 C 
BRANCH  14  15
ATOM     15  C   UNL     1     -31.454 -12.809   1.864  1.00  0.00    -0.000 C 
BRANCH  15  16
ATOM     16  C   UNL     1     -31.729 -13.577   3.170  1.00  0.00    -0.000 C 
BRANCH  16  17
ATOM     17  C   UNL     1     -32.684 -14.767   2.976  1.00  0.00    -0.000 C 
BRANCH  17  18
ATOM     18  C   UNL     1     -32.017 -16.114   3.300  1.00  0.00    -0.003 C 
ATOM     19  C   UNL     1     -31.744 -16.295   4.793  1.00  0.00     0.004 C 
ENDBRANCH  17  18
ENDBRANCH  16  17
ENDBRANCH  15  16
ENDBRANCH  14  15
ENDBRANCH  13  14
ENDBRANCH  12  13
ENDBRANCH   1  12
TORSDOF 14
ENDMDL
