MODEL 1
REMARK VINA RESULT:     3.074      0.000      0.000
REMARK INTER + INTRA:           3.164
REMARK INTER:                   3.164
REMARK INTRA:                   0.000
REMARK UNBOUND:                 0.000
REMARK SMILES Nc1ncnc2nc[nH]c12
REMARK SMILES IDX 8 1 7 2 6 3 5 4 4 5 3 6 2 7 10 8 9 9 1 11
REMARK H PARENT 9 10 1 12 1 13
REMARK Flexibility Score: inf
ROOT
ATOM      1  C   UNL     1      92.934 118.125 113.917  1.00  0.00     0.199 A 
ATOM      2  N   UNL     1      93.645 119.191 113.458  1.00  0.00    -0.217 NA
ATOM      3  C   UNL     1      94.032 118.773 112.241  1.00  0.00     0.182 A 
ATOM      4  N   UNL     1      94.777 119.467 111.348  1.00  0.00    -0.215 NA
ATOM      5  C   UNL     1      95.072 118.872 110.153  1.00  0.00     0.226 A 
ATOM      6  N   UNL     1      94.620 117.606 109.875  1.00  0.00    -0.217 NA
ATOM      7  C   UNL     1      93.868 116.905 110.775  1.00  0.00     0.152 A 
ATOM      8  C   UNL     1      93.576 117.525 111.987  1.00  0.00     0.127 A 
ATOM      9  N   UNL     1      92.875 117.090 113.041  1.00  0.00    -0.340 N 
ATOM     10  H   UNL     1      92.390 116.175 113.170  1.00  0.00     0.168 HD
ENDROOT
BRANCH   7  11
ATOM     11  N   UNL     1      93.409 115.589 110.465  1.00  0.00    -0.382 N 
ATOM     12  H   UNL     1      93.422 114.845 111.198  1.00  0.00     0.158 HD
ATOM     13  H   UNL     1      93.056 115.345 109.513  1.00  0.00     0.158 HD
ENDBRANCH   7  11
TORSDOF 1
ENDMDL
MODEL 2
REMARK VINA RESULT:     3.763      1.129      2.917
REMARK INTER + INTRA:           3.873
REMARK INTER:                   3.873
REMARK INTRA:                   0.000
REMARK UNBOUND:                 0.000
REMARK SMILES Nc1ncnc2nc[nH]c12
REMARK SMILES IDX 8 1 7 2 6 3 5 4 4 5 3 6 2 7 10 8 9 9 1 11
REMARK H PARENT 9 10 1 12 1 13
REMARK Flexibility Score: inf
ROOT
ATOM      1  C   UNL     1      93.263 115.871 110.574  1.00  0.00     0.199 A 
ATOM      2  N   UNL     1      93.991 116.786 109.876  1.00  0.00    -0.217 NA
ATOM      3  C   UNL     1      94.119 117.786 110.764  1.00  0.00     0.182 A 
ATOM      4  N   UNL     1      94.768 118.959 110.572  1.00  0.00    -0.215 NA
ATOM      5  C   UNL     1      94.791 119.860 111.600  1.00  0.00     0.226 A 
ATOM      6  N   UNL     1      94.171 119.575 112.790  1.00  0.00    -0.217 NA
ATOM      7  C   UNL     1      93.516 118.393 112.985  1.00  0.00     0.152 A 
ATOM      8  C   UNL     1      93.501 117.485 111.929  1.00  0.00     0.127 A 
ATOM      9  N   UNL     1      92.948 116.271 111.832  1.00  0.00    -0.340 N 
ATOM     10  H   UNL     1      92.401 115.743 112.548  1.00  0.00     0.168 HD
ENDROOT
BRANCH   7  11
ATOM     11  N   UNL     1      92.876 118.117 114.233  1.00  0.00    -0.382 N 
ATOM     12  H   UNL     1      92.700 117.128 114.522  1.00  0.00     0.158 HD
ATOM     13  H   UNL     1      92.575 118.885 114.872  1.00  0.00     0.158 HD
ENDBRANCH   7  11
TORSDOF 1
ENDMDL
MODEL 3
REMARK VINA RESULT:     5.495      0.838      3.588
REMARK INTER + INTRA:           5.656
REMARK INTER:                   5.656
REMARK INTRA:                   0.000
REMARK UNBOUND:                 0.000
REMARK SMILES Nc1ncnc2nc[nH]c12
REMARK SMILES IDX 8 1 7 2 6 3 5 4 4 5 3 6 2 7 10 8 9 9 1 11
REMARK H PARENT 9 10 1 12 1 13
REMARK Flexibility Score: inf
ROOT
ATOM      1  C   UNL     1      94.312 116.257 109.891  1.00  0.00     0.199 A 
ATOM      2  N   UNL     1      93.609 115.877 110.993  1.00  0.00    -0.217 NA
ATOM      3  C   UNL     1      93.504 117.030 111.675  1.00  0.00     0.182 A 
ATOM      4  N   UNL     1      92.884 117.210 112.865  1.00  0.00    -0.215 NA
ATOM      5  C   UNL     1      92.881 118.466 113.408  1.00  0.00     0.226 A 
ATOM      6  N   UNL     1      93.490 119.508 112.756  1.00  0.00    -0.217 NA
ATOM      7  C   UNL     1      94.116 119.327 111.555  1.00  0.00     0.152 A 
ATOM      8  C   UNL     1      94.110 118.043 111.015  1.00  0.00     0.127 A 
ATOM      9  N   UNL     1      94.634 117.575 109.876  1.00  0.00    -0.340 N 
ATOM     10  H   UNL     1      95.165 118.092 109.140  1.00  0.00     0.168 HD
ENDROOT
BRANCH   7  11
ATOM     11  N   UNL     1      94.745 120.426 110.893  1.00  0.00    -0.382 N 
ATOM     12  H   UNL     1      95.100 121.236 111.450  1.00  0.00     0.158 HD
ATOM     13  H   UNL     1      94.861 120.443 109.857  1.00  0.00     0.158 HD
ENDBRANCH   7  11
TORSDOF 1
ENDMDL
