MODEL 1
REMARK VINA RESULT:    -5.611      0.000      0.000
REMARK INTER + INTRA:          -8.309
REMARK INTER:                  -6.923
REMARK INTRA:                  -1.386
REMARK UNBOUND:                -1.386
REMARK SMILES CC(C)=CCC[C@@H](C)c1ccc(C)cc1
REMARK SMILES IDX 6 1 7 2 8 3 9 4 13 5 12 6 11 7 14 8 10 9 15 10 5 11 4 12
REMARK SMILES IDX 2 13 1 14 3 15
REMARK H PARENT
REMARK Flexibility Score: inf
ROOT
ATOM      1  C   UNL     1      91.054 100.784  99.332  1.00  0.00     0.012 C 
ENDROOT
BRANCH   1   2
ATOM      2  C   UNL     1      91.094 102.226  99.896  1.00  0.00     0.016 C 
ATOM      3  C   UNL     1      90.997 102.255 101.429  1.00  0.00     0.013 C 
BRANCH   2   4
ATOM      4  C   UNL     1      92.353 102.939  99.435  1.00  0.00    -0.045 A 
ATOM      5  C   UNL     1      95.952 104.937  98.124  1.00  0.00     0.044 C 
ATOM      6  C   UNL     1      94.703 104.260  98.605  1.00  0.00    -0.051 A 
ATOM      7  C   UNL     1      94.782 103.062  99.330  1.00  0.00     0.004 A 
ATOM      8  C   UNL     1      93.443 104.783  98.277  1.00  0.00     0.004 A 
ATOM      9  C   UNL     1      93.618 102.411  99.747  1.00  0.00     0.004 A 
ATOM     10  C   UNL     1      92.279 104.133  98.694  1.00  0.00     0.004 A 
ENDBRANCH   2   4
ENDBRANCH   1   2
BRANCH   1  11
ATOM     11  C   UNL     1      90.879 100.719  97.805  1.00  0.00     0.028 C 
BRANCH  11  12
ATOM     12  C   UNL     1      91.891  99.808  97.148  1.00  0.00    -0.028 C 
ATOM     13  C   UNL     1      92.892 100.262  96.366  1.00  0.00    -0.080 C 
ATOM     14  C   UNL     1      93.843  99.264  95.756  1.00  0.00     0.039 C 
ATOM     15  C   UNL     1      93.075 101.735  96.092  1.00  0.00     0.039 C 
ENDBRANCH  11  12
ENDBRANCH   1  11
TORSDOF 4
ENDMDL
MODEL 2
REMARK VINA RESULT:    -5.600      0.103      1.255
REMARK INTER + INTRA:          -8.295
REMARK INTER:                  -6.924
REMARK INTRA:                  -1.371
REMARK UNBOUND:                -1.386
REMARK SMILES CC(C)=CCC[C@@H](C)c1ccc(C)cc1
REMARK SMILES IDX 6 1 7 2 8 3 9 4 13 5 12 6 11 7 14 8 10 9 15 10 5 11 4 12
REMARK SMILES IDX 2 13 1 14 3 15
REMARK H PARENT
REMARK Flexibility Score: inf
ROOT
ATOM      1  C   UNL     1      91.019 100.785  99.240  1.00  0.00     0.012 C 
ENDROOT
BRANCH   1   2
ATOM      2  C   UNL     1      91.062 102.223  99.814  1.00  0.00     0.016 C 
ATOM      3  C   UNL     1      90.887 102.246 101.341  1.00  0.00     0.013 C 
BRANCH   2   4
ATOM      4  C   UNL     1      92.361 102.908  99.425  1.00  0.00    -0.045 A 
ATOM      5  C   UNL     1      96.037 104.888  98.318  1.00  0.00     0.044 C 
ATOM      6  C   UNL     1      94.762 104.184  98.676  1.00  0.00    -0.051 A 
ATOM      7  C   UNL     1      93.524 104.738  98.319  1.00  0.00     0.004 A 
ATOM      8  C   UNL     1      94.794 103.001  99.430  1.00  0.00     0.004 A 
ATOM      9  C   UNL     1      92.334 104.102  98.684  1.00  0.00     0.004 A 
ATOM     10  C   UNL     1      93.605 102.364  99.795  1.00  0.00     0.004 A 
ENDBRANCH   2   4
ENDBRANCH   1   2
BRANCH   1  11
ATOM     11  C   UNL     1      90.875 100.732  97.709  1.00  0.00     0.028 C 
BRANCH  11  12
ATOM     12  C   UNL     1      91.889  99.812  97.068  1.00  0.00    -0.028 C 
ATOM     13  C   UNL     1      92.914 100.258  96.312  1.00  0.00    -0.080 C 
ATOM     14  C   UNL     1      93.864  99.252  95.716  1.00  0.00     0.039 C 
ATOM     15  C   UNL     1      93.124 101.731  96.055  1.00  0.00     0.039 C 
ENDBRANCH  11  12
ENDBRANCH   1  11
TORSDOF 4
ENDMDL
MODEL 3
REMARK VINA RESULT:    -5.438      1.505      4.891
REMARK INTER + INTRA:          -8.096
REMARK INTER:                  -7.063
REMARK INTRA:                  -1.033
REMARK UNBOUND:                -1.386
REMARK SMILES CC(C)=CCC[C@@H](C)c1ccc(C)cc1
REMARK SMILES IDX 6 1 7 2 8 3 9 4 13 5 12 6 11 7 14 8 10 9 15 10 5 11 4 12
REMARK SMILES IDX 2 13 1 14 3 15
REMARK H PARENT
REMARK Flexibility Score: inf
ROOT
ATOM      1  C   UNL     1      92.711 101.709 100.397  1.00  0.00     0.012 C 
ENDROOT
BRANCH   1   2
ATOM      2  C   UNL     1      91.286 101.817  99.801  1.00  0.00     0.016 C 
ATOM      3  C   UNL     1      90.885 103.271  99.508  1.00  0.00     0.013 C 
BRANCH   2   4
ATOM      4  C   UNL     1      91.175 100.978  98.539  1.00  0.00    -0.045 A 
ATOM      5  C   UNL     1      90.875  98.617  94.934  1.00  0.00     0.044 C 
ATOM      6  C   UNL     1      90.948  99.435  96.190  1.00  0.00    -0.051 A 
ATOM      7  C   UNL     1      90.890 100.835  96.126  1.00  0.00     0.004 A 
ATOM      8  C   UNL     1      91.145  98.810  97.430  1.00  0.00     0.004 A 
ATOM      9  C   UNL     1      90.995 101.599  97.292  1.00  0.00     0.004 A 
ATOM     10  C   UNL     1      91.250  99.574  98.596  1.00  0.00     0.004 A 
ENDBRANCH   2   4
ENDBRANCH   1   2
BRANCH   1  11
ATOM     11  C   UNL     1      93.833 101.947  99.371  1.00  0.00     0.028 C 
BRANCH  11  12
ATOM     12  C   UNL     1      94.439 103.327  99.493  1.00  0.00    -0.028 C 
ATOM     13  C   UNL     1      94.377 104.248  98.509  1.00  0.00    -0.080 C 
ATOM     14  C   UNL     1      95.021 105.592  98.734  1.00  0.00     0.039 C 
ATOM     15  C   UNL     1      93.683 103.960  97.199  1.00  0.00     0.039 C 
ENDBRANCH  11  12
ENDBRANCH   1  11
TORSDOF 4
ENDMDL
MODEL 4
REMARK VINA RESULT:    -5.361      1.382      5.219
REMARK INTER + INTRA:          -8.000
REMARK INTER:                  -7.311
REMARK INTRA:                  -0.689
REMARK UNBOUND:                -1.386
REMARK SMILES CC(C)=CCC[C@@H](C)c1ccc(C)cc1
REMARK SMILES IDX 6 1 7 2 8 3 9 4 13 5 12 6 11 7 14 8 10 9 15 10 5 11 4 12
REMARK SMILES IDX 2 13 1 14 3 15
REMARK H PARENT
REMARK Flexibility Score: inf
ROOT
ATOM      1  C   UNL     1      91.172 103.511  97.663  1.00  0.00     0.012 C 
ENDROOT
BRANCH   1   2
ATOM      2  C   UNL     1      91.682 102.605  96.515  1.00  0.00     0.016 C 
ATOM      3  C   UNL     1      93.128 102.934  96.111  1.00  0.00     0.013 C 
BRANCH   2   4
ATOM      4  C   UNL     1      91.566 101.142  96.906  1.00  0.00    -0.045 A 
ATOM      5  C   UNL     1      91.264  96.973  97.998  1.00  0.00     0.044 C 
ATOM      6  C   UNL     1      91.340  98.420  97.607  1.00  0.00    -0.051 A 
ATOM      7  C   UNL     1      91.868  98.789  96.362  1.00  0.00     0.004 A 
ATOM      8  C   UNL     1      90.947  99.418  98.511  1.00  0.00     0.004 A 
ATOM      9  C   UNL     1      91.974 100.138  96.012  1.00  0.00     0.004 A 
ATOM     10  C   UNL     1      91.052 100.767  98.162  1.00  0.00     0.004 A 
ENDBRANCH   2   4
ENDBRANCH   1   2
BRANCH   1  11
ATOM     11  C   UNL     1      92.296 104.183  98.471  1.00  0.00     0.028 C 
BRANCH  11  12
ATOM     12  C   UNL     1      92.918 103.244  99.480  1.00  0.00    -0.028 C 
ATOM     13  C   UNL     1      94.249 103.155  99.681  1.00  0.00    -0.080 C 
ATOM     14  C   UNL     1      94.763 102.181 100.709  1.00  0.00     0.039 C 
ATOM     15  C   UNL     1      95.224 104.004  98.901  1.00  0.00     0.039 C 
ENDBRANCH  11  12
ENDBRANCH   1  11
TORSDOF 4
ENDMDL
MODEL 5
REMARK VINA RESULT:    -5.117      1.328      5.209
REMARK INTER + INTRA:          -7.699
REMARK INTER:                  -7.070
REMARK INTRA:                  -0.629
REMARK UNBOUND:                -1.386
REMARK SMILES CC(C)=CCC[C@@H](C)c1ccc(C)cc1
REMARK SMILES IDX 6 1 7 2 8 3 9 4 13 5 12 6 11 7 14 8 10 9 15 10 5 11 4 12
REMARK SMILES IDX 2 13 1 14 3 15
REMARK H PARENT
REMARK Flexibility Score: inf
ROOT
ATOM      1  C   UNL     1      94.261 103.679  97.833  1.00  0.00     0.012 C 
ENDROOT
BRANCH   1   2
ATOM      2  C   UNL     1      93.608 103.558  96.434  1.00  0.00     0.016 C 
ATOM      3  C   UNL     1      94.625 103.744  95.297  1.00  0.00     0.013 C 
BRANCH   2   4
ATOM      4  C   UNL     1      92.903 102.220  96.294  1.00  0.00    -0.045 A 
ATOM      5  C   UNL     1      90.928  98.398  95.906  1.00  0.00     0.044 C 
ATOM      6  C   UNL     1      91.609  99.730  96.010  1.00  0.00    -0.051 A 
ATOM      7  C   UNL     1      92.994  99.833  95.824  1.00  0.00     0.004 A 
ATOM      8  C   UNL     1      90.875 100.873  96.363  1.00  0.00     0.004 A 
ATOM      9  C   UNL     1      93.635 101.068  95.957  1.00  0.00     0.004 A 
ATOM     10  C   UNL     1      91.515 102.108  96.496  1.00  0.00     0.004 A 
ENDBRANCH   2   4
ENDBRANCH   1   2
BRANCH   1  11
ATOM     11  C   UNL     1      93.427 104.491  98.839  1.00  0.00     0.028 C 
BRANCH  11  12
ATOM     12  C   UNL     1      92.197 103.743  99.302  1.00  0.00    -0.028 C 
ATOM     13  C   UNL     1      92.255 102.572  99.970  1.00  0.00    -0.080 C 
ATOM     14  C   UNL     1      90.966 101.908 100.380  1.00  0.00     0.039 C 
ATOM     15  C   UNL     1      93.574 101.919 100.309  1.00  0.00     0.039 C 
ENDBRANCH  11  12
ENDBRANCH   1  11
TORSDOF 4
ENDMDL
MODEL 6
REMARK VINA RESULT:    -5.022      1.333      2.195
REMARK INTER + INTRA:          -7.582
REMARK INTER:                  -6.657
REMARK INTRA:                  -0.925
REMARK UNBOUND:                -1.386
REMARK SMILES CC(C)=CCC[C@@H](C)c1ccc(C)cc1
REMARK SMILES IDX 6 1 7 2 8 3 9 4 13 5 12 6 11 7 14 8 10 9 15 10 5 11 4 12
REMARK SMILES IDX 2 13 1 14 3 15
REMARK H PARENT
REMARK Flexibility Score: inf
ROOT
ATOM      1  C   UNL     1      90.875 101.760  96.551  1.00  0.00     0.012 C 
ENDROOT
BRANCH   1   2
ATOM      2  C   UNL     1      91.084 101.931  98.076  1.00  0.00     0.016 C 
ATOM      3  C   UNL     1      91.084 100.587  98.819  1.00  0.00     0.013 C 
BRANCH   2   4
ATOM      4  C   UNL     1      92.375 102.683  98.351  1.00  0.00    -0.045 A 
ATOM      5  C   UNL     1      96.030 104.852  99.126  1.00  0.00     0.044 C 
ATOM      6  C   UNL     1      94.775 104.084  98.834  1.00  0.00    -0.051 A 
ATOM      7  C   UNL     1      93.815 104.605  97.954  1.00  0.00     0.004 A 
ATOM      8  C   UNL     1      94.520 102.870  99.490  1.00  0.00     0.004 A 
ATOM      9  C   UNL     1      92.629 103.908  97.710  1.00  0.00     0.004 A 
ATOM     10  C   UNL     1      93.334 102.172  99.245  1.00  0.00     0.004 A 
ENDBRANCH   2   4
ENDBRANCH   1   2
BRANCH   1  11
ATOM     11  C   UNL     1      90.999 100.305  96.066  1.00  0.00     0.028 C 
BRANCH  11  12
ATOM     12  C   UNL     1      92.337 100.027  95.419  1.00  0.00    -0.028 C 
ATOM     13  C   UNL     1      93.123  98.988  95.769  1.00  0.00    -0.080 C 
ATOM     14  C   UNL     1      94.441  98.807  95.062  1.00  0.00     0.039 C 
ATOM     15  C   UNL     1      92.711  98.013  96.846  1.00  0.00     0.039 C 
ENDBRANCH  11  12
ENDBRANCH   1  11
TORSDOF 4
ENDMDL
MODEL 7
REMARK VINA RESULT:    -4.744      1.381      4.720
REMARK INTER + INTRA:          -7.239
REMARK INTER:                  -5.787
REMARK INTRA:                  -1.452
REMARK UNBOUND:                -1.386
REMARK SMILES CC(C)=CCC[C@@H](C)c1ccc(C)cc1
REMARK SMILES IDX 6 1 7 2 8 3 9 4 13 5 12 6 11 7 14 8 10 9 15 10 5 11 4 12
REMARK SMILES IDX 2 13 1 14 3 15
REMARK H PARENT
REMARK Flexibility Score: inf
ROOT
ATOM      1  C   UNL     1      93.512 103.156  95.623  1.00  0.00     0.012 C 
ENDROOT
BRANCH   1   2
ATOM      2  C   UNL     1      92.595 102.007  96.112  1.00  0.00     0.016 C 
ATOM      3  C   UNL     1      93.278 100.635  96.013  1.00  0.00     0.013 C 
BRANCH   2   4
ATOM      4  C   UNL     1      92.140 102.265  97.538  1.00  0.00    -0.045 A 
ATOM      5  C   UNL     1      90.875 102.983 101.606  1.00  0.00     0.044 C 
ATOM      6  C   UNL     1      91.288 102.718 100.188  1.00  0.00    -0.051 A 
ATOM      7  C   UNL     1      92.093 101.611  99.882  1.00  0.00     0.004 A 
ATOM      8  C   UNL     1      90.931 103.612  99.168  1.00  0.00     0.004 A 
ATOM      9  C   UNL     1      92.510 101.383  98.568  1.00  0.00     0.004 A 
ATOM     10  C   UNL     1      91.346 103.384  97.853  1.00  0.00     0.004 A 
ENDBRANCH   2   4
ENDBRANCH   1   2
BRANCH   1  11
ATOM     11  C   UNL     1      94.657 103.493  96.594  1.00  0.00     0.028 C 
BRANCH  11  12
ATOM     12  C   UNL     1      94.471 104.839  97.258  1.00  0.00    -0.028 C 
ATOM     13  C   UNL     1      94.599 105.028  98.587  1.00  0.00    -0.080 C 
ATOM     14  C   UNL     1      94.386 106.412  99.145  1.00  0.00     0.039 C 
ATOM     15  C   UNL     1      94.948 103.891  99.518  1.00  0.00     0.039 C 
ENDBRANCH  11  12
ENDBRANCH   1  11
TORSDOF 4
ENDMDL
MODEL 8
REMARK VINA RESULT:    -3.989      1.628      5.149
REMARK INTER + INTRA:          -6.307
REMARK INTER:                  -5.840
REMARK INTRA:                  -0.467
REMARK UNBOUND:                -1.386
REMARK SMILES CC(C)=CCC[C@@H](C)c1ccc(C)cc1
REMARK SMILES IDX 6 1 7 2 8 3 9 4 13 5 12 6 11 7 14 8 10 9 15 10 5 11 4 12
REMARK SMILES IDX 2 13 1 14 3 15
REMARK H PARENT
REMARK Flexibility Score: inf
ROOT
ATOM      1  C   UNL     1      92.703 103.129  98.636  1.00  0.00     0.012 C 
ENDROOT
BRANCH   1   2
ATOM      2  C   UNL     1      91.318 102.627  98.156  1.00  0.00     0.016 C 
ATOM      3  C   UNL     1      90.904 103.251  96.815  1.00  0.00     0.013 C 
BRANCH   2   4
ATOM      4  C   UNL     1      91.313 101.111  98.054  1.00  0.00    -0.045 A 
ATOM      5  C   UNL     1      91.271  96.800  97.786  1.00  0.00     0.044 C 
ATOM      6  C   UNL     1      91.315  98.296  97.890  1.00  0.00    -0.051 A 
ATOM      7  C   UNL     1      90.881  98.937  99.059  1.00  0.00     0.004 A 
ATOM      8  C   UNL     1      91.726  99.069  96.794  1.00  0.00     0.004 A 
ATOM      9  C   UNL     1      90.886 100.332  99.143  1.00  0.00     0.004 A 
ATOM     10  C   UNL     1      91.732 100.464  96.877  1.00  0.00     0.004 A 
ENDBRANCH   2   4
ENDBRANCH   1   2
BRANCH   1  11
ATOM     11  C   UNL     1      92.940 104.629  98.387  1.00  0.00     0.028 C 
BRANCH  11  12
ATOM     12  C   UNL     1      94.387 104.939  98.078  1.00  0.00    -0.028 C 
ATOM     13  C   UNL     1      94.991 104.564  96.931  1.00  0.00    -0.080 C 
ATOM     14  C   UNL     1      96.442 104.921  96.728  1.00  0.00     0.039 C 
ATOM     15  C   UNL     1      94.251 103.801  95.859  1.00  0.00     0.039 C 
ENDBRANCH  11  12
ENDBRANCH   1  11
TORSDOF 4
ENDMDL
MODEL 9
REMARK VINA RESULT:    -3.883      1.429      3.392
REMARK INTER + INTRA:          -6.177
REMARK INTER:                  -5.198
REMARK INTRA:                  -0.978
REMARK UNBOUND:                -1.386
REMARK SMILES CC(C)=CCC[C@@H](C)c1ccc(C)cc1
REMARK SMILES IDX 6 1 7 2 8 3 9 4 13 5 12 6 11 7 14 8 10 9 15 10 5 11 4 12
REMARK SMILES IDX 2 13 1 14 3 15
REMARK H PARENT
REMARK Flexibility Score: inf
ROOT
ATOM      1  C   UNL     1      93.149 101.215  96.198  1.00  0.00     0.012 C 
ENDROOT
BRANCH   1   2
ATOM      2  C   UNL     1      92.351 102.540  96.115  1.00  0.00     0.016 C 
ATOM      3  C   UNL     1      90.875 102.357  96.503  1.00  0.00     0.013 C 
BRANCH   2   4
ATOM      4  C   UNL     1      92.996 103.601  96.990  1.00  0.00    -0.045 A 
ATOM      5  C   UNL     1      94.811 106.607  99.506  1.00  0.00     0.044 C 
ATOM      6  C   UNL     1      94.171 105.585  98.613  1.00  0.00    -0.051 A 
ATOM      7  C   UNL     1      92.864 105.145  98.867  1.00  0.00     0.004 A 
ATOM      8  C   UNL     1      94.897 105.012  97.559  1.00  0.00     0.004 A 
ATOM      9  C   UNL     1      92.279 104.167  98.059  1.00  0.00     0.004 A 
ATOM     10  C   UNL     1      94.313 104.034  96.749  1.00  0.00     0.004 A 
ENDBRANCH   2   4
ENDBRANCH   1   2
BRANCH   1  11
ATOM     11  C   UNL     1      92.890 100.414  97.485  1.00  0.00     0.028 C 
BRANCH  11  12
ATOM     12  C   UNL     1      93.522 101.056  98.699  1.00  0.00    -0.028 C 
ATOM     13  C   UNL     1      92.818 101.416  99.792  1.00  0.00    -0.080 C 
ATOM     14  C   UNL     1      93.549 102.055 100.945  1.00  0.00     0.039 C 
ATOM     15  C   UNL     1      91.327 101.194  99.881  1.00  0.00     0.039 C 
ENDBRANCH  11  12
ENDBRANCH   1  11
TORSDOF 4
ENDMDL
