MODEL 1
REMARK VINA RESULT:    -2.705      0.000      0.000
REMARK INTER + INTRA:          -3.198
REMARK INTER:                  -3.180
REMARK INTRA:                  -0.019
REMARK UNBOUND:                -0.019
REMARK SMILES CCCCC(=O)[O-]
REMARK SMILES IDX 4 1 5 2 6 3 7 4 3 5 2 6 1 7
REMARK H PARENT
REMARK Flexibility Score: inf
ROOT
ATOM      1  C   UNL     1      62.088  34.364  60.502  1.00  0.00     0.053 C 
ENDROOT
BRANCH   1   2
ATOM      2  C   UNL     1      63.024  35.257  61.253  1.00  0.00     0.041 C 
ATOM      3  O   UNL     1      62.689  36.440  61.525  1.00  0.00    -0.550 OA
ATOM      4  O   UNL     1      64.286  34.799  61.611  1.00  0.00    -0.550 OA
ENDBRANCH   1   2
BRANCH   1   5
ATOM      5  C   UNL     1      62.379  32.894  60.820  1.00  0.00     0.006 C 
BRANCH   5   6
ATOM      6  C   UNL     1      61.094  32.059  60.784  1.00  0.00    -0.003 C 
ATOM      7  C   UNL     1      61.086  31.011  61.894  1.00  0.00     0.004 C 
ENDBRANCH   5   6
ENDBRANCH   1   5
TORSDOF 3
ENDMDL
MODEL 2
REMARK VINA RESULT:    -2.705     14.514     15.296
REMARK INTER + INTRA:          -3.198
REMARK INTER:                  -3.156
REMARK INTRA:                  -0.042
REMARK UNBOUND:                -0.019
REMARK SMILES CCCCC(=O)[O-]
REMARK SMILES IDX 4 1 5 2 6 3 7 4 3 5 2 6 1 7
REMARK H PARENT
REMARK Flexibility Score: inf
ROOT
ATOM      1  C   UNL     1      55.479  26.127  49.903  1.00  0.00     0.053 C 
ENDROOT
BRANCH   1   2
ATOM      2  C   UNL     1      56.928  26.399  50.157  1.00  0.00     0.041 C 
ATOM      3  O   UNL     1      57.352  27.584  50.197  1.00  0.00    -0.550 OA
ATOM      4  O   UNL     1      57.819  25.343  50.303  1.00  0.00    -0.550 OA
ENDBRANCH   1   2
BRANCH   1   5
ATOM      5  C   UNL     1      54.665  27.421  49.996  1.00  0.00     0.006 C 
BRANCH   5   6
ATOM      6  C   UNL     1      53.221  27.197  49.535  1.00  0.00    -0.003 C 
ATOM      7  C   UNL     1      53.076  25.866  48.804  1.00  0.00     0.004 C 
ENDBRANCH   5   6
ENDBRANCH   1   5
TORSDOF 3
ENDMDL
MODEL 3
REMARK VINA RESULT:    -2.702      2.816      3.967
REMARK INTER + INTRA:          -3.194
REMARK INTER:                  -3.158
REMARK INTRA:                  -0.036
REMARK UNBOUND:                -0.019
REMARK SMILES CCCCC(=O)[O-]
REMARK SMILES IDX 4 1 5 2 6 3 7 4 3 5 2 6 1 7
REMARK H PARENT
REMARK Flexibility Score: inf
ROOT
ATOM      1  C   UNL     1      62.398  32.885  60.825  1.00  0.00     0.053 C 
ENDROOT
BRANCH   1   2
ATOM      2  C   UNL     1      61.236  31.943  60.822  1.00  0.00     0.041 C 
ATOM      3  O   UNL     1      60.538  31.801  59.783  1.00  0.00    -0.550 OA
ATOM      4  O   UNL     1      60.893  31.257  61.981  1.00  0.00    -0.550 OA
ENDBRANCH   1   2
BRANCH   1   5
ATOM      5  C   UNL     1      61.932  34.312  60.524  1.00  0.00     0.006 C 
BRANCH   5   6
ATOM      6  C   UNL     1      62.930  35.342  61.065  1.00  0.00    -0.003 C 
ATOM      7  C   UNL     1      64.236  34.676  61.486  1.00  0.00     0.004 C 
ENDBRANCH   5   6
ENDBRANCH   1   5
TORSDOF 3
ENDMDL
MODEL 4
REMARK VINA RESULT:    -2.692     13.099     13.760
REMARK INTER + INTRA:          -3.183
REMARK INTER:                  -3.146
REMARK INTRA:                  -0.037
REMARK UNBOUND:                -0.019
REMARK SMILES CCCCC(=O)[O-]
REMARK SMILES IDX 4 1 5 2 6 3 7 4 3 5 2 6 1 7
REMARK H PARENT
REMARK Flexibility Score: inf
ROOT
ATOM      1  C   UNL     1      56.772  27.865  50.330  1.00  0.00     0.053 C 
ENDROOT
BRANCH   1   2
ATOM      2  C   UNL     1      57.827  28.926  50.317  1.00  0.00     0.041 C 
ATOM      3  O   UNL     1      58.075  29.587  51.359  1.00  0.00    -0.550 OA
ATOM      4  O   UNL     1      58.504  29.218  49.139  1.00  0.00    -0.550 OA
ENDBRANCH   1   2
BRANCH   1   5
ATOM      5  C   UNL     1      55.380  28.495  50.433  1.00  0.00     0.006 C 
BRANCH   5   6
ATOM      6  C   UNL     1      54.297  27.515  49.966  1.00  0.00    -0.003 C 
ATOM      7  C   UNL     1      54.899  26.161  49.603  1.00  0.00     0.004 C 
ENDBRANCH   5   6
ENDBRANCH   1   5
TORSDOF 3
ENDMDL
MODEL 5
REMARK VINA RESULT:    -2.685     14.141     14.791
REMARK INTER + INTRA:          -3.175
REMARK INTER:                  -3.150
REMARK INTRA:                  -0.025
REMARK UNBOUND:                -0.019
REMARK SMILES CCCCC(=O)[O-]
REMARK SMILES IDX 4 1 5 2 6 3 7 4 3 5 2 6 1 7
REMARK H PARENT
REMARK Flexibility Score: inf
ROOT
ATOM      1  C   UNL     1      55.576  28.278  50.541  1.00  0.00     0.053 C 
ENDROOT
BRANCH   1   2
ATOM      2  C   UNL     1      54.640  27.322  49.871  1.00  0.00     0.041 C 
ATOM      3  O   UNL     1      55.014  26.150  49.607  1.00  0.00    -0.550 OA
ATOM      4  O   UNL     1      53.370  27.742  49.495  1.00  0.00    -0.550 OA
ENDBRANCH   1   2
BRANCH   1   5
ATOM      5  C   UNL     1      57.028  27.835  50.342  1.00  0.00     0.006 C 
BRANCH   5   6
ATOM      6  C   UNL     1      57.929  29.032  50.018  1.00  0.00    -0.003 C 
ATOM      7  C   UNL     1      59.196  28.588  49.292  1.00  0.00     0.004 C 
ENDBRANCH   5   6
ENDBRANCH   1   5
TORSDOF 3
ENDMDL
MODEL 6
REMARK VINA RESULT:    -2.660     13.688     14.446
REMARK INTER + INTRA:          -3.146
REMARK INTER:                  -3.033
REMARK INTRA:                  -0.113
REMARK UNBOUND:                -0.019
REMARK SMILES CCCCC(=O)[O-]
REMARK SMILES IDX 4 1 5 2 6 3 7 4 3 5 2 6 1 7
REMARK H PARENT
REMARK Flexibility Score: inf
ROOT
ATOM      1  C   UNL     1      56.179  27.925  50.350  1.00  0.00     0.053 C 
ENDROOT
BRANCH   1   2
ATOM      2  C   UNL     1      56.129  26.469  50.008  1.00  0.00     0.041 C 
ATOM      3  O   UNL     1      55.105  25.981  49.463  1.00  0.00    -0.550 OA
ATOM      4  O   UNL     1      57.196  25.641  50.336  1.00  0.00    -0.550 OA
ENDBRANCH   1   2
BRANCH   1   5
ATOM      5  C   UNL     1      57.586  28.320  50.809  1.00  0.00     0.006 C 
BRANCH   5   6
ATOM      6  C   UNL     1      58.368  28.986  49.671  1.00  0.00    -0.003 C 
ATOM      7  C   UNL     1      59.519  28.101  49.202  1.00  0.00     0.004 C 
ENDBRANCH   5   6
ENDBRANCH   1   5
TORSDOF 3
ENDMDL
MODEL 7
REMARK VINA RESULT:    -2.656     12.995     13.665
REMARK INTER + INTRA:          -3.141
REMARK INTER:                  -3.037
REMARK INTRA:                  -0.104
REMARK UNBOUND:                -0.019
REMARK SMILES CCCCC(=O)[O-]
REMARK SMILES IDX 4 1 5 2 6 3 7 4 3 5 2 6 1 7
REMARK H PARENT
REMARK Flexibility Score: inf
ROOT
ATOM      1  C   UNL     1      58.966  28.730  49.302  1.00  0.00     0.053 C 
ENDROOT
BRANCH   1   2
ATOM      2  C   UNL     1      59.832  27.514  49.218  1.00  0.00     0.041 C 
ATOM      3  O   UNL     1      59.315  26.366  49.226  1.00  0.00    -0.550 OA
ATOM      4  O   UNL     1      61.215  27.646  49.181  1.00  0.00    -0.550 OA
ENDBRANCH   1   2
BRANCH   1   5
ATOM      5  C   UNL     1      58.237  28.778  50.648  1.00  0.00     0.006 C 
BRANCH   5   6
ATOM      6  C   UNL     1      56.719  28.847  50.450  1.00  0.00    -0.003 C 
ATOM      7  C   UNL     1      56.122  27.453  50.276  1.00  0.00     0.004 C 
ENDBRANCH   5   6
ENDBRANCH   1   5
TORSDOF 3
ENDMDL
MODEL 8
REMARK VINA RESULT:    -2.644     13.500     13.877
REMARK INTER + INTRA:          -3.127
REMARK INTER:                  -3.066
REMARK INTRA:                  -0.061
REMARK UNBOUND:                -0.019
REMARK SMILES CCCCC(=O)[O-]
REMARK SMILES IDX 4 1 5 2 6 3 7 4 3 5 2 6 1 7
REMARK H PARENT
REMARK Flexibility Score: inf
ROOT
ATOM      1  C   UNL     1      57.922  27.511  50.203  1.00  0.00     0.053 C 
ENDROOT
BRANCH   1   2
ATOM      2  C   UNL     1      58.996  28.160  49.390  1.00  0.00     0.041 C 
ATOM      3  O   UNL     1      58.818  29.308  48.905  1.00  0.00    -0.550 OA
ATOM      4  O   UNL     1      60.177  27.476  49.126  1.00  0.00    -0.550 OA
ENDBRANCH   1   2
BRANCH   1   5
ATOM      5  C   UNL     1      56.732  28.461  50.377  1.00  0.00     0.006 C 
BRANCH   5   6
ATOM      6  C   UNL     1      55.405  27.696  50.320  1.00  0.00    -0.003 C 
ATOM      7  C   UNL     1      55.617  26.257  49.861  1.00  0.00     0.004 C 
ENDBRANCH   5   6
ENDBRANCH   1   5
TORSDOF 3
ENDMDL
MODEL 9
REMARK VINA RESULT:    -2.573     14.156     14.615
REMARK INTER + INTRA:          -3.043
REMARK INTER:                  -3.007
REMARK INTRA:                  -0.036
REMARK UNBOUND:                -0.019
REMARK SMILES CCCCC(=O)[O-]
REMARK SMILES IDX 4 1 5 2 6 3 7 4 3 5 2 6 1 7
REMARK H PARENT
REMARK Flexibility Score: inf
ROOT
ATOM      1  C   UNL     1      57.151  26.812  50.438  1.00  0.00     0.053 C 
ENDROOT
BRANCH   1   2
ATOM      2  C   UNL     1      58.312  25.935  50.091  1.00  0.00     0.041 C 
ATOM      3  O   UNL     1      58.434  24.803  50.628  1.00  0.00    -0.550 OA
ATOM      4  O   UNL     1      59.287  26.389  49.211  1.00  0.00    -0.550 OA
ENDBRANCH   1   2
BRANCH   1   5
ATOM      5  C   UNL     1      55.843  26.196  49.930  1.00  0.00     0.006 C 
BRANCH   5   6
ATOM      6  C   UNL     1      54.693  27.206  50.007  1.00  0.00    -0.003 C 
ATOM      7  C   UNL     1      55.178  28.555  50.529  1.00  0.00     0.004 C 
ENDBRANCH   5   6
ENDBRANCH   1   5
TORSDOF 3
ENDMDL
