MODEL 1
REMARK VINA RESULT:    -4.919      0.000      0.000
REMARK INTER + INTRA:          -6.825
REMARK INTER:                  -6.644
REMARK INTRA:                  -0.181
REMARK UNBOUND:                -0.181
REMARK SMILES O=c1c(-c2ccc(O)cc2)coc2c([C@@H]3O[C@H](CO)[C@H](O)[C@H](O)[C@H]3O)c(O)ccc12
REMARK SMILES IDX 3 1 11 2 12 3 13 4 30 5 2 6 1 7 29 8 28 9 26 10 14 11 4 12
REMARK SMILES IDX 5 13 6 14 7 15 10 16 9 17 8 18 15 20 24 21 16 22 22 23 17 24
REMARK SMILES IDX 20 25 25 26 23 28 18 30 19 31 21 33 27 35
REMARK H PARENT 8 19 25 27 23 29 19 32 21 34 27 36
REMARK Flexibility Score: inf
ROOT
ATOM      1  C   UNL     1       1.906  -3.453  -8.623  1.00  0.00     0.065 A 
ATOM      2  C   UNL     1       2.846  -2.432  -8.812  1.00  0.00     0.208 A 
ATOM      3  O   UNL     1       4.103  -2.578  -8.415  1.00  0.00    -0.463 OA
ATOM      4  C   UNL     1       4.570  -3.676  -7.830  1.00  0.00     0.147 A 
ATOM      5  C   UNL     1       3.709  -4.793  -7.685  1.00  0.00     0.066 A 
ATOM      6  C   UNL     1       2.351  -4.654  -8.037  1.00  0.00     0.200 A 
ATOM      7  O   UNL     1       1.531  -5.584  -7.788  1.00  0.00    -0.288 OA
ATOM      8  C   UNL     1       4.218  -6.005  -7.197  1.00  0.00     0.020 A 
ATOM      9  C   UNL     1       5.571  -6.125  -6.903  1.00  0.00     0.047 A 
ATOM     10  C   UNL     1       6.419  -5.017  -6.989  1.00  0.00     0.125 A 
ATOM     11  C   UNL     1       5.911  -3.742  -7.353  1.00  0.00     0.069 A 
ENDROOT
BRANCH   1  12
ATOM     12  C   UNL     1       0.477  -3.205  -8.950  1.00  0.00    -0.011 A 
ATOM     13  C   UNL     1      -0.165  -2.050  -8.465  1.00  0.00     0.013 A 
ATOM     14  C   UNL     1      -1.494  -1.782  -8.799  1.00  0.00     0.047 A 
ATOM     15  C   UNL     1      -2.202  -2.659  -9.622  1.00  0.00     0.115 A 
ATOM     16  C   UNL     1      -0.248  -4.082  -9.781  1.00  0.00     0.013 A 
ATOM     17  C   UNL     1      -1.574  -3.804 -10.124  1.00  0.00     0.047 A 
BRANCH  15  18
ATOM     18  O   UNL     1      -3.532  -2.380  -9.933  1.00  0.00    -0.508 OA
ATOM     19  H   UNL     1      -3.838  -1.445 -10.173  1.00  0.00     0.293 HD
ENDBRANCH  15  18
ENDBRANCH   1  12
BRANCH  11  20
ATOM     20  C   UNL     1       6.870  -2.537  -7.217  1.00  0.00     0.188 C 
ATOM     21  C   UNL     1       6.355  -1.079  -7.397  1.00  0.00     0.179 C 
ATOM     22  O   UNL     1       7.680  -2.648  -6.047  1.00  0.00    -0.362 OA
ATOM     23  C   UNL     1       5.614  -0.576  -6.145  1.00  0.00     0.177 C 
ATOM     24  C   UNL     1       7.044  -2.246  -4.834  1.00  0.00     0.176 C 
ATOM     25  C   UNL     1       6.494  -0.798  -4.903  1.00  0.00     0.177 C 
BRANCH  21  26
ATOM     26  O   UNL     1       7.471  -0.245  -7.616  1.00  0.00    -0.387 OA
ATOM     27  H   UNL     1       7.680  -0.261  -8.586  1.00  0.00     0.211 HD
ENDBRANCH  21  26
BRANCH  23  28
ATOM     28  O   UNL     1       4.376  -1.223  -6.008  1.00  0.00    -0.387 OA
ATOM     29  H   UNL     1       4.498  -2.164  -6.301  1.00  0.00     0.211 HD
ENDBRANCH  23  28
BRANCH  24  30
ATOM     30  C   UNL     1       6.053  -3.304  -4.297  1.00  0.00     0.191 C 
BRANCH  30  31
ATOM     31  O   UNL     1       6.685  -4.139  -3.366  1.00  0.00    -0.394 OA
ATOM     32  H   UNL     1       7.620  -3.819  -3.286  1.00  0.00     0.210 HD
ENDBRANCH  30  31
ENDBRANCH  24  30
BRANCH  25  33
ATOM     33  O   UNL     1       5.777  -0.465  -3.738  1.00  0.00    -0.388 OA
ATOM     34  H   UNL     1       5.674   0.524  -3.738  1.00  0.00     0.211 HD
ENDBRANCH  25  33
ENDBRANCH  11  20
BRANCH  10  35
ATOM     35  O   UNL     1       7.775  -5.178  -6.687  1.00  0.00    -0.507 OA
ATOM     36  H   UNL     1       8.309  -4.459  -6.212  1.00  0.00     0.293 HD
ENDBRANCH  10  35
TORSDOF 9
ENDMDL
MODEL 2
REMARK VINA RESULT:    -3.823      3.624      5.476
REMARK INTER + INTRA:          -5.345
REMARK INTER:                  -4.965
REMARK INTRA:                  -0.379
REMARK UNBOUND:                -0.181
REMARK SMILES O=c1c(-c2ccc(O)cc2)coc2c([C@@H]3O[C@H](CO)[C@H](O)[C@H](O)[C@H]3O)c(O)ccc12
REMARK SMILES IDX 3 1 11 2 12 3 13 4 30 5 2 6 1 7 29 8 28 9 26 10 14 11 4 12
REMARK SMILES IDX 5 13 6 14 7 15 10 16 9 17 8 18 15 20 24 21 16 22 22 23 17 24
REMARK SMILES IDX 20 25 25 26 23 28 18 30 19 31 21 33 27 35
REMARK H PARENT 8 19 25 27 23 29 19 32 21 34 27 36
REMARK Flexibility Score: inf
ROOT
ATOM      1  C   UNL     1       3.772   1.308  -9.084  1.00  0.00     0.065 A 
ATOM      2  C   UNL     1       4.988   0.682  -9.383  1.00  0.00     0.208 A 
ATOM      3  O   UNL     1       5.119  -0.635  -9.295  1.00  0.00    -0.463 OA
ATOM      4  C   UNL     1       4.135  -1.453  -8.935  1.00  0.00     0.147 A 
ATOM      5  C   UNL     1       2.845  -0.911  -8.705  1.00  0.00     0.066 A 
ATOM      6  C   UNL     1       2.682   0.489  -8.728  1.00  0.00     0.200 A 
ATOM      7  O   UNL     1       1.579   1.007  -8.389  1.00  0.00    -0.288 OA
ATOM      8  C   UNL     1       1.764  -1.770  -8.460  1.00  0.00     0.020 A 
ATOM      9  C   UNL     1       1.946  -3.147  -8.491  1.00  0.00     0.047 A 
ATOM     10  C   UNL     1       3.222  -3.692  -8.662  1.00  0.00     0.125 A 
ATOM     11  C   UNL     1       4.359  -2.851  -8.781  1.00  0.00     0.069 A 
ENDROOT
BRANCH   1  12
ATOM     12  C   UNL     1       3.697   2.793  -9.056  1.00  0.00    -0.011 A 
ATOM     13  C   UNL     1       4.563   3.524  -8.220  1.00  0.00     0.013 A 
ATOM     14  C   UNL     1       4.534   4.920  -8.215  1.00  0.00     0.047 A 
ATOM     15  C   UNL     1       3.646   5.607  -9.043  1.00  0.00     0.115 A 
ATOM     16  C   UNL     1       2.806   3.498  -9.889  1.00  0.00     0.013 A 
ATOM     17  C   UNL     1       2.789   4.896  -9.890  1.00  0.00     0.047 A 
BRANCH  15  18
ATOM     18  O   UNL     1       3.624   7.001  -9.014  1.00  0.00    -0.508 OA
ATOM     19  H   UNL     1       4.265   7.532  -8.438  1.00  0.00     0.293 HD
ENDBRANCH  15  18
ENDBRANCH   1  12
BRANCH  11  20
ATOM     20  C   UNL     1       5.746  -3.534  -8.752  1.00  0.00     0.188 C 
ATOM     21  C   UNL     1       7.054  -2.691  -8.721  1.00  0.00     0.179 C 
ATOM     22  O   UNL     1       5.790  -4.576  -7.778  1.00  0.00    -0.362 OA
ATOM     23  C   UNL     1       7.345  -2.139  -7.314  1.00  0.00     0.177 C 
ATOM     24  C   UNL     1       6.007  -4.138  -6.436  1.00  0.00     0.176 C 
ATOM     25  C   UNL     1       7.295  -3.287  -6.291  1.00  0.00     0.177 C 
BRANCH  21  26
ATOM     26  O   UNL     1       8.124  -3.530  -9.097  1.00  0.00    -0.387 OA
ATOM     27  H   UNL     1       7.827  -4.470  -8.994  1.00  0.00     0.211 HD
ENDBRANCH  21  26
BRANCH  23  28
ATOM     28  O   UNL     1       6.431  -1.126  -6.980  1.00  0.00    -0.387 OA
ATOM     29  H   UNL     1       6.785  -0.274  -7.348  1.00  0.00     0.211 HD
ENDBRANCH  23  28
BRANCH  24  30
ATOM     30  C   UNL     1       4.740  -3.533  -5.791  1.00  0.00     0.191 C 
BRANCH  30  31
ATOM     31  O   UNL     1       4.874  -3.490  -4.396  1.00  0.00    -0.394 OA
ATOM     32  H   UNL     1       5.755  -3.893  -4.183  1.00  0.00     0.210 HD
ENDBRANCH  30  31
ENDBRANCH  24  30
BRANCH  25  33
ATOM     33  O   UNL     1       7.428  -2.776  -4.985  1.00  0.00    -0.388 OA
ATOM     34  H   UNL     1       8.109  -3.336  -4.526  1.00  0.00     0.211 HD
ENDBRANCH  25  33
ENDBRANCH  11  20
BRANCH  10  35
ATOM     35  O   UNL     1       3.364  -5.083  -8.689  1.00  0.00    -0.507 OA
ATOM     36  H   UNL     1       4.255  -5.536  -8.516  1.00  0.00     0.293 HD
ENDBRANCH  10  35
TORSDOF 9
ENDMDL
MODEL 3
REMARK VINA RESULT:    -3.752      3.533      7.257
REMARK INTER + INTRA:          -5.249
REMARK INTER:                  -4.732
REMARK INTRA:                  -0.517
REMARK UNBOUND:                -0.181
REMARK SMILES O=c1c(-c2ccc(O)cc2)coc2c([C@@H]3O[C@H](CO)[C@H](O)[C@H](O)[C@H]3O)c(O)ccc12
REMARK SMILES IDX 3 1 11 2 12 3 13 4 30 5 2 6 1 7 29 8 28 9 26 10 14 11 4 12
REMARK SMILES IDX 5 13 6 14 7 15 10 16 9 17 8 18 15 20 24 21 16 22 22 23 17 24
REMARK SMILES IDX 20 25 25 26 23 28 18 30 19 31 21 33 27 35
REMARK H PARENT 8 19 25 27 23 29 19 32 21 34 27 36
REMARK Flexibility Score: inf
ROOT
ATOM      1  C   UNL     1       6.212   2.190  -7.714  1.00  0.00     0.065 A 
ATOM      2  C   UNL     1       5.225   1.396  -8.308  1.00  0.00     0.208 A 
ATOM      3  O   UNL     1       4.911   0.208  -7.809  1.00  0.00    -0.463 OA
ATOM      4  C   UNL     1       5.482  -0.314  -6.728  1.00  0.00     0.147 A 
ATOM      5  C   UNL     1       6.426   0.463  -6.011  1.00  0.00     0.066 A 
ATOM      6  C   UNL     1       6.831   1.704  -6.545  1.00  0.00     0.200 A 
ATOM      7  O   UNL     1       7.771   2.354  -6.004  1.00  0.00    -0.288 OA
ATOM      8  C   UNL     1       6.938  -0.011  -4.794  1.00  0.00     0.020 A 
ATOM      9  C   UNL     1       6.484  -1.215  -4.270  1.00  0.00     0.047 A 
ATOM     10  C   UNL     1       5.596  -2.017  -4.993  1.00  0.00     0.125 A 
ATOM     11  C   UNL     1       5.160  -1.629  -6.288  1.00  0.00     0.069 A 
ENDROOT
BRANCH   1  12
ATOM     12  C   UNL     1       6.639   3.452  -8.377  1.00  0.00    -0.011 A 
ATOM     13  C   UNL     1       6.054   4.676  -7.999  1.00  0.00     0.013 A 
ATOM     14  C   UNL     1       6.476   5.873  -8.582  1.00  0.00     0.047 A 
ATOM     15  C   UNL     1       7.484   5.868  -9.546  1.00  0.00     0.115 A 
ATOM     16  C   UNL     1       7.657   3.460  -9.350  1.00  0.00     0.013 A 
ATOM     17  C   UNL     1       8.085   4.662  -9.922  1.00  0.00     0.047 A 
BRANCH  15  18
ATOM     18  O   UNL     1       7.881   7.073 -10.125  1.00  0.00    -0.508 OA
ATOM     19  H   UNL     1       8.596   7.656  -9.706  1.00  0.00     0.293 HD
ENDBRANCH  15  18
ENDBRANCH   1  12
BRANCH  11  20
ATOM     20  C   UNL     1       4.353  -2.669  -7.099  1.00  0.00     0.188 C 
ATOM     21  C   UNL     1       4.004  -2.422  -8.595  1.00  0.00     0.179 C 
ATOM     22  O   UNL     1       4.867  -3.987  -6.908  1.00  0.00    -0.362 OA
ATOM     23  C   UNL     1       5.205  -2.700  -9.516  1.00  0.00     0.177 C 
ATOM     24  C   UNL     1       6.016  -4.305  -7.694  1.00  0.00     0.176 C 
ATOM     25  C   UNL     1       5.775  -4.096  -9.211  1.00  0.00     0.177 C 
BRANCH  21  26
ATOM     26  O   UNL     1       2.960  -3.301  -8.952  1.00  0.00    -0.387 OA
ATOM     27  H   UNL     1       3.250  -4.225  -8.735  1.00  0.00     0.211 HD
ENDBRANCH  21  26
BRANCH  23  28
ATOM     28  O   UNL     1       6.189  -1.710  -9.361  1.00  0.00    -0.387 OA
ATOM     29  H   UNL     1       6.476  -1.431 -10.270  1.00  0.00     0.211 HD
ENDBRANCH  23  28
BRANCH  24  30
ATOM     30  C   UNL     1       7.314  -3.676  -7.139  1.00  0.00     0.191 C 
BRANCH  30  31
ATOM     31  O   UNL     1       7.770  -4.396  -6.026  1.00  0.00    -0.394 OA
ATOM     32  H   UNL     1       7.577  -3.839  -5.229  1.00  0.00     0.210 HD
ENDBRANCH  30  31
ENDBRANCH  24  30
BRANCH  25  33
ATOM     33  O   UNL     1       6.953  -4.310  -9.952  1.00  0.00    -0.388 OA
ATOM     34  H   UNL     1       6.709  -4.898 -10.715  1.00  0.00     0.211 HD
ENDBRANCH  25  33
ENDBRANCH  11  20
BRANCH  10  35
ATOM     35  O   UNL     1       5.161  -3.221  -4.431  1.00  0.00    -0.507 OA
ATOM     36  H   UNL     1       4.327  -3.696  -4.757  1.00  0.00     0.293 HD
ENDBRANCH  10  35
TORSDOF 9
ENDMDL
MODEL 4
REMARK VINA RESULT:    -3.719      3.102      6.590
REMARK INTER + INTRA:          -5.204
REMARK INTER:                  -4.797
REMARK INTRA:                  -0.408
REMARK UNBOUND:                -0.181
REMARK SMILES O=c1c(-c2ccc(O)cc2)coc2c([C@@H]3O[C@H](CO)[C@H](O)[C@H](O)[C@H]3O)c(O)ccc12
REMARK SMILES IDX 3 1 11 2 12 3 13 4 30 5 2 6 1 7 29 8 28 9 26 10 14 11 4 12
REMARK SMILES IDX 5 13 6 14 7 15 10 16 9 17 8 18 15 20 24 21 16 22 22 23 17 24
REMARK SMILES IDX 20 25 25 26 23 28 18 30 19 31 21 33 27 35
REMARK H PARENT 8 19 25 27 23 29 19 32 21 34 27 36
REMARK Flexibility Score: inf
ROOT
ATOM      1  C   UNL     1       6.060   0.390  -6.749  1.00  0.00     0.065 A 
ATOM      2  C   UNL     1       4.926  -0.381  -7.029  1.00  0.00     0.208 A 
ATOM      3  O   UNL     1       4.781  -1.595  -6.515  1.00  0.00    -0.463 OA
ATOM      4  C   UNL     1       5.667  -2.166  -5.706  1.00  0.00     0.147 A 
ATOM      5  C   UNL     1       6.800  -1.418  -5.297  1.00  0.00     0.066 A 
ATOM      6  C   UNL     1       7.020  -0.149  -5.871  1.00  0.00     0.200 A 
ATOM      7  O   UNL     1       8.091   0.480  -5.632  1.00  0.00    -0.288 OA
ATOM      8  C   UNL     1       7.675  -1.949  -4.338  1.00  0.00     0.020 A 
ATOM      9  C   UNL     1       7.405  -3.182  -3.755  1.00  0.00     0.047 A 
ATOM     10  C   UNL     1       6.323  -3.953  -4.190  1.00  0.00     0.125 A 
ATOM     11  C   UNL     1       5.494  -3.505  -5.252  1.00  0.00     0.069 A 
ENDROOT
BRANCH   1  12
ATOM     12  C   UNL     1       6.259   1.686  -7.451  1.00  0.00    -0.011 A 
ATOM     13  C   UNL     1       6.426   1.709  -8.849  1.00  0.00     0.013 A 
ATOM     14  C   UNL     1       6.570   2.922  -9.526  1.00  0.00     0.047 A 
ATOM     15  C   UNL     1       6.548   4.127  -8.823  1.00  0.00     0.115 A 
ATOM     16  C   UNL     1       6.237   2.909  -6.752  1.00  0.00     0.013 A 
ATOM     17  C   UNL     1       6.369   4.122  -7.436  1.00  0.00     0.047 A 
BRANCH  15  18
ATOM     18  O   UNL     1       6.707   5.326  -9.517  1.00  0.00    -0.508 OA
ATOM     19  H   UNL     1       6.331   5.456 -10.449  1.00  0.00     0.293 HD
ENDBRANCH  15  18
ENDBRANCH   1  12
BRANCH  11  20
ATOM     20  C   UNL     1       4.457  -4.509  -5.807  1.00  0.00     0.188 C 
ATOM     21  C   UNL     1       3.629  -4.181  -7.083  1.00  0.00     0.179 C 
ATOM     22  O   UNL     1       5.000  -5.827  -5.879  1.00  0.00    -0.362 OA
ATOM     23  C   UNL     1       4.452  -4.385  -8.368  1.00  0.00     0.177 C 
ATOM     24  C   UNL     1       5.819  -6.080  -7.021  1.00  0.00     0.176 C 
ATOM     25  C   UNL     1       5.085  -5.787  -8.355  1.00  0.00     0.177 C 
BRANCH  21  26
ATOM     26  O   UNL     1       2.522  -5.055  -7.123  1.00  0.00    -0.387 OA
ATOM     27  H   UNL     1       1.711  -4.531  -6.900  1.00  0.00     0.211 HD
ENDBRANCH  21  26
BRANCH  23  28
ATOM     28  O   UNL     1       5.435  -3.390  -8.491  1.00  0.00    -0.387 OA
ATOM     29  H   UNL     1       5.222  -2.862  -9.305  1.00  0.00     0.211 HD
ENDBRANCH  23  28
BRANCH  24  30
ATOM     30  C   UNL     1       7.231  -5.463  -6.895  1.00  0.00     0.191 C 
BRANCH  30  31
ATOM     31  O   UNL     1       7.967  -6.125  -5.904  1.00  0.00    -0.394 OA
ATOM     32  H   UNL     1       7.839  -7.096  -6.056  1.00  0.00     0.210 HD
ENDBRANCH  30  31
ENDBRANCH  24  30
BRANCH  25  33
ATOM     33  O   UNL     1       5.947  -5.938  -9.459  1.00  0.00    -0.388 OA
ATOM     34  H   UNL     1       5.398  -6.303 -10.203  1.00  0.00     0.211 HD
ENDBRANCH  25  33
ENDBRANCH  11  20
BRANCH  10  35
ATOM     35  O   UNL     1       6.084  -5.187  -3.578  1.00  0.00    -0.507 OA
ATOM     36  H   UNL     1       5.170  -5.627  -3.593  1.00  0.00     0.293 HD
ENDBRANCH  10  35
TORSDOF 9
ENDMDL
MODEL 5
REMARK VINA RESULT:    -3.396      2.756      5.804
REMARK INTER + INTRA:          -4.768
REMARK INTER:                  -4.289
REMARK INTRA:                  -0.480
REMARK UNBOUND:                -0.181
REMARK SMILES O=c1c(-c2ccc(O)cc2)coc2c([C@@H]3O[C@H](CO)[C@H](O)[C@H](O)[C@H]3O)c(O)ccc12
REMARK SMILES IDX 3 1 11 2 12 3 13 4 30 5 2 6 1 7 29 8 28 9 26 10 14 11 4 12
REMARK SMILES IDX 5 13 6 14 7 15 10 16 9 17 8 18 15 20 24 21 16 22 22 23 17 24
REMARK SMILES IDX 20 25 25 26 23 28 18 30 19 31 21 33 27 35
REMARK H PARENT 8 19 25 27 23 29 19 32 21 34 27 36
REMARK Flexibility Score: inf
ROOT
ATOM      1  C   UNL     1       5.220   0.217  -8.653  1.00  0.00     0.065 A 
ATOM      2  C   UNL     1       6.264  -0.713  -8.726  1.00  0.00     0.208 A 
ATOM      3  O   UNL     1       6.036  -2.010  -8.577  1.00  0.00    -0.463 OA
ATOM      4  C   UNL     1       4.831  -2.528  -8.359  1.00  0.00     0.147 A 
ATOM      5  C   UNL     1       3.705  -1.666  -8.363  1.00  0.00     0.066 A 
ATOM      6  C   UNL     1       3.915  -0.275  -8.456  1.00  0.00     0.200 A 
ATOM      7  O   UNL     1       2.945   0.525  -8.321  1.00  0.00    -0.288 OA
ATOM      8  C   UNL     1       2.415  -2.207  -8.273  1.00  0.00     0.020 A 
ATOM      9  C   UNL     1       2.238  -3.585  -8.230  1.00  0.00     0.047 A 
ATOM     10  C   UNL     1       3.340  -4.443  -8.170  1.00  0.00     0.125 A 
ATOM     11  C   UNL     1       4.660  -3.923  -8.125  1.00  0.00     0.069 A 
ENDROOT
BRANCH   1  12
ATOM     12  C   UNL     1       5.528   1.672  -8.684  1.00  0.00    -0.011 A 
ATOM     13  C   UNL     1       5.322   2.408  -9.866  1.00  0.00     0.013 A 
ATOM     14  C   UNL     1       5.565   3.783  -9.898  1.00  0.00     0.047 A 
ATOM     15  C   UNL     1       6.015   4.443  -8.755  1.00  0.00     0.115 A 
ATOM     16  C   UNL     1       5.981   2.350  -7.535  1.00  0.00     0.013 A 
ATOM     17  C   UNL     1       6.212   3.729  -7.568  1.00  0.00     0.047 A 
BRANCH  15  18
ATOM     18  O   UNL     1       6.264   5.814  -8.811  1.00  0.00    -0.508 OA
ATOM     19  H   UNL     1       5.512   6.491  -8.860  1.00  0.00     0.293 HD
ENDBRANCH  15  18
ENDBRANCH   1  12
BRANCH  11  20
ATOM     20  C   UNL     1       5.803  -4.927  -7.847  1.00  0.00     0.188 C 
ATOM     21  C   UNL     1       7.264  -4.438  -7.630  1.00  0.00     0.179 C 
ATOM     22  O   UNL     1       5.429  -5.870  -6.842  1.00  0.00    -0.362 OA
ATOM     23  C   UNL     1       7.474  -3.871  -6.215  1.00  0.00     0.177 C 
ATOM     24  C   UNL     1       5.549  -5.400  -5.500  1.00  0.00     0.176 C 
ATOM     25  C   UNL     1       6.977  -4.890  -5.174  1.00  0.00     0.177 C 
BRANCH  21  26
ATOM     26  O   UNL     1       8.125  -5.543  -7.797  1.00  0.00    -0.387 OA
ATOM     27  H   UNL     1       8.199  -6.008  -6.923  1.00  0.00     0.211 HD
ENDBRANCH  21  26
BRANCH  23  28
ATOM     28  O   UNL     1       6.815  -2.640  -6.070  1.00  0.00    -0.387 OA
ATOM     29  H   UNL     1       6.065  -2.627  -6.722  1.00  0.00     0.211 HD
ENDBRANCH  23  28
BRANCH  24  30
ATOM     30  C   UNL     1       4.400  -4.451  -5.092  1.00  0.00     0.191 C 
BRANCH  30  31
ATOM     31  O   UNL     1       4.374  -4.284  -3.701  1.00  0.00    -0.394 OA
ATOM     32  H   UNL     1       5.294  -4.460  -3.375  1.00  0.00     0.210 HD
ENDBRANCH  30  31
ENDBRANCH  24  30
BRANCH  25  33
ATOM     33  O   UNL     1       7.040  -4.331  -3.883  1.00  0.00    -0.388 OA
ATOM     34  H   UNL     1       6.606  -4.980  -3.269  1.00  0.00     0.211 HD
ENDBRANCH  25  33
ENDBRANCH  11  20
BRANCH  10  35
ATOM     35  O   UNL     1       3.120  -5.823  -8.130  1.00  0.00    -0.507 OA
ATOM     36  H   UNL     1       3.598  -6.461  -8.757  1.00  0.00     0.293 HD
ENDBRANCH  10  35
TORSDOF 9
ENDMDL
MODEL 6
REMARK VINA RESULT:    -3.267      3.292      6.492
REMARK INTER + INTRA:          -4.593
REMARK INTER:                  -4.095
REMARK INTRA:                  -0.498
REMARK UNBOUND:                -0.181
REMARK SMILES O=c1c(-c2ccc(O)cc2)coc2c([C@@H]3O[C@H](CO)[C@H](O)[C@H](O)[C@H]3O)c(O)ccc12
REMARK SMILES IDX 3 1 11 2 12 3 13 4 30 5 2 6 1 7 29 8 28 9 26 10 14 11 4 12
REMARK SMILES IDX 5 13 6 14 7 15 10 16 9 17 8 18 15 20 24 21 16 22 22 23 17 24
REMARK SMILES IDX 20 25 25 26 23 28 18 30 19 31 21 33 27 35
REMARK H PARENT 8 19 25 27 23 29 19 32 21 34 27 36
REMARK Flexibility Score: inf
ROOT
ATOM      1  C   UNL     1       6.725   0.461  -8.138  1.00  0.00     0.065 A 
ATOM      2  C   UNL     1       7.487  -0.430  -7.372  1.00  0.00     0.208 A 
ATOM      3  O   UNL     1       7.275  -1.738  -7.433  1.00  0.00    -0.463 OA
ATOM      4  C   UNL     1       6.354  -2.302  -8.208  1.00  0.00     0.147 A 
ATOM      5  C   UNL     1       5.602  -1.481  -9.085  1.00  0.00     0.066 A 
ATOM      6  C   UNL     1       5.755  -0.081  -9.004  1.00  0.00     0.200 A 
ATOM      7  O   UNL     1       4.998   0.682  -9.671  1.00  0.00    -0.288 OA
ATOM      8  C   UNL     1       4.724  -2.068 -10.008  1.00  0.00     0.020 A 
ATOM      9  C   UNL     1       4.630  -3.451 -10.097  1.00  0.00     0.047 A 
ATOM     10  C   UNL     1       5.325  -4.271  -9.202  1.00  0.00     0.125 A 
ATOM     11  C   UNL     1       6.119  -3.706  -8.169  1.00  0.00     0.069 A 
ENDROOT
BRANCH   1  12
ATOM     12  C   UNL     1       6.892   1.926  -7.942  1.00  0.00    -0.011 A 
ATOM     13  C   UNL     1       7.624   2.680  -8.879  1.00  0.00     0.013 A 
ATOM     14  C   UNL     1       7.752   4.063  -8.732  1.00  0.00     0.047 A 
ATOM     15  C   UNL     1       7.152   4.713  -7.653  1.00  0.00     0.115 A 
ATOM     16  C   UNL     1       6.289   2.594  -6.858  1.00  0.00     0.013 A 
ATOM     17  C   UNL     1       6.409   3.980  -6.722  1.00  0.00     0.047 A 
BRANCH  15  18
ATOM     18  O   UNL     1       7.302   6.093  -7.518  1.00  0.00    -0.508 OA
ATOM     19  H   UNL     1       8.060   6.593  -7.967  1.00  0.00     0.293 HD
ENDBRANCH  15  18
ENDBRANCH   1  12
BRANCH  11  20
ATOM     20  C   UNL     1       6.677  -4.675  -7.101  1.00  0.00     0.188 C 
ATOM     21  C   UNL     1       7.388  -4.137  -5.826  1.00  0.00     0.179 C 
ATOM     22  O   UNL     1       5.721  -5.680  -6.763  1.00  0.00    -0.362 OA
ATOM     23  C   UNL     1       6.380  -3.631  -4.778  1.00  0.00     0.177 C 
ATOM     24  C   UNL     1       4.720  -5.270  -5.832  1.00  0.00     0.176 C 
ATOM     25  C   UNL     1       5.324  -4.718  -4.515  1.00  0.00     0.177 C 
BRANCH  21  26
ATOM     26  O   UNL     1       8.125  -5.197  -5.255  1.00  0.00    -0.387 OA
ATOM     27  H   UNL     1       7.480  -5.856  -4.889  1.00  0.00     0.211 HD
ENDBRANCH  21  26
BRANCH  23  28
ATOM     28  O   UNL     1       5.779  -2.437  -5.206  1.00  0.00    -0.387 OA
ATOM     29  H   UNL     1       6.009  -2.314  -6.164  1.00  0.00     0.211 HD
ENDBRANCH  23  28
BRANCH  24  30
ATOM     30  C   UNL     1       3.625  -4.390  -6.477  1.00  0.00     0.191 C 
BRANCH  30  31
ATOM     31  O   UNL     1       2.787  -5.167  -7.287  1.00  0.00    -0.394 OA
ATOM     32  H   UNL     1       2.325  -4.541  -7.902  1.00  0.00     0.210 HD
ENDBRANCH  30  31
ENDBRANCH  24  30
BRANCH  25  33
ATOM     33  O   UNL     1       4.322  -4.220  -3.660  1.00  0.00    -0.388 OA
ATOM     34  H   UNL     1       4.787  -3.747  -2.919  1.00  0.00     0.211 HD
ENDBRANCH  25  33
ENDBRANCH  11  20
BRANCH  10  35
ATOM     35  O   UNL     1       5.206  -5.658  -9.325  1.00  0.00    -0.507 OA
ATOM     36  H   UNL     1       5.339  -6.281  -8.535  1.00  0.00     0.293 HD
ENDBRANCH  10  35
TORSDOF 9
ENDMDL
MODEL 7
REMARK VINA RESULT:    -3.232      3.328      6.435
REMARK INTER + INTRA:          -4.546
REMARK INTER:                  -4.203
REMARK INTRA:                  -0.343
REMARK UNBOUND:                -0.181
REMARK SMILES O=c1c(-c2ccc(O)cc2)coc2c([C@@H]3O[C@H](CO)[C@H](O)[C@H](O)[C@H]3O)c(O)ccc12
REMARK SMILES IDX 3 1 11 2 12 3 13 4 30 5 2 6 1 7 29 8 28 9 26 10 14 11 4 12
REMARK SMILES IDX 5 13 6 14 7 15 10 16 9 17 8 18 15 20 24 21 16 22 22 23 17 24
REMARK SMILES IDX 20 25 25 26 23 28 18 30 19 31 21 33 27 35
REMARK H PARENT 8 19 25 27 23 29 19 32 21 34 27 36
REMARK Flexibility Score: inf
ROOT
ATOM      1  C   UNL     1       6.458   0.577  -7.784  1.00  0.00     0.065 A 
ATOM      2  C   UNL     1       6.285  -0.252  -6.669  1.00  0.00     0.208 A 
ATOM      3  O   UNL     1       6.518  -1.555  -6.744  1.00  0.00    -0.463 OA
ATOM      4  C   UNL     1       6.932  -2.170  -7.847  1.00  0.00     0.147 A 
ATOM      5  C   UNL     1       7.221  -1.392  -8.996  1.00  0.00     0.066 A 
ATOM      6  C   UNL     1       6.926  -0.013  -8.975  1.00  0.00     0.200 A 
ATOM      7  O   UNL     1       7.041   0.678 -10.027  1.00  0.00    -0.288 OA
ATOM      8  C   UNL     1       7.788  -2.002 -10.125  1.00  0.00     0.020 A 
ATOM      9  C   UNL     1       8.112  -3.353 -10.099  1.00  0.00     0.047 A 
ATOM     10  C   UNL     1       7.781  -4.142  -8.993  1.00  0.00     0.125 A 
ATOM     11  C   UNL     1       7.087  -3.586  -7.887  1.00  0.00     0.069 A 
ENDROOT
BRANCH   1  12
ATOM     12  C   UNL     1       6.054   2.006  -7.707  1.00  0.00    -0.011 A 
ATOM     13  C   UNL     1       4.999   2.482  -8.508  1.00  0.00     0.013 A 
ATOM     14  C   UNL     1       4.580   3.810  -8.415  1.00  0.00     0.047 A 
ATOM     15  C   UNL     1       5.204   4.683  -7.523  1.00  0.00     0.115 A 
ATOM     16  C   UNL     1       6.676   2.896  -6.809  1.00  0.00     0.013 A 
ATOM     17  C   UNL     1       6.245   4.222  -6.709  1.00  0.00     0.047 A 
BRANCH  15  18
ATOM     18  O   UNL     1       4.779   6.009  -7.454  1.00  0.00    -0.508 OA
ATOM     19  H   UNL     1       5.063   6.696  -8.142  1.00  0.00     0.293 HD
ENDBRANCH  15  18
ENDBRANCH   1  12
BRANCH  11  20
ATOM     20  C   UNL     1       6.577  -4.570  -6.809  1.00  0.00     0.188 C 
ATOM     21  C   UNL     1       5.643  -4.088  -5.662  1.00  0.00     0.179 C 
ATOM     22  O   UNL     1       6.079  -5.771  -7.398  1.00  0.00    -0.362 OA
ATOM     23  C   UNL     1       4.188  -3.924  -6.139  1.00  0.00     0.177 C 
ATOM     24  C   UNL     1       4.749  -5.684  -7.911  1.00  0.00     0.176 C 
ATOM     25  C   UNL     1       3.730  -5.213  -6.842  1.00  0.00     0.177 C 
BRANCH  21  26
ATOM     26  O   UNL     1       5.666  -5.060  -4.640  1.00  0.00    -0.387 OA
ATOM     27  H   UNL     1       6.558  -5.494  -4.651  1.00  0.00     0.211 HD
ENDBRANCH  21  26
BRANCH  23  28
ATOM     28  O   UNL     1       4.068  -2.814  -6.991  1.00  0.00    -0.387 OA
ATOM     29  H   UNL     1       3.789  -2.040  -6.434  1.00  0.00     0.211 HD
ENDBRANCH  23  28
BRANCH  24  30
ATOM     30  C   UNL     1       4.676  -4.942  -9.265  1.00  0.00     0.191 C 
BRANCH  30  31
ATOM     31  O   UNL     1       3.499  -5.281  -9.945  1.00  0.00    -0.394 OA
ATOM     32  H   UNL     1       3.426  -6.269  -9.915  1.00  0.00     0.210 HD
ENDBRANCH  30  31
ENDBRANCH  24  30
BRANCH  25  33
ATOM     33  O   UNL     1       2.450  -5.029  -7.399  1.00  0.00    -0.388 OA
ATOM     34  H   UNL     1       1.793  -5.284  -6.698  1.00  0.00     0.211 HD
ENDBRANCH  25  33
ENDBRANCH  11  20
BRANCH  10  35
ATOM     35  O   UNL     1       8.125  -5.497  -9.004  1.00  0.00    -0.507 OA
ATOM     36  H   UNL     1       9.057  -5.814  -9.251  1.00  0.00     0.293 HD
ENDBRANCH  10  35
TORSDOF 9
ENDMDL
MODEL 8
REMARK VINA RESULT:    -3.008      3.362      8.523
REMARK INTER + INTRA:          -4.243
REMARK INTER:                  -4.497
REMARK INTRA:                   0.253
REMARK UNBOUND:                -0.181
REMARK SMILES O=c1c(-c2ccc(O)cc2)coc2c([C@@H]3O[C@H](CO)[C@H](O)[C@H](O)[C@H]3O)c(O)ccc12
REMARK SMILES IDX 3 1 11 2 12 3 13 4 30 5 2 6 1 7 29 8 28 9 26 10 14 11 4 12
REMARK SMILES IDX 5 13 6 14 7 15 10 16 9 17 8 18 15 20 24 21 16 22 22 23 17 24
REMARK SMILES IDX 20 25 25 26 23 28 18 30 19 31 21 33 27 35
REMARK H PARENT 8 19 25 27 23 29 19 32 21 34 27 36
REMARK Flexibility Score: inf
ROOT
ATOM      1  C   UNL     1       8.052  -1.844  -2.215  1.00  0.00     0.065 A 
ATOM      2  C   UNL     1       8.125  -3.024  -2.964  1.00  0.00     0.208 A 
ATOM      3  O   UNL     1       7.959  -3.009  -4.280  1.00  0.00    -0.463 OA
ATOM      4  C   UNL     1       7.725  -1.906  -4.983  1.00  0.00     0.147 A 
ATOM      5  C   UNL     1       7.728  -0.656  -4.315  1.00  0.00     0.066 A 
ATOM      6  C   UNL     1       7.838  -0.637  -2.909  1.00  0.00     0.200 A 
ATOM      7  O   UNL     1       7.704   0.449  -2.275  1.00  0.00    -0.288 OA
ATOM      8  C   UNL     1       7.620   0.530  -5.056  1.00  0.00     0.020 A 
ATOM      9  C   UNL     1       7.561   0.481  -6.443  1.00  0.00     0.047 A 
ATOM     10  C   UNL     1       7.501  -0.746  -7.111  1.00  0.00     0.125 A 
ATOM     11  C   UNL     1       7.474  -1.965  -6.384  1.00  0.00     0.069 A 
ENDROOT
BRANCH   1  12
ATOM     12  C   UNL     1       8.102  -1.912  -0.730  1.00  0.00    -0.011 A 
ATOM     13  C   UNL     1       8.079  -0.726   0.029  1.00  0.00     0.013 A 
ATOM     14  C   UNL     1       8.082  -0.776   1.424  1.00  0.00     0.047 A 
ATOM     15  C   UNL     1       8.106  -2.005   2.084  1.00  0.00     0.115 A 
ATOM     16  C   UNL     1       8.125  -3.147  -0.053  1.00  0.00     0.013 A 
ATOM     17  C   UNL     1       8.114  -3.193   1.344  1.00  0.00     0.047 A 
BRANCH  15  18
ATOM     18  O   UNL     1       8.120  -2.033   3.478  1.00  0.00    -0.508 OA
ATOM     19  H   UNL     1       8.892  -1.649   4.010  1.00  0.00     0.293 HD
ENDBRANCH  15  18
ENDBRANCH   1  12
BRANCH  11  20
ATOM     20  C   UNL     1       7.195  -3.257  -7.186  1.00  0.00     0.188 C 
ATOM     21  C   UNL     1       6.991  -4.621  -6.464  1.00  0.00     0.179 C 
ATOM     22  O   UNL     1       6.181  -3.047  -8.169  1.00  0.00    -0.362 OA
ATOM     23  C   UNL     1       5.581  -4.743  -5.859  1.00  0.00     0.177 C 
ATOM     24  C   UNL     1       4.843  -3.095  -7.674  1.00  0.00     0.176 C 
ATOM     25  C   UNL     1       4.530  -4.422  -6.936  1.00  0.00     0.177 C 
BRANCH  21  26
ATOM     26  O   UNL     1       7.154  -5.649  -7.416  1.00  0.00    -0.387 OA
ATOM     27  H   UNL     1       6.453  -6.331  -7.253  1.00  0.00     0.211 HD
ENDBRANCH  21  26
BRANCH  23  28
ATOM     28  O   UNL     1       5.442  -3.892  -4.750  1.00  0.00    -0.387 OA
ATOM     29  H   UNL     1       6.316  -3.874  -4.278  1.00  0.00     0.211 HD
ENDBRANCH  23  28
BRANCH  24  30
ATOM     30  C   UNL     1       4.435  -1.809  -6.921  1.00  0.00     0.191 C 
BRANCH  30  31
ATOM     31  O   UNL     1       3.069  -1.550  -7.098  1.00  0.00    -0.394 OA
ATOM     32  H   UNL     1       2.611  -1.869  -6.279  1.00  0.00     0.210 HD
ENDBRANCH  30  31
ENDBRANCH  24  30
BRANCH  25  33
ATOM     33  O   UNL     1       3.244  -4.400  -6.363  1.00  0.00    -0.388 OA
ATOM     34  H   UNL     1       3.041  -3.450  -6.151  1.00  0.00     0.211 HD
ENDBRANCH  25  33
ENDBRANCH  11  20
BRANCH  10  35
ATOM     35  O   UNL     1       7.444  -0.753  -8.508  1.00  0.00    -0.507 OA
ATOM     36  H   UNL     1       8.272  -0.629  -9.080  1.00  0.00     0.293 HD
ENDBRANCH  10  35
TORSDOF 9
ENDMDL
MODEL 9
REMARK VINA RESULT:    -2.911      2.076      4.317
REMARK INTER + INTRA:          -4.113
REMARK INTER:                  -4.105
REMARK INTRA:                  -0.008
REMARK UNBOUND:                -0.181
REMARK SMILES O=c1c(-c2ccc(O)cc2)coc2c([C@@H]3O[C@H](CO)[C@H](O)[C@H](O)[C@H]3O)c(O)ccc12
REMARK SMILES IDX 3 1 11 2 12 3 13 4 30 5 2 6 1 7 29 8 28 9 26 10 14 11 4 12
REMARK SMILES IDX 5 13 6 14 7 15 10 16 9 17 8 18 15 20 24 21 16 22 22 23 17 24
REMARK SMILES IDX 20 25 25 26 23 28 18 30 19 31 21 33 27 35
REMARK H PARENT 8 19 25 27 23 29 19 32 21 34 27 36
REMARK Flexibility Score: inf
ROOT
ATOM      1  C   UNL     1       1.547  -2.295  -8.279  1.00  0.00     0.065 A 
ATOM      2  C   UNL     1       2.408  -2.546  -7.204  1.00  0.00     0.208 A 
ATOM      3  O   UNL     1       3.478  -1.791  -6.995  1.00  0.00    -0.463 OA
ATOM      4  C   UNL     1       3.813  -0.756  -7.758  1.00  0.00     0.147 A 
ATOM      5  C   UNL     1       2.946  -0.375  -8.813  1.00  0.00     0.066 A 
ATOM      6  C   UNL     1       1.833  -1.190  -9.105  1.00  0.00     0.200 A 
ATOM      7  O   UNL     1       1.123  -0.956 -10.125  1.00  0.00    -0.288 OA
ATOM      8  C   UNL     1       3.209   0.793  -9.542  1.00  0.00     0.020 A 
ATOM      9  C   UNL     1       4.286   1.601  -9.200  1.00  0.00     0.047 A 
ATOM     10  C   UNL     1       5.180   1.209  -8.199  1.00  0.00     0.125 A 
ATOM     11  C   UNL     1       5.019  -0.033  -7.530  1.00  0.00     0.069 A 
ENDROOT
BRANCH   1  12
ATOM     12  C   UNL     1       0.438  -3.242  -8.569  1.00  0.00    -0.011 A 
ATOM     13  C   UNL     1       0.694  -4.625  -8.635  1.00  0.00     0.013 A 
ATOM     14  C   UNL     1      -0.345  -5.529  -8.863  1.00  0.00     0.047 A 
ATOM     15  C   UNL     1      -1.652  -5.071  -9.026  1.00  0.00     0.115 A 
ATOM     16  C   UNL     1      -0.887  -2.791  -8.733  1.00  0.00     0.013 A 
ATOM     17  C   UNL     1      -1.926  -3.701  -8.948  1.00  0.00     0.047 A 
BRANCH  15  18
ATOM     18  O   UNL     1      -2.674  -5.990  -9.265  1.00  0.00    -0.508 OA
ATOM     19  H   UNL     1      -2.951  -6.246 -10.205  1.00  0.00     0.293 HD
ENDBRANCH  15  18
ENDBRANCH   1  12
BRANCH  11  20
ATOM     20  C   UNL     1       6.165  -0.482  -6.593  1.00  0.00     0.188 C 
ATOM     21  C   UNL     1       6.117  -1.860  -5.872  1.00  0.00     0.179 C 
ATOM     22  O   UNL     1       7.441  -0.270  -7.198  1.00  0.00    -0.362 OA
ATOM     23  C   UNL     1       6.495  -3.014  -6.818  1.00  0.00     0.177 C 
ATOM     24  C   UNL     1       7.842  -1.276  -8.128  1.00  0.00     0.176 C 
ATOM     25  C   UNL     1       7.833  -2.696  -7.507  1.00  0.00     0.177 C 
BRANCH  21  26
ATOM     26  O   UNL     1       7.048  -1.832  -4.813  1.00  0.00    -0.387 OA
ATOM     27  H   UNL     1       6.661  -2.337  -4.052  1.00  0.00     0.211 HD
ENDBRANCH  21  26
BRANCH  23  28
ATOM     28  O   UNL     1       5.480  -3.234  -7.763  1.00  0.00    -0.387 OA
ATOM     29  H   UNL     1       5.921  -3.432  -8.631  1.00  0.00     0.211 HD
ENDBRANCH  23  28
BRANCH  24  30
ATOM     30  C   UNL     1       7.130  -1.148  -9.494  1.00  0.00     0.191 C 
BRANCH  30  31
ATOM     31  O   UNL     1       7.494   0.050 -10.125  1.00  0.00    -0.394 OA
ATOM     32  H   UNL     1       6.670   0.597 -10.194  1.00  0.00     0.210 HD
ENDBRANCH  30  31
ENDBRANCH  24  30
BRANCH  25  33
ATOM     33  O   UNL     1       8.124  -3.680  -8.472  1.00  0.00    -0.388 OA
ATOM     34  H   UNL     1       9.101  -3.856  -8.416  1.00  0.00     0.211 HD
ENDBRANCH  25  33
ENDBRANCH  11  20
BRANCH  10  35
ATOM     35  O   UNL     1       6.251   2.050  -7.882  1.00  0.00    -0.507 OA
ATOM     36  H   UNL     1       7.195   1.697  -7.763  1.00  0.00     0.293 HD
ENDBRANCH  10  35
TORSDOF 9
ENDMDL
