MODEL 1
REMARK VINA RESULT:    15.549      0.000      0.000
REMARK INTER + INTRA:          22.208
REMARK INTER:                  21.912
REMARK INTRA:                   0.296
REMARK UNBOUND:                 0.296
REMARK SMILES CC1=CCCC(C)=CCC(C)(C)C=CC1
REMARK SMILES IDX 2 1 3 2 1 3 4 4 5 5 6 6 7 7 8 8 15 10 14 11 13 12 10 13
REMARK SMILES IDX 11 14 12 15 9 16
REMARK H PARENT
REMARK Flexibility Score: 60.00
ROOT
ATOM      1  C   UNL     1      14.938  54.729  63.181  1.00  0.00    -0.074 C 
ATOM      2  C   UNL     1      16.230  55.121  63.331  1.00  0.00    -0.027 C 
ATOM      3  C   UNL     1      13.966  55.125  64.269  1.00  0.00     0.039 C 
ENDROOT
BRANCH   2   4
ATOM      4  C   UNL     1      17.400  54.709  62.479  1.00  0.00     0.032 C 
BRANCH   4   5
ATOM      5  C   UNL     1      18.188  53.459  62.932  1.00  0.00     0.034 C 
BRANCH   5   6
ATOM      6  C   UNL     1      18.744  52.527  61.863  1.00  0.00    -0.077 C 
ATOM      7  C   UNL     1      20.193  52.115  62.000  1.00  0.00     0.039 C 
ATOM      8  C   UNL     1      18.007  51.852  60.934  1.00  0.00    -0.027 CG0
ATOM      9  G   UNL     1      16.693  52.249  60.276  1.00  0.00     0.000 G0
ENDBRANCH   5   6
ENDBRANCH   4   5
ENDBRANCH   2   4
BRANCH   1  10
ATOM     10  C   UNL     1      14.414  53.865  62.048  1.00  0.00     0.057 C 
BRANCH  10  11
ATOM     11  C   UNL     1      14.278  52.385  62.311  1.00  0.00    -0.026 C 
ATOM     12  C   UNL     1      14.682  51.328  61.563  1.00  0.00    -0.024 C 
BRANCH  12  13
ATOM     13  C   UNL     1      15.487  51.283  60.265  1.00  0.00    -0.014 C 
ATOM     14  C   UNL     1      14.565  51.621  59.073  1.00  0.00     0.016 C 
ATOM     15  C   UNL     1      15.988  49.832  60.067  1.00  0.00     0.016 C 
BRANCH  13  16
ATOM     16  C   UNL     1      16.726  52.230  60.238  1.00  0.00     0.038 CG0
ATOM     17  G   UNL     1      18.015  51.819  60.936  1.00  0.00     0.000 G0
ENDBRANCH  13  16
ENDBRANCH  12  13
ENDBRANCH  10  11
ENDBRANCH   1  10
TORSDOF 0
ENDMDL
