MODEL 1
REMARK VINA RESULT:    -4.639      0.000      0.000
REMARK INTER + INTRA:          -8.623
REMARK INTER:                  -7.080
REMARK INTRA:                  -1.543
REMARK UNBOUND:                -1.543
REMARK SMILES OC[C@@H]1O[C@](CO)(O[C@@H]2O[C@H](CO)[C@@H](O)[C@@H](O)[C@H]2O)[C@H](O)[C@@H]1O
REMARK SMILES IDX 8 1 9 2 11 3 14 4 10 5 16 6 18 7 12 8 13 9 15 11 17 13 19 15
REMARK SMILES IDX 5 17 20 18 4 19 22 20 3 21 6 22 7 23 21 25 23 27 2 29 1 30
REMARK H PARENT 13 10 15 12 17 14 19 16 7 24 21 26 23 28 1 31
REMARK Flexibility Score: inf
ROOT
ATOM      1  O   UNL     1      19.183   2.992  44.771  1.00  0.00    -0.313 OA
ENDROOT
BRANCH   1   2
ATOM      2  C   UNL     1      18.913   2.119  43.684  1.00  0.00     0.285 C 
ATOM      3  C   UNL     1      18.453  -0.095  43.115  1.00  0.00     0.178 C 
ATOM      4  C   UNL     1      18.999   0.197  41.680  1.00  0.00     0.177 C 
ATOM      5  O   UNL     1      19.015   0.768  44.095  1.00  0.00    -0.341 OA
ATOM      6  C   UNL     1      20.257   1.090  41.772  1.00  0.00     0.179 C 
ATOM      7  C   UNL     1      19.957   2.384  42.572  1.00  0.00     0.202 C 
BRANCH   3   8
ATOM      8  C   UNL     1      18.741  -1.541  43.533  1.00  0.00     0.191 C 
BRANCH   8   9
ATOM      9  O   UNL     1      17.701  -2.008  44.348  1.00  0.00    -0.394 OA
ATOM     10  H   UNL     1      18.017  -1.919  45.285  1.00  0.00     0.210 HD
ENDBRANCH   8   9
ENDBRANCH   3   8
BRANCH   4  11
ATOM     11  O   UNL     1      18.004   0.855  40.932  1.00  0.00    -0.387 OA
ATOM     12  H   UNL     1      17.152   0.366  41.070  1.00  0.00     0.211 HD
ENDBRANCH   4  11
BRANCH   6  13
ATOM     13  O   UNL     1      20.743   1.401  40.491  1.00  0.00    -0.387 OA
ATOM     14  H   UNL     1      21.482   0.764  40.304  1.00  0.00     0.211 HD
ENDBRANCH   6  13
BRANCH   7  15
ATOM     15  O   UNL     1      19.477   3.399  41.727  1.00  0.00    -0.385 OA
ATOM     16  H   UNL     1      20.100   4.167  41.811  1.00  0.00     0.211 HD
ENDBRANCH   7  15
ENDBRANCH   1   2
BRANCH   1  17
ATOM     17  C   UNL     1      18.026   3.419  45.496  1.00  0.00     0.224 C 
ATOM     18  C   UNL     1      18.153   2.884  46.936  1.00  0.00     0.208 C 
ATOM     19  O   UNL     1      16.845   2.847  44.961  1.00  0.00    -0.337 OA
ATOM     20  C   UNL     1      16.711   2.656  47.359  1.00  0.00     0.180 C 
ATOM     21  C   UNL     1      15.948   2.602  46.025  1.00  0.00     0.179 C 
BRANCH  17  22
ATOM     22  C   UNL     1      17.906   4.972  45.521  1.00  0.00     0.225 C 
BRANCH  22  23
ATOM     23  O   UNL     1      19.079   5.577  45.995  1.00  0.00    -0.391 OA
ATOM     24  H   UNL     1      19.030   6.534  45.739  1.00  0.00     0.210 HD
ENDBRANCH  22  23
ENDBRANCH  17  22
BRANCH  18  25
ATOM     25  O   UNL     1      18.908   1.693  46.995  1.00  0.00    -0.385 OA
ATOM     26  H   UNL     1      19.490   1.735  47.798  1.00  0.00     0.211 HD
ENDBRANCH  18  25
BRANCH  20  27
ATOM     27  O   UNL     1      16.561   1.490  48.134  1.00  0.00    -0.387 OA
ATOM     28  H   UNL     1      16.739   1.749  49.073  1.00  0.00     0.211 HD
ENDBRANCH  20  27
BRANCH  21  29
ATOM     29  C   UNL     1      15.196   1.291  45.762  1.00  0.00     0.191 C 
BRANCH  29  30
ATOM     30  O   UNL     1      16.094   0.282  45.396  1.00  0.00    -0.394 OA
ATOM     31  H   UNL     1      15.560  -0.542  45.335  1.00  0.00     0.210 HD
ENDBRANCH  29  30
ENDBRANCH  21  29
ENDBRANCH   1  17
TORSDOF 13
ENDMDL
MODEL 2
REMARK VINA RESULT:    -4.269      7.729      9.914
REMARK INTER + INTRA:          -8.059
REMARK INTER:                  -6.512
REMARK INTRA:                  -1.547
REMARK UNBOUND:                -1.543
REMARK SMILES OC[C@@H]1O[C@](CO)(O[C@@H]2O[C@H](CO)[C@@H](O)[C@@H](O)[C@H]2O)[C@H](O)[C@@H]1O
REMARK SMILES IDX 8 1 9 2 11 3 14 4 10 5 16 6 18 7 12 8 13 9 15 11 17 13 19 15
REMARK SMILES IDX 5 17 20 18 4 19 22 20 3 21 6 22 7 23 21 25 23 27 2 29 1 30
REMARK H PARENT 13 10 15 12 17 14 19 16 7 24 21 26 23 28 1 31
REMARK Flexibility Score: inf
ROOT
ATOM      1  O   UNL     1      15.645   2.669  37.249  1.00  0.00    -0.313 OA
ENDROOT
BRANCH   1   2
ATOM      2  C   UNL     1      15.839   3.471  36.093  1.00  0.00     0.285 C 
ATOM      3  C   UNL     1      17.324   3.952  34.360  1.00  0.00     0.178 C 
ATOM      4  C   UNL     1      16.650   5.355  34.220  1.00  0.00     0.177 C 
ATOM      5  O   UNL     1      17.189   3.415  35.670  1.00  0.00    -0.341 OA
ATOM      6  C   UNL     1      16.342   5.930  35.621  1.00  0.00     0.179 C 
ATOM      7  C   UNL     1      15.487   4.937  36.448  1.00  0.00     0.202 C 
BRANCH   3   8
ATOM      8  C   UNL     1      18.819   4.019  34.027  1.00  0.00     0.191 C 
BRANCH   8   9
ATOM      9  O   UNL     1      19.480   2.938  34.625  1.00  0.00    -0.394 OA
ATOM     10  H   UNL     1      20.344   3.291  34.963  1.00  0.00     0.210 HD
ENDBRANCH   8   9
ENDBRANCH   3   8
BRANCH   4  11
ATOM     11  O   UNL     1      15.455   5.223  33.488  1.00  0.00    -0.387 OA
ATOM     12  H   UNL     1      15.640   4.628  32.717  1.00  0.00     0.211 HD
ENDBRANCH   4  11
BRANCH   6  13
ATOM     13  O   UNL     1      15.698   7.174  35.521  1.00  0.00    -0.387 OA
ATOM     14  H   UNL     1      15.475   7.455  36.447  1.00  0.00     0.211 HD
ENDBRANCH   6  13
BRANCH   7  15
ATOM     15  O   UNL     1      14.115   5.144  36.222  1.00  0.00    -0.385 OA
ATOM     16  H   UNL     1      13.704   5.357  37.100  1.00  0.00     0.211 HD
ENDBRANCH   7  15
ENDBRANCH   1   2
BRANCH   1  17
ATOM     17  C   UNL     1      15.375   1.290  36.981  1.00  0.00     0.224 C 
ATOM     18  C   UNL     1      16.575   0.471  37.492  1.00  0.00     0.208 C 
ATOM     19  O   UNL     1      15.288   1.045  35.589  1.00  0.00    -0.337 OA
ATOM     20  C   UNL     1      16.625  -0.717  36.545  1.00  0.00     0.180 C 
ATOM     21  C   UNL     1      15.809  -0.243  35.330  1.00  0.00     0.179 C 
BRANCH  17  22
ATOM     22  C   UNL     1      14.073   0.814  37.691  1.00  0.00     0.225 C 
BRANCH  22  23
ATOM     23  O   UNL     1      13.187   1.876  37.923  1.00  0.00    -0.391 OA
ATOM     24  H   UNL     1      12.591   1.594  38.663  1.00  0.00     0.210 HD
ENDBRANCH  22  23
ENDBRANCH  17  22
BRANCH  18  25
ATOM     25  O   UNL     1      17.776   1.212  37.461  1.00  0.00    -0.385 OA
ATOM     26  H   UNL     1      18.437   0.755  38.044  1.00  0.00     0.211 HD
ENDBRANCH  18  25
BRANCH  20  27
ATOM     27  O   UNL     1      17.944  -1.085  36.219  1.00  0.00    -0.387 OA
ATOM     28  H   UNL     1      18.429  -1.189  37.077  1.00  0.00     0.211 HD
ENDBRANCH  20  27
BRANCH  21  29
ATOM     29  C   UNL     1      16.577  -0.223  34.002  1.00  0.00     0.191 C 
BRANCH  29  30
ATOM     30  O   UNL     1      17.674   0.641  34.091  1.00  0.00    -0.394 OA
ATOM     31  H   UNL     1      18.413   0.099  34.448  1.00  0.00     0.210 HD
ENDBRANCH  29  30
ENDBRANCH  21  29
ENDBRANCH   1  17
TORSDOF 13
ENDMDL
MODEL 3
REMARK VINA RESULT:    -4.226      2.478      5.304
REMARK INTER + INTRA:          -7.993
REMARK INTER:                  -7.161
REMARK INTRA:                  -0.833
REMARK UNBOUND:                -1.543
REMARK SMILES OC[C@@H]1O[C@](CO)(O[C@@H]2O[C@H](CO)[C@@H](O)[C@@H](O)[C@H]2O)[C@H](O)[C@@H]1O
REMARK SMILES IDX 8 1 9 2 11 3 14 4 10 5 16 6 18 7 12 8 13 9 15 11 17 13 19 15
REMARK SMILES IDX 5 17 20 18 4 19 22 20 3 21 6 22 7 23 21 25 23 27 2 29 1 30
REMARK H PARENT 13 10 15 12 17 14 19 16 7 24 21 26 23 28 1 31
REMARK Flexibility Score: inf
ROOT
ATOM      1  O   UNL     1      16.299   4.829  44.279  1.00  0.00    -0.313 OA
ENDROOT
BRANCH   1   2
ATOM      2  C   UNL     1      17.511   4.182  44.641  1.00  0.00     0.285 C 
ATOM      3  C   UNL     1      19.143   2.687  43.905  1.00  0.00     0.178 C 
ATOM      4  C   UNL     1      19.490   2.386  45.398  1.00  0.00     0.177 C 
ATOM      5  O   UNL     1      17.802   3.130  43.739  1.00  0.00    -0.341 OA
ATOM      6  C   UNL     1      18.190   2.302  46.230  1.00  0.00     0.179 C 
ATOM      7  C   UNL     1      17.345   3.590  46.063  1.00  0.00     0.202 C 
BRANCH   3   8
ATOM      8  C   UNL     1      19.345   1.447  43.027  1.00  0.00     0.191 C 
BRANCH   8   9
ATOM      9  O   UNL     1      19.721   0.363  43.830  1.00  0.00    -0.394 OA
ATOM     10  H   UNL     1      20.664   0.524  44.095  1.00  0.00     0.210 HD
ENDBRANCH   8   9
ENDBRANCH   3   8
BRANCH   4  11
ATOM     11  O   UNL     1      20.309   3.415  45.900  1.00  0.00    -0.387 OA
ATOM     12  H   UNL     1      20.678   3.109  46.767  1.00  0.00     0.211 HD
ENDBRANCH   4  11
BRANCH   6  13
ATOM     13  O   UNL     1      18.479   2.072  47.586  1.00  0.00    -0.387 OA
ATOM     14  H   UNL     1      19.416   2.364  47.731  1.00  0.00     0.211 HD
ENDBRANCH   6  13
BRANCH   7  15
ATOM     15  O   UNL     1      17.714   4.562  47.008  1.00  0.00    -0.385 OA
ATOM     16  H   UNL     1      17.174   5.373  46.818  1.00  0.00     0.211 HD
ENDBRANCH   7  15
ENDBRANCH   1   2
BRANCH   1  17
ATOM     17  C   UNL     1      16.343   6.258  44.340  1.00  0.00     0.224 C 
ATOM     18  C   UNL     1      17.172   6.751  43.138  1.00  0.00     0.208 C 
ATOM     19  O   UNL     1      17.023   6.701  45.501  1.00  0.00    -0.337 OA
ATOM     20  C   UNL     1      17.824   8.023  43.653  1.00  0.00     0.180 C 
ATOM     21  C   UNL     1      17.723   7.887  45.181  1.00  0.00     0.179 C 
BRANCH  17  22
ATOM     22  C   UNL     1      14.916   6.877  44.284  1.00  0.00     0.225 C 
BRANCH  22  23
ATOM     23  O   UNL     1      14.478   7.061  42.964  1.00  0.00    -0.391 OA
ATOM     24  H   UNL     1      15.288   7.052  42.391  1.00  0.00     0.210 HD
ENDBRANCH  22  23
ENDBRANCH  17  22
BRANCH  18  25
ATOM     25  O   UNL     1      18.133   5.801  42.729  1.00  0.00    -0.385 OA
ATOM     26  H   UNL     1      18.994   6.023  43.171  1.00  0.00     0.211 HD
ENDBRANCH  18  25
BRANCH  20  27
ATOM     27  O   UNL     1      19.147   8.168  43.193  1.00  0.00    -0.387 OA
ATOM     28  H   UNL     1      19.700   7.536  43.720  1.00  0.00     0.211 HD
ENDBRANCH  20  27
BRANCH  21  29
ATOM     29  C   UNL     1      19.066   7.898  45.922  1.00  0.00     0.191 C 
BRANCH  29  30
ATOM     30  O   UNL     1      19.610   6.609  45.959  1.00  0.00    -0.394 OA
ATOM     31  H   UNL     1      19.112   6.128  46.659  1.00  0.00     0.210 HD
ENDBRANCH  29  30
ENDBRANCH  21  29
ENDBRANCH   1  17
TORSDOF 13
ENDMDL
MODEL 4
REMARK VINA RESULT:    -4.209      3.535      7.807
REMARK INTER + INTRA:          -7.967
REMARK INTER:                  -6.783
REMARK INTRA:                  -1.184
REMARK UNBOUND:                -1.543
REMARK SMILES OC[C@@H]1O[C@](CO)(O[C@@H]2O[C@H](CO)[C@@H](O)[C@@H](O)[C@H]2O)[C@H](O)[C@@H]1O
REMARK SMILES IDX 8 1 9 2 11 3 14 4 10 5 16 6 18 7 12 8 13 9 15 11 17 13 19 15
REMARK SMILES IDX 5 17 20 18 4 19 22 20 3 21 6 22 7 23 21 25 23 27 2 29 1 30
REMARK H PARENT 13 10 15 12 17 14 19 16 7 24 21 26 23 28 1 31
REMARK Flexibility Score: inf
ROOT
ATOM      1  O   UNL     1      17.146   3.562  48.839  1.00  0.00    -0.313 OA
ENDROOT
BRANCH   1   2
ATOM      2  C   UNL     1      16.110   4.132  49.626  1.00  0.00     0.285 C 
ATOM      3  C   UNL     1      15.469   6.041  50.802  1.00  0.00     0.178 C 
ATOM      4  C   UNL     1      14.513   5.150  51.658  1.00  0.00     0.177 C 
ATOM      5  O   UNL     1      16.565   5.306  50.272  1.00  0.00    -0.341 OA
ATOM      6  C   UNL     1      15.208   3.811  51.993  1.00  0.00     0.179 C 
ATOM      7  C   UNL     1      15.688   3.101  50.701  1.00  0.00     0.202 C 
BRANCH   3   8
ATOM      8  C   UNL     1      16.031   7.203  51.627  1.00  0.00     0.191 C 
BRANCH   8   9
ATOM      9  O   UNL     1      17.373   7.415  51.283  1.00  0.00    -0.394 OA
ATOM     10  H   UNL     1      17.850   7.622  52.129  1.00  0.00     0.210 HD
ENDBRANCH   8   9
ENDBRANCH   3   8
BRANCH   4  11
ATOM     11  O   UNL     1      13.334   4.903  50.929  1.00  0.00    -0.387 OA
ATOM     12  H   UNL     1      13.062   5.756  50.502  1.00  0.00     0.211 HD
ENDBRANCH   4  11
BRANCH   6  13
ATOM     13  O   UNL     1      14.352   2.974  52.729  1.00  0.00    -0.387 OA
ATOM     14  H   UNL     1      13.773   3.568  53.274  1.00  0.00     0.211 HD
ENDBRANCH   6  13
BRANCH   7  15
ATOM     15  O   UNL     1      14.679   2.277  50.174  1.00  0.00    -0.385 OA
ATOM     16  H   UNL     1      13.918   2.867  49.931  1.00  0.00     0.211 HD
ENDBRANCH   7  15
ENDBRANCH   1   2
BRANCH   1  17
ATOM     17  C   UNL     1      16.997   3.749  47.428  1.00  0.00     0.224 C 
ATOM     18  C   UNL     1      16.192   2.554  46.881  1.00  0.00     0.208 C 
ATOM     19  O   UNL     1      18.251   3.720  46.771  1.00  0.00    -0.337 OA
ATOM     20  C   UNL     1      16.729   2.381  45.469  1.00  0.00     0.180 C 
ATOM     21  C   UNL     1      18.075   3.124  45.502  1.00  0.00     0.179 C 
BRANCH  17  22
ATOM     22  C   UNL     1      16.252   5.078  47.103  1.00  0.00     0.225 C 
BRANCH  22  23
ATOM     23  O   UNL     1      17.081   6.196  47.275  1.00  0.00    -0.391 OA
ATOM     24  H   UNL     1      16.770   6.658  48.095  1.00  0.00     0.210 HD
ENDBRANCH  22  23
ENDBRANCH  17  22
BRANCH  18  25
ATOM     25  O   UNL     1      16.378   1.390  47.656  1.00  0.00    -0.385 OA
ATOM     26  H   UNL     1      16.014   1.561  48.564  1.00  0.00     0.211 HD
ENDBRANCH  18  25
BRANCH  20  27
ATOM     27  O   UNL     1      16.850   1.025  45.109  1.00  0.00    -0.387 OA
ATOM     28  H   UNL     1      17.663   0.684  45.562  1.00  0.00     0.211 HD
ENDBRANCH  20  27
BRANCH  21  29
ATOM     29  C   UNL     1      19.299   2.260  45.172  1.00  0.00     0.191 C 
BRANCH  29  30
ATOM     30  O   UNL     1      19.609   1.427  46.253  1.00  0.00    -0.394 OA
ATOM     31  H   UNL     1      18.786   0.925  46.449  1.00  0.00     0.210 HD
ENDBRANCH  29  30
ENDBRANCH  21  29
ENDBRANCH   1  17
TORSDOF 13
ENDMDL
MODEL 5
REMARK VINA RESULT:    -4.161      2.746      7.321
REMARK INTER + INTRA:          -7.893
REMARK INTER:                  -6.705
REMARK INTRA:                  -1.188
REMARK UNBOUND:                -1.543
REMARK SMILES OC[C@@H]1O[C@](CO)(O[C@@H]2O[C@H](CO)[C@@H](O)[C@@H](O)[C@H]2O)[C@H](O)[C@@H]1O
REMARK SMILES IDX 8 1 9 2 11 3 14 4 10 5 16 6 18 7 12 8 13 9 15 11 17 13 19 15
REMARK SMILES IDX 5 17 20 18 4 19 22 20 3 21 6 22 7 23 21 25 23 27 2 29 1 30
REMARK H PARENT 13 10 15 12 17 14 19 16 7 24 21 26 23 28 1 31
REMARK Flexibility Score: inf
ROOT
ATOM      1  O   UNL     1      17.343   2.194  48.059  1.00  0.00    -0.313 OA
ENDROOT
BRANCH   1   2
ATOM      2  C   UNL     1      16.366   2.438  49.061  1.00  0.00     0.285 C 
ATOM      3  C   UNL     1      15.702   3.934  50.722  1.00  0.00     0.178 C 
ATOM      4  C   UNL     1      14.950   2.761  51.429  1.00  0.00     0.177 C 
ATOM      5  O   UNL     1      16.786   3.479  49.923  1.00  0.00    -0.341 OA
ATOM      6  C   UNL     1      15.805   1.475  51.359  1.00  0.00     0.179 C 
ATOM      7  C   UNL     1      16.182   1.144  49.892  1.00  0.00     0.202 C 
BRANCH   3   8
ATOM      8  C   UNL     1      16.252   4.936  51.743  1.00  0.00     0.191 C 
BRANCH   8   9
ATOM      9  O   UNL     1      17.378   5.577  51.209  1.00  0.00    -0.394 OA
ATOM     10  H   UNL     1      17.520   6.394  51.755  1.00  0.00     0.210 HD
ENDBRANCH   8   9
ENDBRANCH   3   8
BRANCH   4  11
ATOM     11  O   UNL     1      13.717   2.547  50.785  1.00  0.00    -0.387 OA
ATOM     12  H   UNL     1      13.910   2.256  49.857  1.00  0.00     0.211 HD
ENDBRANCH   4  11
BRANCH   6  13
ATOM     13  O   UNL     1      15.132   0.395  51.952  1.00  0.00    -0.387 OA
ATOM     14  H   UNL     1      15.736  -0.390  51.882  1.00  0.00     0.211 HD
ENDBRANCH   6  13
BRANCH   7  15
ATOM     15  O   UNL     1      15.196   0.347  49.285  1.00  0.00    -0.385 OA
ATOM     16  H   UNL     1      14.525   0.132  49.984  1.00  0.00     0.211 HD
ENDBRANCH   7  15
ENDBRANCH   1   2
BRANCH   1  17
ATOM     17  C   UNL     1      16.951   2.575  46.737  1.00  0.00     0.224 C 
ATOM     18  C   UNL     1      18.025   2.054  45.763  1.00  0.00     0.208 C 
ATOM     19  O   UNL     1      16.932   3.984  46.593  1.00  0.00    -0.337 OA
ATOM     20  C   UNL     1      18.015   3.079  44.640  1.00  0.00     0.180 C 
ATOM     21  C   UNL     1      17.334   4.302  45.276  1.00  0.00     0.179 C 
BRANCH  17  22
ATOM     22  C   UNL     1      15.563   1.978  46.357  1.00  0.00     0.225 C 
BRANCH  22  23
ATOM     23  O   UNL     1      15.638   0.599  46.113  1.00  0.00    -0.391 OA
ATOM     24  H   UNL     1      14.733   0.310  45.831  1.00  0.00     0.210 HD
ENDBRANCH  22  23
ENDBRANCH  17  22
BRANCH  18  25
ATOM     25  O   UNL     1      19.295   1.962  46.373  1.00  0.00    -0.385 OA
ATOM     26  H   UNL     1      19.661   2.880  46.467  1.00  0.00     0.211 HD
ENDBRANCH  18  25
BRANCH  20  27
ATOM     27  O   UNL     1      19.309   3.352  44.156  1.00  0.00    -0.387 OA
ATOM     28  H   UNL     1      19.435   2.787  43.352  1.00  0.00     0.211 HD
ENDBRANCH  20  27
BRANCH  21  29
ATOM     29  C   UNL     1      18.186   5.578  45.300  1.00  0.00     0.191 C 
BRANCH  29  30
ATOM     30  O   UNL     1      19.311   5.394  46.112  1.00  0.00    -0.394 OA
ATOM     31  H   UNL     1      19.031   4.768  46.818  1.00  0.00     0.210 HD
ENDBRANCH  29  30
ENDBRANCH  21  29
ENDBRANCH   1  17
TORSDOF 13
ENDMDL
MODEL 6
REMARK VINA RESULT:    -4.123      3.352      6.201
REMARK INTER + INTRA:          -7.835
REMARK INTER:                  -6.697
REMARK INTRA:                  -1.139
REMARK UNBOUND:                -1.543
REMARK SMILES OC[C@@H]1O[C@](CO)(O[C@@H]2O[C@H](CO)[C@@H](O)[C@@H](O)[C@H]2O)[C@H](O)[C@@H]1O
REMARK SMILES IDX 8 1 9 2 11 3 14 4 10 5 16 6 18 7 12 8 13 9 15 11 17 13 19 15
REMARK SMILES IDX 5 17 20 18 4 19 22 20 3 21 6 22 7 23 21 25 23 27 2 29 1 30
REMARK H PARENT 13 10 15 12 17 14 19 16 7 24 21 26 23 28 1 31
REMARK Flexibility Score: inf
ROOT
ATOM      1  O   UNL     1      16.973   1.984  40.690  1.00  0.00    -0.313 OA
ENDROOT
BRANCH   1   2
ATOM      2  C   UNL     1      18.118   1.969  41.531  1.00  0.00     0.285 C 
ATOM      3  C   UNL     1      19.578   0.578  42.702  1.00  0.00     0.178 C 
ATOM      4  C   UNL     1      19.915   1.782  43.640  1.00  0.00     0.177 C 
ATOM      5  O   UNL     1      18.287   0.692  42.118  1.00  0.00    -0.341 OA
ATOM      6  C   UNL     1      18.626   2.573  43.960  1.00  0.00     0.179 C 
ATOM      7  C   UNL     1      17.913   3.014  42.656  1.00  0.00     0.202 C 
BRANCH   3   8
ATOM      8  C   UNL     1      19.640  -0.751  43.462  1.00  0.00     0.191 C 
BRANCH   8   9
ATOM      9  O   UNL     1      19.613  -0.503  44.841  1.00  0.00    -0.394 OA
ATOM     10  H   UNL     1      20.325   0.165  45.019  1.00  0.00     0.210 HD
ENDBRANCH   8   9
ENDBRANCH   3   8
BRANCH   4  11
ATOM     11  O   UNL     1      20.842   2.624  42.998  1.00  0.00    -0.387 OA
ATOM     12  H   UNL     1      20.832   3.496  43.469  1.00  0.00     0.211 HD
ENDBRANCH   4  11
BRANCH   6  13
ATOM     13  O   UNL     1      18.910   3.685  44.769  1.00  0.00    -0.387 OA
ATOM     14  H   UNL     1      18.203   4.358  44.586  1.00  0.00     0.211 HD
ENDBRANCH   6  13
BRANCH   7  15
ATOM     15  O   UNL     1      18.394   4.259  42.215  1.00  0.00    -0.385 OA
ATOM     16  H   UNL     1      19.316   4.113  41.878  1.00  0.00     0.211 HD
ENDBRANCH   7  15
ENDBRANCH   1   2
BRANCH   1  17
ATOM     17  C   UNL     1      17.254   2.185  39.302  1.00  0.00     0.224 C 
ATOM     18  C   UNL     1      16.309   3.289  38.789  1.00  0.00     0.208 C 
ATOM     19  O   UNL     1      16.958   1.025  38.545  1.00  0.00    -0.337 OA
ATOM     20  C   UNL     1      16.078   2.913  37.335  1.00  0.00     0.180 C 
ATOM     21  C   UNL     1      16.479   1.430  37.278  1.00  0.00     0.179 C 
BRANCH  17  22
ATOM     22  C   UNL     1      18.734   2.612  39.073  1.00  0.00     0.225 C 
BRANCH  22  23
ATOM     23  O   UNL     1      18.887   4.006  39.114  1.00  0.00    -0.391 OA
ATOM     24  H   UNL     1      18.680   4.342  38.205  1.00  0.00     0.210 HD
ENDBRANCH  22  23
ENDBRANCH  17  22
BRANCH  18  25
ATOM     25  O   UNL     1      15.100   3.332  39.516  1.00  0.00    -0.385 OA
ATOM     26  H   UNL     1      15.068   4.191  40.014  1.00  0.00     0.211 HD
ENDBRANCH  18  25
BRANCH  20  27
ATOM     27  O   UNL     1      14.749   3.146  36.930  1.00  0.00    -0.387 OA
ATOM     28  H   UNL     1      14.550   4.093  37.144  1.00  0.00     0.211 HD
ENDBRANCH  20  27
BRANCH  21  29
ATOM     29  C   UNL     1      15.366   0.475  36.828  1.00  0.00     0.191 C 
BRANCH  29  30
ATOM     30  O   UNL     1      14.426   0.309  37.852  1.00  0.00    -0.394 OA
ATOM     31  H   UNL     1      14.949   0.166  38.674  1.00  0.00     0.210 HD
ENDBRANCH  29  30
ENDBRANCH  21  29
ENDBRANCH   1  17
TORSDOF 13
ENDMDL
MODEL 7
REMARK VINA RESULT:    -4.123      2.864      5.126
REMARK INTER + INTRA:          -7.835
REMARK INTER:                  -6.389
REMARK INTRA:                  -1.446
REMARK UNBOUND:                -1.543
REMARK SMILES OC[C@@H]1O[C@](CO)(O[C@@H]2O[C@H](CO)[C@@H](O)[C@@H](O)[C@H]2O)[C@H](O)[C@@H]1O
REMARK SMILES IDX 8 1 9 2 11 3 14 4 10 5 16 6 18 7 12 8 13 9 15 11 17 13 19 15
REMARK SMILES IDX 5 17 20 18 4 19 22 20 3 21 6 22 7 23 21 25 23 27 2 29 1 30
REMARK H PARENT 13 10 15 12 17 14 19 16 7 24 21 26 23 28 1 31
REMARK Flexibility Score: inf
ROOT
ATOM      1  O   UNL     1      17.012   5.466  45.321  1.00  0.00    -0.313 OA
ENDROOT
BRANCH   1   2
ATOM      2  C   UNL     1      17.742   4.424  44.691  1.00  0.00     0.285 C 
ATOM      3  C   UNL     1      17.618   2.748  43.074  1.00  0.00     0.178 C 
ATOM      4  C   UNL     1      18.771   1.997  43.815  1.00  0.00     0.177 C 
ATOM      5  O   UNL     1      16.874   3.591  43.943  1.00  0.00    -0.341 OA
ATOM      6  C   UNL     1      18.560   2.094  45.343  1.00  0.00     0.179 C 
ATOM      7  C   UNL     1      18.428   3.573  45.788  1.00  0.00     0.202 C 
BRANCH   3   8
ATOM      8  C   UNL     1      16.644   1.761  42.420  1.00  0.00     0.191 C 
BRANCH   8   9
ATOM      9  O   UNL     1      16.260   2.248  41.163  1.00  0.00    -0.394 OA
ATOM     10  H   UNL     1      15.315   2.540  41.254  1.00  0.00     0.210 HD
ENDBRANCH   8   9
ENDBRANCH   3   8
BRANCH   4  11
ATOM     11  O   UNL     1      20.003   2.582  43.468  1.00  0.00    -0.387 OA
ATOM     12  H   UNL     1      20.180   2.367  42.516  1.00  0.00     0.211 HD
ENDBRANCH   4  11
BRANCH   6  13
ATOM     13  O   UNL     1      19.607   1.461  46.033  1.00  0.00    -0.387 OA
ATOM     14  H   UNL     1      20.178   1.025  45.348  1.00  0.00     0.211 HD
ENDBRANCH   6  13
BRANCH   7  15
ATOM     15  O   UNL     1      19.688   4.128  46.073  1.00  0.00    -0.385 OA
ATOM     16  H   UNL     1      19.818   4.066  47.056  1.00  0.00     0.211 HD
ENDBRANCH   7  15
ENDBRANCH   1   2
BRANCH   1  17
ATOM     17  C   UNL     1      17.385   6.787  44.917  1.00  0.00     0.224 C 
ATOM     18  C   UNL     1      16.091   7.573  44.636  1.00  0.00     0.208 C 
ATOM     19  O   UNL     1      18.110   6.765  43.700  1.00  0.00    -0.337 OA
ATOM     20  C   UNL     1      16.496   8.545  43.540  1.00  0.00     0.180 C 
ATOM     21  C   UNL     1      17.778   7.924  42.963  1.00  0.00     0.179 C 
BRANCH  17  22
ATOM     22  C   UNL     1      18.212   7.511  46.020  1.00  0.00     0.225 C 
BRANCH  22  23
ATOM     23  O   UNL     1      19.539   7.059  46.058  1.00  0.00    -0.391 OA
ATOM     24  H   UNL     1      19.832   6.954  45.117  1.00  0.00     0.210 HD
ENDBRANCH  22  23
ENDBRANCH  17  22
BRANCH  18  25
ATOM     25  O   UNL     1      15.037   6.731  44.222  1.00  0.00    -0.385 OA
ATOM     26  H   UNL     1      14.315   7.300  43.846  1.00  0.00     0.211 HD
ENDBRANCH  18  25
BRANCH  20  27
ATOM     27  O   UNL     1      15.480   8.718  42.579  1.00  0.00    -0.387 OA
ATOM     28  H   UNL     1      15.629   8.027  41.884  1.00  0.00     0.211 HD
ENDBRANCH  20  27
BRANCH  21  29
ATOM     29  C   UNL     1      17.715   7.575  41.470  1.00  0.00     0.191 C 
BRANCH  29  30
ATOM     30  O   UNL     1      16.926   6.436  41.272  1.00  0.00    -0.394 OA
ATOM     31  H   UNL     1      17.398   5.899  40.596  1.00  0.00     0.210 HD
ENDBRANCH  29  30
ENDBRANCH  21  29
ENDBRANCH   1  17
TORSDOF 13
ENDMDL
MODEL 8
REMARK VINA RESULT:    -4.103      3.328      6.476
REMARK INTER + INTRA:          -7.805
REMARK INTER:                  -6.406
REMARK INTRA:                  -1.399
REMARK UNBOUND:                -1.543
REMARK SMILES OC[C@@H]1O[C@](CO)(O[C@@H]2O[C@H](CO)[C@@H](O)[C@@H](O)[C@H]2O)[C@H](O)[C@@H]1O
REMARK SMILES IDX 8 1 9 2 11 3 14 4 10 5 16 6 18 7 12 8 13 9 15 11 17 13 19 15
REMARK SMILES IDX 5 17 20 18 4 19 22 20 3 21 6 22 7 23 21 25 23 27 2 29 1 30
REMARK H PARENT 13 10 15 12 17 14 19 16 7 24 21 26 23 28 1 31
REMARK Flexibility Score: inf
ROOT
ATOM      1  O   UNL     1      16.485   5.845  46.369  1.00  0.00    -0.313 OA
ENDROOT
BRANCH   1   2
ATOM      2  C   UNL     1      17.421   6.766  45.828  1.00  0.00     0.285 C 
ATOM      3  C   UNL     1      18.963   8.428  46.377  1.00  0.00     0.178 C 
ATOM      4  C   UNL     1      18.792   9.012  44.938  1.00  0.00     0.177 C 
ATOM      5  O   UNL     1      17.816   7.708  46.809  1.00  0.00    -0.341 OA
ATOM      6  C   UNL     1      17.304   8.960  44.526  1.00  0.00     0.179 C 
ATOM      7  C   UNL     1      16.746   7.519  44.655  1.00  0.00     0.202 C 
BRANCH   3   8
ATOM      8  C   UNL     1      19.239   9.538  47.398  1.00  0.00     0.191 C 
BRANCH   8   9
ATOM      9  O   UNL     1      19.945   9.007  48.486  1.00  0.00    -0.394 OA
ATOM     10  H   UNL     1      19.530   8.128  48.686  1.00  0.00     0.210 HD
ENDBRANCH   8   9
ENDBRANCH   3   8
BRANCH   4  11
ATOM     11  O   UNL     1      19.561   8.253  44.036  1.00  0.00    -0.387 OA
ATOM     12  H   UNL     1      19.540   7.310  44.344  1.00  0.00     0.211 HD
ENDBRANCH   4  11
BRANCH   6  13
ATOM     13  O   UNL     1      17.130   9.443  43.219  1.00  0.00    -0.387 OA
ATOM     14  H   UNL     1      16.646  10.307  43.296  1.00  0.00     0.211 HD
ENDBRANCH   6  13
BRANCH   7  15
ATOM     15  O   UNL     1      16.949   6.792  43.470  1.00  0.00    -0.385 OA
ATOM     16  H   UNL     1      17.922   6.821  43.273  1.00  0.00     0.211 HD
ENDBRANCH   7  15
ENDBRANCH   1   2
BRANCH   1  17
ATOM     17  C   UNL     1      16.611   4.507  45.877  1.00  0.00     0.224 C 
ATOM     18  C   UNL     1      16.729   3.571  47.095  1.00  0.00     0.208 C 
ATOM     19  O   UNL     1      17.805   4.345  45.133  1.00  0.00    -0.337 OA
ATOM     20  C   UNL     1      17.602   2.435  46.588  1.00  0.00     0.180 C 
ATOM     21  C   UNL     1      18.290   3.035  45.351  1.00  0.00     0.179 C 
BRANCH  17  22
ATOM     22  C   UNL     1      15.381   4.097  45.015  1.00  0.00     0.225 C 
BRANCH  22  23
ATOM     23  O   UNL     1      15.585   4.367  43.654  1.00  0.00    -0.391 OA
ATOM     24  H   UNL     1      14.759   4.805  43.323  1.00  0.00     0.210 HD
ENDBRANCH  22  23
ENDBRANCH  17  22
BRANCH  18  25
ATOM     25  O   UNL     1      17.308   4.218  48.208  1.00  0.00    -0.385 OA
ATOM     26  H   UNL     1      17.038   5.173  48.186  1.00  0.00     0.211 HD
ENDBRANCH  18  25
BRANCH  20  27
ATOM     27  O   UNL     1      18.510   1.984  47.566  1.00  0.00    -0.387 OA
ATOM     28  H   UNL     1      19.405   1.980  47.140  1.00  0.00     0.211 HD
ENDBRANCH  20  27
BRANCH  21  29
ATOM     29  C   UNL     1      19.823   3.067  45.414  1.00  0.00     0.191 C 
BRANCH  29  30
ATOM     30  O   UNL     1      20.256   4.186  46.134  1.00  0.00    -0.394 OA
ATOM     31  H   UNL     1      19.472   4.777  46.207  1.00  0.00     0.210 HD
ENDBRANCH  29  30
ENDBRANCH  21  29
ENDBRANCH   1  17
TORSDOF 13
ENDMDL
MODEL 9
REMARK VINA RESULT:    -3.997      3.022      5.193
REMARK INTER + INTRA:          -7.644
REMARK INTER:                  -6.393
REMARK INTRA:                  -1.251
REMARK UNBOUND:                -1.543
REMARK SMILES OC[C@@H]1O[C@](CO)(O[C@@H]2O[C@H](CO)[C@@H](O)[C@@H](O)[C@H]2O)[C@H](O)[C@@H]1O
REMARK SMILES IDX 8 1 9 2 11 3 14 4 10 5 16 6 18 7 12 8 13 9 15 11 17 13 19 15
REMARK SMILES IDX 5 17 20 18 4 19 22 20 3 21 6 22 7 23 21 25 23 27 2 29 1 30
REMARK H PARENT 13 10 15 12 17 14 19 16 7 24 21 26 23 28 1 31
REMARK Flexibility Score: inf
ROOT
ATOM      1  O   UNL     1      17.289   3.396  49.406  1.00  0.00    -0.313 OA
ENDROOT
BRANCH   1   2
ATOM      2  C   UNL     1      16.959   3.412  48.024  1.00  0.00     0.285 C 
ATOM      3  C   UNL     1      17.408   2.409  45.967  1.00  0.00     0.178 C 
ATOM      4  C   UNL     1      16.915   3.715  45.263  1.00  0.00     0.177 C 
ATOM      5  O   UNL     1      17.895   2.653  47.280  1.00  0.00    -0.341 OA
ATOM      6  C   UNL     1      17.424   4.951  46.039  1.00  0.00     0.179 C 
ATOM      7  C   UNL     1      17.000   4.879  47.529  1.00  0.00     0.202 C 
BRANCH   3   8
ATOM      8  C   UNL     1      18.525   1.734  45.164  1.00  0.00     0.191 C 
BRANCH   8   9
ATOM      9  O   UNL     1      19.625   1.500  46.000  1.00  0.00    -0.394 OA
ATOM     10  H   UNL     1      19.957   0.591  45.777  1.00  0.00     0.210 HD
ENDBRANCH   8   9
ENDBRANCH   3   8
BRANCH   4  11
ATOM     11  O   UNL     1      15.508   3.721  45.232  1.00  0.00    -0.387 OA
ATOM     12  H   UNL     1      15.207   4.638  45.457  1.00  0.00     0.211 HD
ENDBRANCH   4  11
BRANCH   6  13
ATOM     13  O   UNL     1      16.960   6.138  45.449  1.00  0.00    -0.387 OA
ATOM     14  H   UNL     1      16.786   6.775  46.190  1.00  0.00     0.211 HD
ENDBRANCH   6  13
BRANCH   7  15
ATOM     15  O   UNL     1      15.735   5.461  47.721  1.00  0.00    -0.385 OA
ATOM     16  H   UNL     1      15.254   5.406  46.854  1.00  0.00     0.211 HD
ENDBRANCH   7  15
ENDBRANCH   1   2
BRANCH   1  17
ATOM     17  C   UNL     1      16.164   3.404  50.289  1.00  0.00     0.224 C 
ATOM     18  C   UNL     1      16.293   2.185  51.223  1.00  0.00     0.208 C 
ATOM     19  O   UNL     1      14.951   3.232  49.576  1.00  0.00    -0.337 OA
ATOM     20  C   UNL     1      14.851   1.805  51.515  1.00  0.00     0.180 C 
ATOM     21  C   UNL     1      14.063   2.484  50.382  1.00  0.00     0.179 C 
BRANCH  17  22
ATOM     22  C   UNL     1      16.109   4.710  51.134  1.00  0.00     0.225 C 
BRANCH  22  23
ATOM     23  O   UNL     1      17.372   5.310  51.250  1.00  0.00    -0.391 OA
ATOM     24  H   UNL     1      17.949   4.895  50.558  1.00  0.00     0.210 HD
ENDBRANCH  22  23
ENDBRANCH  17  22
BRANCH  18  25
ATOM     25  O   UNL     1      17.000   1.124  50.616  1.00  0.00    -0.385 OA
ATOM     26  H   UNL     1      17.971   1.284  50.747  1.00  0.00     0.211 HD
ENDBRANCH  18  25
BRANCH  20  27
ATOM     27  O   UNL     1      14.667   0.409  51.561  1.00  0.00    -0.387 OA
ATOM     28  H   UNL     1      14.950   0.117  52.465  1.00  0.00     0.211 HD
ENDBRANCH  20  27
BRANCH  21  29
ATOM     29  C   UNL     1      13.253   1.531  49.494  1.00  0.00     0.191 C 
BRANCH  29  30
ATOM     30  O   UNL     1      14.110   0.784  48.678  1.00  0.00    -0.394 OA
ATOM     31  H   UNL     1      13.690  -0.101  48.588  1.00  0.00     0.210 HD
ENDBRANCH  29  30
ENDBRANCH  21  29
ENDBRANCH   1  17
TORSDOF 13
ENDMDL
