MODEL 1
REMARK VINA RESULT:    -4.036      0.000      0.000
REMARK INTER + INTRA:          -6.031
REMARK INTER:                  -5.451
REMARK INTRA:                  -0.580
REMARK UNBOUND:                -0.580
REMARK SMILES CCCCCCCC(=O)[O-]
REMARK SMILES IDX 5 1 6 2 7 3 8 4 9 5 10 6 4 7 3 8 2 9 1 10
REMARK H PARENT
REMARK Flexibility Score: inf
ROOT
ATOM      1  C   UNL     1       8.085  -2.016  46.972  1.00  0.00     0.000 C 
ENDROOT
BRANCH   1   2
ATOM      2  C   UNL     1       7.346  -0.673  46.841  1.00  0.00     0.006 C 
BRANCH   2   3
ATOM      3  C   UNL     1       5.852  -0.801  47.163  1.00  0.00     0.053 C 
BRANCH   3   4
ATOM      4  C   UNL     1       5.242  -2.009  46.520  1.00  0.00     0.041 C 
ATOM      5  O   UNL     1       4.992  -2.012  45.286  1.00  0.00    -0.550 OA
ATOM      6  O   UNL     1       4.924  -3.122  47.289  1.00  0.00    -0.550 OA
ENDBRANCH   3   4
ENDBRANCH   2   3
ENDBRANCH   1   2
BRANCH   1   7
ATOM      7  C   UNL     1       8.807  -2.173  48.323  1.00  0.00     0.000 C 
BRANCH   7   8
ATOM      8  C   UNL     1       8.016  -2.936  49.401  1.00  0.00    -0.000 C 
BRANCH   8   9
ATOM      9  C   UNL     1       7.329  -2.004  50.409  1.00  0.00    -0.003 C 
ATOM     10  C   UNL     1       5.855  -2.366  50.576  1.00  0.00     0.004 C 
ENDBRANCH   8   9
ENDBRANCH   7   8
ENDBRANCH   1   7
TORSDOF 6
ENDMDL
MODEL 2
REMARK VINA RESULT:    -3.990      1.787      2.670
REMARK INTER + INTRA:          -5.969
REMARK INTER:                  -5.464
REMARK INTRA:                  -0.505
REMARK UNBOUND:                -0.580
REMARK SMILES CCCCCCCC(=O)[O-]
REMARK SMILES IDX 5 1 6 2 7 3 8 4 9 5 10 6 4 7 3 8 2 9 1 10
REMARK H PARENT
REMARK Flexibility Score: inf
ROOT
ATOM      1  C   UNL     1       7.728  -2.057  49.741  1.00  0.00     0.000 C 
ENDROOT
BRANCH   1   2
ATOM      2  C   UNL     1       6.383  -1.670  49.102  1.00  0.00     0.006 C 
BRANCH   2   3
ATOM      3  C   UNL     1       6.242  -2.216  47.675  1.00  0.00     0.053 C 
BRANCH   3   4
ATOM      4  C   UNL     1       6.019  -1.121  46.677  1.00  0.00     0.041 C 
ATOM      5  O   UNL     1       5.392  -1.354  45.611  1.00  0.00    -0.550 OA
ATOM      6  O   UNL     1       6.528   0.150  46.913  1.00  0.00    -0.550 OA
ENDBRANCH   3   4
ENDBRANCH   2   3
ENDBRANCH   1   2
BRANCH   1   7
ATOM      7  C   UNL     1       8.863  -2.197  48.711  1.00  0.00     0.000 C 
BRANCH   7   8
ATOM      8  C   UNL     1       9.761  -3.435  48.894  1.00  0.00    -0.000 C 
BRANCH   8   9
ATOM      9  C   UNL     1       8.960  -4.722  49.140  1.00  0.00    -0.003 C 
ATOM     10  C   UNL     1       8.466  -5.321  47.825  1.00  0.00     0.004 C 
ENDBRANCH   8   9
ENDBRANCH   7   8
ENDBRANCH   1   7
TORSDOF 6
ENDMDL
MODEL 3
REMARK VINA RESULT:    -3.941      2.056      3.645
REMARK INTER + INTRA:          -5.903
REMARK INTER:                  -5.248
REMARK INTRA:                  -0.656
REMARK UNBOUND:                -0.580
REMARK SMILES CCCCCCCC(=O)[O-]
REMARK SMILES IDX 5 1 6 2 7 3 8 4 9 5 10 6 4 7 3 8 2 9 1 10
REMARK H PARENT
REMARK Flexibility Score: inf
ROOT
ATOM      1  C   UNL     1       8.937  -2.427  48.418  1.00  0.00     0.000 C 
ENDROOT
BRANCH   1   2
ATOM      2  C   UNL     1       8.124  -2.341  49.722  1.00  0.00     0.006 C 
BRANCH   2   3
ATOM      3  C   UNL     1       7.027  -3.412  49.791  1.00  0.00     0.053 C 
BRANCH   3   4
ATOM      4  C   UNL     1       5.750  -2.868  50.354  1.00  0.00     0.041 C 
ATOM      5  O   UNL     1       4.795  -3.642  50.621  1.00  0.00    -0.550 OA
ATOM      6  O   UNL     1       5.605  -1.500  50.556  1.00  0.00    -0.550 OA
ENDBRANCH   3   4
ENDBRANCH   2   3
ENDBRANCH   1   2
BRANCH   1   7
ATOM      7  C   UNL     1       8.128  -2.005  47.178  1.00  0.00     0.000 C 
BRANCH   7   8
ATOM      8  C   UNL     1       7.415  -0.645  47.296  1.00  0.00    -0.000 C 
BRANCH   8   9
ATOM      9  C   UNL     1       5.899  -0.744  47.070  1.00  0.00    -0.003 C 
ATOM     10  C   UNL     1       5.502  -2.147  46.616  1.00  0.00     0.004 C 
ENDBRANCH   8   9
ENDBRANCH   7   8
ENDBRANCH   1   7
TORSDOF 6
ENDMDL
MODEL 4
REMARK VINA RESULT:    -3.859      2.479      4.270
REMARK INTER + INTRA:          -5.792
REMARK INTER:                  -5.214
REMARK INTRA:                  -0.579
REMARK UNBOUND:                -0.580
REMARK SMILES CCCCCCCC(=O)[O-]
REMARK SMILES IDX 5 1 6 2 7 3 8 4 9 5 10 6 4 7 3 8 2 9 1 10
REMARK H PARENT
REMARK Flexibility Score: inf
ROOT
ATOM      1  C   UNL     1       5.498  -2.411  49.301  1.00  0.00     0.000 C 
ENDROOT
BRANCH   1   2
ATOM      2  C   UNL     1       6.689  -3.113  49.975  1.00  0.00     0.006 C 
BRANCH   2   3
ATOM      3  C   UNL     1       7.968  -2.267  49.918  1.00  0.00     0.053 C 
BRANCH   3   4
ATOM      4  C   UNL     1       9.017  -2.897  49.054  1.00  0.00     0.041 C 
ATOM      5  O   UNL     1       9.962  -2.203  48.597  1.00  0.00    -0.550 OA
ATOM      6  O   UNL     1       8.933  -4.246  48.729  1.00  0.00    -0.550 OA
ENDBRANCH   3   4
ENDBRANCH   2   3
ENDBRANCH   1   2
BRANCH   1   7
ATOM      7  C   UNL     1       5.172  -2.984  47.910  1.00  0.00     0.000 C 
BRANCH   7   8
ATOM      8  C   UNL     1       6.019  -2.418  46.756  1.00  0.00    -0.000 C 
BRANCH   8   9
ATOM      9  C   UNL     1       5.883  -0.896  46.606  1.00  0.00    -0.003 C 
ATOM     10  C   UNL     1       7.207  -0.194  46.903  1.00  0.00     0.004 C 
ENDBRANCH   8   9
ENDBRANCH   7   8
ENDBRANCH   1   7
TORSDOF 6
ENDMDL
MODEL 5
REMARK VINA RESULT:    -3.841      1.422      2.397
REMARK INTER + INTRA:          -5.768
REMARK INTER:                  -5.254
REMARK INTRA:                  -0.514
REMARK UNBOUND:                -0.580
REMARK SMILES CCCCCCCC(=O)[O-]
REMARK SMILES IDX 5 1 6 2 7 3 8 4 9 5 10 6 4 7 3 8 2 9 1 10
REMARK H PARENT
REMARK Flexibility Score: inf
ROOT
ATOM      1  C   UNL     1       8.019  -2.757  49.235  1.00  0.00     0.000 C 
ENDROOT
BRANCH   1   2
ATOM      2  C   UNL     1       8.441  -1.807  48.100  1.00  0.00     0.006 C 
BRANCH   2   3
ATOM      3  C   UNL     1       7.635  -2.046  46.817  1.00  0.00     0.053 C 
BRANCH   3   4
ATOM      4  C   UNL     1       6.429  -1.161  46.741  1.00  0.00     0.041 C 
ATOM      5  O   UNL     1       5.293  -1.655  46.517  1.00  0.00    -0.550 OA
ATOM      6  O   UNL     1       6.563   0.214  46.890  1.00  0.00    -0.550 OA
ENDBRANCH   3   4
ENDBRANCH   2   3
ENDBRANCH   1   2
BRANCH   1   7
ATOM      7  C   UNL     1       7.287  -2.036  50.380  1.00  0.00     0.000 C 
BRANCH   7   8
ATOM      8  C   UNL     1       5.751  -2.026  50.269  1.00  0.00    -0.000 C 
BRANCH   8   9
ATOM      9  C   UNL     1       5.188  -3.317  49.656  1.00  0.00    -0.003 C 
ATOM     10  C   UNL     1       5.122  -4.434  50.694  1.00  0.00     0.004 C 
ENDBRANCH   8   9
ENDBRANCH   7   8
ENDBRANCH   1   7
TORSDOF 6
ENDMDL
MODEL 6
REMARK VINA RESULT:    -3.836      2.218      4.213
REMARK INTER + INTRA:          -5.761
REMARK INTER:                  -5.294
REMARK INTRA:                  -0.466
REMARK UNBOUND:                -0.580
REMARK SMILES CCCCCCCC(=O)[O-]
REMARK SMILES IDX 5 1 6 2 7 3 8 4 9 5 10 6 4 7 3 8 2 9 1 10
REMARK H PARENT
REMARK Flexibility Score: inf
ROOT
ATOM      1  C   UNL     1       7.336  -1.983  49.426  1.00  0.00     0.000 C 
ENDROOT
BRANCH   1   2
ATOM      2  C   UNL     1       8.625  -2.033  48.587  1.00  0.00     0.006 C 
BRANCH   2   3
ATOM      3  C   UNL     1       9.480  -3.265  48.913  1.00  0.00     0.053 C 
BRANCH   3   4
ATOM      4  C   UNL     1       8.708  -4.539  48.751  1.00  0.00     0.041 C 
ATOM      5  O   UNL     1       8.631  -5.360  49.702  1.00  0.00    -0.550 OA
ATOM      6  O   UNL     1       8.097  -4.834  47.537  1.00  0.00    -0.550 OA
ENDBRANCH   3   4
ENDBRANCH   2   3
ENDBRANCH   1   2
BRANCH   1   7
ATOM      7  C   UNL     1       6.104  -1.560  48.606  1.00  0.00     0.000 C 
BRANCH   7   8
ATOM      8  C   UNL     1       6.401  -0.640  47.407  1.00  0.00    -0.000 C 
BRANCH   8   9
ATOM      9  C   UNL     1       5.734  -1.117  46.109  1.00  0.00    -0.003 C 
ATOM     10  C   UNL     1       5.586  -2.636  46.093  1.00  0.00     0.004 C 
ENDBRANCH   8   9
ENDBRANCH   7   8
ENDBRANCH   1   7
TORSDOF 6
ENDMDL
MODEL 7
REMARK VINA RESULT:    -3.766      2.280      3.176
REMARK INTER + INTRA:          -5.667
REMARK INTER:                  -5.071
REMARK INTRA:                  -0.596
REMARK UNBOUND:                -0.580
REMARK SMILES CCCCCCCC(=O)[O-]
REMARK SMILES IDX 5 1 6 2 7 3 8 4 9 5 10 6 4 7 3 8 2 9 1 10
REMARK H PARENT
REMARK Flexibility Score: inf
ROOT
ATOM      1  C   UNL     1       7.454  -0.964  47.644  1.00  0.00     0.000 C 
ENDROOT
BRANCH   1   2
ATOM      2  C   UNL     1       5.933  -1.077  47.843  1.00  0.00     0.006 C 
BRANCH   2   3
ATOM      3  C   UNL     1       5.518  -2.460  48.363  1.00  0.00     0.053 C 
BRANCH   3   4
ATOM      4  C   UNL     1       5.696  -2.575  49.847  1.00  0.00     0.041 C 
ATOM      5  O   UNL     1       5.861  -3.703  50.379  1.00  0.00    -0.550 OA
ATOM      6  O   UNL     1       5.648  -1.437  50.644  1.00  0.00    -0.550 OA
ENDBRANCH   3   4
ENDBRANCH   2   3
ENDBRANCH   1   2
BRANCH   1   7
ATOM      7  C   UNL     1       8.066  -2.209  46.978  1.00  0.00     0.000 C 
BRANCH   7   8
ATOM      8  C   UNL     1       9.350  -2.741  47.641  1.00  0.00    -0.000 C 
BRANCH   8   9
ATOM      9  C   UNL     1       9.072  -3.798  48.720  1.00  0.00    -0.003 C 
ATOM     10  C   UNL     1       8.362  -5.013  48.127  1.00  0.00     0.004 C 
ENDBRANCH   8   9
ENDBRANCH   7   8
ENDBRANCH   1   7
TORSDOF 6
ENDMDL
MODEL 8
REMARK VINA RESULT:    -3.750      1.739      2.913
REMARK INTER + INTRA:          -5.645
REMARK INTER:                  -5.155
REMARK INTRA:                  -0.490
REMARK UNBOUND:                -0.580
REMARK SMILES CCCCCCCC(=O)[O-]
REMARK SMILES IDX 5 1 6 2 7 3 8 4 9 5 10 6 4 7 3 8 2 9 1 10
REMARK H PARENT
REMARK Flexibility Score: inf
ROOT
ATOM      1  C   UNL     1       5.930  -3.885  49.081  1.00  0.00     0.000 C 
ENDROOT
BRANCH   1   2
ATOM      2  C   UNL     1       5.473  -2.962  47.937  1.00  0.00     0.006 C 
BRANCH   2   3
ATOM      3  C   UNL     1       5.873  -1.500  48.179  1.00  0.00     0.053 C 
BRANCH   3   4
ATOM      4  C   UNL     1       6.264  -0.811  46.908  1.00  0.00     0.041 C 
ATOM      5  O   UNL     1       7.202   0.029  46.905  1.00  0.00    -0.550 OA
ATOM      6  O   UNL     1       5.572  -1.073  45.732  1.00  0.00    -0.550 OA
ENDBRANCH   3   4
ENDBRANCH   2   3
ENDBRANCH   1   2
BRANCH   1   7
ATOM      7  C   UNL     1       7.385  -3.630  49.512  1.00  0.00     0.000 C 
BRANCH   7   8
ATOM      8  C   UNL     1       8.428  -4.567  48.874  1.00  0.00    -0.000 C 
BRANCH   8   9
ATOM      9  C   UNL     1       9.591  -3.807  48.219  1.00  0.00    -0.003 C 
ATOM     10  C   UNL     1       9.524  -2.316  48.541  1.00  0.00     0.004 C 
ENDBRANCH   8   9
ENDBRANCH   7   8
ENDBRANCH   1   7
TORSDOF 6
ENDMDL
MODEL 9
REMARK VINA RESULT:    -3.712      2.362      3.735
REMARK INTER + INTRA:          -5.594
REMARK INTER:                  -4.989
REMARK INTRA:                  -0.605
REMARK UNBOUND:                -0.580
REMARK SMILES CCCCCCCC(=O)[O-]
REMARK SMILES IDX 5 1 6 2 7 3 8 4 9 5 10 6 4 7 3 8 2 9 1 10
REMARK H PARENT
REMARK Flexibility Score: inf
ROOT
ATOM      1  C   UNL     1       7.776  -1.618  48.234  1.00  0.00     0.000 C 
ENDROOT
BRANCH   1   2
ATOM      2  C   UNL     1       8.604  -2.361  49.297  1.00  0.00     0.006 C 
BRANCH   2   3
ATOM      3  C   UNL     1       9.350  -3.567  48.710  1.00  0.00     0.053 C 
BRANCH   3   4
ATOM      4  C   UNL     1       8.519  -4.813  48.755  1.00  0.00     0.041 C 
ATOM      5  O   UNL     1       8.606  -5.598  49.734  1.00  0.00    -0.550 OA
ATOM      6  O   UNL     1       7.669  -5.121  47.699  1.00  0.00    -0.550 OA
ENDBRANCH   3   4
ENDBRANCH   2   3
ENDBRANCH   1   2
BRANCH   1   7
ATOM      7  C   UNL     1       6.299  -1.449  48.635  1.00  0.00     0.000 C 
BRANCH   7   8
ATOM      8  C   UNL     1       5.910  -2.093  49.978  1.00  0.00    -0.000 C 
BRANCH   8   9
ATOM      9  C   UNL     1       5.128  -3.404  49.808  1.00  0.00    -0.003 C 
ATOM     10  C   UNL     1       5.469  -4.394  50.919  1.00  0.00     0.004 C 
ENDBRANCH   8   9
ENDBRANCH   7   8
ENDBRANCH   1   7
TORSDOF 6
ENDMDL
