MODEL 1
REMARK VINA RESULT:    25.383      0.000      0.000
REMARK INTER + INTRA:          29.168
REMARK INTER:                  27.609
REMARK INTRA:                   1.559
REMARK UNBOUND:                 1.559
REMARK SMILES C[C@H]1[C@H](C)CC[C@]2(C(=O)[O-])CC[C@@]3(C)C(=CC[C@H]4[C@@]5(C)CC[C@@H](O)C(C)(C)[C@H]5CC[C@]43C)[C@@H]12
REMARK SMILES IDX 7 1 6 2 11 3 33 4 5 5 12 6 15 7 2 8 3 9 13 10 16 11 1 12
REMARK SMILES IDX 4 13 14 14 31 15 17 16 18 17 30 18 32 19 19 20 29 21 28 22
REMARK SMILES IDX 21 23 20 24 25 25 22 26 23 27 26 28 27 29 8 30 9 31 10 32
REMARK SMILES IDX 24 33
REMARK H PARENT 24 34
REMARK Flexibility Score: inf
ROOT
ATOM      1  C   UNL     1      20.929 -49.666   5.988  1.00  0.00     0.017 C 
ATOM      2  C   UNL     1      21.568 -50.467   4.811  1.00  0.00     0.014 C 
ATOM      3  C   UNL     1      19.437 -49.355   5.623  1.00  0.00     0.014 C 
ATOM      4  C   UNL     1      21.754 -48.346   6.167  1.00  0.00     0.030 C 
ATOM      5  C   UNL     1      23.063 -50.757   5.015  1.00  0.00     0.004 C 
ATOM      6  C   UNL     1      19.072 -47.859   5.574  1.00  0.00     0.013 C 
ATOM      7  C   UNL     1      21.033 -47.325   7.071  1.00  0.00    -0.063 C 
ATOM      8  C   UNL     1      23.293 -48.595   6.388  1.00  0.00    -0.003 C 
ATOM      9  C   UNL     1      23.896 -49.481   5.258  1.00  0.00    -0.011 C 
ATOM     10  C   UNL     1      19.548 -47.023   6.822  1.00  0.00    -0.006 C 
ATOM     11  C   UNL     1      21.729 -46.483   7.853  1.00  0.00    -0.027 C 
ATOM     12  C   UNL     1      23.676 -49.170   7.770  1.00  0.00     0.008 C 
ATOM     13  C   UNL     1      24.116 -48.693   3.952  1.00  0.00     0.008 C 
ATOM     14  C   UNL     1      18.725 -47.516   8.049  1.00  0.00     0.017 C 
ATOM     15  C   UNL     1      19.358 -45.427   6.622  1.00  0.00    -0.020 C 
ATOM     16  C   UNL     1      21.118 -45.321   8.574  1.00  0.00     0.032 C 
ATOM     17  C   UNL     1      19.856 -44.653   7.925  1.00  0.00     0.006 C 
ATOM     18  C   UNL     1      20.200 -44.922   5.402  1.00  0.00     0.008 C 
ATOM     19  C   UNL     1      17.842 -45.124   6.354  1.00  0.00     0.012 C 
ATOM     20  C   UNL     1      19.959 -43.054   7.810  1.00  0.00    -0.025 C 
ATOM     21  C   UNL     1      20.278 -43.394   5.239  1.00  0.00     0.005 C 
ATOM     22  C   UNL     1      20.729 -42.600   6.499  1.00  0.00     0.003 C 
ATOM     23  C   UNL     1      20.569 -42.405   9.121  1.00  0.00     0.010 C 
ATOM     24  C   UNL     1      18.518 -42.434   7.744  1.00  0.00     0.012 C 
ATOM     25  C   UNL     1      22.294 -42.282   6.582  1.00  0.00    -0.006 C 
ATOM     26  C   UNL     1      21.543 -41.264   8.835  1.00  0.00     0.033 C 
ATOM     27  C   UNL     1      22.733 -41.762   8.008  1.00  0.00     0.120 C 
ATOM     28  C   UNL     1      22.614 -41.140   5.570  1.00  0.00     0.014 C 
ATOM     29  C   UNL     1      23.180 -43.480   6.146  1.00  0.00     0.014 C 
ENDROOT
BRANCH   1  30
ATOM     30  C   UNL     1      20.922 -50.519   7.256  1.00  0.00     0.048 C 
ATOM     31  O   UNL     1      19.849 -50.718   7.887  1.00  0.00    -0.550 OA
ATOM     32  O   UNL     1      22.108 -50.994   7.802  1.00  0.00    -0.550 OA
ENDBRANCH   1  30
BRANCH  27  33
ATOM     33  O   UNL     1      23.436 -42.744   8.731  1.00  0.00    -0.393 OA
ATOM     34  H   UNL     1      24.073 -42.273   9.329  1.00  0.00     0.210 HD
ENDBRANCH  27  33
TORSDOF 2
ENDMDL
