MODEL 1
REMARK VINA RESULT:    -6.495      0.000      0.000
REMARK INTER + INTRA:          -8.020
REMARK INTER:                  -7.444
REMARK INTRA:                  -0.576
REMARK UNBOUND:                -0.576
REMARK SMILES C=C(C)[C@@H]1CC[C@]2(C(=O)[O-])CC[C@]3(C)[C@@H](CC[C@H]4[C@]5(C)CC[C@H](O)C(C)(C)[C@@H]5CC[C@]43C)[C@H]12
REMARK SMILES IDX 7 1 6 2 33 3 11 4 5 5 15 6 4 7 12 8 16 9 13 10 17 11 31 12
REMARK SMILES IDX 14 13 18 14 30 15 32 16 19 17 29 18 21 19 20 20 28 21 22 22
REMARK SMILES IDX 25 23 23 24 26 25 27 26 8 27 9 28 10 29 2 30 3 31 1 32 24 33
REMARK H PARENT 24 34
REMARK Flexibility Score: inf
ROOT
ATOM      1  C   UNL     1      11.424  -2.554  32.190  1.00  0.00     0.014 C 
ATOM      2  C   UNL     1      11.255  -3.926  31.483  1.00  0.00     0.014 C 
ATOM      3  C   UNL     1      12.794  -2.681  32.899  1.00  0.00     0.012 C 
ATOM      4  C   UNL     1      11.349  -1.353  31.243  1.00  0.00     0.014 C 
ATOM      5  C   UNL     1      12.011  -4.944  32.338  1.00  0.00     0.009 C 
ATOM      6  C   UNL     1      14.061  -2.458  31.961  1.00  0.00     0.000 C 
ATOM      7  C   UNL     1      12.680  -4.132  33.457  1.00  0.00     0.018 C 
ATOM      8  C   UNL     1      12.486  -1.275  30.234  1.00  0.00     0.008 C 
ATOM      9  C   UNL     1      15.316  -2.239  32.855  1.00  0.00     0.005 C 
ATOM     10  C   UNL     1      13.958  -1.372  30.781  1.00  0.00    -0.024 C 
ATOM     11  C   UNL     1      16.462  -1.531  32.161  1.00  0.00     0.005 C 
ATOM     12  C   UNL     1      14.587   0.066  31.205  1.00  0.00    -0.024 C 
ATOM     13  C   UNL     1      14.762  -1.915  29.535  1.00  0.00     0.012 C 
ATOM     14  C   UNL     1      16.097  -0.075  31.760  1.00  0.00     0.002 C 
ATOM     15  C   UNL     1      14.516   1.073  30.019  1.00  0.00     0.008 C 
ATOM     16  C   UNL     1      13.720   0.718  32.336  1.00  0.00     0.012 C 
ATOM     17  C   UNL     1      17.335   0.753  31.084  1.00  0.00    -0.026 C 
ATOM     18  C   UNL     1      15.471   2.249  30.165  1.00  0.00     0.005 C 
ATOM     19  C   UNL     1      18.030   1.533  32.251  1.00  0.00     0.010 C 
ATOM     20  C   UNL     1      18.378  -0.245  30.488  1.00  0.00     0.012 C 
ATOM     21  C   UNL     1      16.916   1.771  29.931  1.00  0.00     0.003 C 
ATOM     22  C   UNL     1      19.122   2.509  31.827  1.00  0.00     0.033 C 
ATOM     23  C   UNL     1      17.941   2.971  29.601  1.00  0.00    -0.006 C 
ATOM     24  C   UNL     1      18.561   3.583  30.893  1.00  0.00     0.120 C 
ATOM     25  C   UNL     1      19.093   2.489  28.658  1.00  0.00     0.014 C 
ATOM     26  C   UNL     1      17.260   4.125  28.804  1.00  0.00     0.014 C 
ENDROOT
BRANCH   1  27
ATOM     27  C   UNL     1      10.305  -2.349  33.217  1.00  0.00     0.048 C 
ATOM     28  O   UNL     1       9.132  -2.748  32.984  1.00  0.00    -0.550 OA
ATOM     29  O   UNL     1      10.541  -1.619  34.377  1.00  0.00    -0.550 OA
ENDBRANCH   1  27
BRANCH   7  30
ATOM     30  C   UNL     1      13.929  -4.743  34.084  1.00  0.00    -0.077 C 
ATOM     31  C   UNL     1      14.751  -5.788  33.367  1.00  0.00     0.039 C 
ATOM     32  C   UNL     1      14.255  -4.398  35.343  1.00  0.00     0.008 C 
ENDBRANCH   7  30
BRANCH  24  33
ATOM     33  O   UNL     1      17.604   4.336  31.601  1.00  0.00    -0.393 OA
ATOM     34  H   UNL     1      17.984   5.242  31.749  1.00  0.00     0.210 HD
ENDBRANCH  24  33
TORSDOF 3
ENDMDL
MODEL 2
REMARK VINA RESULT:    -6.456      3.106      7.631
REMARK INTER + INTRA:          -7.976
REMARK INTER:                  -7.521
REMARK INTRA:                  -0.454
REMARK UNBOUND:                -0.576
REMARK SMILES C=C(C)[C@@H]1CC[C@]2(C(=O)[O-])CC[C@]3(C)[C@@H](CC[C@H]4[C@]5(C)CC[C@H](O)C(C)(C)[C@@H]5CC[C@]43C)[C@H]12
REMARK SMILES IDX 7 1 6 2 33 3 11 4 5 5 15 6 4 7 12 8 16 9 13 10 17 11 31 12
REMARK SMILES IDX 14 13 18 14 30 15 32 16 19 17 29 18 21 19 20 20 28 21 22 22
REMARK SMILES IDX 25 23 23 24 26 25 27 26 8 27 9 28 10 29 2 30 3 31 1 32 24 33
REMARK H PARENT 24 34
REMARK Flexibility Score: inf
ROOT
ATOM      1  C   UNL     1      17.749  -0.720  27.454  1.00  0.00     0.014 C 
ATOM      2  C   UNL     1      19.125  -1.425  27.316  1.00  0.00     0.014 C 
ATOM      3  C   UNL     1      16.737  -1.888  27.367  1.00  0.00     0.012 C 
ATOM      4  C   UNL     1      17.599   0.107  28.734  1.00  0.00     0.014 C 
ATOM      5  C   UNL     1      18.885  -2.670  26.461  1.00  0.00     0.009 C 
ATOM      6  C   UNL     1      16.550  -2.719  28.712  1.00  0.00     0.000 C 
ATOM      7  C   UNL     1      17.370  -2.715  26.208  1.00  0.00     0.018 C 
ATOM      8  C   UNL     1      17.610  -0.711  30.018  1.00  0.00     0.008 C 
ATOM      9  C   UNL     1      15.262  -3.586  28.592  1.00  0.00     0.005 C 
ATOM     10  C   UNL     1      16.627  -1.936  30.113  1.00  0.00    -0.024 C 
ATOM     11  C   UNL     1      14.680  -4.027  29.921  1.00  0.00     0.005 C 
ATOM     12  C   UNL     1      15.157  -1.543  30.686  1.00  0.00    -0.024 C 
ATOM     13  C   UNL     1      17.335  -2.874  31.168  1.00  0.00     0.012 C 
ATOM     14  C   UNL     1      14.179  -2.826  30.770  1.00  0.00     0.002 C 
ATOM     15  C   UNL     1      15.273  -0.834  32.068  1.00  0.00     0.008 C 
ATOM     16  C   UNL     1      14.481  -0.485  29.749  1.00  0.00     0.012 C 
ATOM     17  C   UNL     1      13.466  -3.264  32.175  1.00  0.00    -0.026 C 
ATOM     18  C   UNL     1      13.979  -0.853  32.869  1.00  0.00     0.005 C 
ATOM     19  C   UNL     1      11.930  -3.349  31.879  1.00  0.00     0.010 C 
ATOM     20  C   UNL     1      13.951  -4.687  32.596  1.00  0.00     0.012 C 
ATOM     21  C   UNL     1      13.723  -2.276  33.400  1.00  0.00     0.003 C 
ATOM     22  C   UNL     1      11.041  -3.587  33.095  1.00  0.00     0.033 C 
ATOM     23  C   UNL     1      12.668  -2.325  34.618  1.00  0.00    -0.006 C 
ATOM     24  C   UNL     1      11.199  -2.459  34.116  1.00  0.00     0.120 C 
ATOM     25  C   UNL     1      12.986  -3.504  35.596  1.00  0.00     0.014 C 
ATOM     26  C   UNL     1      12.751  -1.055  35.520  1.00  0.00     0.014 C 
ENDROOT
BRANCH   1  27
ATOM     27  C   UNL     1      17.540   0.260  26.295  1.00  0.00     0.048 C 
ATOM     28  O   UNL     1      16.385   0.659  25.983  1.00  0.00    -0.550 OA
ATOM     29  O   UNL     1      18.613   0.639  25.495  1.00  0.00    -0.550 OA
ENDBRANCH   1  27
BRANCH   7  30
ATOM     30  C   UNL     1      16.772  -4.086  25.914  1.00  0.00    -0.077 C 
ATOM     31  C   UNL     1      17.295  -5.341  26.573  1.00  0.00     0.039 C 
ATOM     32  C   UNL     1      15.808  -4.185  24.982  1.00  0.00     0.008 C 
ENDBRANCH   7  30
BRANCH  24  33
ATOM     33  O   UNL     1      10.759  -1.258  33.526  1.00  0.00    -0.393 OA
ATOM     34  H   UNL     1      11.449  -0.566  33.701  1.00  0.00     0.210 HD
ENDBRANCH  24  33
TORSDOF 3
ENDMDL
MODEL 3
REMARK VINA RESULT:    -6.453      3.770      6.836
REMARK INTER + INTRA:          -7.971
REMARK INTER:                  -7.368
REMARK INTRA:                  -0.604
REMARK UNBOUND:                -0.576
REMARK SMILES C=C(C)[C@@H]1CC[C@]2(C(=O)[O-])CC[C@]3(C)[C@@H](CC[C@H]4[C@]5(C)CC[C@H](O)C(C)(C)[C@@H]5CC[C@]43C)[C@H]12
REMARK SMILES IDX 7 1 6 2 33 3 11 4 5 5 15 6 4 7 12 8 16 9 13 10 17 11 31 12
REMARK SMILES IDX 14 13 18 14 30 15 32 16 19 17 29 18 21 19 20 20 28 21 22 22
REMARK SMILES IDX 25 23 23 24 26 25 27 26 8 27 9 28 10 29 2 30 3 31 1 32 24 33
REMARK H PARENT 24 34
REMARK Flexibility Score: inf
ROOT
ATOM      1  C   UNL     1      15.983   2.963  31.120  1.00  0.00     0.014 C 
ATOM      2  C   UNL     1      14.764   3.244  32.040  1.00  0.00     0.014 C 
ATOM      3  C   UNL     1      16.674   1.755  31.798  1.00  0.00     0.012 C 
ATOM      4  C   UNL     1      15.610   2.697  29.659  1.00  0.00     0.014 C 
ATOM      5  C   UNL     1      15.177   2.801  33.445  1.00  0.00     0.009 C 
ATOM      6  C   UNL     1      16.006   0.341  31.498  1.00  0.00     0.000 C 
ATOM      7  C   UNL     1      16.577   2.186  33.293  1.00  0.00     0.018 C 
ATOM      8  C   UNL     1      14.808   1.423  29.435  1.00  0.00     0.008 C 
ATOM      9  C   UNL     1      17.000  -0.783  31.914  1.00  0.00     0.005 C 
ATOM     10  C   UNL     1      15.372   0.086  30.043  1.00  0.00    -0.024 C 
ATOM     11  C   UNL     1      16.743  -2.120  31.249  1.00  0.00     0.005 C 
ATOM     12  C   UNL     1      16.395  -0.696  29.051  1.00  0.00    -0.024 C 
ATOM     13  C   UNL     1      14.076  -0.798  30.215  1.00  0.00     0.012 C 
ATOM     14  C   UNL     1      16.951  -2.061  29.711  1.00  0.00     0.002 C 
ATOM     15  C   UNL     1      15.726  -0.970  27.671  1.00  0.00     0.008 C 
ATOM     16  C   UNL     1      17.627   0.215  28.724  1.00  0.00     0.012 C 
ATOM     17  C   UNL     1      16.767  -3.505  28.965  1.00  0.00    -0.026 C 
ATOM     18  C   UNL     1      16.412  -2.070  26.874  1.00  0.00     0.005 C 
ATOM     19  C   UNL     1      18.199  -4.133  28.865  1.00  0.00     0.010 C 
ATOM     20  C   UNL     1      15.892  -4.451  29.847  1.00  0.00     0.012 C 
ATOM     21  C   UNL     1      16.107  -3.437  27.515  1.00  0.00     0.003 C 
ATOM     22  C   UNL     1      18.294  -5.420  28.053  1.00  0.00     0.033 C 
ATOM     23  C   UNL     1      16.376  -4.681  26.526  1.00  0.00    -0.006 C 
ATOM     24  C   UNL     1      17.846  -5.190  26.609  1.00  0.00     0.120 C 
ATOM     25  C   UNL     1      15.404  -5.869  26.833  1.00  0.00     0.014 C 
ATOM     26  C   UNL     1      16.076  -4.325  25.037  1.00  0.00     0.014 C 
ENDROOT
BRANCH   1  27
ATOM     27  C   UNL     1      16.918   4.176  31.101  1.00  0.00     0.048 C 
ATOM     28  O   UNL     1      16.478   5.338  31.317  1.00  0.00    -0.550 OA
ATOM     29  O   UNL     1      18.252   4.029  30.734  1.00  0.00    -0.550 OA
ENDBRANCH   1  27
BRANCH   7  30
ATOM     30  C   UNL     1      16.986   1.163  34.346  1.00  0.00    -0.077 C 
ATOM     31  C   UNL     1      15.964   0.412  35.167  1.00  0.00     0.039 C 
ATOM     32  C   UNL     1      18.295   0.989  34.604  1.00  0.00     0.008 C 
ENDBRANCH   7  30
BRANCH  24  33
ATOM     33  O   UNL     1      18.730  -4.272  26.008  1.00  0.00    -0.393 OA
ATOM     34  H   UNL     1      19.357  -4.788  25.437  1.00  0.00     0.210 HD
ENDBRANCH  24  33
TORSDOF 3
ENDMDL
MODEL 4
REMARK VINA RESULT:    -6.034      3.803      9.394
REMARK INTER + INTRA:          -7.492
REMARK INTER:                  -6.912
REMARK INTRA:                  -0.580
REMARK UNBOUND:                -0.576
REMARK SMILES C=C(C)[C@@H]1CC[C@]2(C(=O)[O-])CC[C@]3(C)[C@@H](CC[C@H]4[C@]5(C)CC[C@H](O)C(C)(C)[C@@H]5CC[C@]43C)[C@H]12
REMARK SMILES IDX 7 1 6 2 33 3 11 4 5 5 15 6 4 7 12 8 16 9 13 10 17 11 31 12
REMARK SMILES IDX 14 13 18 14 30 15 32 16 19 17 29 18 21 19 20 20 28 21 22 22
REMARK SMILES IDX 25 23 23 24 26 25 27 26 8 27 9 28 10 29 2 30 3 31 1 32 24 33
REMARK H PARENT 24 34
REMARK Flexibility Score: inf
ROOT
ATOM      1  C   UNL     1      17.404   7.624  34.316  1.00  0.00     0.014 C 
ATOM      2  C   UNL     1      18.882   8.098  34.278  1.00  0.00     0.014 C 
ATOM      3  C   UNL     1      17.065   7.388  32.824  1.00  0.00     0.012 C 
ATOM      4  C   UNL     1      17.171   6.386  35.185  1.00  0.00     0.014 C 
ATOM      5  C   UNL     1      19.071   8.806  32.935  1.00  0.00     0.009 C 
ATOM      6  C   UNL     1      17.588   6.009  32.224  1.00  0.00     0.000 C 
ATOM      7  C   UNL     1      17.739   8.641  32.187  1.00  0.00     0.018 C 
ATOM      8  C   UNL     1      17.844   5.120  34.674  1.00  0.00     0.008 C 
ATOM      9  C   UNL     1      16.865   5.743  30.871  1.00  0.00     0.005 C 
ATOM     10  C   UNL     1      17.596   4.714  33.175  1.00  0.00    -0.024 C 
ATOM     11  C   UNL     1      16.865   4.291  30.439  1.00  0.00     0.005 C 
ATOM     12  C   UNL     1      16.280   3.783  32.965  1.00  0.00    -0.024 C 
ATOM     13  C   UNL     1      18.872   3.852  32.827  1.00  0.00     0.012 C 
ATOM     14  C   UNL     1      16.061   3.388  31.415  1.00  0.00     0.002 C 
ATOM     15  C   UNL     1      16.351   2.513  33.865  1.00  0.00     0.008 C 
ATOM     16  C   UNL     1      15.000   4.546  33.450  1.00  0.00     0.012 C 
ATOM     17  C   UNL     1      15.963   1.826  30.939  1.00  0.00    -0.026 C 
ATOM     18  C   UNL     1      15.428   1.394  33.405  1.00  0.00     0.005 C 
ATOM     19  C   UNL     1      14.623   1.694  30.138  1.00  0.00     0.010 C 
ATOM     20  C   UNL     1      17.137   1.494  29.963  1.00  0.00     0.012 C 
ATOM     21  C   UNL     1      15.991   0.756  32.121  1.00  0.00     0.003 C 
ATOM     22  C   UNL     1      14.240   0.275  29.732  1.00  0.00     0.033 C 
ATOM     23  C   UNL     1      15.377  -0.701  31.808  1.00  0.00    -0.006 C 
ATOM     24  C   UNL     1      14.072  -0.619  30.961  1.00  0.00     0.120 C 
ATOM     25  C   UNL     1      16.416  -1.605  31.064  1.00  0.00     0.014 C 
ATOM     26  C   UNL     1      15.053  -1.495  33.111  1.00  0.00     0.014 C 
ENDROOT
BRANCH   1  27
ATOM     27  C   UNL     1      16.513   8.723  34.902  1.00  0.00     0.048 C 
ATOM     28  O   UNL     1      15.293   8.803  34.593  1.00  0.00    -0.550 OA
ATOM     29  O   UNL     1      17.062   9.720  35.702  1.00  0.00    -0.550 OA
ENDBRANCH   1  27
BRANCH   7  30
ATOM     30  C   UNL     1      17.804   8.706  30.666  1.00  0.00    -0.077 C 
ATOM     31  C   UNL     1      19.087   8.448  29.911  1.00  0.00     0.039 C 
ATOM     32  C   UNL     1      16.706   9.084  29.987  1.00  0.00     0.008 C 
ENDBRANCH   7  30
BRANCH  24  33
ATOM     33  O   UNL     1      13.004  -0.121  31.732  1.00  0.00    -0.393 OA
ATOM     34  H   UNL     1      12.160  -0.344  31.257  1.00  0.00     0.210 HD
ENDBRANCH  24  33
TORSDOF 3
ENDMDL
MODEL 5
REMARK VINA RESULT:    -5.859      2.941      4.420
REMARK INTER + INTRA:          -7.291
REMARK INTER:                  -7.185
REMARK INTRA:                  -0.106
REMARK UNBOUND:                -0.576
REMARK SMILES C=C(C)[C@@H]1CC[C@]2(C(=O)[O-])CC[C@]3(C)[C@@H](CC[C@H]4[C@]5(C)CC[C@H](O)C(C)(C)[C@@H]5CC[C@]43C)[C@H]12
REMARK SMILES IDX 7 1 6 2 33 3 11 4 5 5 15 6 4 7 12 8 16 9 13 10 17 11 31 12
REMARK SMILES IDX 14 13 18 14 30 15 32 16 19 17 29 18 21 19 20 20 28 21 22 22
REMARK SMILES IDX 25 23 23 24 26 25 27 26 8 27 9 28 10 29 2 30 3 31 1 32 24 33
REMARK H PARENT 24 34
REMARK Flexibility Score: inf
ROOT
ATOM      1  C   UNL     1      15.795  -4.506  29.259  1.00  0.00     0.014 C 
ATOM      2  C   UNL     1      15.937  -5.769  30.151  1.00  0.00     0.014 C 
ATOM      3  C   UNL     1      14.633  -3.727  29.922  1.00  0.00     0.012 C 
ATOM      4  C   UNL     1      17.078  -3.681  29.140  1.00  0.00     0.014 C 
ATOM      5  C   UNL     1      14.545  -6.052  30.719  1.00  0.00     0.009 C 
ATOM      6  C   UNL     1      15.038  -2.883  31.210  1.00  0.00     0.000 C 
ATOM      7  C   UNL     1      13.655  -4.901  30.229  1.00  0.00     0.018 C 
ATOM      8  C   UNL     1      17.537  -3.037  30.441  1.00  0.00     0.008 C 
ATOM      9  C   UNL     1      13.893  -1.878  31.533  1.00  0.00     0.005 C 
ATOM     10  C   UNL     1      16.486  -2.188  31.247  1.00  0.00    -0.024 C 
ATOM     11  C   UNL     1      14.320  -0.697  32.380  1.00  0.00     0.005 C 
ATOM     12  C   UNL     1      16.435  -0.626  30.798  1.00  0.00    -0.024 C 
ATOM     13  C   UNL     1      17.034  -2.260  32.726  1.00  0.00     0.012 C 
ATOM     14  C   UNL     1      15.346   0.211  31.648  1.00  0.00     0.002 C 
ATOM     15  C   UNL     1      17.847   0.025  30.897  1.00  0.00     0.008 C 
ATOM     16  C   UNL     1      16.049  -0.515  29.284  1.00  0.00     0.012 C 
ATOM     17  C   UNL     1      15.769   1.545  32.495  1.00  0.00    -0.026 C 
ATOM     18  C   UNL     1      17.810   1.546  30.949  1.00  0.00     0.005 C 
ATOM     19  C   UNL     1      14.816   2.691  32.013  1.00  0.00     0.010 C 
ATOM     20  C   UNL     1      15.505   1.313  34.017  1.00  0.00     0.012 C 
ATOM     21  C   UNL     1      17.287   2.001  32.324  1.00  0.00     0.003 C 
ATOM     22  C   UNL     1      15.135   4.080  32.555  1.00  0.00     0.033 C 
ATOM     23  C   UNL     1      17.636   3.538  32.665  1.00  0.00    -0.006 C 
ATOM     24  C   UNL     1      16.542   4.516  32.142  1.00  0.00     0.120 C 
ATOM     25  C   UNL     1      17.821   3.749  34.204  1.00  0.00     0.014 C 
ATOM     26  C   UNL     1      19.003   3.980  32.057  1.00  0.00     0.014 C 
ENDROOT
BRANCH   1  27
ATOM     27  C   UNL     1      15.422  -4.912  27.829  1.00  0.00     0.048 C 
ATOM     28  O   UNL     1      14.958  -6.058  27.581  1.00  0.00    -0.550 OA
ATOM     29  O   UNL     1      15.694  -4.060  26.764  1.00  0.00    -0.550 OA
ENDBRANCH   1  27
BRANCH   7  30
ATOM     30  C   UNL     1      12.426  -4.587  31.074  1.00  0.00    -0.077 C 
ATOM     31  C   UNL     1      11.257  -3.804  30.523  1.00  0.00     0.039 C 
ATOM     32  C   UNL     1      12.422  -4.950  32.370  1.00  0.00     0.008 C 
ENDBRANCH   7  30
BRANCH  24  33
ATOM     33  O   UNL     1      16.585   4.615  30.738  1.00  0.00    -0.393 OA
ATOM     34  H   UNL     1      17.241   3.945  30.409  1.00  0.00     0.210 HD
ENDBRANCH  24  33
TORSDOF 3
ENDMDL
MODEL 6
REMARK VINA RESULT:    -5.683      2.406      3.439
REMARK INTER + INTRA:          -7.089
REMARK INTER:                  -6.530
REMARK INTRA:                  -0.559
REMARK UNBOUND:                -0.576
REMARK SMILES C=C(C)[C@@H]1CC[C@]2(C(=O)[O-])CC[C@]3(C)[C@@H](CC[C@H]4[C@]5(C)CC[C@H](O)C(C)(C)[C@@H]5CC[C@]43C)[C@H]12
REMARK SMILES IDX 7 1 6 2 33 3 11 4 5 5 15 6 4 7 12 8 16 9 13 10 17 11 31 12
REMARK SMILES IDX 14 13 18 14 30 15 32 16 19 17 29 18 21 19 20 20 28 21 22 22
REMARK SMILES IDX 25 23 23 24 26 25 27 26 8 27 9 28 10 29 2 30 3 31 1 32 24 33
REMARK H PARENT 24 34
REMARK Flexibility Score: inf
ROOT
ATOM      1  C   UNL     1      13.741  -3.757  31.710  1.00  0.00     0.014 C 
ATOM      2  C   UNL     1      12.883  -4.206  30.496  1.00  0.00     0.014 C 
ATOM      3  C   UNL     1      15.123  -3.460  31.081  1.00  0.00     0.012 C 
ATOM      4  C   UNL     1      13.161  -2.563  32.472  1.00  0.00     0.014 C 
ATOM      5  C   UNL     1      13.851  -4.850  29.502  1.00  0.00     0.009 C 
ATOM      6  C   UNL     1      15.244  -2.048  30.356  1.00  0.00     0.000 C 
ATOM      7  C   UNL     1      15.250  -4.672  30.110  1.00  0.00     0.018 C 
ATOM      8  C   UNL     1      13.123  -1.265  31.677  1.00  0.00     0.008 C 
ATOM      9  C   UNL     1      16.750  -1.732  30.117  1.00  0.00     0.005 C 
ATOM     10  C   UNL     1      14.452  -0.796  30.979  1.00  0.00    -0.024 C 
ATOM     11  C   UNL     1      17.055  -0.262  29.912  1.00  0.00     0.005 C 
ATOM     12  C   UNL     1      15.396   0.123  31.931  1.00  0.00    -0.024 C 
ATOM     13  C   UNL     1      13.928   0.100  29.790  1.00  0.00     0.012 C 
ATOM     14  C   UNL     1      16.748   0.583  31.179  1.00  0.00     0.002 C 
ATOM     15  C   UNL     1      14.606   1.352  32.473  1.00  0.00     0.008 C 
ATOM     16  C   UNL     1      15.810  -0.681  33.211  1.00  0.00     0.012 C 
ATOM     17  C   UNL     1      17.144   2.164  31.028  1.00  0.00    -0.026 C 
ATOM     18  C   UNL     1      15.503   2.476  32.970  1.00  0.00     0.005 C 
ATOM     19  C   UNL     1      18.591   2.310  31.610  1.00  0.00     0.010 C 
ATOM     20  C   UNL     1      17.193   2.557  29.518  1.00  0.00     0.012 C 
ATOM     21  C   UNL     1      16.162   3.179  31.768  1.00  0.00     0.003 C 
ATOM     22  C   UNL     1      19.109   3.740  31.722  1.00  0.00     0.033 C 
ATOM     23  C   UNL     1      16.745   4.640  32.122  1.00  0.00    -0.006 C 
ATOM     24  C   UNL     1      18.213   4.575  32.638  1.00  0.00     0.120 C 
ATOM     25  C   UNL     1      16.679   5.592  30.881  1.00  0.00     0.014 C 
ATOM     26  C   UNL     1      15.889   5.369  33.202  1.00  0.00     0.014 C 
ENDROOT
BRANCH   1  27
ATOM     27  C   UNL     1      13.847  -4.895  32.730  1.00  0.00     0.048 C 
ATOM     28  O   UNL     1      14.678  -4.842  33.676  1.00  0.00    -0.550 OA
ATOM     29  O   UNL     1      13.104  -6.059  32.563  1.00  0.00    -0.550 OA
ENDBRANCH   1  27
BRANCH   7  30
ATOM     30  C   UNL     1      16.418  -4.668  29.131  1.00  0.00    -0.077 C 
ATOM     31  C   UNL     1      16.234  -4.329  27.670  1.00  0.00     0.039 C 
ATOM     32  C   UNL     1      17.630  -5.058  29.568  1.00  0.00     0.008 C 
ENDBRANCH   7  30
BRANCH  24  33
ATOM     33  O   UNL     1      18.266   4.027  33.935  1.00  0.00    -0.393 OA
ATOM     34  H   UNL     1      18.017   3.068  33.866  1.00  0.00     0.210 HD
ENDBRANCH  24  33
TORSDOF 3
ENDMDL
MODEL 7
REMARK VINA RESULT:    -5.480      2.024      2.792
REMARK INTER + INTRA:          -6.856
REMARK INTER:                  -6.319
REMARK INTRA:                  -0.537
REMARK UNBOUND:                -0.576
REMARK SMILES C=C(C)[C@@H]1CC[C@]2(C(=O)[O-])CC[C@]3(C)[C@@H](CC[C@H]4[C@]5(C)CC[C@H](O)C(C)(C)[C@@H]5CC[C@]43C)[C@H]12
REMARK SMILES IDX 7 1 6 2 33 3 11 4 5 5 15 6 4 7 12 8 16 9 13 10 17 11 31 12
REMARK SMILES IDX 14 13 18 14 30 15 32 16 19 17 29 18 21 19 20 20 28 21 22 22
REMARK SMILES IDX 25 23 23 24 26 25 27 26 8 27 9 28 10 29 2 30 3 31 1 32 24 33
REMARK H PARENT 24 34
REMARK Flexibility Score: inf
ROOT
ATOM      1  C   UNL     1      13.516  -3.274  31.595  1.00  0.00     0.014 C 
ATOM      2  C   UNL     1      14.336  -4.580  31.777  1.00  0.00     0.014 C 
ATOM      3  C   UNL     1      13.625  -2.586  32.977  1.00  0.00     0.012 C 
ATOM      4  C   UNL     1      14.003  -2.389  30.445  1.00  0.00     0.014 C 
ATOM      5  C   UNL     1      14.223  -4.955  33.256  1.00  0.00     0.009 C 
ATOM      6  C   UNL     1      14.988  -1.802  33.233  1.00  0.00     0.000 C 
ATOM      7  C   UNL     1      13.429  -3.816  33.914  1.00  0.00     0.018 C 
ATOM      8  C   UNL     1      15.394  -1.804  30.645  1.00  0.00     0.008 C 
ATOM      9  C   UNL     1      14.807  -0.868  34.465  1.00  0.00     0.005 C 
ATOM     10  C   UNL     1      15.682  -1.049  31.995  1.00  0.00    -0.024 C 
ATOM     11  C   UNL     1      15.795   0.279  34.530  1.00  0.00     0.005 C 
ATOM     12  C   UNL     1      15.311   0.533  31.945  1.00  0.00    -0.024 C 
ATOM     13  C   UNL     1      17.248  -1.185  32.147  1.00  0.00     0.012 C 
ATOM     14  C   UNL     1      15.621   1.271  33.347  1.00  0.00     0.002 C 
ATOM     15  C   UNL     1      16.044   1.237  30.764  1.00  0.00     0.008 C 
ATOM     16  C   UNL     1      13.786   0.716  31.634  1.00  0.00     0.012 C 
ATOM     17  C   UNL     1      16.613   2.570  33.425  1.00  0.00    -0.026 C 
ATOM     18  C   UNL     1      16.126   2.749  30.917  1.00  0.00     0.005 C 
ATOM     19  C   UNL     1      15.799   3.701  34.142  1.00  0.00     0.010 C 
ATOM     20  C   UNL     1      17.854   2.238  34.313  1.00  0.00     0.012 C 
ATOM     21  C   UNL     1      17.144   3.100  32.018  1.00  0.00     0.003 C 
ATOM     22  C   UNL     1      16.474   5.067  34.182  1.00  0.00     0.033 C 
ATOM     23  C   UNL     1      17.656   4.627  31.953  1.00  0.00    -0.006 C 
ATOM     24  C   UNL     1      16.738   5.587  32.768  1.00  0.00     0.120 C 
ATOM     25  C   UNL     1      19.125   4.756  32.475  1.00  0.00     0.014 C 
ATOM     26  C   UNL     1      17.728   5.162  30.489  1.00  0.00     0.014 C 
ENDROOT
BRANCH   1  27
ATOM     27  C   UNL     1      12.055  -3.611  31.277  1.00  0.00     0.048 C 
ATOM     28  O   UNL     1      11.721  -4.773  30.919  1.00  0.00    -0.550 OA
ATOM     29  O   UNL     1      11.089  -2.610  31.271  1.00  0.00    -0.550 OA
ENDBRANCH   1  27
BRANCH   7  30
ATOM     30  C   UNL     1      13.657  -3.606  35.406  1.00  0.00    -0.077 C 
ATOM     31  C   UNL     1      14.840  -4.210  36.125  1.00  0.00     0.039 C 
ATOM     32  C   UNL     1      12.732  -2.931  36.113  1.00  0.00     0.008 C 
ENDBRANCH   7  30
BRANCH  24  33
ATOM     33  O   UNL     1      15.501   5.770  32.120  1.00  0.00    -0.393 OA
ATOM     34  H   UNL     1      15.028   4.897  32.123  1.00  0.00     0.210 HD
ENDBRANCH  24  33
TORSDOF 3
ENDMDL
MODEL 8
REMARK VINA RESULT:    -5.406      2.597      3.483
REMARK INTER + INTRA:          -6.772
REMARK INTER:                  -6.188
REMARK INTRA:                  -0.584
REMARK UNBOUND:                -0.576
REMARK SMILES C=C(C)[C@@H]1CC[C@]2(C(=O)[O-])CC[C@]3(C)[C@@H](CC[C@H]4[C@]5(C)CC[C@H](O)C(C)(C)[C@@H]5CC[C@]43C)[C@H]12
REMARK SMILES IDX 7 1 6 2 33 3 11 4 5 5 15 6 4 7 12 8 16 9 13 10 17 11 31 12
REMARK SMILES IDX 14 13 18 14 30 15 32 16 19 17 29 18 21 19 20 20 28 21 22 22
REMARK SMILES IDX 25 23 23 24 26 25 27 26 8 27 9 28 10 29 2 30 3 31 1 32 24 33
REMARK H PARENT 24 34
REMARK Flexibility Score: inf
ROOT
ATOM      1  C   UNL     1      13.742  -1.957  31.484  1.00  0.00     0.014 C 
ATOM      2  C   UNL     1      14.616  -3.240  31.465  1.00  0.00     0.014 C 
ATOM      3  C   UNL     1      13.916  -1.424  32.926  1.00  0.00     0.012 C 
ATOM      4  C   UNL     1      14.123  -0.929  30.416  1.00  0.00     0.014 C 
ATOM      5  C   UNL     1      14.610  -3.783  32.896  1.00  0.00     0.009 C 
ATOM      6  C   UNL     1      15.265  -0.619  33.188  1.00  0.00     0.000 C 
ATOM      7  C   UNL     1      13.823  -2.758  33.726  1.00  0.00     0.018 C 
ATOM      8  C   UNL     1      15.504  -0.314  30.597  1.00  0.00     0.008 C 
ATOM      9  C   UNL     1      15.132   0.163  34.528  1.00  0.00     0.005 C 
ATOM     10  C   UNL     1      15.852   0.297  32.005  1.00  0.00    -0.024 C 
ATOM     11  C   UNL     1      16.083   1.336  34.663  1.00  0.00     0.005 C 
ATOM     12  C   UNL     1      15.425   1.858  32.158  1.00  0.00    -0.024 C 
ATOM     13  C   UNL     1      17.428   0.209  32.046  1.00  0.00     0.012 C 
ATOM     14  C   UNL     1      15.800   2.446  33.614  1.00  0.00     0.002 C 
ATOM     15  C   UNL     1      16.056   2.719  31.024  1.00  0.00     0.008 C 
ATOM     16  C   UNL     1      13.878   2.012  31.963  1.00  0.00     0.012 C 
ATOM     17  C   UNL     1      16.749   3.768  33.781  1.00  0.00    -0.026 C 
ATOM     18  C   UNL     1      16.097   4.206  31.344  1.00  0.00     0.005 C 
ATOM     19  C   UNL     1      15.946   4.776  34.670  1.00  0.00     0.010 C 
ATOM     20  C   UNL     1      18.056   3.389  34.549  1.00  0.00     0.012 C 
ATOM     21  C   UNL     1      17.171   4.473  32.415  1.00  0.00     0.003 C 
ATOM     22  C   UNL     1      16.574   6.157  34.826  1.00  0.00     0.033 C 
ATOM     23  C   UNL     1      17.625   6.018  32.494  1.00  0.00    -0.006 C 
ATOM     24  C   UNL     1      16.730   6.842  33.468  1.00  0.00     0.120 C 
ATOM     25  C   UNL     1      19.120   6.147  32.939  1.00  0.00     0.014 C 
ATOM     26  C   UNL     1      17.585   6.716  31.100  1.00  0.00     0.014 C 
ENDROOT
BRANCH   1  27
ATOM     27  C   UNL     1      12.276  -2.315  31.217  1.00  0.00     0.048 C 
ATOM     28  O   UNL     1      11.348  -1.515  31.515  1.00  0.00    -0.550 OA
ATOM     29  O   UNL     1      11.937  -3.578  30.743  1.00  0.00    -0.550 OA
ENDBRANCH   1  27
BRANCH   7  30
ATOM     30  C   UNL     1      14.139  -2.707  35.216  1.00  0.00    -0.077 C 
ATOM     31  C   UNL     1      15.451  -3.210  35.771  1.00  0.00     0.039 C 
ATOM     32  C   UNL     1      13.187  -2.277  36.065  1.00  0.00     0.008 C 
ENDBRANCH   7  30
BRANCH  24  33
ATOM     33  O   UNL     1      15.448   7.045  32.921  1.00  0.00    -0.393 OA
ATOM     34  H   UNL     1      15.191   6.215  32.439  1.00  0.00     0.210 HD
ENDBRANCH  24  33
TORSDOF 3
ENDMDL
