MODEL 1
REMARK VINA RESULT:    -1.160      0.000      0.000
REMARK INTER + INTRA:          -1.685
REMARK INTER:                  -1.431
REMARK INTRA:                  -0.254
REMARK UNBOUND:                -0.254
REMARK SMILES CCCCCC(=O)[O-]
REMARK SMILES IDX 4 1 5 2 6 3 7 4 8 5 3 6 2 7 1 8
REMARK H PARENT
REMARK Flexibility Score: inf
ROOT
ATOM      1  C   UNL     1     -13.782 -22.672  85.196  1.00  0.00     0.006 C 
ENDROOT
BRANCH   1   2
ATOM      2  C   UNL     1     -15.176 -22.405  85.772  1.00  0.00     0.053 C 
BRANCH   2   3
ATOM      3  C   UNL     1     -16.227 -23.047  84.922  1.00  0.00     0.041 C 
ATOM      4  O   UNL     1     -17.351 -22.496  84.781  1.00  0.00    -0.550 OA
ATOM      5  O   UNL     1     -15.984 -24.277  84.324  1.00  0.00    -0.550 OA
ENDBRANCH   2   3
ENDBRANCH   1   2
BRANCH   1   6
ATOM      6  C   UNL     1     -13.395 -21.593  84.175  1.00  0.00     0.000 C 
BRANCH   6   7
ATOM      7  C   UNL     1     -13.360 -22.129  82.735  1.00  0.00    -0.003 C 
ATOM      8  C   UNL     1     -14.537 -21.638  81.892  1.00  0.00     0.004 C 
ENDBRANCH   6   7
ENDBRANCH   1   6
TORSDOF 4
ENDMDL
MODEL 2
REMARK VINA RESULT:    -1.136      2.095      2.797
REMARK INTER + INTRA:          -1.655
REMARK INTER:                  -1.388
REMARK INTRA:                  -0.267
REMARK UNBOUND:                -0.254
REMARK SMILES CCCCCC(=O)[O-]
REMARK SMILES IDX 4 1 5 2 6 3 7 4 8 5 3 6 2 7 1 8
REMARK H PARENT
REMARK Flexibility Score: inf
ROOT
ATOM      1  C   UNL     1     -13.118 -22.756  83.129  1.00  0.00     0.006 C 
ENDROOT
BRANCH   1   2
ATOM      2  C   UNL     1     -13.513 -21.799  84.258  1.00  0.00     0.053 C 
BRANCH   2   3
ATOM      3  C   UNL     1     -14.108 -22.556  85.403  1.00  0.00     0.041 C 
ATOM      4  O   UNL     1     -15.234 -22.227  85.863  1.00  0.00    -0.550 OA
ATOM      5  O   UNL     1     -13.398 -23.592  85.997  1.00  0.00    -0.550 OA
ENDBRANCH   2   3
ENDBRANCH   1   2
BRANCH   1   6
ATOM      6  C   UNL     1     -14.359 -23.264  82.381  1.00  0.00     0.000 C 
BRANCH   6   7
ATOM      7  C   UNL     1     -14.495 -24.794  82.436  1.00  0.00    -0.003 C 
ATOM      8  C   UNL     1     -15.635 -25.254  83.345  1.00  0.00     0.004 C 
ENDBRANCH   6   7
ENDBRANCH   1   6
TORSDOF 4
ENDMDL
MODEL 3
REMARK VINA RESULT:    -1.133      2.049      3.134
REMARK INTER + INTRA:          -1.651
REMARK INTER:                  -1.587
REMARK INTRA:                  -0.065
REMARK UNBOUND:                -0.254
REMARK SMILES CCCCCC(=O)[O-]
REMARK SMILES IDX 4 1 5 2 6 3 7 4 8 5 3 6 2 7 1 8
REMARK H PARENT
REMARK Flexibility Score: inf
ROOT
ATOM      1  C   UNL     1     -13.626 -21.464  82.517  1.00  0.00     0.006 C 
ENDROOT
BRANCH   1   2
ATOM      2  C   UNL     1     -12.976 -21.306  83.894  1.00  0.00     0.053 C 
BRANCH   2   3
ATOM      3  C   UNL     1     -13.514 -22.325  84.849  1.00  0.00     0.041 C 
ATOM      4  O   UNL     1     -12.875 -23.389  85.067  1.00  0.00    -0.550 OA
ATOM      5  O   UNL     1     -14.746 -22.125  85.459  1.00  0.00    -0.550 OA
ENDBRANCH   2   3
ENDBRANCH   1   2
BRANCH   1   6
ATOM      6  C   UNL     1     -13.266 -20.284  81.602  1.00  0.00     0.000 C 
BRANCH   6   7
ATOM      7  C   UNL     1     -14.086 -20.273  80.303  1.00  0.00    -0.003 C 
ATOM      8  C   UNL     1     -15.554 -19.914  80.533  1.00  0.00     0.004 C 
ENDBRANCH   6   7
ENDBRANCH   1   6
TORSDOF 4
ENDMDL
MODEL 4
REMARK VINA RESULT:    -1.086      1.828      2.433
REMARK INTER + INTRA:          -1.594
REMARK INTER:                  -1.413
REMARK INTRA:                  -0.180
REMARK UNBOUND:                -0.254
REMARK SMILES CCCCCC(=O)[O-]
REMARK SMILES IDX 4 1 5 2 6 3 7 4 8 5 3 6 2 7 1 8
REMARK H PARENT
REMARK Flexibility Score: inf
ROOT
ATOM      1  C   UNL     1     -13.779 -22.505  85.151  1.00  0.00     0.006 C 
ENDROOT
BRANCH   1   2
ATOM      2  C   UNL     1     -12.919 -23.650  85.694  1.00  0.00     0.053 C 
BRANCH   2   3
ATOM      3  C   UNL     1     -13.587 -24.967  85.453  1.00  0.00     0.041 C 
ATOM      4  O   UNL     1     -14.807 -25.012  85.143  1.00  0.00    -0.550 OA
ATOM      5  O   UNL     1     -12.875 -26.149  85.618  1.00  0.00    -0.550 OA
ENDBRANCH   2   3
ENDBRANCH   1   2
BRANCH   1   6
ATOM      6  C   UNL     1     -12.956 -21.587  84.235  1.00  0.00     0.000 C 
BRANCH   6   7
ATOM      7  C   UNL     1     -13.613 -21.380  82.861  1.00  0.00    -0.003 C 
ATOM      8  C   UNL     1     -14.585 -22.502  82.496  1.00  0.00     0.004 C 
ENDBRANCH   6   7
ENDBRANCH   1   6
TORSDOF 4
ENDMDL
MODEL 5
REMARK VINA RESULT:    -1.072      2.767      4.167
REMARK INTER + INTRA:          -1.576
REMARK INTER:                  -1.485
REMARK INTRA:                  -0.091
REMARK UNBOUND:                -0.254
REMARK SMILES CCCCCC(=O)[O-]
REMARK SMILES IDX 4 1 5 2 6 3 7 4 8 5 3 6 2 7 1 8
REMARK H PARENT
REMARK Flexibility Score: inf
ROOT
ATOM      1  C   UNL     1     -13.978 -22.095  83.822  1.00  0.00     0.006 C 
ENDROOT
BRANCH   1   2
ATOM      2  C   UNL     1     -13.011 -21.244  82.995  1.00  0.00     0.053 C 
BRANCH   2   3
ATOM      3  C   UNL     1     -13.396 -21.267  81.549  1.00  0.00     0.041 C 
ATOM      4  O   UNL     1     -12.943 -22.161  80.787  1.00  0.00    -0.550 OA
ATOM      5  O   UNL     1     -14.216 -20.272  81.031  1.00  0.00    -0.550 OA
ENDBRANCH   2   3
ENDBRANCH   1   2
BRANCH   1   6
ATOM      6  C   UNL     1     -13.231 -22.858  84.926  1.00  0.00     0.000 C 
BRANCH   6   7
ATOM      7  C   UNL     1     -14.163 -23.321  86.057  1.00  0.00    -0.003 C 
ATOM      8  C   UNL     1     -15.458 -22.512  86.125  1.00  0.00     0.004 C 
ENDBRANCH   6   7
ENDBRANCH   1   6
TORSDOF 4
ENDMDL
MODEL 6
REMARK VINA RESULT:    -1.070      1.840      2.446
REMARK INTER + INTRA:          -1.574
REMARK INTER:                  -1.450
REMARK INTRA:                  -0.124
REMARK UNBOUND:                -0.254
REMARK SMILES CCCCCC(=O)[O-]
REMARK SMILES IDX 4 1 5 2 6 3 7 4 8 5 3 6 2 7 1 8
REMARK H PARENT
REMARK Flexibility Score: inf
ROOT
ATOM      1  C   UNL     1     -13.991 -22.176  82.883  1.00  0.00     0.006 C 
ENDROOT
BRANCH   1   2
ATOM      2  C   UNL     1     -13.478 -21.714  84.249  1.00  0.00     0.053 C 
BRANCH   2   3
ATOM      3  C   UNL     1     -14.086 -22.534  85.343  1.00  0.00     0.041 C 
ATOM      4  O   UNL     1     -15.240 -22.265  85.771  1.00  0.00    -0.550 OA
ATOM      5  O   UNL     1     -13.359 -23.564  85.927  1.00  0.00    -0.550 OA
ENDBRANCH   2   3
ENDBRANCH   1   2
BRANCH   1   6
ATOM      6  C   UNL     1     -12.931 -23.015  82.154  1.00  0.00     0.000 C 
BRANCH   6   7
ATOM      7  C   UNL     1     -12.883 -22.724  80.646  1.00  0.00    -0.003 C 
ATOM      8  C   UNL     1     -13.061 -21.241  80.324  1.00  0.00     0.004 C 
ENDBRANCH   6   7
ENDBRANCH   1   6
TORSDOF 4
ENDMDL
MODEL 7
REMARK VINA RESULT:    -1.065      1.653      3.114
REMARK INTER + INTRA:          -1.568
REMARK INTER:                  -1.328
REMARK INTRA:                  -0.240
REMARK UNBOUND:                -0.254
REMARK SMILES CCCCCC(=O)[O-]
REMARK SMILES IDX 4 1 5 2 6 3 7 4 8 5 3 6 2 7 1 8
REMARK H PARENT
REMARK Flexibility Score: inf
ROOT
ATOM      1  C   UNL     1     -13.106 -21.988  82.760  1.00  0.00     0.006 C 
ENDROOT
BRANCH   1   2
ATOM      2  C   UNL     1     -14.372 -21.614  81.985  1.00  0.00     0.053 C 
BRANCH   2   3
ATOM      3  C   UNL     1     -15.201 -22.831  81.716  1.00  0.00     0.041 C 
ATOM      4  O   UNL     1     -16.211 -23.079  82.427  1.00  0.00    -0.550 OA
ATOM      5  O   UNL     1     -14.830 -23.718  80.714  1.00  0.00    -0.550 OA
ENDBRANCH   2   3
ENDBRANCH   1   2
BRANCH   1   6
ATOM      6  C   UNL     1     -13.210 -21.545  84.227  1.00  0.00     0.000 C 
BRANCH   6   7
ATOM      7  C   UNL     1     -13.689 -22.676  85.152  1.00  0.00    -0.003 C 
ATOM      8  C   UNL     1     -15.084 -22.421  85.723  1.00  0.00     0.004 C 
ENDBRANCH   6   7
ENDBRANCH   1   6
TORSDOF 4
ENDMDL
MODEL 8
REMARK VINA RESULT:    -1.030      2.366      2.973
REMARK INTER + INTRA:          -1.524
REMARK INTER:                  -1.268
REMARK INTRA:                  -0.256
REMARK UNBOUND:                -0.254
REMARK SMILES CCCCCC(=O)[O-]
REMARK SMILES IDX 4 1 5 2 6 3 7 4 8 5 3 6 2 7 1 8
REMARK H PARENT
REMARK Flexibility Score: inf
ROOT
ATOM      1  C   UNL     1     -15.824 -22.864  84.083  1.00  0.00     0.006 C 
ENDROOT
BRANCH   1   2
ATOM      2  C   UNL     1     -15.096 -22.481  85.374  1.00  0.00     0.053 C 
BRANCH   2   3
ATOM      3  C   UNL     1     -13.614 -22.577  85.190  1.00  0.00     0.041 C 
ATOM      4  O   UNL     1     -13.017 -21.768  84.433  1.00  0.00    -0.550 OA
ATOM      5  O   UNL     1     -12.899 -23.592  85.814  1.00  0.00    -0.550 OA
ENDBRANCH   2   3
ENDBRANCH   1   2
BRANCH   1   6
ATOM      6  C   UNL     1     -15.676 -24.365  83.794  1.00  0.00     0.000 C 
BRANCH   6   7
ATOM      7  C   UNL     1     -15.239 -24.647  82.347  1.00  0.00    -0.003 C 
ATOM      8  C   UNL     1     -14.580 -23.439  81.683  1.00  0.00     0.004 C 
ENDBRANCH   6   7
ENDBRANCH   1   6
TORSDOF 4
ENDMDL
MODEL 9
REMARK VINA RESULT:    -0.998      7.880      8.693
REMARK INTER + INTRA:          -1.485
REMARK INTER:                  -1.392
REMARK INTRA:                  -0.093
REMARK UNBOUND:                -0.254
REMARK SMILES CCCCCC(=O)[O-]
REMARK SMILES IDX 4 1 5 2 6 3 7 4 8 5 3 6 2 7 1 8
REMARK H PARENT
REMARK Flexibility Score: inf
ROOT
ATOM      1  C   UNL     1     -16.194 -14.295  83.600  1.00  0.00     0.006 C 
ENDROOT
BRANCH   1   2
ATOM      2  C   UNL     1     -15.042 -13.439  84.135  1.00  0.00     0.053 C 
BRANCH   2   3
ATOM      3  C   UNL     1     -13.960 -14.307  84.695  1.00  0.00     0.041 C 
ATOM      4  O   UNL     1     -13.235 -14.992  83.926  1.00  0.00    -0.550 OA
ATOM      5  O   UNL     1     -13.783 -14.400  86.070  1.00  0.00    -0.550 OA
ENDBRANCH   2   3
ENDBRANCH   1   2
BRANCH   1   6
ATOM      6  C   UNL     1     -17.125 -14.736  84.738  1.00  0.00     0.000 C 
BRANCH   6   7
ATOM      7  C   UNL     1     -18.179 -15.755  84.278  1.00  0.00    -0.003 C 
ATOM      8  C   UNL     1     -18.676 -16.647  85.415  1.00  0.00     0.004 C 
ENDBRANCH   6   7
ENDBRANCH   1   6
TORSDOF 4
ENDMDL
