MODEL 1
REMARK VINA RESULT:    -2.535      0.000      0.000
REMARK INTER + INTRA:          -7.183
REMARK INTER:                  -4.685
REMARK INTRA:                  -2.499
REMARK UNBOUND:                -2.499
REMARK SMILES CCCCCCCCCCCCCCCCO
REMARK SMILES IDX 9 1 8 2 7 3 6 4 5 5 4 6 3 7 2 8 1 9 10 10 11 11 12 12 13 13
REMARK SMILES IDX 14 14 15 15 16 16 17 17
REMARK H PARENT 17 18
REMARK Flexibility Score: inf
ROOT
ATOM      1  C   UNL     1     236.350 230.495 235.601  1.00  0.00     0.000 C 
ENDROOT
BRANCH   1   2
ATOM      2  C   UNL     1     236.813 230.220 234.161  1.00  0.00    -0.000 C 
BRANCH   2   3
ATOM      3  C   UNL     1     235.999 229.113 233.475  1.00  0.00    -0.000 C 
BRANCH   3   4
ATOM      4  C   UNL     1     235.440 229.599 232.128  1.00  0.00    -0.000 C 
BRANCH   4   5
ATOM      5  C   UNL     1     235.708 231.092 231.877  1.00  0.00    -0.000 C 
BRANCH   5   6
ATOM      6  C   UNL     1     234.433 231.946 231.979  1.00  0.00    -0.000 C 
BRANCH   6   7
ATOM      7  C   UNL     1     234.713 233.390 232.436  1.00  0.00    -0.000 C 
BRANCH   7   8
ATOM      8  C   UNL     1     236.195 233.712 232.702  1.00  0.00    -0.003 C 
ATOM      9  C   UNL     1     236.476 234.075 234.159  1.00  0.00     0.004 C 
ENDBRANCH   7   8
ENDBRANCH   6   7
ENDBRANCH   5   6
ENDBRANCH   4   5
ENDBRANCH   3   4
ENDBRANCH   2   3
ENDBRANCH   1   2
BRANCH   1  10
ATOM     10  C   UNL     1     234.820 230.430 235.753  1.00  0.00     0.000 C 
BRANCH  10  11
ATOM     11  C   UNL     1     234.174 231.824 235.801  1.00  0.00     0.000 C 
BRANCH  11  12
ATOM     12  C   UNL     1     232.748 231.837 235.220  1.00  0.00     0.000 C 
BRANCH  12  13
ATOM     13  C   UNL     1     232.094 233.226 235.296  1.00  0.00     0.000 C 
BRANCH  13  14
ATOM     14  C   UNL     1     231.232 233.542 234.063  1.00  0.00     0.002 C 
BRANCH  14  15
ATOM     15  C   UNL     1     230.968 232.274 233.240  1.00  0.00     0.028 C 
BRANCH  15  16
ATOM     16  C   UNL     1     229.493 231.870 233.281  1.00  0.00     0.156 C 
BRANCH  16  17
ATOM     17  O   UNL     1     229.353 230.616 233.891  1.00  0.00    -0.396 OA
ATOM     18  H   UNL     1     229.847 230.671 234.749  1.00  0.00     0.210 HD
ENDBRANCH  16  17
ENDBRANCH  15  16
ENDBRANCH  14  15
ENDBRANCH  13  14
ENDBRANCH  12  13
ENDBRANCH  11  12
ENDBRANCH  10  11
ENDBRANCH   1  10
TORSDOF 15
ENDMDL
MODEL 2
REMARK VINA RESULT:    -2.489      4.024      6.597
REMARK INTER + INTRA:          -7.098
REMARK INTER:                  -4.535
REMARK INTRA:                  -2.563
REMARK UNBOUND:                -2.499
REMARK SMILES CCCCCCCCCCCCCCCCO
REMARK SMILES IDX 9 1 8 2 7 3 6 4 5 5 4 6 3 7 2 8 1 9 10 10 11 11 12 12 13 13
REMARK SMILES IDX 14 14 15 15 16 16 17 17
REMARK H PARENT 17 18
REMARK Flexibility Score: inf
ROOT
ATOM      1  C   UNL     1     229.830 231.442 237.048  1.00  0.00     0.000 C 
ENDROOT
BRANCH   1   2
ATOM      2  C   UNL     1     228.522 232.231 237.215  1.00  0.00    -0.000 C 
BRANCH   2   3
ATOM      3  C   UNL     1     228.134 233.014 235.952  1.00  0.00    -0.000 C 
BRANCH   3   4
ATOM      4  C   UNL     1     227.094 232.241 235.127  1.00  0.00    -0.000 C 
BRANCH   4   5
ATOM      5  C   UNL     1     227.651 231.742 233.784  1.00  0.00    -0.000 C 
BRANCH   5   6
ATOM      6  C   UNL     1     228.929 232.488 233.361  1.00  0.00    -0.000 C 
BRANCH   6   7
ATOM      7  C   UNL     1     230.161 231.569 233.279  1.00  0.00    -0.000 C 
BRANCH   7   8
ATOM      8  C   UNL     1     231.430 232.120 233.952  1.00  0.00    -0.003 C 
ATOM      9  C   UNL     1     231.552 233.639 233.848  1.00  0.00     0.004 C 
ENDBRANCH   7   8
ENDBRANCH   6   7
ENDBRANCH   5   6
ENDBRANCH   4   5
ENDBRANCH   3   4
ENDBRANCH   2   3
ENDBRANCH   1   2
BRANCH   1  10
ATOM     10  C   UNL     1     229.716 229.993 237.554  1.00  0.00     0.000 C 
BRANCH  10  11
ATOM     11  C   UNL     1     229.943 228.960 236.438  1.00  0.00     0.000 C 
BRANCH  11  12
ATOM     12  C   UNL     1     228.696 228.750 235.561  1.00  0.00     0.000 C 
BRANCH  12  13
ATOM     13  C   UNL     1     227.397 228.712 236.383  1.00  0.00     0.000 C 
BRANCH  13  14
ATOM     14  C   UNL     1     226.141 228.644 235.501  1.00  0.00     0.002 C 
BRANCH  14  15
ATOM     15  C   UNL     1     226.503 228.251 234.062  1.00  0.00     0.028 C 
BRANCH  15  16
ATOM     16  C   UNL     1     225.441 228.717 233.064  1.00  0.00     0.156 C 
BRANCH  16  17
ATOM     17  O   UNL     1     224.480 229.502 233.713  1.00  0.00    -0.396 OA
ATOM     18  H   UNL     1     224.128 228.947 234.457  1.00  0.00     0.210 HD
ENDBRANCH  16  17
ENDBRANCH  15  16
ENDBRANCH  14  15
ENDBRANCH  13  14
ENDBRANCH  12  13
ENDBRANCH  11  12
ENDBRANCH  10  11
ENDBRANCH   1  10
TORSDOF 15
ENDMDL
MODEL 3
REMARK VINA RESULT:    -2.489      3.995      6.809
REMARK INTER + INTRA:          -7.097
REMARK INTER:                  -5.398
REMARK INTRA:                  -1.698
REMARK UNBOUND:                -2.499
REMARK SMILES CCCCCCCCCCCCCCCCO
REMARK SMILES IDX 9 1 8 2 7 3 6 4 5 5 4 6 3 7 2 8 1 9 10 10 11 11 12 12 13 13
REMARK SMILES IDX 14 14 15 15 16 16 17 17
REMARK H PARENT 17 18
REMARK Flexibility Score: inf
ROOT
ATOM      1  C   UNL     1     235.848 232.893 233.786  1.00  0.00     0.000 C 
ENDROOT
BRANCH   1   2
ATOM      2  C   UNL     1     234.964 232.238 232.712  1.00  0.00    -0.000 C 
BRANCH   2   3
ATOM      3  C   UNL     1     235.401 230.805 232.375  1.00  0.00    -0.000 C 
BRANCH   3   4
ATOM      4  C   UNL     1     236.789 230.504 232.960  1.00  0.00    -0.000 C 
BRANCH   4   5
ATOM      5  C   UNL     1     236.844 229.158 233.702  1.00  0.00    -0.000 C 
BRANCH   5   6
ATOM      6  C   UNL     1     235.914 229.122 234.927  1.00  0.00    -0.000 C 
BRANCH   6   7
ATOM      7  C   UNL     1     236.411 230.008 236.084  1.00  0.00    -0.000 C 
BRANCH   7   8
ATOM      8  C   UNL     1     235.303 230.601 236.972  1.00  0.00    -0.003 C 
ATOM      9  C   UNL     1     234.005 230.867 236.212  1.00  0.00     0.004 C 
ENDBRANCH   7   8
ENDBRANCH   6   7
ENDBRANCH   5   6
ENDBRANCH   4   5
ENDBRANCH   3   4
ENDBRANCH   2   3
ENDBRANCH   1   2
BRANCH   1  10
ATOM     10  C   UNL     1     236.360 234.282 233.365  1.00  0.00     0.000 C 
BRANCH  10  11
ATOM     11  C   UNL     1     237.205 234.234 232.082  1.00  0.00     0.000 C 
BRANCH  11  12
ATOM     12  C   UNL     1     238.208 235.397 231.989  1.00  0.00     0.000 C 
BRANCH  12  13
ATOM     13  C   UNL     1     237.793 236.604 232.845  1.00  0.00     0.000 C 
BRANCH  13  14
ATOM     14  C   UNL     1     238.947 237.146 233.702  1.00  0.00     0.002 C 
BRANCH  14  15
ATOM     15  C   UNL     1     239.623 236.016 234.489  1.00  0.00     0.028 C 
BRANCH  15  16
ATOM     16  C   UNL     1     241.140 236.201 234.557  1.00  0.00     0.156 C 
BRANCH  16  17
ATOM     17  O   UNL     1     241.686 236.191 233.267  1.00  0.00    -0.396 OA
ATOM     18  H   UNL     1     241.353 237.013 232.821  1.00  0.00     0.210 HD
ENDBRANCH  16  17
ENDBRANCH  15  16
ENDBRANCH  14  15
ENDBRANCH  13  14
ENDBRANCH  12  13
ENDBRANCH  11  12
ENDBRANCH  10  11
ENDBRANCH   1  10
TORSDOF 15
ENDMDL
MODEL 4
REMARK VINA RESULT:    -2.458      5.034      7.051
REMARK INTER + INTRA:          -7.040
REMARK INTER:                  -4.747
REMARK INTRA:                  -2.293
REMARK UNBOUND:                -2.499
REMARK SMILES CCCCCCCCCCCCCCCCO
REMARK SMILES IDX 9 1 8 2 7 3 6 4 5 5 4 6 3 7 2 8 1 9 10 10 11 11 12 12 13 13
REMARK SMILES IDX 14 14 15 15 16 16 17 17
REMARK H PARENT 17 18
REMARK Flexibility Score: inf
ROOT
ATOM      1  C   UNL     1     229.472 228.762 236.514  1.00  0.00     0.000 C 
ENDROOT
BRANCH   1   2
ATOM      2  C   UNL     1     228.538 228.816 235.293  1.00  0.00    -0.000 C 
BRANCH   2   3
ATOM      3  C   UNL     1     227.052 228.832 235.682  1.00  0.00    -0.000 C 
BRANCH   3   4
ATOM      4  C   UNL     1     226.333 230.031 235.043  1.00  0.00    -0.000 C 
BRANCH   4   5
ATOM      5  C   UNL     1     227.064 230.573 233.804  1.00  0.00    -0.000 C 
BRANCH   5   6
ATOM      6  C   UNL     1     227.303 232.091 233.877  1.00  0.00    -0.000 C 
BRANCH   6   7
ATOM      7  C   UNL     1     228.753 232.452 234.251  1.00  0.00    -0.000 C 
BRANCH   7   8
ATOM      8  C   UNL     1     229.834 231.767 233.397  1.00  0.00    -0.003 C 
ATOM      9  C   UNL     1     230.374 232.663 232.284  1.00  0.00     0.004 C 
ENDBRANCH   7   8
ENDBRANCH   6   7
ENDBRANCH   5   6
ENDBRANCH   4   5
ENDBRANCH   3   4
ENDBRANCH   2   3
ENDBRANCH   1   2
BRANCH   1  10
ATOM     10  C   UNL     1     230.109 230.126 236.831  1.00  0.00     0.000 C 
BRANCH  10  11
ATOM     11  C   UNL     1     229.676 230.674 238.201  1.00  0.00     0.000 C 
BRANCH  11  12
ATOM     12  C   UNL     1     229.166 232.124 238.125  1.00  0.00     0.000 C 
BRANCH  12  13
ATOM     13  C   UNL     1     227.712 232.212 237.635  1.00  0.00     0.000 C 
BRANCH  13  14
ATOM     14  C   UNL     1     226.753 231.347 238.467  1.00  0.00     0.002 C 
BRANCH  14  15
ATOM     15  C   UNL     1     225.433 232.086 238.725  1.00  0.00     0.028 C 
BRANCH  15  16
ATOM     16  C   UNL     1     224.590 232.200 237.453  1.00  0.00     0.156 C 
BRANCH  16  17
ATOM     17  O   UNL     1     224.575 233.526 237.001  1.00  0.00    -0.396 OA
ATOM     18  H   UNL     1     225.094 233.534 236.156  1.00  0.00     0.210 HD
ENDBRANCH  16  17
ENDBRANCH  15  16
ENDBRANCH  14  15
ENDBRANCH  13  14
ENDBRANCH  12  13
ENDBRANCH  11  12
ENDBRANCH  10  11
ENDBRANCH   1  10
TORSDOF 15
ENDMDL
MODEL 5
REMARK VINA RESULT:    -2.454      4.222      7.388
REMARK INTER + INTRA:          -7.033
REMARK INTER:                  -4.467
REMARK INTRA:                  -2.566
REMARK UNBOUND:                -2.499
REMARK SMILES CCCCCCCCCCCCCCCCO
REMARK SMILES IDX 9 1 8 2 7 3 6 4 5 5 4 6 3 7 2 8 1 9 10 10 11 11 12 12 13 13
REMARK SMILES IDX 14 14 15 15 16 16 17 17
REMARK H PARENT 17 18
REMARK Flexibility Score: inf
ROOT
ATOM      1  C   UNL     1     239.859 227.998 235.368  1.00  0.00     0.000 C 
ENDROOT
BRANCH   1   2
ATOM      2  C   UNL     1     239.398 229.173 236.247  1.00  0.00    -0.000 C 
BRANCH   2   3
ATOM      3  C   UNL     1     238.813 228.717 237.591  1.00  0.00    -0.000 C 
BRANCH   3   4
ATOM      4  C   UNL     1     237.392 229.267 237.785  1.00  0.00    -0.000 C 
BRANCH   4   5
ATOM      5  C   UNL     1     236.368 228.169 238.114  1.00  0.00    -0.000 C 
BRANCH   5   6
ATOM      6  C   UNL     1     237.027 226.892 238.662  1.00  0.00    -0.000 C 
BRANCH   6   7
ATOM      7  C   UNL     1     236.040 225.717 238.796  1.00  0.00    -0.000 C 
BRANCH   7   8
ATOM      8  C   UNL     1     235.893 224.844 237.537  1.00  0.00    -0.003 C 
ATOM      9  C   UNL     1     237.088 223.921 237.306  1.00  0.00     0.004 C 
ENDBRANCH   7   8
ENDBRANCH   6   7
ENDBRANCH   5   6
ENDBRANCH   4   5
ENDBRANCH   3   4
ENDBRANCH   2   3
ENDBRANCH   1   2
BRANCH   1  10
ATOM     10  C   UNL     1     239.227 226.661 235.790  1.00  0.00     0.000 C 
BRANCH  10  11
ATOM     11  C   UNL     1     238.641 225.884 234.600  1.00  0.00     0.000 C 
BRANCH  11  12
ATOM     12  C   UNL     1     237.618 226.710 233.799  1.00  0.00     0.000 C 
BRANCH  12  13
ATOM     13  C   UNL     1     236.384 227.089 234.633  1.00  0.00     0.000 C 
BRANCH  13  14
ATOM     14  C   UNL     1     235.972 228.557 234.446  1.00  0.00     0.002 C 
BRANCH  14  15
ATOM     15  C   UNL     1     236.941 229.282 233.502  1.00  0.00     0.028 C 
BRANCH  15  16
ATOM     16  C   UNL     1     236.522 230.734 233.266  1.00  0.00     0.156 C 
BRANCH  16  17
ATOM     17  O   UNL     1     236.352 230.970 231.895  1.00  0.00    -0.396 OA
ATOM     18  H   UNL     1     235.669 230.320 231.586  1.00  0.00     0.210 HD
ENDBRANCH  16  17
ENDBRANCH  15  16
ENDBRANCH  14  15
ENDBRANCH  13  14
ENDBRANCH  12  13
ENDBRANCH  11  12
ENDBRANCH  10  11
ENDBRANCH   1  10
TORSDOF 15
ENDMDL
MODEL 6
REMARK VINA RESULT:    -2.426      3.332      5.201
REMARK INTER + INTRA:          -6.982
REMARK INTER:                  -5.067
REMARK INTRA:                  -1.915
REMARK UNBOUND:                -2.499
REMARK SMILES CCCCCCCCCCCCCCCCO
REMARK SMILES IDX 9 1 8 2 7 3 6 4 5 5 4 6 3 7 2 8 1 9 10 10 11 11 12 12 13 13
REMARK SMILES IDX 14 14 15 15 16 16 17 17
REMARK H PARENT 17 18
REMARK Flexibility Score: inf
ROOT
ATOM      1  C   UNL     1     231.986 234.888 235.184  1.00  0.00     0.000 C 
ENDROOT
BRANCH   1   2
ATOM      2  C   UNL     1     232.624 236.251 235.501  1.00  0.00    -0.000 C 
BRANCH   2   3
ATOM      3  C   UNL     1     231.763 237.433 235.033  1.00  0.00    -0.000 C 
BRANCH   3   4
ATOM      4  C   UNL     1     232.518 238.285 234.000  1.00  0.00    -0.000 C 
BRANCH   4   5
ATOM      5  C   UNL     1     232.414 237.722 232.574  1.00  0.00    -0.000 C 
BRANCH   5   6
ATOM      6  C   UNL     1     233.782 237.628 231.876  1.00  0.00    -0.000 C 
BRANCH   6   7
ATOM      7  C   UNL     1     234.458 236.257 232.063  1.00  0.00    -0.000 C 
BRANCH   7   8
ATOM      8  C   UNL     1     235.536 236.207 233.161  1.00  0.00    -0.003 C 
ATOM      9  C   UNL     1     236.956 236.153 232.602  1.00  0.00     0.004 C 
ENDBRANCH   7   8
ENDBRANCH   6   7
ENDBRANCH   5   6
ENDBRANCH   4   5
ENDBRANCH   3   4
ENDBRANCH   2   3
ENDBRANCH   1   2
BRANCH   1  10
ATOM     10  C   UNL     1     233.000 233.879 234.617  1.00  0.00     0.000 C 
BRANCH  10  11
ATOM     11  C   UNL     1     232.491 233.183 233.344  1.00  0.00     0.000 C 
BRANCH  11  12
ATOM     12  C   UNL     1     231.527 234.066 232.532  1.00  0.00     0.000 C 
BRANCH  12  13
ATOM     13  C   UNL     1     230.320 233.281 231.993  1.00  0.00     0.000 C 
BRANCH  13  14
ATOM     14  C   UNL     1     229.925 232.107 232.903  1.00  0.00     0.002 C 
BRANCH  14  15
ATOM     15  C   UNL     1     228.576 232.373 233.584  1.00  0.00     0.028 C 
BRANCH  15  16
ATOM     16  C   UNL     1     227.847 231.072 233.924  1.00  0.00     0.156 C 
BRANCH  16  17
ATOM     17  O   UNL     1     226.482 231.194 233.636  1.00  0.00    -0.396 OA
ATOM     18  H   UNL     1     226.019 230.524 234.204  1.00  0.00     0.210 HD
ENDBRANCH  16  17
ENDBRANCH  15  16
ENDBRANCH  14  15
ENDBRANCH  13  14
ENDBRANCH  12  13
ENDBRANCH  11  12
ENDBRANCH  10  11
ENDBRANCH   1  10
TORSDOF 15
ENDMDL
MODEL 7
REMARK VINA RESULT:    -2.423      7.151      9.230
REMARK INTER + INTRA:          -6.975
REMARK INTER:                  -4.477
REMARK INTRA:                  -2.498
REMARK UNBOUND:                -2.499
REMARK SMILES CCCCCCCCCCCCCCCCO
REMARK SMILES IDX 9 1 8 2 7 3 6 4 5 5 4 6 3 7 2 8 1 9 10 10 11 11 12 12 13 13
REMARK SMILES IDX 14 14 15 15 16 16 17 17
REMARK H PARENT 17 18
REMARK Flexibility Score: inf
ROOT
ATOM      1  C   UNL     1     232.210 238.738 237.085  1.00  0.00     0.000 C 
ENDROOT
BRANCH   1   2
ATOM      2  C   UNL     1     233.071 239.940 236.664  1.00  0.00    -0.000 C 
BRANCH   2   3
ATOM      3  C   UNL     1     232.235 241.113 236.131  1.00  0.00    -0.000 C 
BRANCH   3   4
ATOM      4  C   UNL     1     232.449 241.294 234.620  1.00  0.00    -0.000 C 
BRANCH   4   5
ATOM      5  C   UNL     1     231.569 240.355 233.777  1.00  0.00    -0.000 C 
BRANCH   5   6
ATOM      6  C   UNL     1     232.390 239.287 233.034  1.00  0.00    -0.000 C 
BRANCH   6   7
ATOM      7  C   UNL     1     231.696 237.912 233.004  1.00  0.00    -0.000 C 
BRANCH   7   8
ATOM      8  C   UNL     1     232.231 236.892 234.025  1.00  0.00    -0.003 C 
ATOM      9  C   UNL     1     233.744 236.970 234.215  1.00  0.00     0.004 C 
ENDBRANCH   7   8
ENDBRANCH   6   7
ENDBRANCH   5   6
ENDBRANCH   4   5
ENDBRANCH   3   4
ENDBRANCH   2   3
ENDBRANCH   1   2
BRANCH   1  10
ATOM     10  C   UNL     1     231.308 239.050 238.292  1.00  0.00     0.000 C 
BRANCH  10  11
ATOM     11  C   UNL     1     229.813 239.018 237.933  1.00  0.00     0.000 C 
BRANCH  11  12
ATOM     12  C   UNL     1     229.556 238.499 236.507  1.00  0.00     0.000 C 
BRANCH  12  13
ATOM     13  C   UNL     1     228.748 239.492 235.655  1.00  0.00     0.000 C 
BRANCH  13  14
ATOM     14  C   UNL     1     228.399 240.778 236.419  1.00  0.00     0.002 C 
BRANCH  14  15
ATOM     15  C   UNL     1     228.736 242.020 235.582  1.00  0.00     0.028 C 
BRANCH  15  16
ATOM     16  C   UNL     1     227.879 242.101 234.318  1.00  0.00     0.156 C 
BRANCH  16  17
ATOM     17  O   UNL     1     228.697 242.207 233.185  1.00  0.00    -0.396 OA
ATOM     18  H   UNL     1     228.480 241.425 232.615  1.00  0.00     0.210 HD
ENDBRANCH  16  17
ENDBRANCH  15  16
ENDBRANCH  14  15
ENDBRANCH  13  14
ENDBRANCH  12  13
ENDBRANCH  11  12
ENDBRANCH  10  11
ENDBRANCH   1  10
TORSDOF 15
ENDMDL
MODEL 8
REMARK VINA RESULT:    -2.378      5.295      6.914
REMARK INTER + INTRA:          -6.893
REMARK INTER:                  -5.546
REMARK INTRA:                  -1.347
REMARK UNBOUND:                -2.499
REMARK SMILES CCCCCCCCCCCCCCCCO
REMARK SMILES IDX 9 1 8 2 7 3 6 4 5 5 4 6 3 7 2 8 1 9 10 10 11 11 12 12 13 13
REMARK SMILES IDX 14 14 15 15 16 16 17 17
REMARK H PARENT 17 18
REMARK Flexibility Score: inf
ROOT
ATOM      1  C   UNL     1     234.470 236.624 233.718  1.00  0.00     0.000 C 
ENDROOT
BRANCH   1   2
ATOM      2  C   UNL     1     235.104 235.232 233.877  1.00  0.00    -0.000 C 
BRANCH   2   3
ATOM      3  C   UNL     1     235.419 234.564 232.531  1.00  0.00    -0.000 C 
BRANCH   3   4
ATOM      4  C   UNL     1     236.928 234.314 232.384  1.00  0.00    -0.000 C 
BRANCH   4   5
ATOM      5  C   UNL     1     237.690 235.549 231.875  1.00  0.00    -0.000 C 
BRANCH   5   6
ATOM      6  C   UNL     1     238.908 235.892 232.751  1.00  0.00    -0.000 C 
BRANCH   6   7
ATOM      7  C   UNL     1     238.619 237.015 233.765  1.00  0.00    -0.000 C 
BRANCH   7   8
ATOM      8  C   UNL     1     239.156 236.762 235.185  1.00  0.00    -0.003 C 
ATOM      9  C   UNL     1     240.433 235.924 235.202  1.00  0.00     0.004 C 
ENDBRANCH   7   8
ENDBRANCH   6   7
ENDBRANCH   5   6
ENDBRANCH   4   5
ENDBRANCH   3   4
ENDBRANCH   2   3
ENDBRANCH   1   2
BRANCH   1  10
ATOM     10  C   UNL     1     234.187 236.981 232.248  1.00  0.00     0.000 C 
BRANCH  10  11
ATOM     11  C   UNL     1     233.018 237.968 232.096  1.00  0.00     0.000 C 
BRANCH  11  12
ATOM     12  C   UNL     1     231.836 237.635 233.024  1.00  0.00     0.000 C 
BRANCH  12  13
ATOM     13  C   UNL     1     231.229 238.887 233.677  1.00  0.00     0.000 C 
BRANCH  13  14
ATOM     14  C   UNL     1     232.225 239.622 234.587  1.00  0.00     0.002 C 
BRANCH  14  15
ATOM     15  C   UNL     1     232.362 241.093 234.172  1.00  0.00     0.028 C 
BRANCH  15  16
ATOM     16  C   UNL     1     231.137 241.913 234.581  1.00  0.00     0.156 C 
BRANCH  16  17
ATOM     17  O   UNL     1     230.551 242.499 233.451  1.00  0.00    -0.396 OA
ATOM     18  H   UNL     1     229.933 243.197 233.793  1.00  0.00     0.210 HD
ENDBRANCH  16  17
ENDBRANCH  15  16
ENDBRANCH  14  15
ENDBRANCH  13  14
ENDBRANCH  12  13
ENDBRANCH  11  12
ENDBRANCH  10  11
ENDBRANCH   1  10
TORSDOF 15
ENDMDL
MODEL 9
REMARK VINA RESULT:    -2.333      5.935      8.778
REMARK INTER + INTRA:          -6.809
REMARK INTER:                  -4.876
REMARK INTRA:                  -1.933
REMARK UNBOUND:                -2.499
REMARK SMILES CCCCCCCCCCCCCCCCO
REMARK SMILES IDX 9 1 8 2 7 3 6 4 5 5 4 6 3 7 2 8 1 9 10 10 11 11 12 12 13 13
REMARK SMILES IDX 14 14 15 15 16 16 17 17
REMARK H PARENT 17 18
REMARK Flexibility Score: inf
ROOT
ATOM      1  C   UNL     1     232.375 240.915 233.788  1.00  0.00     0.000 C 
ENDROOT
BRANCH   1   2
ATOM      2  C   UNL     1     232.482 241.105 235.310  1.00  0.00    -0.000 C 
BRANCH   2   3
ATOM      3  C   UNL     1     233.235 239.959 236.001  1.00  0.00    -0.000 C 
BRANCH   3   4
ATOM      4  C   UNL     1     232.369 239.318 237.098  1.00  0.00    -0.000 C 
BRANCH   4   5
ATOM      5  C   UNL     1     230.908 239.795 237.057  1.00  0.00    -0.000 C 
BRANCH   5   6
ATOM      6  C   UNL     1     229.975 238.778 236.378  1.00  0.00    -0.000 C 
BRANCH   6   7
ATOM      7  C   UNL     1     228.870 239.446 235.539  1.00  0.00    -0.000 C 
BRANCH   7   8
ATOM      8  C   UNL     1     228.724 240.964 235.746  1.00  0.00    -0.003 C 
ATOM      9  C   UNL     1     228.823 241.758 234.444  1.00  0.00     0.004 C 
ENDBRANCH   7   8
ENDBRANCH   6   7
ENDBRANCH   5   6
ENDBRANCH   4   5
ENDBRANCH   3   4
ENDBRANCH   2   3
ENDBRANCH   1   2
BRANCH   1  10
ATOM     10  C   UNL     1     232.072 239.459 233.393  1.00  0.00     0.000 C 
BRANCH  10  11
ATOM     11  C   UNL     1     232.927 238.979 232.210  1.00  0.00     0.000 C 
BRANCH  11  12
ATOM     12  C   UNL     1     233.242 237.474 232.277  1.00  0.00     0.000 C 
BRANCH  12  13
ATOM     13  C   UNL     1     233.167 236.920 233.709  1.00  0.00     0.000 C 
BRANCH  13  14
ATOM     14  C   UNL     1     232.224 235.714 233.828  1.00  0.00     0.002 C 
BRANCH  14  15
ATOM     15  C   UNL     1     232.710 234.550 232.952  1.00  0.00     0.028 C 
BRANCH  15  16
ATOM     16  C   UNL     1     231.558 233.902 232.183  1.00  0.00     0.156 C 
BRANCH  16  17
ATOM     17  O   UNL     1     231.871 232.571 231.876  1.00  0.00    -0.396 OA
ATOM     18  H   UNL     1     231.240 232.297 231.161  1.00  0.00     0.210 HD
ENDBRANCH  16  17
ENDBRANCH  15  16
ENDBRANCH  14  15
ENDBRANCH  13  14
ENDBRANCH  12  13
ENDBRANCH  11  12
ENDBRANCH  10  11
ENDBRANCH   1  10
TORSDOF 15
ENDMDL
