MODEL 1
REMARK VINA RESULT:    -8.770      0.000      0.000
REMARK INTER + INTRA:         -13.935
REMARK INTER:                 -12.871
REMARK INTRA:                  -1.063
REMARK UNBOUND:                -1.063
REMARK SMILES Cc1cc2c(C(C)C)c(O)c(O)c(C=O)c2c(O)c1-c1c(C)cc2c(C(C)C)c(O)c(O)c(C=O)c2c1O
REMARK SMILES IDX 1 1 2 2 3 3 4 4 16 5 13 6 11 7 9 8 5 9 17 10 19 11 20 12
REMARK SMILES IDX 37 13 21 14 36 15 23 16 22 17 24 18 33 19 25 20 31 21 29 22
REMARK SMILES IDX 38 23 34 25 35 26 26 27 27 28 28 29 32 30 30 32 18 34 6 36
REMARK SMILES IDX 7 37 8 38 14 39 15 40 10 41 12 43
REMARK H PARENT 38 24 32 31 30 33 18 35 10 42 12 44
REMARK Flexibility Score: inf
ROOT
ATOM      1  C   UNL     1      12.350  29.116  26.990  1.00  0.00     0.045 C 
ATOM      2  C   UNL     1      11.658  29.549  25.719  1.00  0.00    -0.039 A 
ATOM      3  C   UNL     1      10.305  29.253  25.540  1.00  0.00     0.013 A 
ATOM      4  C   UNL     1       9.596  29.647  24.386  1.00  0.00    -0.006 A 
ATOM      5  C   UNL     1      10.289  30.395  23.386  1.00  0.00     0.039 A 
ATOM      6  C   UNL     1       9.561  30.906  22.273  1.00  0.00     0.072 A 
ATOM      7  C   UNL     1       8.221  30.531  22.079  1.00  0.00     0.169 A 
ATOM      8  C   UNL     1       7.583  29.669  22.987  1.00  0.00     0.162 A 
ATOM      9  C   UNL     1       8.220  29.295  24.195  1.00  0.00     0.008 A 
ATOM     10  C   UNL     1      11.697  30.588  23.517  1.00  0.00     0.132 A 
ATOM     11  C   UNL     1      12.362  30.206  24.699  1.00  0.00     0.031 A 
ENDROOT
BRANCH  11  12
ATOM     12  C   UNL     1      13.814  30.487  24.864  1.00  0.00     0.031 A 
ATOM     13  C   UNL     1      14.770  29.723  24.161  1.00  0.00     0.132 A 
ATOM     14  C   UNL     1      14.231  31.484  25.758  1.00  0.00    -0.039 A 
ATOM     15  C   UNL     1      16.163  29.994  24.311  1.00  0.00     0.039 A 
ATOM     16  C   UNL     1      15.594  31.688  25.972  1.00  0.00     0.013 A 
ATOM     17  C   UNL     1      13.232  32.284  26.559  1.00  0.00     0.045 C 
ATOM     18  C   UNL     1      16.580  30.995  25.245  1.00  0.00    -0.006 A 
ATOM     19  C   UNL     1      17.157  29.261  23.599  1.00  0.00     0.072 A 
ATOM     20  C   UNL     1      17.973  31.250  25.451  1.00  0.00     0.008 A 
ATOM     21  C   UNL     1      18.511  29.388  23.964  1.00  0.00     0.169 A 
ATOM     22  C   UNL     1      18.906  30.331  24.910  1.00  0.00     0.162 A 
BRANCH  13  23
ATOM     23  O   UNL     1      14.339  28.671  23.347  1.00  0.00    -0.507 OA
ATOM     24  H   UNL     1      14.272  27.709  23.655  1.00  0.00     0.293 HD
ENDBRANCH  13  23
BRANCH  19  25
ATOM     25  C   UNL     1      16.831  28.386  22.455  1.00  0.00     0.264 C 
ATOM     26  O   UNL     1      16.608  28.882  21.318  1.00  0.00    -0.298 OA
ENDBRANCH  19  25
BRANCH  20  27
ATOM     27  C   UNL     1      18.519  32.503  26.163  1.00  0.00     0.017 C 
ATOM     28  C   UNL     1      17.979  33.839  25.618  1.00  0.00     0.012 C 
ATOM     29  C   UNL     1      18.429  32.398  27.692  1.00  0.00     0.012 C 
ENDBRANCH  20  27
BRANCH  21  30
ATOM     30  O   UNL     1      19.511  28.598  23.383  1.00  0.00    -0.504 OA
ATOM     31  H   UNL     1      19.914  27.782  23.822  1.00  0.00     0.293 HD
ENDBRANCH  21  30
BRANCH  22  32
ATOM     32  O   UNL     1      20.254  30.325  25.285  1.00  0.00    -0.504 OA
ATOM     33  H   UNL     1      20.601  30.718  26.149  1.00  0.00     0.293 HD
ENDBRANCH  22  32
ENDBRANCH  11  12
BRANCH  10  34
ATOM     34  O   UNL     1      12.438  31.117  22.454  1.00  0.00    -0.507 OA
ATOM     35  H   UNL     1      13.160  31.818  22.564  1.00  0.00     0.293 HD
ENDBRANCH  10  34
BRANCH   9  36
ATOM     36  C   UNL     1       7.394  28.481  25.213  1.00  0.00     0.017 C 
ATOM     37  C   UNL     1       7.775  26.994  25.208  1.00  0.00     0.012 C 
ATOM     38  C   UNL     1       7.361  29.097  26.628  1.00  0.00     0.012 C 
ENDBRANCH   9  36
BRANCH   6  39
ATOM     39  C   UNL     1      10.134  31.936  21.371  1.00  0.00     0.264 C 
ATOM     40  O   UNL     1      10.450  31.660  20.183  1.00  0.00    -0.298 OA
ENDBRANCH   6  39
BRANCH   8  41
ATOM     41  O   UNL     1       6.308  29.167  22.703  1.00  0.00    -0.504 OA
ATOM     42  H   UNL     1       5.446  29.611  22.990  1.00  0.00     0.293 HD
ENDBRANCH   8  41
BRANCH   7  43
ATOM     43  O   UNL     1       7.525  31.071  20.992  1.00  0.00    -0.504 OA
ATOM     44  H   UNL     1       7.964  31.568  20.228  1.00  0.00     0.293 HD
ENDBRANCH   7  43
TORSDOF 11
ENDMDL
MODEL 2
REMARK VINA RESULT:    -8.382      0.823      8.787
REMARK INTER + INTRA:         -13.365
REMARK INTER:                 -12.352
REMARK INTRA:                  -1.013
REMARK UNBOUND:                -1.063
REMARK SMILES Cc1cc2c(C(C)C)c(O)c(O)c(C=O)c2c(O)c1-c1c(C)cc2c(C(C)C)c(O)c(O)c(C=O)c2c1O
REMARK SMILES IDX 1 1 2 2 3 3 4 4 16 5 13 6 11 7 9 8 5 9 17 10 19 11 20 12
REMARK SMILES IDX 37 13 21 14 36 15 23 16 22 17 24 18 33 19 25 20 31 21 29 22
REMARK SMILES IDX 38 23 34 25 35 26 26 27 27 28 28 29 32 30 30 32 18 34 6 36
REMARK SMILES IDX 7 37 8 38 14 39 15 40 10 41 12 43
REMARK H PARENT 38 24 32 31 30 33 18 35 10 42 12 44
REMARK Flexibility Score: inf
ROOT
ATOM      1  C   UNL     1      12.760  32.251  26.291  1.00  0.00     0.045 C 
ATOM      2  C   UNL     1      13.860  31.651  25.447  1.00  0.00    -0.039 A 
ATOM      3  C   UNL     1      15.170  32.108  25.602  1.00  0.00     0.013 A 
ATOM      4  C   UNL     1      16.244  31.576  24.859  1.00  0.00    -0.006 A 
ATOM      5  C   UNL     1      15.975  30.516  23.941  1.00  0.00     0.039 A 
ATOM      6  C   UNL     1      17.063  29.883  23.273  1.00  0.00     0.072 A 
ATOM      7  C   UNL     1      18.359  30.410  23.389  1.00  0.00     0.169 A 
ATOM      8  C   UNL     1      18.598  31.550  24.176  1.00  0.00     0.162 A 
ATOM      9  C   UNL     1      17.576  32.088  24.995  1.00  0.00     0.008 A 
ATOM     10  C   UNL     1      14.621  30.136  23.698  1.00  0.00     0.132 A 
ATOM     11  C   UNL     1      13.579  30.672  24.482  1.00  0.00     0.031 A 
ENDROOT
BRANCH  11  12
ATOM     12  C   UNL     1      12.180  30.210  24.282  1.00  0.00     0.031 A 
ATOM     13  C   UNL     1      11.470  30.575  23.117  1.00  0.00     0.132 A 
ATOM     14  C   UNL     1      11.550  29.448  25.277  1.00  0.00    -0.039 A 
ATOM     15  C   UNL     1      10.130  30.128  22.918  1.00  0.00     0.039 A 
ATOM     16  C   UNL     1      10.212  29.086  25.123  1.00  0.00     0.013 A 
ATOM     17  C   UNL     1      12.268  29.082  26.554  1.00  0.00     0.045 C 
ATOM     18  C   UNL     1       9.488  29.373  23.950  1.00  0.00    -0.006 A 
ATOM     19  C   UNL     1       9.390  30.455  21.744  1.00  0.00     0.072 A 
ATOM     20  C   UNL     1       8.127  28.957  23.796  1.00  0.00     0.008 A 
ATOM     21  C   UNL     1       8.004  30.211  21.703  1.00  0.00     0.169 A 
ATOM     22  C   UNL     1       7.375  29.519  22.735  1.00  0.00     0.162 A 
BRANCH  13  23
ATOM     23  O   UNL     1      12.082  31.414  22.180  1.00  0.00    -0.507 OA
ATOM     24  H   UNL     1      13.084  31.486  22.055  1.00  0.00     0.293 HD
ENDBRANCH  13  23
BRANCH  19  25
ATOM     25  C   UNL     1      10.026  31.017  20.535  1.00  0.00     0.264 C 
ATOM     26  O   UNL     1       9.793  32.206  20.187  1.00  0.00    -0.298 OA
ENDBRANCH  19  25
BRANCH  20  27
ATOM     27  C   UNL     1       7.455  27.881  24.670  1.00  0.00     0.017 C 
ATOM     28  C   UNL     1       8.227  26.550  24.758  1.00  0.00     0.012 C 
ATOM     29  C   UNL     1       7.030  28.419  26.044  1.00  0.00     0.012 C 
ENDBRANCH  20  27
BRANCH  21  30
ATOM     30  O   UNL     1       7.211  30.628  20.627  1.00  0.00    -0.504 OA
ATOM     31  H   UNL     1       6.820  30.002  19.936  1.00  0.00     0.293 HD
ENDBRANCH  21  30
BRANCH  22  32
ATOM     32  O   UNL     1       5.981  29.404  22.662  1.00  0.00    -0.504 OA
ATOM     33  H   UNL     1       5.357  30.188  22.536  1.00  0.00     0.293 HD
ENDBRANCH  22  32
ENDBRANCH  11  12
BRANCH  10  34
ATOM     34  O   UNL     1      14.310  29.265  22.649  1.00  0.00    -0.507 OA
ATOM     35  H   UNL     1      14.561  29.433  21.682  1.00  0.00     0.293 HD
ENDBRANCH  10  34
BRANCH   9  36
ATOM     36  C   UNL     1      17.960  33.237  25.951  1.00  0.00     0.017 C 
ATOM     37  C   UNL     1      17.214  34.537  25.620  1.00  0.00     0.012 C 
ATOM     38  C   UNL     1      17.890  32.857  27.445  1.00  0.00     0.012 C 
ENDBRANCH   9  36
BRANCH   6  39
ATOM     39  C   UNL     1      16.897  28.594  22.556  1.00  0.00     0.264 C 
ATOM     40  O   UNL     1      16.955  28.535  21.299  1.00  0.00    -0.298 OA
ENDBRANCH   6  39
BRANCH   8  41
ATOM     41  O   UNL     1      19.854  32.169  24.156  1.00  0.00    -0.504 OA
ATOM     42  H   UNL     1      20.139  32.896  24.798  1.00  0.00     0.293 HD
ENDBRANCH   8  41
BRANCH   7  43
ATOM     43  O   UNL     1      19.412  29.751  22.743  1.00  0.00    -0.504 OA
ATOM     44  H   UNL     1      20.298  29.535  23.181  1.00  0.00     0.293 HD
ENDBRANCH   7  43
TORSDOF 11
ENDMDL
MODEL 3
REMARK VINA RESULT:    -8.130      1.891      8.946
REMARK INTER + INTRA:         -12.996
REMARK INTER:                 -11.828
REMARK INTRA:                  -1.168
REMARK UNBOUND:                -1.063
REMARK SMILES Cc1cc2c(C(C)C)c(O)c(O)c(C=O)c2c(O)c1-c1c(C)cc2c(C(C)C)c(O)c(O)c(C=O)c2c1O
REMARK SMILES IDX 1 1 2 2 3 3 4 4 16 5 13 6 11 7 9 8 5 9 17 10 19 11 20 12
REMARK SMILES IDX 37 13 21 14 36 15 23 16 22 17 24 18 33 19 25 20 31 21 29 22
REMARK SMILES IDX 38 23 34 25 35 26 26 27 27 28 28 29 32 30 30 32 18 34 6 36
REMARK SMILES IDX 7 37 8 38 14 39 15 40 10 41 12 43
REMARK H PARENT 38 24 32 31 30 33 18 35 10 42 12 44
REMARK Flexibility Score: inf
ROOT
ATOM      1  C   UNL     1      12.066  32.212  25.545  1.00  0.00     0.045 C 
ATOM      2  C   UNL     1      13.151  31.764  24.594  1.00  0.00    -0.039 A 
ATOM      3  C   UNL     1      14.487  32.012  24.914  1.00  0.00     0.013 A 
ATOM      4  C   UNL     1      15.548  31.601  24.079  1.00  0.00    -0.006 A 
ATOM      5  C   UNL     1      15.233  30.885  22.884  1.00  0.00     0.039 A 
ATOM      6  C   UNL     1      16.293  30.356  22.093  1.00  0.00     0.072 A 
ATOM      7  C   UNL     1      17.625  30.683  22.395  1.00  0.00     0.169 A 
ATOM      8  C   UNL     1      17.925  31.515  23.487  1.00  0.00     0.162 A 
ATOM      9  C   UNL     1      16.913  31.904  24.397  1.00  0.00     0.008 A 
ATOM     10  C   UNL     1      13.865  30.741  22.502  1.00  0.00     0.132 A 
ATOM     11  C   UNL     1      12.835  31.140  23.378  1.00  0.00     0.031 A 
ENDROOT
BRANCH  11  12
ATOM     12  C   UNL     1      11.412  30.910  23.011  1.00  0.00     0.031 A 
ATOM     13  C   UNL     1      10.718  29.793  23.522  1.00  0.00     0.132 A 
ATOM     14  C   UNL     1      10.776  31.784  22.117  1.00  0.00    -0.039 A 
ATOM     15  C   UNL     1       9.351  29.573  23.178  1.00  0.00     0.039 A 
ATOM     16  C   UNL     1       9.468  31.519  21.711  1.00  0.00     0.013 A 
ATOM     17  C   UNL     1      11.508  32.960  21.518  1.00  0.00     0.045 C 
ATOM     18  C   UNL     1       8.718  30.454  22.245  1.00  0.00    -0.006 A 
ATOM     19  C   UNL     1       8.609  28.469  23.693  1.00  0.00     0.072 A 
ATOM     20  C   UNL     1       7.363  30.225  21.845  1.00  0.00     0.008 A 
ATOM     21  C   UNL     1       7.356  28.151  23.136  1.00  0.00     0.169 A 
ATOM     22  C   UNL     1       6.766  28.987  22.191  1.00  0.00     0.162 A 
BRANCH  13  23
ATOM     23  O   UNL     1      11.397  28.881  24.336  1.00  0.00    -0.507 OA
ATOM     24  H   UNL     1      11.428  27.884  24.165  1.00  0.00     0.293 HD
ENDBRANCH  13  23
BRANCH  19  25
ATOM     25  C   UNL     1       9.087  27.652  24.827  1.00  0.00     0.264 C 
ATOM     26  O   UNL     1       8.925  26.402  24.823  1.00  0.00    -0.298 OA
ENDBRANCH  19  25
BRANCH  20  27
ATOM     27  C   UNL     1       6.492  31.272  21.125  1.00  0.00     0.017 C 
ATOM     28  C   UNL     1       6.337  31.047  19.608  1.00  0.00     0.012 C 
ATOM     29  C   UNL     1       5.153  31.514  21.835  1.00  0.00     0.012 C 
ENDBRANCH  20  27
BRANCH  21  30
ATOM     30  O   UNL     1       6.646  27.006  23.519  1.00  0.00    -0.504 OA
ATOM     31  H   UNL     1       6.497  26.206  22.920  1.00  0.00     0.293 HD
ENDBRANCH  21  30
BRANCH  22  32
ATOM     32  O   UNL     1       5.567  28.547  21.618  1.00  0.00    -0.504 OA
ATOM     33  H   UNL     1       5.348  28.632  20.635  1.00  0.00     0.293 HD
ENDBRANCH  22  32
ENDBRANCH  11  12
BRANCH  10  34
ATOM     34  O   UNL     1      13.535  30.247  21.236  1.00  0.00    -0.507 OA
ATOM     35  H   UNL     1      12.597  29.985  20.960  1.00  0.00     0.293 HD
ENDBRANCH  10  34
BRANCH   9  36
ATOM     36  C   UNL     1      17.347  32.681  25.657  1.00  0.00     0.017 C 
ATOM     37  C   UNL     1      16.944  34.160  25.592  1.00  0.00     0.012 C 
ATOM     38  C   UNL     1      16.947  31.998  26.982  1.00  0.00     0.012 C 
ENDBRANCH   9  36
BRANCH   6  39
ATOM     39  C   UNL     1      16.047  29.353  21.026  1.00  0.00     0.264 C 
ATOM     40  O   UNL     1      15.794  28.151  21.306  1.00  0.00    -0.298 OA
ENDBRANCH   6  39
BRANCH   8  41
ATOM     41  O   UNL     1      19.233  31.973  23.684  1.00  0.00    -0.504 OA
ATOM     42  H   UNL     1      19.759  31.839  24.537  1.00  0.00     0.293 HD
ENDBRANCH   8  41
BRANCH   7  43
ATOM     43  O   UNL     1      18.646  30.126  21.615  1.00  0.00    -0.504 OA
ATOM     44  H   UNL     1      18.514  29.347  20.983  1.00  0.00     0.293 HD
ENDBRANCH   7  43
TORSDOF 11
ENDMDL
MODEL 4
REMARK VINA RESULT:    -8.075      1.795      3.166
REMARK INTER + INTRA:         -12.915
REMARK INTER:                 -11.799
REMARK INTRA:                  -1.117
REMARK UNBOUND:                -1.063
REMARK SMILES Cc1cc2c(C(C)C)c(O)c(O)c(C=O)c2c(O)c1-c1c(C)cc2c(C(C)C)c(O)c(O)c(C=O)c2c1O
REMARK SMILES IDX 1 1 2 2 3 3 4 4 16 5 13 6 11 7 9 8 5 9 17 10 19 11 20 12
REMARK SMILES IDX 37 13 21 14 36 15 23 16 22 17 24 18 33 19 25 20 31 21 29 22
REMARK SMILES IDX 38 23 34 25 35 26 26 27 27 28 28 29 32 30 30 32 18 34 6 36
REMARK SMILES IDX 7 37 8 38 14 39 15 40 10 41 12 43
REMARK H PARENT 38 24 32 31 30 33 18 35 10 42 12 44
REMARK Flexibility Score: inf
ROOT
ATOM      1  C   UNL     1      12.880  29.012  26.775  1.00  0.00     0.045 C 
ATOM      2  C   UNL     1      12.283  29.723  25.583  1.00  0.00    -0.039 A 
ATOM      3  C   UNL     1      10.898  29.719  25.405  1.00  0.00     0.013 A 
ATOM      4  C   UNL     1      10.277  30.380  24.324  1.00  0.00    -0.006 A 
ATOM      5  C   UNL     1      11.101  31.097  23.404  1.00  0.00     0.039 A 
ATOM      6  C   UNL     1      10.485  31.872  22.380  1.00  0.00     0.072 A 
ATOM      7  C   UNL     1       9.098  31.790  22.177  1.00  0.00     0.169 A 
ATOM      8  C   UNL     1       8.305  30.963  22.991  1.00  0.00     0.162 A 
ATOM      9  C   UNL     1       8.858  30.327  24.128  1.00  0.00     0.008 A 
ATOM     10  C   UNL     1      12.520  30.998  23.521  1.00  0.00     0.132 A 
ATOM     11  C   UNL     1      13.100  30.351  24.631  1.00  0.00     0.031 A 
ENDROOT
BRANCH  11  12
ATOM     12  C   UNL     1      14.579  30.324  24.791  1.00  0.00     0.031 A 
ATOM     13  C   UNL     1      15.217  31.237  25.658  1.00  0.00     0.132 A 
ATOM     14  C   UNL     1      15.343  29.418  24.041  1.00  0.00    -0.039 A 
ATOM     15  C   UNL     1      16.634  31.210  25.820  1.00  0.00     0.039 A 
ATOM     16  C   UNL     1      16.734  29.451  24.132  1.00  0.00     0.013 A 
ATOM     17  C   UNL     1      14.691  28.462  23.071  1.00  0.00     0.045 C 
ATOM     18  C   UNL     1      17.406  30.300  25.031  1.00  0.00    -0.006 A 
ATOM     19  C   UNL     1      17.312  32.099  26.705  1.00  0.00     0.072 A 
ATOM     20  C   UNL     1      18.834  30.288  25.138  1.00  0.00     0.008 A 
ATOM     21  C   UNL     1      18.714  32.208  26.644  1.00  0.00     0.169 A 
ATOM     22  C   UNL     1      19.458  31.352  25.836  1.00  0.00     0.162 A 
BRANCH  13  23
ATOM     23  O   UNL     1      14.448  32.196  26.325  1.00  0.00    -0.507 OA
ATOM     24  H   UNL     1      14.444  33.181  26.091  1.00  0.00     0.293 HD
ENDBRANCH  13  23
BRANCH  19  25
ATOM     25  C   UNL     1      16.602  32.900  27.723  1.00  0.00     0.264 C 
ATOM     26  O   UNL     1      16.972  32.871  28.927  1.00  0.00    -0.298 OA
ENDBRANCH  19  25
BRANCH  20  27
ATOM     27  C   UNL     1      19.725  29.151  24.602  1.00  0.00     0.017 C 
ATOM     28  C   UNL     1      20.392  29.443  23.244  1.00  0.00     0.012 C 
ATOM     29  C   UNL     1      20.713  28.631  25.655  1.00  0.00     0.012 C 
ENDBRANCH  20  27
BRANCH  21  30
ATOM     30  O   UNL     1      19.416  33.155  27.400  1.00  0.00    -0.504 OA
ATOM     31  H   UNL     1      20.344  33.485  27.174  1.00  0.00     0.293 HD
ENDBRANCH  21  30
BRANCH  22  32
ATOM     32  O   UNL     1      20.835  31.591  25.760  1.00  0.00    -0.504 OA
ATOM     33  H   UNL     1      21.439  31.672  26.567  1.00  0.00     0.293 HD
ENDBRANCH  22  32
ENDBRANCH  11  12
BRANCH  10  34
ATOM     34  O   UNL     1      13.348  31.500  22.511  1.00  0.00    -0.507 OA
ATOM     35  H   UNL     1      13.913  30.919  21.904  1.00  0.00     0.293 HD
ENDBRANCH  10  34
BRANCH   9  36
ATOM     36  C   UNL     1       7.891  29.569  25.062  1.00  0.00     0.017 C 
ATOM     37  C   UNL     1       7.933  28.053  24.828  1.00  0.00     0.012 C 
ATOM     38  C   UNL     1       8.022  29.961  26.549  1.00  0.00     0.012 C 
ENDBRANCH   9  36
BRANCH   6  39
ATOM     39  C   UNL     1      11.246  32.875  21.593  1.00  0.00     0.264 C 
ATOM     40  O   UNL     1      10.974  34.103  21.665  1.00  0.00    -0.298 OA
ENDBRANCH   6  39
BRANCH   8  41
ATOM     41  O   UNL     1       6.956  30.755  22.681  1.00  0.00    -0.504 OA
ATOM     42  H   UNL     1       6.519  29.845  22.629  1.00  0.00     0.293 HD
ENDBRANCH   8  41
BRANCH   7  43
ATOM     43  O   UNL     1       8.518  32.584  21.180  1.00  0.00    -0.504 OA
ATOM     44  H   UNL     1       7.529  32.792  21.125  1.00  0.00     0.293 HD
ENDBRANCH   7  43
TORSDOF 11
ENDMDL
MODEL 5
REMARK VINA RESULT:    -8.041      1.604      3.283
REMARK INTER + INTRA:         -12.865
REMARK INTER:                 -11.866
REMARK INTRA:                  -1.000
REMARK UNBOUND:                -1.063
REMARK SMILES Cc1cc2c(C(C)C)c(O)c(O)c(C=O)c2c(O)c1-c1c(C)cc2c(C(C)C)c(O)c(O)c(C=O)c2c1O
REMARK SMILES IDX 1 1 2 2 3 3 4 4 16 5 13 6 11 7 9 8 5 9 17 10 19 11 20 12
REMARK SMILES IDX 37 13 21 14 36 15 23 16 22 17 24 18 33 19 25 20 31 21 29 22
REMARK SMILES IDX 38 23 34 25 35 26 26 27 27 28 28 29 32 30 30 32 18 34 6 36
REMARK SMILES IDX 7 37 8 38 14 39 15 40 10 41 12 43
REMARK H PARENT 38 24 32 31 30 33 18 35 10 42 12 44
REMARK Flexibility Score: inf
ROOT
ATOM      1  C   UNL     1      11.904  32.075  21.622  1.00  0.00     0.045 C 
ATOM      2  C   UNL     1      10.984  31.113  22.337  1.00  0.00    -0.039 A 
ATOM      3  C   UNL     1       9.693  30.906  21.848  1.00  0.00     0.013 A 
ATOM      4  C   UNL     1       8.793  30.007  22.457  1.00  0.00    -0.006 A 
ATOM      5  C   UNL     1       9.239  29.269  23.596  1.00  0.00     0.039 A 
ATOM      6  C   UNL     1       8.390  28.269  24.150  1.00  0.00     0.072 A 
ATOM      7  C   UNL     1       7.070  28.133  23.688  1.00  0.00     0.169 A 
ATOM      8  C   UNL     1       6.584  28.966  22.665  1.00  0.00     0.162 A 
ATOM      9  C   UNL     1       7.455  29.840  21.972  1.00  0.00     0.008 A 
ATOM     10  C   UNL     1      10.513  29.573  24.164  1.00  0.00     0.132 A 
ATOM     11  C   UNL     1      11.393  30.456  23.508  1.00  0.00     0.031 A 
ENDROOT
BRANCH  11  12
ATOM     12  C   UNL     1      12.752  30.704  24.060  1.00  0.00     0.031 A 
ATOM     13  C   UNL     1      13.853  29.947  23.604  1.00  0.00     0.132 A 
ATOM     14  C   UNL     1      12.928  31.661  25.070  1.00  0.00    -0.039 A 
ATOM     15  C   UNL     1      15.159  30.186  24.125  1.00  0.00     0.039 A 
ATOM     16  C   UNL     1      14.188  31.831  25.643  1.00  0.00     0.013 A 
ATOM     17  C   UNL     1      11.761  32.451  25.611  1.00  0.00     0.045 C 
ATOM     18  C   UNL     1      15.325  31.145  25.174  1.00  0.00    -0.006 A 
ATOM     19  C   UNL     1      16.299  29.459  23.672  1.00  0.00     0.072 A 
ATOM     20  C   UNL     1      16.617  31.366  25.749  1.00  0.00     0.008 A 
ATOM     21  C   UNL     1      17.511  29.548  24.384  1.00  0.00     0.169 A 
ATOM     22  C   UNL     1      17.650  30.449  25.437  1.00  0.00     0.162 A 
BRANCH  13  23
ATOM     23  O   UNL     1      13.641  28.932  22.665  1.00  0.00    -0.507 OA
ATOM     24  H   UNL     1      13.054  28.124  22.828  1.00  0.00     0.293 HD
ENDBRANCH  13  23
BRANCH  19  25
ATOM     25  C   UNL     1      16.278  28.631  22.449  1.00  0.00     0.264 C 
ATOM     26  O   UNL     1      16.373  29.170  21.314  1.00  0.00    -0.298 OA
ENDBRANCH  19  25
BRANCH  20  27
ATOM     27  C   UNL     1      16.968  32.582  26.627  1.00  0.00     0.017 C 
ATOM     28  C   UNL     1      17.398  32.234  28.065  1.00  0.00     0.012 C 
ATOM     29  C   UNL     1      17.933  33.553  25.931  1.00  0.00     0.012 C 
ENDBRANCH  20  27
BRANCH  21  30
ATOM     30  O   UNL     1      18.621  28.760  24.056  1.00  0.00    -0.504 OA
ATOM     31  H   UNL     1      19.197  28.282  24.736  1.00  0.00     0.293 HD
ENDBRANCH  21  30
BRANCH  22  32
ATOM     32  O   UNL     1      18.853  30.404  26.153  1.00  0.00    -0.504 OA
ATOM     33  H   UNL     1      19.431  31.212  26.335  1.00  0.00     0.293 HD
ENDBRANCH  22  32
ENDBRANCH  11  12
BRANCH  10  34
ATOM     34  O   UNL     1      10.880  29.032  25.401  1.00  0.00    -0.507 OA
ATOM     35  H   UNL     1      11.461  29.513  26.077  1.00  0.00     0.293 HD
ENDBRANCH  10  34
BRANCH   9  36
ATOM     36  C   UNL     1       6.883  30.601  20.757  1.00  0.00     0.017 C 
ATOM     37  C   UNL     1       6.136  31.876  21.173  1.00  0.00     0.012 C 
ATOM     38  C   UNL     1       7.908  30.836  19.627  1.00  0.00     0.012 C 
ENDBRANCH   9  36
BRANCH   6  39
ATOM     39  C   UNL     1       8.894  27.264  25.120  1.00  0.00     0.264 C 
ATOM     40  O   UNL     1       8.720  26.031  24.931  1.00  0.00    -0.298 OA
ENDBRANCH   6  39
BRANCH   8  41
ATOM     41  O   UNL     1       5.226  28.942  22.324  1.00  0.00    -0.504 OA
ATOM     42  H   UNL     1       4.493  29.358  22.883  1.00  0.00     0.293 HD
ENDBRANCH   8  41
BRANCH   7  43
ATOM     43  O   UNL     1       6.268  27.123  24.232  1.00  0.00    -0.504 OA
ATOM     44  H   UNL     1       6.624  26.236  24.565  1.00  0.00     0.293 HD
ENDBRANCH   7  43
TORSDOF 11
ENDMDL
MODEL 6
REMARK VINA RESULT:    -7.729      2.142      4.397
REMARK INTER + INTRA:         -12.407
REMARK INTER:                 -10.994
REMARK INTRA:                  -1.413
REMARK UNBOUND:                -1.063
REMARK SMILES Cc1cc2c(C(C)C)c(O)c(O)c(C=O)c2c(O)c1-c1c(C)cc2c(C(C)C)c(O)c(O)c(C=O)c2c1O
REMARK SMILES IDX 1 1 2 2 3 3 4 4 16 5 13 6 11 7 9 8 5 9 17 10 19 11 20 12
REMARK SMILES IDX 37 13 21 14 36 15 23 16 22 17 24 18 33 19 25 20 31 21 29 22
REMARK SMILES IDX 38 23 34 25 35 26 26 27 27 28 28 29 32 30 30 32 18 34 6 36
REMARK SMILES IDX 7 37 8 38 14 39 15 40 10 41 12 43
REMARK H PARENT 38 24 32 31 30 33 18 35 10 42 12 44
REMARK Flexibility Score: inf
ROOT
ATOM      1  C   UNL     1      14.490  31.194  20.793  1.00  0.00     0.045 C 
ATOM      2  C   UNL     1      13.412  30.931  21.818  1.00  0.00    -0.039 A 
ATOM      3  C   UNL     1      12.072  31.087  21.458  1.00  0.00     0.013 A 
ATOM      4  C   UNL     1      11.017  30.838  22.362  1.00  0.00    -0.006 A 
ATOM      5  C   UNL     1      11.344  30.386  23.677  1.00  0.00     0.039 A 
ATOM      6  C   UNL     1      10.292  30.012  24.562  1.00  0.00     0.072 A 
ATOM      7  C   UNL     1       8.955  30.249  24.204  1.00  0.00     0.169 A 
ATOM      8  C   UNL     1       8.642  30.837  22.966  1.00  0.00     0.162 A 
ATOM      9  C   UNL     1       9.648  31.048  21.993  1.00  0.00     0.008 A 
ATOM     10  C   UNL     1      12.713  30.346  24.076  1.00  0.00     0.132 A 
ATOM     11  C   UNL     1      13.737  30.574  23.135  1.00  0.00     0.031 A 
ENDROOT
BRANCH  11  12
ATOM     12  C   UNL     1      15.163  30.447  23.537  1.00  0.00     0.031 A 
ATOM     13  C   UNL     1      15.812  31.510  24.201  1.00  0.00     0.132 A 
ATOM     14  C   UNL     1      15.876  29.283  23.212  1.00  0.00    -0.039 A 
ATOM     15  C   UNL     1      17.179  31.390  24.594  1.00  0.00     0.039 A 
ATOM     16  C   UNL     1      17.235  29.202  23.517  1.00  0.00     0.013 A 
ATOM     17  C   UNL     1      15.221  28.149  22.460  1.00  0.00     0.045 C 
ATOM     18  C   UNL     1      17.904  30.211  24.235  1.00  0.00    -0.006 A 
ATOM     19  C   UNL     1      17.860  32.433  25.288  1.00  0.00     0.072 A 
ATOM     20  C   UNL     1      19.289  30.088  24.574  1.00  0.00     0.008 A 
ATOM     21  C   UNL     1      19.260  32.376  25.430  1.00  0.00     0.169 A 
ATOM     22  C   UNL     1      19.968  31.244  25.033  1.00  0.00     0.162 A 
BRANCH  13  23
ATOM     23  O   UNL     1      15.112  32.699  24.431  1.00  0.00    -0.507 OA
ATOM     24  H   UNL     1      14.103  32.760  24.487  1.00  0.00     0.293 HD
ENDBRANCH  13  23
BRANCH  19  25
ATOM     25  C   UNL     1      17.151  33.572  25.905  1.00  0.00     0.264 C 
ATOM     26  O   UNL     1      17.263  34.729  25.419  1.00  0.00    -0.298 OA
ENDBRANCH  19  25
BRANCH  20  27
ATOM     27  C   UNL     1      20.066  28.758  24.537  1.00  0.00     0.017 C 
ATOM     28  C   UNL     1      20.901  28.535  23.261  1.00  0.00     0.012 C 
ATOM     29  C   UNL     1      20.862  28.505  25.826  1.00  0.00     0.012 C 
ENDBRANCH  20  27
BRANCH  21  30
ATOM     30  O   UNL     1      19.990  33.431  25.990  1.00  0.00    -0.504 OA
ATOM     31  H   UNL     1      20.980  33.575  25.844  1.00  0.00     0.293 HD
ENDBRANCH  21  30
BRANCH  22  32
ATOM     32  O   UNL     1      21.363  31.308  25.120  1.00  0.00    -0.504 OA
ATOM     33  H   UNL     1      21.951  30.520  25.355  1.00  0.00     0.293 HD
ENDBRANCH  22  32
ENDBRANCH  11  12
BRANCH  10  34
ATOM     34  O   UNL     1      13.051  30.126  25.416  1.00  0.00    -0.507 OA
ATOM     35  H   UNL     1      13.638  30.747  25.959  1.00  0.00     0.293 HD
ENDBRANCH  10  34
BRANCH   9  36
ATOM     36  C   UNL     1       9.201  31.544  20.601  1.00  0.00     0.017 C 
ATOM     37  C   UNL     1       9.320  33.069  20.467  1.00  0.00     0.012 C 
ATOM     38  C   UNL     1       9.845  30.776  19.427  1.00  0.00     0.012 C 
ENDBRANCH   9  36
BRANCH   6  39
ATOM     39  C   UNL     1      10.554  29.253  25.810  1.00  0.00     0.264 C 
ATOM     40  O   UNL     1      10.506  29.814  26.938  1.00  0.00    -0.298 OA
ENDBRANCH   6  39
BRANCH   8  41
ATOM     41  O   UNL     1       7.326  31.223  22.683  1.00  0.00    -0.504 OA
ATOM     42  H   UNL     1       6.778  30.853  21.918  1.00  0.00     0.293 HD
ENDBRANCH   8  41
BRANCH   7  43
ATOM     43  O   UNL     1       7.943  29.846  25.083  1.00  0.00    -0.504 OA
ATOM     44  H   UNL     1       7.736  28.881  25.304  1.00  0.00     0.293 HD
ENDBRANCH   7  43
TORSDOF 11
ENDMDL
MODEL 7
REMARK VINA RESULT:    -7.689      2.054      9.103
REMARK INTER + INTRA:         -12.348
REMARK INTER:                 -10.834
REMARK INTRA:                  -1.515
REMARK UNBOUND:                -1.063
REMARK SMILES Cc1cc2c(C(C)C)c(O)c(O)c(C=O)c2c(O)c1-c1c(C)cc2c(C(C)C)c(O)c(O)c(C=O)c2c1O
REMARK SMILES IDX 1 1 2 2 3 3 4 4 16 5 13 6 11 7 9 8 5 9 17 10 19 11 20 12
REMARK SMILES IDX 37 13 21 14 36 15 23 16 22 17 24 18 33 19 25 20 31 21 29 22
REMARK SMILES IDX 38 23 34 25 35 26 26 27 27 28 28 29 32 30 30 32 18 34 6 36
REMARK SMILES IDX 7 37 8 38 14 39 15 40 10 41 12 43
REMARK H PARENT 38 24 32 31 30 33 18 35 10 42 12 44
REMARK Flexibility Score: inf
ROOT
ATOM      1  C   UNL     1      13.496  31.957  24.122  1.00  0.00     0.045 C 
ATOM      2  C   UNL     1      14.375  30.923  23.458  1.00  0.00    -0.039 A 
ATOM      3  C   UNL     1      15.718  30.827  23.826  1.00  0.00     0.013 A 
ATOM      4  C   UNL     1      16.586  29.870  23.259  1.00  0.00    -0.006 A 
ATOM      5  C   UNL     1      16.054  28.958  22.297  1.00  0.00     0.039 A 
ATOM      6  C   UNL     1      16.882  27.908  21.806  1.00  0.00     0.072 A 
ATOM      7  C   UNL     1      18.248  27.879  22.134  1.00  0.00     0.169 A 
ATOM      8  C   UNL     1      18.804  28.869  22.962  1.00  0.00     0.162 A 
ATOM      9  C   UNL     1      17.974  29.814  23.612  1.00  0.00     0.008 A 
ATOM     10  C   UNL     1      14.716  29.138  21.836  1.00  0.00     0.132 A 
ATOM     11  C   UNL     1      13.873  30.087  22.450  1.00  0.00     0.031 A 
ENDROOT
BRANCH  11  12
ATOM     12  C   UNL     1      12.453  30.211  22.022  1.00  0.00     0.031 A 
ATOM     13  C   UNL     1      11.429  29.595  22.772  1.00  0.00     0.132 A 
ATOM     14  C   UNL     1      12.141  30.906  20.844  1.00  0.00    -0.039 A 
ATOM     15  C   UNL     1      10.065  29.718  22.369  1.00  0.00     0.039 A 
ATOM     16  C   UNL     1      10.819  30.951  20.403  1.00  0.00     0.013 A 
ATOM     17  C   UNL     1      13.221  31.535  19.998  1.00  0.00     0.045 C 
ATOM     18  C   UNL     1       9.759  30.406  21.152  1.00  0.00    -0.006 A 
ATOM     19  C   UNL     1       9.001  29.130  23.113  1.00  0.00     0.072 A 
ATOM     20  C   UNL     1       8.404  30.499  20.701  1.00  0.00     0.008 A 
ATOM     21  C   UNL     1       7.712  29.061  22.551  1.00  0.00     0.169 A 
ATOM     22  C   UNL     1       7.431  29.691  21.340  1.00  0.00     0.162 A 
BRANCH  13  23
ATOM     23  O   UNL     1      11.768  28.827  23.890  1.00  0.00    -0.507 OA
ATOM     24  H   UNL     1      12.662  28.880  24.362  1.00  0.00     0.293 HD
ENDBRANCH  13  23
BRANCH  19  25
ATOM     25  C   UNL     1       9.182  28.612  24.484  1.00  0.00     0.264 C 
ATOM     26  O   UNL     1       9.081  27.378  24.717  1.00  0.00    -0.298 OA
ENDBRANCH  19  25
BRANCH  20  27
ATOM     27  C   UNL     1       7.929  31.479  19.610  1.00  0.00     0.017 C 
ATOM     28  C   UNL     1       8.023  32.967  19.997  1.00  0.00     0.012 C 
ATOM     29  C   UNL     1       8.546  31.176  18.237  1.00  0.00     0.012 C 
ENDBRANCH  20  27
BRANCH  21  30
ATOM     30  O   UNL     1       6.663  28.384  23.185  1.00  0.00    -0.504 OA
ATOM     31  H   UNL     1       6.472  28.437  24.176  1.00  0.00     0.293 HD
ENDBRANCH  21  30
BRANCH  22  32
ATOM     32  O   UNL     1       6.154  29.492  20.805  1.00  0.00    -0.504 OA
ATOM     33  H   UNL     1       5.416  28.989  21.278  1.00  0.00     0.293 HD
ENDBRANCH  22  32
ENDBRANCH  11  12
BRANCH  10  34
ATOM     34  O   UNL     1      14.242  28.407  20.741  1.00  0.00    -0.507 OA
ATOM     35  H   UNL     1      14.525  28.579  19.784  1.00  0.00     0.293 HD
ENDBRANCH  10  34
BRANCH   9  36
ATOM     36  C   UNL     1      18.638  30.764  24.630  1.00  0.00     0.017 C 
ATOM     37  C   UNL     1      18.615  32.225  24.158  1.00  0.00     0.012 C 
ATOM     38  C   UNL     1      18.133  30.583  26.077  1.00  0.00     0.012 C 
ENDBRANCH   9  36
BRANCH   6  39
ATOM     39  C   UNL     1      16.322  26.755  21.057  1.00  0.00     0.264 C 
ATOM     40  O   UNL     1      16.499  26.636  19.815  1.00  0.00    -0.298 OA
ENDBRANCH   6  39
BRANCH   8  41
ATOM     41  O   UNL     1      20.190  28.933  23.150  1.00  0.00    -0.504 OA
ATOM     42  H   UNL     1      20.852  28.312  22.704  1.00  0.00     0.293 HD
ENDBRANCH   8  41
BRANCH   7  43
ATOM     43  O   UNL     1      19.030  26.820  21.658  1.00  0.00    -0.504 OA
ATOM     44  H   UNL     1      19.293  26.016  22.213  1.00  0.00     0.293 HD
ENDBRANCH   7  43
TORSDOF 11
ENDMDL
MODEL 8
REMARK VINA RESULT:    -7.584      1.532      2.023
REMARK INTER + INTRA:         -12.194
REMARK INTER:                 -10.980
REMARK INTRA:                  -1.215
REMARK UNBOUND:                -1.063
REMARK SMILES Cc1cc2c(C(C)C)c(O)c(O)c(C=O)c2c(O)c1-c1c(C)cc2c(C(C)C)c(O)c(O)c(C=O)c2c1O
REMARK SMILES IDX 1 1 2 2 3 3 4 4 16 5 13 6 11 7 9 8 5 9 17 10 19 11 20 12
REMARK SMILES IDX 37 13 21 14 36 15 23 16 22 17 24 18 33 19 25 20 31 21 29 22
REMARK SMILES IDX 38 23 34 25 35 26 26 27 27 28 28 29 32 30 30 32 18 34 6 36
REMARK SMILES IDX 7 37 8 38 14 39 15 40 10 41 12 43
REMARK H PARENT 38 24 32 31 30 33 18 35 10 42 12 44
REMARK Flexibility Score: inf
ROOT
ATOM      1  C   UNL     1      13.506  28.936  26.044  1.00  0.00     0.045 C 
ATOM      2  C   UNL     1      12.756  29.693  24.973  1.00  0.00    -0.039 A 
ATOM      3  C   UNL     1      11.361  29.705  24.990  1.00  0.00     0.013 A 
ATOM      4  C   UNL     1      10.602  30.408  24.030  1.00  0.00    -0.006 A 
ATOM      5  C   UNL     1      11.298  31.152  23.029  1.00  0.00     0.039 A 
ATOM      6  C   UNL     1      10.554  31.966  22.128  1.00  0.00     0.072 A 
ATOM      7  C   UNL     1       9.151  31.901  22.118  1.00  0.00     0.169 A 
ATOM      8  C   UNL     1       8.470  31.051  23.007  1.00  0.00     0.162 A 
ATOM      9  C   UNL     1       9.170  30.372  24.033  1.00  0.00     0.008 A 
ATOM     10  C   UNL     1      12.718  31.038  22.942  1.00  0.00     0.132 A 
ATOM     11  C   UNL     1      13.440  30.349  23.938  1.00  0.00     0.031 A 
ENDROOT
BRANCH  11  12
ATOM     12  C   UNL     1      14.926  30.306  23.888  1.00  0.00     0.031 A 
ATOM     13  C   UNL     1      15.583  29.353  23.081  1.00  0.00     0.132 A 
ATOM     14  C   UNL     1      15.674  31.187  24.685  1.00  0.00    -0.039 A 
ATOM     15  C   UNL     1      17.009  29.313  23.026  1.00  0.00     0.039 A 
ATOM     16  C   UNL     1      17.065  31.088  24.699  1.00  0.00     0.013 A 
ATOM     17  C   UNL     1      14.997  32.185  25.594  1.00  0.00     0.045 C 
ATOM     18  C   UNL     1      17.762  30.197  23.861  1.00  0.00    -0.006 A 
ATOM     19  C   UNL     1      17.708  28.381  22.203  1.00  0.00     0.072 A 
ATOM     20  C   UNL     1      19.192  30.142  23.861  1.00  0.00     0.008 A 
ATOM     21  C   UNL     1      19.095  28.209  22.370  1.00  0.00     0.169 A 
ATOM     22  C   UNL     1      19.816  29.041  23.222  1.00  0.00     0.162 A 
BRANCH  13  23
ATOM     23  O   UNL     1      14.822  28.422  22.368  1.00  0.00    -0.507 OA
ATOM     24  H   UNL     1      14.502  28.561  21.418  1.00  0.00     0.293 HD
ENDBRANCH  13  23
BRANCH  19  25
ATOM     25  C   UNL     1      17.039  27.600  21.143  1.00  0.00     0.264 C 
ATOM     26  O   UNL     1      17.429  27.686  19.948  1.00  0.00    -0.298 OA
ENDBRANCH  19  25
BRANCH  20  27
ATOM     27  C   UNL     1      20.093  31.244  24.451  1.00  0.00     0.017 C 
ATOM     28  C   UNL     1      20.590  30.970  25.884  1.00  0.00     0.012 C 
ATOM     29  C   UNL     1      21.220  31.658  23.494  1.00  0.00     0.012 C 
ENDBRANCH  20  27
BRANCH  21  30
ATOM     30  O   UNL     1      19.806  27.221  21.678  1.00  0.00    -0.504 OA
ATOM     31  H   UNL     1      20.698  26.852  21.977  1.00  0.00     0.293 HD
ENDBRANCH  21  30
BRANCH  22  32
ATOM     32  O   UNL     1      21.171  28.740  23.404  1.00  0.00    -0.504 OA
ATOM     33  H   UNL     1      21.864  29.414  23.700  1.00  0.00     0.293 HD
ENDBRANCH  22  32
ENDBRANCH  11  12
BRANCH  10  34
ATOM     34  O   UNL     1      13.403  31.570  21.844  1.00  0.00    -0.507 OA
ATOM     35  H   UNL     1      14.099  32.302  21.914  1.00  0.00     0.293 HD
ENDBRANCH  10  34
BRANCH   9  36
ATOM     36  C   UNL     1       8.334  29.588  25.067  1.00  0.00     0.017 C 
ATOM     37  C   UNL     1       8.471  28.070  24.888  1.00  0.00     0.012 C 
ATOM     38  C   UNL     1       8.545  30.053  26.524  1.00  0.00     0.012 C 
ENDBRANCH   9  36
BRANCH   6  39
ATOM     39  C   UNL     1      11.210  32.991  21.277  1.00  0.00     0.264 C 
ATOM     40  O   UNL     1      10.952  34.217  21.417  1.00  0.00    -0.298 OA
ENDBRANCH   6  39
BRANCH   8  41
ATOM     41  O   UNL     1       7.088  30.864  22.882  1.00  0.00    -0.504 OA
ATOM     42  H   UNL     1       6.638  29.959  22.860  1.00  0.00     0.293 HD
ENDBRANCH   8  41
BRANCH   7  43
ATOM     43  O   UNL     1       8.447  32.734  21.240  1.00  0.00    -0.504 OA
ATOM     44  H   UNL     1       8.228  33.703  21.432  1.00  0.00     0.293 HD
ENDBRANCH   7  43
TORSDOF 11
ENDMDL
MODEL 9
REMARK VINA RESULT:    -7.401      2.137      9.094
REMARK INTER + INTRA:         -11.926
REMARK INTER:                 -11.261
REMARK INTRA:                  -0.665
REMARK UNBOUND:                -1.063
REMARK SMILES Cc1cc2c(C(C)C)c(O)c(O)c(C=O)c2c(O)c1-c1c(C)cc2c(C(C)C)c(O)c(O)c(C=O)c2c1O
REMARK SMILES IDX 1 1 2 2 3 3 4 4 16 5 13 6 11 7 9 8 5 9 17 10 19 11 20 12
REMARK SMILES IDX 37 13 21 14 36 15 23 16 22 17 24 18 33 19 25 20 31 21 29 22
REMARK SMILES IDX 38 23 34 25 35 26 26 27 27 28 28 29 32 30 30 32 18 34 6 36
REMARK SMILES IDX 7 37 8 38 14 39 15 40 10 41 12 43
REMARK H PARENT 38 24 32 31 30 33 18 35 10 42 12 44
REMARK Flexibility Score: inf
ROOT
ATOM      1  C   UNL     1      15.287  28.304  21.946  1.00  0.00     0.045 C 
ATOM      2  C   UNL     1      15.754  29.365  22.915  1.00  0.00    -0.039 A 
ATOM      3  C   UNL     1      17.057  29.312  23.413  1.00  0.00     0.013 A 
ATOM      4  C   UNL     1      17.560  30.283  24.305  1.00  0.00    -0.006 A 
ATOM      5  C   UNL     1      16.707  31.365  24.681  1.00  0.00     0.039 A 
ATOM      6  C   UNL     1      17.236  32.419  25.481  1.00  0.00     0.072 A 
ATOM      7  C   UNL     1      18.524  32.304  26.031  1.00  0.00     0.169 A 
ATOM      8  C   UNL     1      19.307  31.164  25.782  1.00  0.00     0.162 A 
ATOM      9  C   UNL     1      18.884  30.190  24.846  1.00  0.00     0.008 A 
ATOM     10  C   UNL     1      15.342  31.349  24.267  1.00  0.00     0.132 A 
ATOM     11  C   UNL     1      14.887  30.378  23.352  1.00  0.00     0.031 A 
ENDROOT
BRANCH  11  12
ATOM     12  C   UNL     1      13.484  30.416  22.858  1.00  0.00     0.031 A 
ATOM     13  C   UNL     1      12.430  29.955  23.675  1.00  0.00     0.132 A 
ATOM     14  C   UNL     1      13.218  30.870  21.557  1.00  0.00    -0.039 A 
ATOM     15  C   UNL     1      11.082  29.996  23.207  1.00  0.00     0.039 A 
ATOM     16  C   UNL     1      11.913  30.827  21.068  1.00  0.00     0.013 A 
ATOM     17  C   UNL     1      14.331  31.325  20.645  1.00  0.00     0.045 C 
ATOM     18  C   UNL     1      10.824  30.436  21.870  1.00  0.00    -0.006 A 
ATOM     19  C   UNL     1       9.988  29.562  24.012  1.00  0.00     0.072 A 
ATOM     20  C   UNL     1       9.486  30.438  21.360  1.00  0.00     0.008 A 
ATOM     21  C   UNL     1       8.720  29.384  23.427  1.00  0.00     0.169 A 
ATOM     22  C   UNL     1       8.487  29.768  22.109  1.00  0.00     0.162 A 
BRANCH  13  23
ATOM     23  O   UNL     1      12.725  29.417  24.932  1.00  0.00    -0.507 OA
ATOM     24  H   UNL     1      12.895  29.975  25.759  1.00  0.00     0.293 HD
ENDBRANCH  13  23
BRANCH  19  25
ATOM     25  C   UNL     1      10.118  29.319  25.463  1.00  0.00     0.264 C 
ATOM     26  O   UNL     1       9.403  29.958  26.281  1.00  0.00    -0.298 OA
ENDBRANCH  19  25
BRANCH  20  27
ATOM     27  C   UNL     1       9.056  31.188  20.085  1.00  0.00     0.017 C 
ATOM     28  C   UNL     1       8.968  32.719  20.237  1.00  0.00     0.012 C 
ATOM     29  C   UNL     1       9.856  30.754  18.849  1.00  0.00     0.012 C 
ENDBRANCH  20  27
BRANCH  21  30
ATOM     30  O   UNL     1       7.646  28.841  24.141  1.00  0.00    -0.504 OA
ATOM     31  H   UNL     1       6.681  28.899  23.844  1.00  0.00     0.293 HD
ENDBRANCH  21  30
BRANCH  22  32
ATOM     32  O   UNL     1       7.228  29.468  21.575  1.00  0.00    -0.504 OA
ATOM     33  H   UNL     1       6.371  29.922  21.861  1.00  0.00     0.293 HD
ENDBRANCH  22  32
ENDBRANCH  11  12
BRANCH  10  34
ATOM     34  O   UNL     1      14.432  32.268  24.799  1.00  0.00    -0.507 OA
ATOM     35  H   UNL     1      13.692  32.020  25.444  1.00  0.00     0.293 HD
ENDBRANCH  10  34
BRANCH   9  36
ATOM     36  C   UNL     1      19.871  29.053  24.506  1.00  0.00     0.017 C 
ATOM     37  C   UNL     1      20.961  29.508  23.526  1.00  0.00     0.012 C 
ATOM     38  C   UNL     1      20.431  28.320  25.744  1.00  0.00     0.012 C 
ENDBRANCH   9  36
BRANCH   6  39
ATOM     39  C   UNL     1      16.519  33.707  25.651  1.00  0.00     0.264 C 
ATOM     40  O   UNL     1      17.064  34.802  25.348  1.00  0.00    -0.298 OA
ENDBRANCH   6  39
BRANCH   8  41
ATOM     41  O   UNL     1      20.516  30.978  26.463  1.00  0.00    -0.504 OA
ATOM     42  H   UNL     1      21.292  31.626  26.429  1.00  0.00     0.293 HD
ENDBRANCH   8  41
BRANCH   7  43
ATOM     43  O   UNL     1      19.026  33.368  26.790  1.00  0.00    -0.504 OA
ATOM     44  H   UNL     1      19.922  33.355  27.260  1.00  0.00     0.293 HD
ENDBRANCH   7  43
TORSDOF 11
ENDMDL
