MODEL 1
REMARK VINA RESULT:    -4.084      0.000      0.000
REMARK INTER + INTRA:          -8.677
REMARK INTER:                  -7.666
REMARK INTRA:                  -1.011
REMARK UNBOUND:                -1.011
REMARK SMILES O=C([O-])CCCCCCCCCCCCCCC(=O)[O-]
REMARK SMILES IDX 10 1 9 2 8 3 7 4 6 5 5 6 4 7 2 8 1 9 3 10 11 11 12 12 13 13
REMARK SMILES IDX 14 14 15 15 16 16 17 17 18 18 19 19 20 20
REMARK H PARENT
REMARK Flexibility Score: inf
ROOT
ATOM      1  C   UNL     1       4.225   3.496  -9.336  1.00  0.00     0.000 C 
ENDROOT
BRANCH   1   2
ATOM      2  C   UNL     1       2.718   3.695  -9.602  1.00  0.00     0.000 C 
BRANCH   2   3
ATOM      3  C   UNL     1       1.868   2.413  -9.564  1.00  0.00     0.000 C 
BRANCH   3   4
ATOM      4  C   UNL     1       0.390   2.687  -9.240  1.00  0.00     0.000 C 
BRANCH   4   5
ATOM      5  C   UNL     1      -0.398   1.410  -8.904  1.00  0.00     0.000 C 
BRANCH   5   6
ATOM      6  C   UNL     1       0.452   0.137  -8.721  1.00  0.00     0.006 C 
BRANCH   6   7
ATOM      7  C   UNL     1      -0.374  -1.153  -8.560  1.00  0.00     0.053 C 
BRANCH   7   8
ATOM      8  C   UNL     1      -0.595  -1.516  -7.121  1.00  0.00     0.041 C 
ATOM      9  O   UNL     1      -0.763  -2.719  -6.790  1.00  0.00    -0.550 OA
ATOM     10  O   UNL     1      -0.658  -0.522  -6.153  1.00  0.00    -0.550 OA
ENDBRANCH   7   8
ENDBRANCH   6   7
ENDBRANCH   5   6
ENDBRANCH   4   5
ENDBRANCH   3   4
ENDBRANCH   2   3
ENDBRANCH   1   2
BRANCH   1  11
ATOM     11  C   UNL     1       4.636   2.069  -8.929  1.00  0.00     0.000 C 
BRANCH  11  12
ATOM     12  C   UNL     1       5.848   2.044  -7.982  1.00  0.00     0.000 C 
BRANCH  12  13
ATOM     13  C   UNL     1       5.853   0.812  -7.063  1.00  0.00     0.000 C 
BRANCH  13  14
ATOM     14  C   UNL     1       6.014   1.180  -5.578  1.00  0.00     0.000 C 
BRANCH  14  15
ATOM     15  C   UNL     1       5.504   0.077  -4.638  1.00  0.00     0.000 C 
BRANCH  15  16
ATOM     16  C   UNL     1       4.876  -1.102  -5.396  1.00  0.00     0.006 C 
BRANCH  16  17
ATOM     17  C   UNL     1       4.606  -2.279  -4.455  1.00  0.00     0.053 C 
BRANCH  17  18
ATOM     18  C   UNL     1       3.321  -2.077  -3.717  1.00  0.00     0.041 C 
ATOM     19  O   UNL     1       3.333  -1.761  -2.498  1.00  0.00    -0.550 OA
ATOM     20  O   UNL     1       2.109  -2.189  -4.388  1.00  0.00    -0.550 OA
ENDBRANCH  17  18
ENDBRANCH  16  17
ENDBRANCH  15  16
ENDBRANCH  14  15
ENDBRANCH  13  14
ENDBRANCH  12  13
ENDBRANCH  11  12
ENDBRANCH   1  11
TORSDOF 15
ENDMDL
MODEL 2
REMARK VINA RESULT:    -3.998      0.832      5.729
REMARK INTER + INTRA:          -8.515
REMARK INTER:                  -7.336
REMARK INTRA:                  -1.179
REMARK UNBOUND:                -1.011
REMARK SMILES O=C([O-])CCCCCCCCCCCCCCC(=O)[O-]
REMARK SMILES IDX 10 1 9 2 8 3 7 4 6 5 5 6 4 7 2 8 1 9 3 10 11 11 12 12 13 13
REMARK SMILES IDX 14 14 15 15 16 16 17 17 18 18 19 19 20 20
REMARK H PARENT
REMARK Flexibility Score: inf
ROOT
ATOM      1  C   UNL     1       4.525   0.650  -8.233  1.00  0.00     0.000 C 
ENDROOT
BRANCH   1   2
ATOM      2  C   UNL     1       5.737   0.287  -7.350  1.00  0.00     0.000 C 
BRANCH   2   3
ATOM      3  C   UNL     1       6.143   1.354  -6.318  1.00  0.00     0.000 C 
BRANCH   3   4
ATOM      4  C   UNL     1       5.906   0.902  -4.868  1.00  0.00     0.000 C 
BRANCH   4   5
ATOM      5  C   UNL     1       6.591  -0.436  -4.537  1.00  0.00     0.000 C 
BRANCH   5   6
ATOM      6  C   UNL     1       5.728  -1.444  -3.751  1.00  0.00     0.006 C 
BRANCH   6   7
ATOM      7  C   UNL     1       4.421  -1.840  -4.461  1.00  0.00     0.053 C 
BRANCH   7   8
ATOM      8  C   UNL     1       3.271  -1.978  -3.508  1.00  0.00     0.041 C 
ATOM      9  O   UNL     1       2.127  -2.282  -3.936  1.00  0.00    -0.550 OA
ATOM     10  O   UNL     1       3.453  -1.729  -2.154  1.00  0.00    -0.550 OA
ENDBRANCH   7   8
ENDBRANCH   6   7
ENDBRANCH   5   6
ENDBRANCH   4   5
ENDBRANCH   3   4
ENDBRANCH   2   3
ENDBRANCH   1   2
BRANCH   1  11
ATOM     11  C   UNL     1       4.599   2.028  -8.915  1.00  0.00     0.000 C 
BRANCH  11  12
ATOM     12  C   UNL     1       3.225   2.537  -9.383  1.00  0.00     0.000 C 
BRANCH  12  13
ATOM     13  C   UNL     1       2.155   1.434  -9.381  1.00  0.00     0.000 C 
BRANCH  13  14
ATOM     14  C   UNL     1       0.753   1.967  -9.039  1.00  0.00     0.000 C 
BRANCH  14  15
ATOM     15  C   UNL     1      -0.362   0.977  -9.410  1.00  0.00     0.000 C 
BRANCH  15  16
ATOM     16  C   UNL     1       0.061  -0.487  -9.219  1.00  0.00     0.006 C 
BRANCH  16  17
ATOM     17  C   UNL     1      -1.069  -1.306  -8.588  1.00  0.00     0.053 C 
BRANCH  17  18
ATOM     18  C   UNL     1      -0.799  -1.541  -7.137  1.00  0.00     0.041 C 
ATOM     19  O   UNL     1      -0.630  -2.711  -6.704  1.00  0.00    -0.550 OA
ATOM     20  O   UNL     1      -0.684  -0.462  -6.268  1.00  0.00    -0.550 OA
ENDBRANCH  17  18
ENDBRANCH  16  17
ENDBRANCH  15  16
ENDBRANCH  14  15
ENDBRANCH  13  14
ENDBRANCH  12  13
ENDBRANCH  11  12
ENDBRANCH   1  11
TORSDOF 15
ENDMDL
MODEL 3
REMARK VINA RESULT:    -3.929      1.007      5.358
REMARK INTER + INTRA:          -8.384
REMARK INTER:                  -7.100
REMARK INTRA:                  -1.284
REMARK UNBOUND:                -1.011
REMARK SMILES O=C([O-])CCCCCCCCCCCCCCC(=O)[O-]
REMARK SMILES IDX 10 1 9 2 8 3 7 4 6 5 5 6 4 7 2 8 1 9 3 10 11 11 12 12 13 13
REMARK SMILES IDX 14 14 15 15 16 16 17 17 18 18 19 19 20 20
REMARK H PARENT
REMARK Flexibility Score: inf
ROOT
ATOM      1  C   UNL     1       5.620   1.799  -8.074  1.00  0.00     0.000 C 
ENDROOT
BRANCH   1   2
ATOM      2  C   UNL     1       4.879   0.472  -7.807  1.00  0.00     0.000 C 
BRANCH   2   3
ATOM      3  C   UNL     1       5.780  -0.726  -7.462  1.00  0.00     0.000 C 
BRANCH   3   4
ATOM      4  C   UNL     1       6.334  -0.662  -6.029  1.00  0.00     0.000 C 
BRANCH   4   5
ATOM      5  C   UNL     1       5.335  -0.063  -5.025  1.00  0.00     0.000 C 
BRANCH   5   6
ATOM      6  C   UNL     1       5.010  -0.949  -3.806  1.00  0.00     0.006 C 
BRANCH   6   7
ATOM      7  C   UNL     1       4.617  -2.394  -4.166  1.00  0.00     0.053 C 
BRANCH   7   8
ATOM      8  C   UNL     1       3.158  -2.527  -4.487  1.00  0.00     0.041 C 
ATOM      9  O   UNL     1       2.289  -2.162  -3.652  1.00  0.00    -0.550 OA
ATOM     10  O   UNL     1       2.757  -3.094  -5.691  1.00  0.00    -0.550 OA
ENDBRANCH   7   8
ENDBRANCH   6   7
ENDBRANCH   5   6
ENDBRANCH   4   5
ENDBRANCH   3   4
ENDBRANCH   2   3
ENDBRANCH   1   2
BRANCH   1  11
ATOM     11  C   UNL     1       4.941   2.738  -9.088  1.00  0.00     0.000 C 
BRANCH  11  12
ATOM     12  C   UNL     1       3.522   2.282  -9.467  1.00  0.00     0.000 C 
BRANCH  12  13
ATOM     13  C   UNL     1       2.505   3.434  -9.439  1.00  0.00     0.000 C 
BRANCH  13  14
ATOM     14  C   UNL     1       1.048   2.940  -9.475  1.00  0.00     0.000 C 
BRANCH  14  15
ATOM     15  C   UNL     1       0.946   1.412  -9.600  1.00  0.00     0.000 C 
BRANCH  15  16
ATOM     16  C   UNL     1       0.083   0.786  -8.494  1.00  0.00     0.006 C 
BRANCH  16  17
ATOM     17  C   UNL     1       0.477  -0.673  -8.251  1.00  0.00     0.053 C 
BRANCH  17  18
ATOM     18  C   UNL     1      -0.218  -1.210  -7.041  1.00  0.00     0.041 C 
ATOM     19  O   UNL     1      -0.761  -0.424  -6.220  1.00  0.00    -0.550 OA
ATOM     20  O   UNL     1      -0.310  -2.583  -6.843  1.00  0.00    -0.550 OA
ENDBRANCH  17  18
ENDBRANCH  16  17
ENDBRANCH  15  16
ENDBRANCH  14  15
ENDBRANCH  13  14
ENDBRANCH  12  13
ENDBRANCH  11  12
ENDBRANCH   1  11
TORSDOF 15
ENDMDL
MODEL 4
REMARK VINA RESULT:    -3.884      6.100      9.974
REMARK INTER + INTRA:          -8.300
REMARK INTER:                  -5.910
REMARK INTRA:                  -2.390
REMARK UNBOUND:                -1.011
REMARK SMILES O=C([O-])CCCCCCCCCCCCCCC(=O)[O-]
REMARK SMILES IDX 10 1 9 2 8 3 7 4 6 5 5 6 4 7 2 8 1 9 3 10 11 11 12 12 13 13
REMARK SMILES IDX 14 14 15 15 16 16 17 17 18 18 19 19 20 20
REMARK H PARENT
REMARK Flexibility Score: inf
ROOT
ATOM      1  C   UNL     1      -8.085  -3.259  -6.035  1.00  0.00     0.000 C 
ENDROOT
BRANCH   1   2
ATOM      2  C   UNL     1      -7.609  -4.598  -5.433  1.00  0.00     0.000 C 
BRANCH   2   3
ATOM      3  C   UNL     1      -6.296  -5.150  -6.014  1.00  0.00     0.000 C 
BRANCH   3   4
ATOM      4  C   UNL     1      -5.729  -4.274  -7.144  1.00  0.00     0.000 C 
BRANCH   4   5
ATOM      5  C   UNL     1      -4.415  -3.572  -6.759  1.00  0.00     0.000 C 
BRANCH   5   6
ATOM      6  C   UNL     1      -4.202  -2.179  -7.384  1.00  0.00     0.006 C 
BRANCH   6   7
ATOM      7  C   UNL     1      -3.430  -1.198  -6.484  1.00  0.00     0.053 C 
BRANCH   7   8
ATOM      8  C   UNL     1      -2.047  -0.919  -6.994  1.00  0.00     0.041 C 
ATOM      9  O   UNL     1      -1.099  -0.735  -6.186  1.00  0.00    -0.550 OA
ATOM     10  O   UNL     1      -1.814  -0.820  -8.360  1.00  0.00    -0.550 OA
ENDBRANCH   7   8
ENDBRANCH   6   7
ENDBRANCH   5   6
ENDBRANCH   4   5
ENDBRANCH   3   4
ENDBRANCH   2   3
ENDBRANCH   1   2
BRANCH   1  11
ATOM     11  C   UNL     1      -7.898  -2.029  -5.129  1.00  0.00     0.000 C 
BRANCH  11  12
ATOM     12  C   UNL     1      -8.226  -2.318  -3.654  1.00  0.00     0.000 C 
BRANCH  12  13
ATOM     13  C   UNL     1      -7.070  -1.950  -2.709  1.00  0.00     0.000 C 
BRANCH  13  14
ATOM     14  C   UNL     1      -5.758  -1.665  -3.460  1.00  0.00     0.000 C 
BRANCH  14  15
ATOM     15  C   UNL     1      -4.736  -2.803  -3.314  1.00  0.00     0.000 C 
BRANCH  15  16
ATOM     16  C   UNL     1      -5.205  -3.898  -2.343  1.00  0.00     0.006 C 
BRANCH  16  17
ATOM     17  C   UNL     1      -4.703  -5.275  -2.785  1.00  0.00     0.053 C 
BRANCH  17  18
ATOM     18  C   UNL     1      -3.418  -5.610  -2.098  1.00  0.00     0.041 C 
ATOM     19  O   UNL     1      -3.423  -6.294  -1.042  1.00  0.00    -0.550 OA
ATOM     20  O   UNL     1      -2.208  -5.208  -2.653  1.00  0.00    -0.550 OA
ENDBRANCH  17  18
ENDBRANCH  16  17
ENDBRANCH  15  16
ENDBRANCH  14  15
ENDBRANCH  13  14
ENDBRANCH  12  13
ENDBRANCH  11  12
ENDBRANCH   1  11
TORSDOF 15
ENDMDL
MODEL 5
REMARK VINA RESULT:    -3.810      6.257     10.312
REMARK INTER + INTRA:          -8.162
REMARK INTER:                  -5.643
REMARK INTRA:                  -2.518
REMARK UNBOUND:                -1.011
REMARK SMILES O=C([O-])CCCCCCCCCCCCCCC(=O)[O-]
REMARK SMILES IDX 10 1 9 2 8 3 7 4 6 5 5 6 4 7 2 8 1 9 3 10 11 11 12 12 13 13
REMARK SMILES IDX 14 14 15 15 16 16 17 17 18 18 19 19 20 20
REMARK H PARENT
REMARK Flexibility Score: inf
ROOT
ATOM      1  C   UNL     1      -8.769  -2.311  -4.629  1.00  0.00     0.000 C 
ENDROOT
BRANCH   1   2
ATOM      2  C   UNL     1      -8.158  -3.238  -5.701  1.00  0.00     0.000 C 
BRANCH   2   3
ATOM      3  C   UNL     1      -7.575  -4.560  -5.174  1.00  0.00     0.000 C 
BRANCH   3   4
ATOM      4  C   UNL     1      -6.151  -4.830  -5.686  1.00  0.00     0.000 C 
BRANCH   4   5
ATOM      5  C   UNL     1      -5.317  -5.689  -4.719  1.00  0.00     0.000 C 
BRANCH   5   6
ATOM      6  C   UNL     1      -3.789  -5.516  -4.830  1.00  0.00     0.006 C 
BRANCH   6   7
ATOM      7  C   UNL     1      -3.133  -4.900  -3.581  1.00  0.00     0.053 C 
BRANCH   7   8
ATOM      8  C   UNL     1      -2.675  -5.940  -2.603  1.00  0.00     0.041 C 
ATOM      9  O   UNL     1      -1.783  -6.766  -2.928  1.00  0.00    -0.550 OA
ATOM     10  O   UNL     1      -3.264  -6.025  -1.347  1.00  0.00    -0.550 OA
ENDBRANCH   7   8
ENDBRANCH   6   7
ENDBRANCH   5   6
ENDBRANCH   4   5
ENDBRANCH   3   4
ENDBRANCH   2   3
ENDBRANCH   1   2
BRANCH   1  11
ATOM     11  C   UNL     1      -8.286  -2.566  -3.190  1.00  0.00     0.000 C 
BRANCH  11  12
ATOM     12  C   UNL     1      -7.104  -1.668  -2.789  1.00  0.00     0.000 C 
BRANCH  12  13
ATOM     13  C   UNL     1      -5.755  -2.403  -2.857  1.00  0.00     0.000 C 
BRANCH  13  14
ATOM     14  C   UNL     1      -4.729  -1.678  -3.745  1.00  0.00     0.000 C 
BRANCH  14  15
ATOM     15  C   UNL     1      -5.354  -1.121  -5.034  1.00  0.00     0.000 C 
BRANCH  15  16
ATOM     16  C   UNL     1      -4.660  -1.643  -6.301  1.00  0.00     0.006 C 
BRANCH  16  17
ATOM     17  C   UNL     1      -3.189  -1.969  -6.025  1.00  0.00     0.053 C 
BRANCH  17  18
ATOM     18  C   UNL     1      -2.295  -1.012  -6.747  1.00  0.00     0.041 C 
ATOM     19  O   UNL     1      -1.136  -0.779  -6.316  1.00  0.00    -0.550 OA
ATOM     20  O   UNL     1      -2.725  -0.413  -7.925  1.00  0.00    -0.550 OA
ENDBRANCH  17  18
ENDBRANCH  16  17
ENDBRANCH  15  16
ENDBRANCH  14  15
ENDBRANCH  13  14
ENDBRANCH  12  13
ENDBRANCH  11  12
ENDBRANCH   1  11
TORSDOF 15
ENDMDL
MODEL 6
REMARK VINA RESULT:    -3.801      1.449      1.765
REMARK INTER + INTRA:          -8.146
REMARK INTER:                  -7.057
REMARK INTRA:                  -1.089
REMARK UNBOUND:                -1.011
REMARK SMILES O=C([O-])CCCCCCCCCCCCCCC(=O)[O-]
REMARK SMILES IDX 10 1 9 2 8 3 7 4 6 5 5 6 4 7 2 8 1 9 3 10 11 11 12 12 13 13
REMARK SMILES IDX 14 14 15 15 16 16 17 17 18 18 19 19 20 20
REMARK H PARENT
REMARK Flexibility Score: inf
ROOT
ATOM      1  C   UNL     1       3.730   3.719  -9.391  1.00  0.00     0.000 C 
ENDROOT
BRANCH   1   2
ATOM      2  C   UNL     1       2.203   3.922  -9.491  1.00  0.00     0.000 C 
BRANCH   2   3
ATOM      3  C   UNL     1       1.363   2.636  -9.414  1.00  0.00     0.000 C 
BRANCH   3   4
ATOM      4  C   UNL     1      -0.150   2.913  -9.388  1.00  0.00     0.000 C 
BRANCH   4   5
ATOM      5  C   UNL     1      -0.997   1.634  -9.509  1.00  0.00     0.000 C 
BRANCH   5   6
ATOM      6  C   UNL     1      -0.546   0.455  -8.623  1.00  0.00     0.006 C 
BRANCH   6   7
ATOM      7  C   UNL     1      -1.681  -0.510  -8.235  1.00  0.00     0.053 C 
BRANCH   7   8
ATOM      8  C   UNL     1      -1.526  -1.045  -6.843  1.00  0.00     0.041 C 
ATOM      9  O   UNL     1      -0.565  -0.668  -6.122  1.00  0.00    -0.550 OA
ATOM     10  O   UNL     1      -2.417  -1.994  -6.356  1.00  0.00    -0.550 OA
ENDBRANCH   7   8
ENDBRANCH   6   7
ENDBRANCH   5   6
ENDBRANCH   4   5
ENDBRANCH   3   4
ENDBRANCH   2   3
ENDBRANCH   1   2
BRANCH   1  11
ATOM     11  C   UNL     1       4.192   2.254  -9.291  1.00  0.00     0.000 C 
BRANCH  11  12
ATOM     12  C   UNL     1       5.450   2.083  -8.423  1.00  0.00     0.000 C 
BRANCH  12  13
ATOM     13  C   UNL     1       5.581   0.663  -7.848  1.00  0.00     0.000 C 
BRANCH  13  14
ATOM     14  C   UNL     1       4.311  -0.180  -8.054  1.00  0.00     0.000 C 
BRANCH  14  15
ATOM     15  C   UNL     1       4.029  -1.121  -6.873  1.00  0.00     0.000 C 
BRANCH  15  16
ATOM     16  C   UNL     1       2.681  -1.848  -7.005  1.00  0.00     0.006 C 
BRANCH  16  17
ATOM     17  C   UNL     1       2.716  -3.202  -6.291  1.00  0.00     0.053 C 
BRANCH  17  18
ATOM     18  C   UNL     1       2.957  -3.016  -4.827  1.00  0.00     0.041 C 
ATOM     19  O   UNL     1       3.983  -3.507  -4.286  1.00  0.00    -0.550 OA
ATOM     20  O   UNL     1       2.073  -2.259  -4.067  1.00  0.00    -0.550 OA
ENDBRANCH  17  18
ENDBRANCH  16  17
ENDBRANCH  15  16
ENDBRANCH  14  15
ENDBRANCH  13  14
ENDBRANCH  12  13
ENDBRANCH  11  12
ENDBRANCH   1  11
TORSDOF 15
ENDMDL
MODEL 7
REMARK VINA RESULT:    -3.743      5.382      9.309
REMARK INTER + INTRA:          -8.037
REMARK INTER:                  -5.599
REMARK INTRA:                  -2.438
REMARK UNBOUND:                -1.011
REMARK SMILES O=C([O-])CCCCCCCCCCCCCCC(=O)[O-]
REMARK SMILES IDX 10 1 9 2 8 3 7 4 6 5 5 6 4 7 2 8 1 9 3 10 11 11 12 12 13 13
REMARK SMILES IDX 14 14 15 15 16 16 17 17 18 18 19 19 20 20
REMARK H PARENT
REMARK Flexibility Score: inf
ROOT
ATOM      1  C   UNL     1      -5.814  -1.817  -3.436  1.00  0.00     0.000 C 
ENDROOT
BRANCH   1   2
ATOM      2  C   UNL     1      -4.915  -1.377  -4.611  1.00  0.00     0.000 C 
BRANCH   2   3
ATOM      3  C   UNL     1      -5.657  -0.769  -5.814  1.00  0.00     0.000 C 
BRANCH   3   4
ATOM      4  C   UNL     1      -5.358  -1.505  -7.131  1.00  0.00     0.000 C 
BRANCH   4   5
ATOM      5  C   UNL     1      -4.039  -1.056  -7.784  1.00  0.00     0.000 C 
BRANCH   5   6
ATOM      6  C   UNL     1      -3.058  -2.190  -8.140  1.00  0.00     0.006 C 
BRANCH   6   7
ATOM      7  C   UNL     1      -1.904  -2.362  -7.135  1.00  0.00     0.053 C 
BRANCH   7   8
ATOM      8  C   UNL     1      -0.919  -1.232  -7.196  1.00  0.00     0.041 C 
ATOM      9  O   UNL     1      -0.735  -0.497  -6.190  1.00  0.00    -0.550 OA
ATOM     10  O   UNL     1      -0.236  -0.964  -8.376  1.00  0.00    -0.550 OA
ENDBRANCH   7   8
ENDBRANCH   6   7
ENDBRANCH   5   6
ENDBRANCH   4   5
ENDBRANCH   3   4
ENDBRANCH   2   3
ENDBRANCH   1   2
BRANCH   1  11
ATOM     11  C   UNL     1      -7.264  -2.169  -3.815  1.00  0.00     0.000 C 
BRANCH  11  12
ATOM     12  C   UNL     1      -7.507  -3.685  -3.901  1.00  0.00     0.000 C 
BRANCH  12  13
ATOM     13  C   UNL     1      -7.246  -4.246  -5.309  1.00  0.00     0.000 C 
BRANCH  13  14
ATOM     14  C   UNL     1      -6.186  -5.361  -5.316  1.00  0.00     0.000 C 
BRANCH  14  15
ATOM     15  C   UNL     1      -4.885  -4.933  -6.014  1.00  0.00     0.000 C 
BRANCH  15  16
ATOM     16  C   UNL     1      -3.725  -4.729  -5.027  1.00  0.00     0.006 C 
BRANCH  16  17
ATOM     17  C   UNL     1      -3.740  -5.801  -3.934  1.00  0.00     0.053 C 
BRANCH  17  18
ATOM     18  C   UNL     1      -3.531  -5.183  -2.589  1.00  0.00     0.041 C 
ATOM     19  O   UNL     1      -2.367  -5.022  -2.139  1.00  0.00    -0.550 OA
ATOM     20  O   UNL     1      -4.622  -4.737  -1.853  1.00  0.00    -0.550 OA
ENDBRANCH  17  18
ENDBRANCH  16  17
ENDBRANCH  15  16
ENDBRANCH  14  15
ENDBRANCH  13  14
ENDBRANCH  12  13
ENDBRANCH  11  12
ENDBRANCH   1  11
TORSDOF 15
ENDMDL
MODEL 8
REMARK VINA RESULT:    -3.676      1.470      5.193
REMARK INTER + INTRA:          -7.910
REMARK INTER:                  -6.799
REMARK INTRA:                  -1.111
REMARK UNBOUND:                -1.011
REMARK SMILES O=C([O-])CCCCCCCCCCCCCCC(=O)[O-]
REMARK SMILES IDX 10 1 9 2 8 3 7 4 6 5 5 6 4 7 2 8 1 9 3 10 11 11 12 12 13 13
REMARK SMILES IDX 14 14 15 15 16 16 17 17 18 18 19 19 20 20
REMARK H PARENT
REMARK Flexibility Score: inf
ROOT
ATOM      1  C   UNL     1       3.589   1.705  -9.379  1.00  0.00     0.000 C 
ENDROOT
BRANCH   1   2
ATOM      2  C   UNL     1       5.043   1.350  -9.008  1.00  0.00     0.000 C 
BRANCH   2   3
ATOM      3  C   UNL     1       5.302   1.120  -7.509  1.00  0.00     0.000 C 
BRANCH   3   4
ATOM      4  C   UNL     1       5.343  -0.371  -7.134  1.00  0.00     0.000 C 
BRANCH   4   5
ATOM      5  C   UNL     1       4.300  -1.211  -7.891  1.00  0.00     0.000 C 
BRANCH   5   6
ATOM      6  C   UNL     1       3.146  -1.764  -7.031  1.00  0.00     0.006 C 
BRANCH   6   7
ATOM      7  C   UNL     1       3.582  -2.267  -5.642  1.00  0.00     0.053 C 
BRANCH   7   8
ATOM      8  C   UNL     1       2.414  -2.592  -4.759  1.00  0.00     0.041 C 
ATOM      9  O   UNL     1       2.364  -2.143  -3.584  1.00  0.00    -0.550 OA
ATOM     10  O   UNL     1       1.401  -3.425  -5.218  1.00  0.00    -0.550 OA
ENDBRANCH   7   8
ENDBRANCH   6   7
ENDBRANCH   5   6
ENDBRANCH   4   5
ENDBRANCH   3   4
ENDBRANCH   2   3
ENDBRANCH   1   2
BRANCH   1  11
ATOM     11  C   UNL     1       3.271   3.211  -9.423  1.00  0.00     0.000 C 
BRANCH  11  12
ATOM     12  C   UNL     1       1.761   3.502  -9.455  1.00  0.00     0.000 C 
BRANCH  12  13
ATOM     13  C   UNL     1       0.941   2.310  -9.974  1.00  0.00     0.000 C 
BRANCH  13  14
ATOM     14  C   UNL     1      -0.016   1.741  -8.912  1.00  0.00     0.000 C 
BRANCH  14  15
ATOM     15  C   UNL     1       0.227   0.249  -8.637  1.00  0.00     0.000 C 
BRANCH  15  16
ATOM     16  C   UNL     1      -0.406  -0.219  -7.317  1.00  0.00     0.006 C 
BRANCH  16  17
ATOM     17  C   UNL     1      -1.856  -0.662  -7.532  1.00  0.00     0.053 C 
BRANCH  17  18
ATOM     18  C   UNL     1      -2.182  -1.830  -6.657  1.00  0.00     0.041 C 
ATOM     19  O   UNL     1      -1.644  -2.948  -6.866  1.00  0.00    -0.550 OA
ATOM     20  O   UNL     1      -3.045  -1.671  -5.578  1.00  0.00    -0.550 OA
ENDBRANCH  17  18
ENDBRANCH  16  17
ENDBRANCH  15  16
ENDBRANCH  14  15
ENDBRANCH  13  14
ENDBRANCH  12  13
ENDBRANCH  11  12
ENDBRANCH   1  11
TORSDOF 15
ENDMDL
MODEL 9
REMARK VINA RESULT:    -3.649      5.505      9.183
REMARK INTER + INTRA:          -7.860
REMARK INTER:                  -5.655
REMARK INTRA:                  -2.205
REMARK UNBOUND:                -1.011
REMARK SMILES O=C([O-])CCCCCCCCCCCCCCC(=O)[O-]
REMARK SMILES IDX 10 1 9 2 8 3 7 4 6 5 5 6 4 7 2 8 1 9 3 10 11 11 12 12 13 13
REMARK SMILES IDX 14 14 15 15 16 16 17 17 18 18 19 19 20 20
REMARK H PARENT
REMARK Flexibility Score: inf
ROOT
ATOM      1  C   UNL     1      -6.688  -3.400  -6.846  1.00  0.00     0.000 C 
ENDROOT
BRANCH   1   2
ATOM      2  C   UNL     1      -6.347  -2.491  -8.045  1.00  0.00     0.000 C 
BRANCH   2   3
ATOM      3  C   UNL     1      -6.664  -0.998  -7.848  1.00  0.00     0.000 C 
BRANCH   3   4
ATOM      4  C   UNL     1      -5.643  -0.286  -6.946  1.00  0.00     0.000 C 
BRANCH   4   5
ATOM      5  C   UNL     1      -4.185  -0.565  -7.351  1.00  0.00     0.000 C 
BRANCH   5   6
ATOM      6  C   UNL     1      -3.384  -1.447  -6.372  1.00  0.00     0.006 C 
BRANCH   6   7
ATOM      7  C   UNL     1      -2.281  -2.287  -7.041  1.00  0.00     0.053 C 
BRANCH   7   8
ATOM      8  C   UNL     1      -0.985  -1.541  -7.159  1.00  0.00     0.041 C 
ATOM      9  O   UNL     1      -0.155  -1.851  -8.054  1.00  0.00    -0.550 OA
ATOM     10  O   UNL     1      -0.675  -0.533  -6.255  1.00  0.00    -0.550 OA
ENDBRANCH   7   8
ENDBRANCH   6   7
ENDBRANCH   5   6
ENDBRANCH   4   5
ENDBRANCH   3   4
ENDBRANCH   2   3
ENDBRANCH   1   2
BRANCH   1  11
ATOM     11  C   UNL     1      -7.979  -3.036  -6.091  1.00  0.00     0.000 C 
BRANCH  11  12
ATOM     12  C   UNL     1      -7.809  -3.078  -4.563  1.00  0.00     0.000 C 
BRANCH  12  13
ATOM     13  C   UNL     1      -6.948  -1.921  -4.032  1.00  0.00     0.000 C 
BRANCH  13  14
ATOM     14  C   UNL     1      -5.559  -2.383  -3.560  1.00  0.00     0.000 C 
BRANCH  14  15
ATOM     15  C   UNL     1      -5.633  -3.550  -2.562  1.00  0.00     0.000 C 
BRANCH  15  16
ATOM     16  C   UNL     1      -4.979  -4.831  -3.102  1.00  0.00     0.006 C 
BRANCH  16  17
ATOM     17  C   UNL     1      -3.987  -4.510  -4.224  1.00  0.00     0.053 C 
BRANCH  17  18
ATOM     18  C   UNL     1      -2.594  -4.859  -3.808  1.00  0.00     0.041 C 
ATOM     19  O   UNL     1      -1.654  -4.820  -4.645  1.00  0.00    -0.550 OA
ATOM     20  O   UNL     1      -2.324  -5.181  -2.484  1.00  0.00    -0.550 OA
ENDBRANCH  17  18
ENDBRANCH  16  17
ENDBRANCH  15  16
ENDBRANCH  14  15
ENDBRANCH  13  14
ENDBRANCH  12  13
ENDBRANCH  11  12
ENDBRANCH   1  11
TORSDOF 15
ENDMDL
