MODEL 1
REMARK VINA RESULT:    -4.154      0.000      0.000
REMARK INTER + INTRA:          -5.613
REMARK INTER:                  -5.368
REMARK INTRA:                  -0.245
REMARK UNBOUND:                -0.245
REMARK SMILES CCCCCCC(C)=O
REMARK SMILES IDX 4 1 3 2 2 3 1 4 5 5 6 6 7 7 9 8 8 9
REMARK H PARENT
REMARK Flexibility Score: inf
ROOT
ATOM      1  C   UNL     1     116.290 116.836 114.950  1.00  0.00     0.000 C 
ENDROOT
BRANCH   1   2
ATOM      2  C   UNL     1     117.146 116.804 116.233  1.00  0.00    -0.000 C 
BRANCH   2   3
ATOM      3  C   UNL     1     116.631 115.774 117.250  1.00  0.00    -0.003 C 
ATOM      4  C   UNL     1     115.108 115.796 117.333  1.00  0.00     0.004 C 
ENDBRANCH   2   3
ENDBRANCH   1   2
BRANCH   1   5
ATOM      5  C   UNL     1     116.998 116.242 113.720  1.00  0.00     0.008 C 
BRANCH   5   6
ATOM      6  C   UNL     1     116.072 116.104 112.505  1.00  0.00     0.075 C 
BRANCH   6   7
ATOM      7  C   UNL     1     115.862 117.437 111.841  1.00  0.00     0.129 C 
ATOM      8  O   UNL     1     114.727 117.850 111.655  1.00  0.00    -0.300 OA
ATOM      9  C   UNL     1     117.035 118.272 111.425  1.00  0.00     0.087 C 
ENDBRANCH   6   7
ENDBRANCH   5   6
ENDBRANCH   1   5
TORSDOF 5
ENDMDL
MODEL 2
REMARK VINA RESULT:    -4.152      1.671      1.791
REMARK INTER + INTRA:          -5.611
REMARK INTER:                  -5.370
REMARK INTRA:                  -0.241
REMARK UNBOUND:                -0.245
REMARK SMILES CCCCCCC(C)=O
REMARK SMILES IDX 4 1 3 2 2 3 1 4 5 5 6 6 7 7 9 8 8 9
REMARK H PARENT
REMARK Flexibility Score: inf
ROOT
ATOM      1  C   UNL     1     116.394 116.264 114.949  1.00  0.00     0.000 C 
ENDROOT
BRANCH   1   2
ATOM      2  C   UNL     1     116.404 117.121 116.232  1.00  0.00    -0.000 C 
BRANCH   2   3
ATOM      3  C   UNL     1     117.510 116.694 117.208  1.00  0.00    -0.003 C 
ATOM      4  C   UNL     1     117.479 115.189 117.452  1.00  0.00     0.004 C 
ENDBRANCH   2   3
ENDBRANCH   1   2
BRANCH   1   5
ATOM      5  C   UNL     1     116.993 116.979 113.725  1.00  0.00     0.008 C 
BRANCH   5   6
ATOM      6  C   UNL     1     117.115 116.065 112.499  1.00  0.00     0.075 C 
BRANCH   6   7
ATOM      7  C   UNL     1     115.772 115.856 111.856  1.00  0.00     0.129 C 
ATOM      8  O   UNL     1     115.346 114.721 111.694  1.00  0.00    -0.300 OA
ATOM      9  C   UNL     1     114.942 117.029 111.430  1.00  0.00     0.087 C 
ENDBRANCH   6   7
ENDBRANCH   5   6
ENDBRANCH   1   5
TORSDOF 5
ENDMDL
MODEL 3
REMARK VINA RESULT:    -4.132      1.683      1.778
REMARK INTER + INTRA:          -5.585
REMARK INTER:                  -5.337
REMARK INTRA:                  -0.247
REMARK UNBOUND:                -0.245
REMARK SMILES CCCCCCC(C)=O
REMARK SMILES IDX 4 1 3 2 2 3 1 4 5 5 6 6 7 7 9 8 8 9
REMARK H PARENT
REMARK Flexibility Score: inf
ROOT
ATOM      1  C   UNL     1     116.947 116.950 115.012  1.00  0.00     0.000 C 
ENDROOT
BRANCH   1   2
ATOM      2  C   UNL     1     116.919 116.181 116.350  1.00  0.00    -0.000 C 
BRANCH   2   3
ATOM      3  C   UNL     1     115.665 116.499 117.178  1.00  0.00    -0.003 C 
ATOM      4  C   UNL     1     115.632 117.969 117.585  1.00  0.00     0.004 C 
ENDBRANCH   2   3
ENDBRANCH   1   2
BRANCH   1   5
ATOM      5  C   UNL     1     116.219 116.224 113.868  1.00  0.00     0.008 C 
BRANCH   5   6
ATOM      6  C   UNL     1     116.094 117.081 112.601  1.00  0.00     0.075 C 
BRANCH   6   7
ATOM      7  C   UNL     1     117.419 117.188 111.898  1.00  0.00     0.129 C 
ATOM      8  O   UNL     1     117.912 118.288 111.697  1.00  0.00    -0.300 OA
ATOM      9  C   UNL     1     118.148 115.954 111.458  1.00  0.00     0.087 C 
ENDBRANCH   6   7
ENDBRANCH   5   6
ENDBRANCH   1   5
TORSDOF 5
ENDMDL
MODEL 4
REMARK VINA RESULT:    -4.058      1.921      2.454
REMARK INTER + INTRA:          -5.490
REMARK INTER:                  -5.241
REMARK INTRA:                  -0.249
REMARK UNBOUND:                -0.245
REMARK SMILES CCCCCCC(C)=O
REMARK SMILES IDX 4 1 3 2 2 3 1 4 5 5 6 6 7 7 9 8 8 9
REMARK H PARENT
REMARK Flexibility Score: inf
ROOT
ATOM      1  C   UNL     1     116.982 116.351 114.888  1.00  0.00     0.000 C 
ENDROOT
BRANCH   1   2
ATOM      2  C   UNL     1     116.127 116.286 116.172  1.00  0.00    -0.000 C 
BRANCH   2   3
ATOM      3  C   UNL     1     116.983 116.368 117.444  1.00  0.00    -0.003 C 
ATOM      4  C   UNL     1     118.077 117.422 117.306  1.00  0.00     0.004 C 
ENDBRANCH   2   3
ENDBRANCH   1   2
BRANCH   1   5
ATOM      5  C   UNL     1     116.281 117.057 113.716  1.00  0.00     0.008 C 
BRANCH   5   6
ATOM      6  C   UNL     1     117.159 117.147 112.461  1.00  0.00     0.075 C 
BRANCH   6   7
ATOM      7  C   UNL     1     117.333 115.791 111.835  1.00  0.00     0.129 C 
ATOM      8  O   UNL     1     118.457 115.341 111.666  1.00  0.00    -0.300 OA
ATOM      9  C   UNL     1     116.139 114.978 111.436  1.00  0.00     0.087 C 
ENDBRANCH   6   7
ENDBRANCH   5   6
ENDBRANCH   1   5
TORSDOF 5
ENDMDL
MODEL 5
REMARK VINA RESULT:    -4.058      2.411      5.220
REMARK INTER + INTRA:          -5.489
REMARK INTER:                  -5.257
REMARK INTRA:                  -0.233
REMARK UNBOUND:                -0.245
REMARK SMILES CCCCCCC(C)=O
REMARK SMILES IDX 4 1 3 2 2 3 1 4 5 5 6 6 7 7 9 8 8 9
REMARK H PARENT
REMARK Flexibility Score: inf
ROOT
ATOM      1  C   UNL     1     117.006 116.333 113.966  1.00  0.00     0.000 C 
ENDROOT
BRANCH   1   2
ATOM      2  C   UNL     1     116.028 116.101 112.796  1.00  0.00    -0.000 C 
BRANCH   2   3
ATOM      3  C   UNL     1     116.160 117.174 111.706  1.00  0.00    -0.003 C 
ATOM      4  C   UNL     1     117.532 117.840 111.751  1.00  0.00     0.004 C 
ENDBRANCH   2   3
ENDBRANCH   1   2
BRANCH   1   5
ATOM      5  C   UNL     1     116.358 117.005 115.189  1.00  0.00     0.008 C 
BRANCH   5   6
ATOM      6  C   UNL     1     117.203 116.872 116.462  1.00  0.00     0.075 C 
BRANCH   6   7
ATOM      7  C   UNL     1     116.834 115.626 117.219  1.00  0.00     0.129 C 
ATOM      8  O   UNL     1     117.656 114.731 117.353  1.00  0.00    -0.300 OA
ATOM      9  C   UNL     1     115.471 115.481 117.827  1.00  0.00     0.087 C 
ENDBRANCH   6   7
ENDBRANCH   5   6
ENDBRANCH   1   5
TORSDOF 5
ENDMDL
MODEL 6
REMARK VINA RESULT:    -4.030      2.493      5.143
REMARK INTER + INTRA:          -5.454
REMARK INTER:                  -5.271
REMARK INTRA:                  -0.183
REMARK UNBOUND:                -0.245
REMARK SMILES CCCCCCC(C)=O
REMARK SMILES IDX 4 1 3 2 2 3 1 4 5 5 6 6 7 7 9 8 8 9
REMARK H PARENT
REMARK Flexibility Score: inf
ROOT
ATOM      1  C   UNL     1     116.299 116.214 113.769  1.00  0.00     0.000 C 
ENDROOT
BRANCH   1   2
ATOM      2  C   UNL     1     117.207 116.501 112.555  1.00  0.00    -0.000 C 
BRANCH   2   3
ATOM      3  C   UNL     1     116.690 117.671 111.705  1.00  0.00    -0.003 C 
ATOM      4  C   UNL     1     115.165 117.723 111.709  1.00  0.00     0.004 C 
ENDBRANCH   2   3
ENDBRANCH   1   2
BRANCH   1   5
ATOM      5  C   UNL     1     116.735 116.942 115.051  1.00  0.00     0.008 C 
BRANCH   5   6
ATOM      6  C   UNL     1     116.218 116.266 116.328  1.00  0.00     0.075 C 
BRANCH   6   7
ATOM      7  C   UNL     1     117.354 115.946 117.259  1.00  0.00     0.129 C 
ATOM      8  O   UNL     1     118.085 116.843 117.654  1.00  0.00    -0.300 OA
ATOM      9  C   UNL     1     117.584 114.540 117.725  1.00  0.00     0.087 C 
ENDBRANCH   6   7
ENDBRANCH   5   6
ENDBRANCH   1   5
TORSDOF 5
ENDMDL
MODEL 7
REMARK VINA RESULT:    -4.013      2.636      4.837
REMARK INTER + INTRA:          -5.432
REMARK INTER:                  -5.214
REMARK INTRA:                  -0.217
REMARK UNBOUND:                -0.245
REMARK SMILES CCCCCCC(C)=O
REMARK SMILES IDX 4 1 3 2 2 3 1 4 5 5 6 6 7 7 9 8 8 9
REMARK H PARENT
REMARK Flexibility Score: inf
ROOT
ATOM      1  C   UNL     1     116.250 116.958 113.820  1.00  0.00     0.000 C 
ENDROOT
BRANCH   1   2
ATOM      2  C   UNL     1     117.113 116.987 112.541  1.00  0.00    -0.000 C 
BRANCH   2   3
ATOM      3  C   UNL     1     117.024 115.675 111.750  1.00  0.00    -0.003 C 
ATOM      4  C   UNL     1     115.601 115.125 111.750  1.00  0.00     0.004 C 
ENDBRANCH   2   3
ENDBRANCH   1   2
BRANCH   1   5
ATOM      5  C   UNL     1     117.000 116.436 115.058  1.00  0.00     0.008 C 
BRANCH   5   6
ATOM      6  C   UNL     1     116.124 116.402 116.317  1.00  0.00     0.075 C 
BRANCH   6   7
ATOM      7  C   UNL     1     116.518 117.497 117.269  1.00  0.00     0.129 C 
ATOM      8  O   UNL     1     117.676 117.581 117.651  1.00  0.00    -0.300 OA
ATOM      9  C   UNL     1     115.505 118.497 117.739  1.00  0.00     0.087 C 
ENDBRANCH   6   7
ENDBRANCH   5   6
ENDBRANCH   1   5
TORSDOF 5
ENDMDL
MODEL 8
REMARK VINA RESULT:    -4.011      2.489      4.976
REMARK INTER + INTRA:          -5.428
REMARK INTER:                  -5.231
REMARK INTRA:                  -0.197
REMARK UNBOUND:                -0.245
REMARK SMILES CCCCCCC(C)=O
REMARK SMILES IDX 4 1 3 2 2 3 1 4 5 5 6 6 7 7 9 8 8 9
REMARK H PARENT
REMARK Flexibility Score: inf
ROOT
ATOM      1  C   UNL     1     116.967 116.620 114.087  1.00  0.00     0.000 C 
ENDROOT
BRANCH   1   2
ATOM      2  C   UNL     1     116.053 116.976 112.896  1.00  0.00    -0.000 C 
BRANCH   2   3
ATOM      3  C   UNL     1     116.431 116.206 111.622  1.00  0.00    -0.003 C 
ATOM      4  C   UNL     1     117.786 115.520 111.774  1.00  0.00     0.004 C 
ENDBRANCH   2   3
ENDBRANCH   1   2
BRANCH   1   5
ATOM      5  C   UNL     1     116.221 116.520 115.429  1.00  0.00     0.008 C 
BRANCH   5   6
ATOM      6  C   UNL     1     117.149 116.187 116.605  1.00  0.00     0.075 C 
BRANCH   6   7
ATOM      7  C   UNL     1     117.487 117.428 117.384  1.00  0.00     0.129 C 
ATOM      8  O   UNL     1     116.591 118.167 117.767  1.00  0.00    -0.300 OA
ATOM      9  C   UNL     1     118.912 117.756 117.712  1.00  0.00     0.087 C 
ENDBRANCH   6   7
ENDBRANCH   5   6
ENDBRANCH   1   5
TORSDOF 5
ENDMDL
MODEL 9
REMARK VINA RESULT:    -4.004      2.241      4.995
REMARK INTER + INTRA:          -5.419
REMARK INTER:                  -5.216
REMARK INTRA:                  -0.203
REMARK UNBOUND:                -0.245
REMARK SMILES CCCCCCC(C)=O
REMARK SMILES IDX 4 1 3 2 2 3 1 4 5 5 6 6 7 7 9 8 8 9
REMARK H PARENT
REMARK Flexibility Score: inf
ROOT
ATOM      1  C   UNL     1     116.246 116.235 113.643  1.00  0.00     0.000 C 
ENDROOT
BRANCH   1   2
ATOM      2  C   UNL     1     116.213 117.121 112.379  1.00  0.00    -0.000 C 
BRANCH   2   3
ATOM      3  C   UNL     1     117.380 116.820 111.428  1.00  0.00    -0.003 C 
ATOM      4  C   UNL     1     117.998 115.457 111.726  1.00  0.00     0.004 C 
ENDBRANCH   2   3
ENDBRANCH   1   2
BRANCH   1   5
ATOM      5  C   UNL     1     116.743 116.970 114.899  1.00  0.00     0.008 C 
BRANCH   5   6
ATOM      6  C   UNL     1     116.723 116.089 116.154  1.00  0.00     0.075 C 
BRANCH   6   7
ATOM      7  C   UNL     1     115.705 116.590 117.141  1.00  0.00     0.129 C 
ATOM      8  O   UNL     1     115.713 117.766 117.476  1.00  0.00    -0.300 OA
ATOM      9  C   UNL     1     114.668 115.664 117.701  1.00  0.00     0.087 C 
ENDBRANCH   6   7
ENDBRANCH   5   6
ENDBRANCH   1   5
TORSDOF 5
ENDMDL
