MODEL 1
REMARK VINA RESULT:    -3.924      0.000      0.000
REMARK INTER + INTRA:          -4.950
REMARK INTER:                  -4.842
REMARK INTRA:                  -0.109
REMARK UNBOUND:                -0.109
REMARK SMILES CCCCCC(=O)[O-]
REMARK SMILES IDX 4 1 5 2 6 3 7 4 8 5 3 6 2 7 1 8
REMARK H PARENT
REMARK Flexibility Score: inf
ROOT
ATOM      1  C   UNL     1     133.402 135.178 133.748  1.00  0.00     0.006 C 
ENDROOT
BRANCH   1   2
ATOM      2  C   UNL     1     133.463 133.723 134.238  1.00  0.00     0.053 C 
BRANCH   2   3
ATOM      3  C   UNL     1     132.338 132.899 133.693  1.00  0.00     0.041 C 
ATOM      4  O   UNL     1     131.178 133.383 133.615  1.00  0.00    -0.550 OA
ATOM      5  O   UNL     1     132.562 131.585 133.303  1.00  0.00    -0.550 OA
ENDBRANCH   2   3
ENDBRANCH   1   2
BRANCH   1   6
ATOM      6  C   UNL     1     134.727 135.707 133.171  1.00  0.00     0.000 C 
BRANCH   6   7
ATOM      7  C   UNL     1     135.907 134.757 133.423  1.00  0.00    -0.003 C 
ATOM      8  C   UNL     1     137.238 135.499 133.340  1.00  0.00     0.004 C 
ENDBRANCH   6   7
ENDBRANCH   1   6
TORSDOF 4
ENDMDL
MODEL 2
REMARK VINA RESULT:    -3.903      2.553      4.586
REMARK INTER + INTRA:          -4.924
REMARK INTER:                  -4.789
REMARK INTRA:                  -0.135
REMARK UNBOUND:                -0.109
REMARK SMILES CCCCCC(=O)[O-]
REMARK SMILES IDX 4 1 5 2 6 3 7 4 8 5 3 6 2 7 1 8
REMARK H PARENT
REMARK Flexibility Score: inf
ROOT
ATOM      1  C   UNL     1     132.383 133.809 133.268  1.00  0.00     0.006 C 
ENDROOT
BRANCH   1   2
ATOM      2  C   UNL     1     133.499 133.476 134.272  1.00  0.00     0.053 C 
BRANCH   2   3
ATOM      3  C   UNL     1     134.543 132.583 133.676  1.00  0.00     0.041 C 
ATOM      4  O   UNL     1     134.359 131.338 133.628  1.00  0.00    -0.550 OA
ATOM      5  O   UNL     1     135.733 133.121 133.204  1.00  0.00    -0.550 OA
ENDBRANCH   2   3
ENDBRANCH   1   2
BRANCH   1   6
ATOM      6  C   UNL     1     131.028 133.153 133.588  1.00  0.00     0.000 C 
BRANCH   6   7
ATOM      7  C   UNL     1     130.909 131.730 133.025  1.00  0.00    -0.003 C 
ATOM      8  C   UNL     1     129.459 131.252 133.038  1.00  0.00     0.004 C 
ENDBRANCH   6   7
ENDBRANCH   1   6
TORSDOF 4
ENDMDL
MODEL 3
REMARK VINA RESULT:    -3.901      2.406      3.241
REMARK INTER + INTRA:          -4.922
REMARK INTER:                  -4.815
REMARK INTRA:                  -0.107
REMARK UNBOUND:                -0.109
REMARK SMILES CCCCCC(=O)[O-]
REMARK SMILES IDX 4 1 5 2 6 3 7 4 8 5 3 6 2 7 1 8
REMARK H PARENT
REMARK Flexibility Score: inf
ROOT
ATOM      1  C   UNL     1     135.212 133.926 133.551  1.00  0.00     0.006 C 
ENDROOT
BRANCH   1   2
ATOM      2  C   UNL     1     133.861 133.802 134.272  1.00  0.00     0.053 C 
BRANCH   2   3
ATOM      3  C   UNL     1     132.862 134.798 133.770  1.00  0.00     0.041 C 
ATOM      4  O   UNL     1     133.153 136.023 133.734  1.00  0.00    -0.550 OA
ATOM      5  O   UNL     1     131.598 134.379 133.374  1.00  0.00    -0.550 OA
ENDBRANCH   2   3
ENDBRANCH   1   2
BRANCH   1   6
ATOM      6  C   UNL     1     135.886 132.579 133.233  1.00  0.00     0.000 C 
BRANCH   6   7
ATOM      7  C   UNL     1     134.914 131.393 133.320  1.00  0.00    -0.003 C 
ATOM      8  C   UNL     1     135.658 130.064 133.219  1.00  0.00     0.004 C 
ENDBRANCH   6   7
ENDBRANCH   1   6
TORSDOF 4
ENDMDL
MODEL 4
REMARK VINA RESULT:    -3.887      2.362      3.381
REMARK INTER + INTRA:          -4.904
REMARK INTER:                  -4.779
REMARK INTRA:                  -0.125
REMARK UNBOUND:                -0.109
REMARK SMILES CCCCCC(=O)[O-]
REMARK SMILES IDX 4 1 5 2 6 3 7 4 8 5 3 6 2 7 1 8
REMARK H PARENT
REMARK Flexibility Score: inf
ROOT
ATOM      1  C   UNL     1     132.152 133.557 133.761  1.00  0.00     0.006 C 
ENDROOT
BRANCH   1   2
ATOM      2  C   UNL     1     133.538 133.650 134.419  1.00  0.00     0.053 C 
BRANCH   2   3
ATOM      3  C   UNL     1     134.532 132.741 133.766  1.00  0.00     0.041 C 
ATOM      4  O   UNL     1     134.305 131.504 133.689  1.00  0.00    -0.550 OA
ATOM      5  O   UNL     1     135.726 133.252 133.273  1.00  0.00    -0.550 OA
ENDBRANCH   2   3
ENDBRANCH   1   2
BRANCH   1   6
ATOM      6  C   UNL     1     131.736 134.818 132.982  1.00  0.00     0.000 C 
BRANCH   6   7
ATOM      7  C   UNL     1     132.568 136.052 133.361  1.00  0.00    -0.003 C 
ATOM      8  C   UNL     1     131.734 137.328 133.267  1.00  0.00     0.004 C 
ENDBRANCH   6   7
ENDBRANCH   1   6
TORSDOF 4
ENDMDL
MODEL 5
REMARK VINA RESULT:    -3.882      1.476      2.077
REMARK INTER + INTRA:          -4.898
REMARK INTER:                  -4.776
REMARK INTRA:                  -0.122
REMARK UNBOUND:                -0.109
REMARK SMILES CCCCCC(=O)[O-]
REMARK SMILES IDX 4 1 5 2 6 3 7 4 8 5 3 6 2 7 1 8
REMARK H PARENT
REMARK Flexibility Score: inf
ROOT
ATOM      1  C   UNL     1     134.937 133.478 133.416  1.00  0.00     0.006 C 
ENDROOT
BRANCH   1   2
ATOM      2  C   UNL     1     133.897 133.998 134.421  1.00  0.00     0.053 C 
BRANCH   2   3
ATOM      3  C   UNL     1     132.834 134.818 133.757  1.00  0.00     0.041 C 
ATOM      4  O   UNL     1     132.945 136.071 133.698  1.00  0.00    -0.550 OA
ATOM      5  O   UNL     1     131.705 134.201 133.234  1.00  0.00    -0.550 OA
ENDBRANCH   2   3
ENDBRANCH   1   2
BRANCH   1   6
ATOM      6  C   UNL     1     136.325 134.131 133.546  1.00  0.00     0.000 C 
BRANCH   6   7
ATOM      7  C   UNL     1     136.362 135.564 132.994  1.00  0.00    -0.003 C 
ATOM      8  C   UNL     1     137.767 136.153 133.089  1.00  0.00     0.004 C 
ENDBRANCH   6   7
ENDBRANCH   1   6
TORSDOF 4
ENDMDL
MODEL 6
REMARK VINA RESULT:    -3.867      1.558      2.813
REMARK INTER + INTRA:          -4.880
REMARK INTER:                  -4.758
REMARK INTRA:                  -0.122
REMARK UNBOUND:                -0.109
REMARK SMILES CCCCCC(=O)[O-]
REMARK SMILES IDX 4 1 5 2 6 3 7 4 8 5 3 6 2 7 1 8
REMARK H PARENT
REMARK Flexibility Score: inf
ROOT
ATOM      1  C   UNL     1     134.571 134.647 133.749  1.00  0.00     0.006 C 
ENDROOT
BRANCH   1   2
ATOM      2  C   UNL     1     133.637 133.613 134.397  1.00  0.00     0.053 C 
BRANCH   2   3
ATOM      3  C   UNL     1     133.710 132.283 133.711  1.00  0.00     0.041 C 
ATOM      4  O   UNL     1     132.653 131.679 133.387  1.00  0.00    -0.550 OA
ATOM      5  O   UNL     1     134.943 131.696 133.459  1.00  0.00    -0.550 OA
ENDBRANCH   2   3
ENDBRANCH   1   2
BRANCH   1   6
ATOM      6  C   UNL     1     133.868 135.941 133.301  1.00  0.00     0.000 C 
BRANCH   6   7
ATOM      7  C   UNL     1     132.337 135.826 133.330  1.00  0.00    -0.003 C 
ATOM      8  C   UNL     1     131.680 137.198 133.203  1.00  0.00     0.004 C 
ENDBRANCH   6   7
ENDBRANCH   1   6
TORSDOF 4
ENDMDL
MODEL 7
REMARK VINA RESULT:    -3.851      2.534      4.822
REMARK INTER + INTRA:          -4.860
REMARK INTER:                  -4.806
REMARK INTRA:                  -0.054
REMARK UNBOUND:                -0.109
REMARK SMILES CCCCCC(=O)[O-]
REMARK SMILES IDX 4 1 5 2 6 3 7 4 8 5 3 6 2 7 1 8
REMARK H PARENT
REMARK Flexibility Score: inf
ROOT
ATOM      1  C   UNL     1     132.423 133.867 133.713  1.00  0.00     0.006 C 
ENDROOT
BRANCH   1   2
ATOM      2  C   UNL     1     133.731 133.703 134.503  1.00  0.00     0.053 C 
BRANCH   2   3
ATOM      3  C   UNL     1     134.922 134.159 133.717  1.00  0.00     0.041 C 
ATOM      4  O   UNL     1     135.826 133.339 133.404  1.00  0.00    -0.550 OA
ATOM      5  O   UNL     1     135.052 135.495 133.361  1.00  0.00    -0.550 OA
ENDBRANCH   2   3
ENDBRANCH   1   2
BRANCH   1   6
ATOM      6  C   UNL     1     131.778 132.540 133.275  1.00  0.00     0.000 C 
BRANCH   6   7
ATOM      7  C   UNL     1     130.291 132.450 133.646  1.00  0.00    -0.003 C 
ATOM      8  C   UNL     1     129.631 131.242 132.986  1.00  0.00     0.004 C 
ENDBRANCH   6   7
ENDBRANCH   1   6
TORSDOF 4
ENDMDL
MODEL 8
REMARK VINA RESULT:    -3.850      2.265      2.882
REMARK INTER + INTRA:          -4.859
REMARK INTER:                  -4.718
REMARK INTRA:                  -0.141
REMARK UNBOUND:                -0.109
REMARK SMILES CCCCCC(=O)[O-]
REMARK SMILES IDX 4 1 5 2 6 3 7 4 8 5 3 6 2 7 1 8
REMARK H PARENT
REMARK Flexibility Score: inf
ROOT
ATOM      1  C   UNL     1     131.434 134.401 133.321  1.00  0.00     0.006 C 
ENDROOT
BRANCH   1   2
ATOM      2  C   UNL     1     131.139 132.904 133.500  1.00  0.00     0.053 C 
BRANCH   2   3
ATOM      3  C   UNL     1     132.116 132.046 132.756  1.00  0.00     0.041 C 
ATOM      4  O   UNL     1     132.056 131.961 131.501  1.00  0.00    -0.550 OA
ATOM      5  O   UNL     1     133.071 131.315 133.451  1.00  0.00    -0.550 OA
ENDBRANCH   2   3
ENDBRANCH   1   2
BRANCH   1   6
ATOM      6  C   UNL     1     132.844 134.826 133.769  1.00  0.00     0.000 C 
BRANCH   6   7
ATOM      7  C   UNL     1     133.156 136.293 133.438  1.00  0.00    -0.003 C 
ATOM      8  C   UNL     1     131.875 137.085 133.186  1.00  0.00     0.004 C 
ENDBRANCH   6   7
ENDBRANCH   1   6
TORSDOF 4
ENDMDL
MODEL 9
REMARK VINA RESULT:    -3.818      3.474      4.724
REMARK INTER + INTRA:          -4.820
REMARK INTER:                  -4.759
REMARK INTRA:                  -0.060
REMARK UNBOUND:                -0.109
REMARK SMILES CCCCCC(=O)[O-]
REMARK SMILES IDX 4 1 5 2 6 3 7 4 8 5 3 6 2 7 1 8
REMARK H PARENT
REMARK Flexibility Score: inf
ROOT
ATOM      1  C   UNL     1     134.391 135.863 133.316  1.00  0.00     0.006 C 
ENDROOT
BRANCH   1   2
ATOM      2  C   UNL     1     135.614 134.933 133.302  1.00  0.00     0.053 C 
BRANCH   2   3
ATOM      3  C   UNL     1     136.777 135.544 132.583  1.00  0.00     0.041 C 
ATOM      4  O   UNL     1     137.631 136.218 133.217  1.00  0.00    -0.550 OA
ATOM      5  O   UNL     1     136.900 135.398 131.207  1.00  0.00    -0.550 OA
ENDBRANCH   2   3
ENDBRANCH   1   2
BRANCH   1   6
ATOM      6  C   UNL     1     133.094 135.196 133.809  1.00  0.00     0.000 C 
BRANCH   6   7
ATOM      7  C   UNL     1     131.847 135.698 133.067  1.00  0.00    -0.003 C 
ATOM      8  C   UNL     1     131.706 137.213 133.192  1.00  0.00     0.004 C 
ENDBRANCH   6   7
ENDBRANCH   1   6
TORSDOF 4
ENDMDL
