MODEL 1
REMARK VINA RESULT:    -4.589      0.000      0.000
REMARK INTER + INTRA:          -4.589
REMARK INTER:                  -4.589
REMARK INTRA:                   0.000
REMARK UNBOUND:                 0.000
REMARK SMILES O=c1ccc2ccccc2o1
REMARK SMILES IDX 7 1 8 2 9 3 10 4 5 5 6 6 4 7 3 8 2 9 1 10 11 11
REMARK H PARENT
REMARK Flexibility Score: inf
ROOT
ATOM      1  C   UNL     1     102.181 121.849  96.431  1.00  0.00     0.001 A 
ATOM      2  C   UNL     1     101.056 121.960  95.606  1.00  0.00     0.004 A 
ATOM      3  C   UNL     1     100.716 120.916  94.738  1.00  0.00     0.048 A 
ATOM      4  C   UNL     1     101.498 119.758  94.693  1.00  0.00     0.138 A 
ATOM      5  C   UNL     1     102.634 119.645  95.527  1.00  0.00     0.018 A 
ATOM      6  C   UNL     1     102.971 120.694  96.394  1.00  0.00     0.012 A 
ATOM      7  C   UNL     1     103.397 118.475  95.461  1.00  0.00     0.019 A 
ATOM      8  C   UNL     1     103.019 117.462  94.580  1.00  0.00     0.094 A 
ATOM      9  C   UNL     1     101.883 117.642  93.784  1.00  0.00     0.336 A 
ATOM     10  O   UNL     1     101.525 116.738  92.985  1.00  0.00    -0.246 OA
ATOM     11  O   UNL     1     101.173 118.765  93.867  1.00  0.00    -0.423 OA
ENDROOT
TORSDOF 0
ENDMDL
MODEL 2
REMARK VINA RESULT:    -4.465      0.894      1.099
REMARK INTER + INTRA:          -4.465
REMARK INTER:                  -4.465
REMARK INTRA:                   0.000
REMARK UNBOUND:                 0.000
REMARK SMILES O=c1ccc2ccccc2o1
REMARK SMILES IDX 7 1 8 2 9 3 10 4 5 5 6 6 4 7 3 8 2 9 1 10 11 11
REMARK H PARENT
REMARK Flexibility Score: inf
ROOT
ATOM      1  C   UNL     1     102.506 120.753  96.174  1.00  0.00     0.001 A 
ATOM      2  C   UNL     1     101.280 120.891  95.515  1.00  0.00     0.004 A 
ATOM      3  C   UNL     1     100.855 119.913  94.609  1.00  0.00     0.048 A 
ATOM      4  C   UNL     1     101.655 118.792  94.361  1.00  0.00     0.138 A 
ATOM      5  C   UNL     1     102.893 118.652  95.027  1.00  0.00     0.018 A 
ATOM      6  C   UNL     1     103.314 119.636  95.933  1.00  0.00     0.012 A 
ATOM      7  C   UNL     1     103.670 117.521  94.759  1.00  0.00     0.019 A 
ATOM      8  C   UNL     1     103.206 116.573  93.849  1.00  0.00     0.094 A 
ATOM      9  C   UNL     1     101.970 116.777  93.226  1.00  0.00     0.336 A 
ATOM     10  O   UNL     1     101.534 115.931  92.402  1.00  0.00    -0.246 OA
ATOM     11  O   UNL     1     101.248 117.862  93.499  1.00  0.00    -0.423 OA
ENDROOT
TORSDOF 0
ENDMDL
MODEL 3
REMARK VINA RESULT:    -4.417      1.289      2.162
REMARK INTER + INTRA:          -4.417
REMARK INTER:                  -4.417
REMARK INTRA:                   0.000
REMARK UNBOUND:                 0.000
REMARK SMILES O=c1ccc2ccccc2o1
REMARK SMILES IDX 7 1 8 2 9 3 10 4 5 5 6 6 4 7 3 8 2 9 1 10 11 11
REMARK H PARENT
REMARK Flexibility Score: inf
ROOT
ATOM      1  C   UNL     1     101.386 122.014  95.589  1.00  0.00     0.001 A 
ATOM      2  C   UNL     1     102.519 121.832  96.390  1.00  0.00     0.004 A 
ATOM      3  C   UNL     1     103.196 120.608  96.384  1.00  0.00     0.048 A 
ATOM      4  C   UNL     1     102.742 119.560  95.575  1.00  0.00     0.138 A 
ATOM      5  C   UNL     1     101.598 119.743  94.766  1.00  0.00     0.018 A 
ATOM      6  C   UNL     1     100.924 120.972  94.777  1.00  0.00     0.012 A 
ATOM      7  C   UNL     1     101.168 118.678  93.968  1.00  0.00     0.019 A 
ATOM      8  C   UNL     1     101.874 117.476  93.995  1.00  0.00     0.094 A 
ATOM      9  C   UNL     1     102.998 117.366  94.821  1.00  0.00     0.336 A 
ATOM     10  O   UNL     1     103.649 116.289  94.857  1.00  0.00    -0.246 OA
ATOM     11  O   UNL     1     103.387 118.395  95.570  1.00  0.00    -0.423 OA
ENDROOT
TORSDOF 0
ENDMDL
MODEL 4
REMARK VINA RESULT:    -4.411      2.649      4.563
REMARK INTER + INTRA:          -4.411
REMARK INTER:                  -4.411
REMARK INTRA:                   0.000
REMARK UNBOUND:                 0.000
REMARK SMILES O=c1ccc2ccccc2o1
REMARK SMILES IDX 7 1 8 2 9 3 10 4 5 5 6 6 4 7 3 8 2 9 1 10 11 11
REMARK H PARENT
REMARK Flexibility Score: inf
ROOT
ATOM      1  C   UNL     1     102.622 119.898  96.246  1.00  0.00     0.001 A 
ATOM      2  C   UNL     1     101.447 119.496  95.602  1.00  0.00     0.004 A 
ATOM      3  C   UNL     1     100.624 120.444  94.985  1.00  0.00     0.048 A 
ATOM      4  C   UNL     1     100.974 121.798  95.009  1.00  0.00     0.138 A 
ATOM      5  C   UNL     1     102.161 122.205  95.660  1.00  0.00     0.018 A 
ATOM      6  C   UNL     1     102.982 121.250  96.277  1.00  0.00     0.012 A 
ATOM      7  C   UNL     1     102.485 123.565  95.667  1.00  0.00     0.019 A 
ATOM      8  C   UNL     1     101.635 124.474  95.039  1.00  0.00     0.094 A 
ATOM      9  C   UNL     1     100.476 124.000  94.415  1.00  0.00     0.336 A 
ATOM     10  O   UNL     1      99.697 124.805  93.842  1.00  0.00    -0.246 OA
ATOM     11  O   UNL     1     100.190 122.700  94.421  1.00  0.00    -0.423 OA
ENDROOT
TORSDOF 0
ENDMDL
MODEL 5
REMARK VINA RESULT:    -4.347      1.645      3.849
REMARK INTER + INTRA:          -4.347
REMARK INTER:                  -4.347
REMARK INTRA:                   0.000
REMARK UNBOUND:                 0.000
REMARK SMILES O=c1ccc2ccccc2o1
REMARK SMILES IDX 7 1 8 2 9 3 10 4 5 5 6 6 4 7 3 8 2 9 1 10 11 11
REMARK H PARENT
REMARK Flexibility Score: inf
ROOT
ATOM      1  C   UNL     1     102.917 117.428  94.701  1.00  0.00     0.001 A 
ATOM      2  C   UNL     1     101.769 117.592  93.918  1.00  0.00     0.004 A 
ATOM      3  C   UNL     1     101.057 118.796  93.956  1.00  0.00     0.048 A 
ATOM      4  C   UNL     1     101.492 119.841  94.779  1.00  0.00     0.138 A 
ATOM      5  C   UNL     1     102.651 119.676  95.571  1.00  0.00     0.018 A 
ATOM      6  C   UNL     1     103.359 118.467  95.528  1.00  0.00     0.012 A 
ATOM      7  C   UNL     1     103.060 120.738  96.382  1.00  0.00     0.019 A 
ATOM      8  C   UNL     1     102.319 121.919  96.389  1.00  0.00     0.094 A 
ATOM      9  C   UNL     1     101.182 122.012  95.579  1.00  0.00     0.336 A 
ATOM     10  O   UNL     1     100.501 123.071  95.571  1.00  0.00    -0.246 OA
ATOM     11  O   UNL     1     100.813 120.987  94.815  1.00  0.00    -0.423 OA
ENDROOT
TORSDOF 0
ENDMDL
MODEL 6
REMARK VINA RESULT:    -4.285      1.971      2.820
REMARK INTER + INTRA:          -4.285
REMARK INTER:                  -4.285
REMARK INTRA:                   0.000
REMARK UNBOUND:                 0.000
REMARK SMILES O=c1ccc2ccccc2o1
REMARK SMILES IDX 7 1 8 2 9 3 10 4 5 5 6 6 4 7 3 8 2 9 1 10 11 11
REMARK H PARENT
REMARK Flexibility Score: inf
ROOT
ATOM      1  C   UNL     1     101.809 124.550  94.837  1.00  0.00     0.001 A 
ATOM      2  C   UNL     1     100.617 124.147  94.226  1.00  0.00     0.004 A 
ATOM      3  C   UNL     1     100.194 122.816  94.318  1.00  0.00     0.048 A 
ATOM      4  C   UNL     1     100.962 121.884  95.024  1.00  0.00     0.138 A 
ATOM      5  C   UNL     1     102.167 122.291  95.641  1.00  0.00     0.018 A 
ATOM      6  C   UNL     1     102.585 123.625  95.544  1.00  0.00     0.012 A 
ATOM      7  C   UNL     1     102.913 121.337  96.340  1.00  0.00     0.019 A 
ATOM      8  C   UNL     1     102.453 120.022  96.405  1.00  0.00     0.094 A 
ATOM      9  C   UNL     1     101.251 119.691  95.770  1.00  0.00     0.336 A 
ATOM     10  O   UNL     1     100.819 118.510  95.819  1.00  0.00    -0.246 OA
ATOM     11  O   UNL     1     100.559 120.618  95.112  1.00  0.00    -0.423 OA
ENDROOT
TORSDOF 0
ENDMDL
MODEL 7
REMARK VINA RESULT:    -4.200      2.067      3.207
REMARK INTER + INTRA:          -4.200
REMARK INTER:                  -4.200
REMARK INTRA:                   0.000
REMARK UNBOUND:                 0.000
REMARK SMILES O=c1ccc2ccccc2o1
REMARK SMILES IDX 7 1 8 2 9 3 10 4 5 5 6 6 4 7 3 8 2 9 1 10 11 11
REMARK H PARENT
REMARK Flexibility Score: inf
ROOT
ATOM      1  C   UNL     1     101.738 119.099  95.360  1.00  0.00     0.001 A 
ATOM      2  C   UNL     1     100.852 118.050  95.628  1.00  0.00     0.004 A 
ATOM      3  C   UNL     1     100.985 116.829  94.956  1.00  0.00     0.048 A 
ATOM      4  C   UNL     1     102.005 116.654  94.016  1.00  0.00     0.138 A 
ATOM      5  C   UNL     1     102.900 117.714  93.745  1.00  0.00     0.018 A 
ATOM      6  C   UNL     1     102.761 118.935  94.420  1.00  0.00     0.012 A 
ATOM      7  C   UNL     1     103.910 117.509  92.800  1.00  0.00     0.019 A 
ATOM      8  C   UNL     1     104.003 116.276  92.155  1.00  0.00     0.094 A 
ATOM      9  C   UNL     1     103.083 115.272  92.473  1.00  0.00     0.336 A 
ATOM     10  O   UNL     1     103.152 114.152  91.903  1.00  0.00    -0.246 OA
ATOM     11  O   UNL     1     102.131 115.492  93.378  1.00  0.00    -0.423 OA
ENDROOT
TORSDOF 0
ENDMDL
MODEL 8
REMARK VINA RESULT:    -4.165      2.091      4.668
REMARK INTER + INTRA:          -4.165
REMARK INTER:                  -4.165
REMARK INTRA:                   0.000
REMARK UNBOUND:                 0.000
REMARK SMILES O=c1ccc2ccccc2o1
REMARK SMILES IDX 7 1 8 2 9 3 10 4 5 5 6 6 4 7 3 8 2 9 1 10 11 11
REMARK H PARENT
REMARK Flexibility Score: inf
ROOT
ATOM      1  C   UNL     1     101.723 114.948  94.329  1.00  0.00     0.001 A 
ATOM      2  C   UNL     1     103.109 115.120  94.253  1.00  0.00     0.004 A 
ATOM      3  C   UNL     1     103.687 116.341  94.618  1.00  0.00     0.048 A 
ATOM      4  C   UNL     1     102.880 117.394  95.061  1.00  0.00     0.138 A 
ATOM      5  C   UNL     1     101.479 117.221  95.137  1.00  0.00     0.018 A 
ATOM      6  C   UNL     1     100.906 115.995  94.770  1.00  0.00     0.012 A 
ATOM      7  C   UNL     1     100.698 118.291  95.584  1.00  0.00     0.019 A 
ATOM      8  C   UNL     1     101.318 119.489  95.936  1.00  0.00     0.094 A 
ATOM      9  C   UNL     1     102.710 119.590  95.835  1.00  0.00     0.336 A 
ATOM     10  O   UNL     1     103.287 120.663  96.149  1.00  0.00    -0.246 OA
ATOM     11  O   UNL     1     103.431 118.556  95.408  1.00  0.00    -0.423 OA
ENDROOT
TORSDOF 0
ENDMDL
MODEL 9
REMARK VINA RESULT:    -4.163      2.772      4.247
REMARK INTER + INTRA:          -4.163
REMARK INTER:                  -4.163
REMARK INTRA:                   0.000
REMARK UNBOUND:                 0.000
REMARK SMILES O=c1ccc2ccccc2o1
REMARK SMILES IDX 7 1 8 2 9 3 10 4 5 5 6 6 4 7 3 8 2 9 1 10 11 11
REMARK H PARENT
REMARK Flexibility Score: inf
ROOT
ATOM      1  C   UNL     1     102.658 119.998  96.108  1.00  0.00     0.001 A 
ATOM      2  C   UNL     1     102.986 121.349  96.261  1.00  0.00     0.004 A 
ATOM      3  C   UNL     1     102.102 122.342  95.824  1.00  0.00     0.048 A 
ATOM      4  C   UNL     1     100.885 121.985  95.233  1.00  0.00     0.138 A 
ATOM      5  C   UNL     1     100.553 120.620  95.078  1.00  0.00     0.018 A 
ATOM      6  C   UNL     1     101.443 119.631  95.518  1.00  0.00     0.012 A 
ATOM      7  C   UNL     1      99.330 120.295  94.484  1.00  0.00     0.019 A 
ATOM      8  C   UNL     1      98.480 121.317  94.064  1.00  0.00     0.094 A 
ATOM      9  C   UNL     1      98.874 122.647  94.248  1.00  0.00     0.336 A 
ATOM     10  O   UNL     1      98.120 123.583  93.876  1.00  0.00    -0.246 OA
ATOM     11  O   UNL     1     100.044 122.930  94.817  1.00  0.00    -0.423 OA
ENDROOT
TORSDOF 0
ENDMDL
