MODEL 1
REMARK VINA RESULT:    -2.143      0.000      0.000
REMARK INTER + INTRA:          -2.143
REMARK INTER:                  -2.143
REMARK INTRA:                   0.000
REMARK UNBOUND:                 0.000
REMARK SMILES CC(=O)[O-]
REMARK SMILES IDX 1 1 2 2 3 3 4 4
REMARK H PARENT
REMARK Flexibility Score: inf
ROOT
ATOM      1  C   UNL     1       8.758  41.130   5.471  1.00  0.00     0.063 C 
ATOM      2  C   UNL     1       8.424  42.168   6.489  1.00  0.00     0.038 C 
ATOM      3  O   UNL     1       7.261  42.233   6.967  1.00  0.00    -0.550 OA
ATOM      4  O   UNL     1       9.380  43.100   6.872  1.00  0.00    -0.550 OA
ENDROOT
TORSDOF 0
ENDMDL
MODEL 2
REMARK VINA RESULT:    -2.134      9.549      9.934
REMARK INTER + INTRA:          -2.134
REMARK INTER:                  -2.134
REMARK INTRA:                   0.000
REMARK UNBOUND:                 0.000
REMARK SMILES CC(=O)[O-]
REMARK SMILES IDX 1 1 2 2 3 3 4 4
REMARK H PARENT
REMARK Flexibility Score: inf
ROOT
ATOM      1  C   UNL     1       6.243  38.494  15.397  1.00  0.00     0.063 C 
ATOM      2  C   UNL     1       5.534  39.805  15.454  1.00  0.00     0.038 C 
ATOM      3  O   UNL     1       6.174  40.877  15.297  1.00  0.00    -0.550 OA
ATOM      4  O   UNL     1       4.174  39.848  15.733  1.00  0.00    -0.550 OA
ENDROOT
TORSDOF 0
ENDMDL
MODEL 3
REMARK VINA RESULT:    -2.130      9.093      9.350
REMARK INTER + INTRA:          -2.130
REMARK INTER:                  -2.130
REMARK INTRA:                   0.000
REMARK UNBOUND:                 0.000
REMARK SMILES CC(=O)[O-]
REMARK SMILES IDX 1 1 2 2 3 3 4 4
REMARK H PARENT
REMARK Flexibility Score: inf
ROOT
ATOM      1  C   UNL     1       8.087  40.157  14.950  1.00  0.00     0.063 C 
ATOM      2  C   UNL     1       6.872  40.876  15.431  1.00  0.00     0.038 C 
ATOM      3  O   UNL     1       6.989  41.920  16.125  1.00  0.00    -0.550 OA
ATOM      4  O   UNL     1       5.609  40.366  15.160  1.00  0.00    -0.550 OA
ENDROOT
TORSDOF 0
ENDMDL
MODEL 4
REMARK VINA RESULT:    -2.099      0.086      1.621
REMARK INTER + INTRA:          -2.099
REMARK INTER:                  -2.099
REMARK INTRA:                   0.000
REMARK UNBOUND:                 0.000
REMARK SMILES CC(=O)[O-]
REMARK SMILES IDX 1 1 2 2 3 3 4 4
REMARK H PARENT
REMARK Flexibility Score: inf
ROOT
ATOM      1  C   UNL     1       8.768  41.191   5.444  1.00  0.00     0.063 C 
ATOM      2  C   UNL     1       8.440  42.225   6.467  1.00  0.00     0.038 C 
ATOM      3  O   UNL     1       9.321  43.040   6.848  1.00  0.00    -0.550 OA
ATOM      4  O   UNL     1       7.175  42.258   7.042  1.00  0.00    -0.550 OA
ENDROOT
TORSDOF 0
ENDMDL
MODEL 5
REMARK VINA RESULT:    -1.966      1.406      1.771
REMARK INTER + INTRA:          -1.966
REMARK INTER:                  -1.966
REMARK INTRA:                   0.000
REMARK UNBOUND:                 0.000
REMARK SMILES CC(=O)[O-]
REMARK SMILES IDX 1 1 2 2 3 3 4 4
REMARK H PARENT
REMARK Flexibility Score: inf
ROOT
ATOM      1  C   UNL     1       9.447  42.891   6.871  1.00  0.00     0.063 C 
ATOM      2  C   UNL     1       8.270  42.046   6.517  1.00  0.00     0.038 C 
ATOM      3  O   UNL     1       7.139  42.299   7.009  1.00  0.00    -0.550 OA
ATOM      4  O   UNL     1       8.429  40.944   5.686  1.00  0.00    -0.550 OA
ENDROOT
TORSDOF 0
ENDMDL
MODEL 6
REMARK VINA RESULT:    -1.879      8.968      9.325
REMARK INTER + INTRA:          -1.879
REMARK INTER:                  -1.879
REMARK INTRA:                   0.000
REMARK UNBOUND:                 0.000
REMARK SMILES CC(=O)[O-]
REMARK SMILES IDX 1 1 2 2 3 3 4 4
REMARK H PARENT
REMARK Flexibility Score: inf
ROOT
ATOM      1  C   UNL     1       5.750  39.705  15.335  1.00  0.00     0.063 C 
ATOM      2  C   UNL     1       6.932  40.613  15.333  1.00  0.00     0.038 C 
ATOM      3  O   UNL     1       7.966  40.303  14.685  1.00  0.00    -0.550 OA
ATOM      4  O   UNL     1       6.916  41.777  16.091  1.00  0.00    -0.550 OA
ENDROOT
TORSDOF 0
ENDMDL
MODEL 7
REMARK VINA RESULT:    -1.014      3.280      3.941
REMARK INTER + INTRA:          -1.014
REMARK INTER:                  -1.014
REMARK INTRA:                   0.000
REMARK UNBOUND:                 0.000
REMARK SMILES CC(=O)[O-]
REMARK SMILES IDX 1 1 2 2 3 3 4 4
REMARK H PARENT
REMARK Flexibility Score: inf
ROOT
ATOM      1  C   UNL     1       4.529  43.295   8.952  1.00  0.00     0.063 C 
ATOM      2  C   UNL     1       5.872  42.789   8.548  1.00  0.00     0.038 C 
ATOM      3  O   UNL     1       6.675  42.364   9.419  1.00  0.00    -0.550 OA
ATOM      4  O   UNL     1       6.261  42.835   7.215  1.00  0.00    -0.550 OA
ENDROOT
TORSDOF 0
ENDMDL
MODEL 8
REMARK VINA RESULT:    -0.744     15.418     15.623
REMARK INTER + INTRA:          -0.744
REMARK INTER:                  -0.744
REMARK INTRA:                   0.000
REMARK UNBOUND:                 0.000
REMARK SMILES CC(=O)[O-]
REMARK SMILES IDX 1 1 2 2 3 3 4 4
REMARK H PARENT
REMARK Flexibility Score: inf
ROOT
ATOM      1  C   UNL     1      -2.843  48.046  -4.124  1.00  0.00     0.063 C 
ATOM      2  C   UNL     1      -1.355  48.055  -4.022  1.00  0.00     0.038 C 
ATOM      3  O   UNL     1      -0.708  46.979  -4.125  1.00  0.00    -0.550 OA
ATOM      4  O   UNL     1      -0.682  49.241  -3.760  1.00  0.00    -0.550 OA
ENDROOT
TORSDOF 0
ENDMDL
MODEL 9
REMARK VINA RESULT:    -0.705     16.968     17.303
REMARK INTER + INTRA:          -0.705
REMARK INTER:                  -0.705
REMARK INTRA:                   0.000
REMARK UNBOUND:                 0.000
REMARK SMILES CC(=O)[O-]
REMARK SMILES IDX 1 1 2 2 3 3 4 4
REMARK H PARENT
REMARK Flexibility Score: inf
ROOT
ATOM      1  C   UNL     1      -2.474  47.890  -4.110  1.00  0.00     0.063 C 
ATOM      2  C   UNL     1      -3.958  48.008  -4.023  1.00  0.00     0.038 C 
ATOM      3  O   UNL     1      -4.509  49.136  -4.125  1.00  0.00    -0.550 OA
ATOM      4  O   UNL     1      -4.733  46.882  -3.776  1.00  0.00    -0.550 OA
ENDROOT
TORSDOF 0
ENDMDL
