MODEL 1
REMARK VINA RESULT:    -3.489      0.000      0.000
REMARK INTER + INTRA:          -3.809
REMARK INTER:                  -3.795
REMARK INTRA:                  -0.014
REMARK UNBOUND:                -0.014
REMARK SMILES OCc1ccco1
REMARK SMILES IDX 2 1 3 2 5 3 6 4 4 5 7 6 1 7
REMARK H PARENT 1 8
REMARK Flexibility Score: inf
ROOT
ATOM      1  C   UNL     1     -19.102  43.184  -3.323  1.00  0.00     0.231 C 
ENDROOT
BRANCH   1   2
ATOM      2  C   UNL     1     -18.099  43.296  -4.427  1.00  0.00     0.129 A 
ATOM      3  C   UNL     1     -16.215  43.353  -5.555  1.00  0.00     0.042 A 
ATOM      4  C   UNL     1     -17.292  43.647  -6.367  1.00  0.00     0.195 A 
ATOM      5  C   UNL     1     -16.735  43.130  -4.297  1.00  0.00     0.048 A 
ATOM      6  O   UNL     1     -18.402  43.607  -5.666  1.00  0.00    -0.467 OA
ENDBRANCH   1   2
BRANCH   1   7
ATOM      7  O   UNL     1     -19.116  44.363  -2.566  1.00  0.00    -0.388 OA
ATOM      8  H   UNL     1     -19.338  44.100  -1.635  1.00  0.00     0.211 HD
ENDBRANCH   1   7
TORSDOF 2
ENDMDL
MODEL 2
REMARK VINA RESULT:    -3.459      1.379      2.880
REMARK INTER + INTRA:          -3.777
REMARK INTER:                  -3.758
REMARK INTRA:                  -0.019
REMARK UNBOUND:                -0.014
REMARK SMILES OCc1ccco1
REMARK SMILES IDX 2 1 3 2 5 3 6 4 4 5 7 6 1 7
REMARK H PARENT 1 8
REMARK Flexibility Score: inf
ROOT
ATOM      1  C   UNL     1     -18.369  44.137  -7.114  1.00  0.00     0.231 C 
ENDROOT
BRANCH   1   2
ATOM      2  C   UNL     1     -18.243  43.767  -5.670  1.00  0.00     0.129 A 
ATOM      3  C   UNL     1     -17.557  42.880  -3.782  1.00  0.00     0.042 A 
ATOM      4  C   UNL     1     -18.707  43.620  -3.596  1.00  0.00     0.195 A 
ATOM      5  C   UNL     1     -17.257  42.970  -5.124  1.00  0.00     0.048 A 
ATOM      6  O   UNL     1     -19.094  44.135  -4.741  1.00  0.00    -0.467 OA
ENDBRANCH   1   2
BRANCH   1   7
ATOM      7  O   UNL     1     -18.863  45.443  -7.233  1.00  0.00    -0.388 OA
ATOM      8  H   UNL     1     -18.120  45.996  -7.590  1.00  0.00     0.211 HD
ENDBRANCH   1   7
TORSDOF 2
ENDMDL
MODEL 3
REMARK VINA RESULT:    -2.999      4.043      5.281
REMARK INTER + INTRA:          -3.276
REMARK INTER:                  -3.261
REMARK INTRA:                  -0.015
REMARK UNBOUND:                -0.014
REMARK SMILES OCc1ccco1
REMARK SMILES IDX 2 1 3 2 5 3 6 4 4 5 7 6 1 7
REMARK H PARENT 1 8
REMARK Flexibility Score: inf
ROOT
ATOM      1  C   UNL     1     -18.423  44.542  -7.718  1.00  0.00     0.231 C 
ENDROOT
BRANCH   1   2
ATOM      2  C   UNL     1     -18.974  44.344  -9.094  1.00  0.00     0.129 A 
ATOM      3  C   UNL     1     -19.886  43.453 -10.883  1.00  0.00     0.042 A 
ATOM      4  C   UNL     1     -19.477  44.750 -11.125  1.00  0.00     0.195 A 
ATOM      5  C   UNL     1     -19.558  43.187  -9.571  1.00  0.00     0.048 A 
ATOM      6  O   UNL     1     -18.934  45.254 -10.040  1.00  0.00    -0.467 OA
ENDBRANCH   1   2
BRANCH   1   7
ATOM      7  O   UNL     1     -19.137  45.549  -7.055  1.00  0.00    -0.388 OA
ATOM      8  H   UNL     1     -18.603  46.381  -7.144  1.00  0.00     0.211 HD
ENDBRANCH   1   7
TORSDOF 2
ENDMDL
MODEL 4
REMARK VINA RESULT:    -2.988      1.647      2.138
REMARK INTER + INTRA:          -3.264
REMARK INTER:                  -3.245
REMARK INTRA:                  -0.020
REMARK UNBOUND:                -0.014
REMARK SMILES OCc1ccco1
REMARK SMILES IDX 2 1 3 2 5 3 6 4 4 5 7 6 1 7
REMARK H PARENT 1 8
REMARK Flexibility Score: inf
ROOT
ATOM      1  C   UNL     1     -17.799  42.710  -4.196  1.00  0.00     0.231 C 
ENDROOT
BRANCH   1   2
ATOM      2  C   UNL     1     -17.272  43.267  -5.480  1.00  0.00     0.129 A 
ATOM      3  C   UNL     1     -17.131  44.062  -7.522  1.00  0.00     0.042 A 
ATOM      4  C   UNL     1     -15.880  43.917  -6.956  1.00  0.00     0.195 A 
ATOM      5  C   UNL     1     -18.033  43.638  -6.570  1.00  0.00     0.048 A 
ATOM      6  O   UNL     1     -15.997  43.438  -5.738  1.00  0.00    -0.467 OA
ENDBRANCH   1   2
BRANCH   1   7
ATOM      7  O   UNL     1     -16.923  43.014  -3.145  1.00  0.00    -0.388 OA
ATOM      8  H   UNL     1     -16.011  43.042  -3.535  1.00  0.00     0.211 HD
ENDBRANCH   1   7
TORSDOF 2
ENDMDL
MODEL 5
REMARK VINA RESULT:    -2.944      3.433      4.705
REMARK INTER + INTRA:          -3.216
REMARK INTER:                  -3.203
REMARK INTRA:                  -0.013
REMARK UNBOUND:                -0.014
REMARK SMILES OCc1ccco1
REMARK SMILES IDX 2 1 3 2 5 3 6 4 4 5 7 6 1 7
REMARK H PARENT 1 8
REMARK Flexibility Score: inf
ROOT
ATOM      1  C   UNL     1     -18.319  44.253  -7.313  1.00  0.00     0.231 C 
ENDROOT
BRANCH   1   2
ATOM      2  C   UNL     1     -18.150  43.631  -8.662  1.00  0.00     0.129 A 
ATOM      3  C   UNL     1     -18.491  42.478 -10.500  1.00  0.00     0.042 A 
ATOM      4  C   UNL     1     -17.231  43.043 -10.492  1.00  0.00     0.195 A 
ATOM      5  C   UNL     1     -19.086  42.854  -9.315  1.00  0.00     0.048 A 
ATOM      6  O   UNL     1     -17.056  43.722  -9.382  1.00  0.00    -0.467 OA
ENDBRANCH   1   2
BRANCH   1   7
ATOM      7  O   UNL     1     -18.943  45.502  -7.435  1.00  0.00    -0.388 OA
ATOM      8  H   UNL     1     -18.365  46.051  -8.025  1.00  0.00     0.211 HD
ENDBRANCH   1   7
TORSDOF 2
ENDMDL
MODEL 6
REMARK VINA RESULT:    -2.892      1.952      3.669
REMARK INTER + INTRA:          -3.159
REMARK INTER:                  -3.144
REMARK INTRA:                  -0.015
REMARK UNBOUND:                -0.014
REMARK SMILES OCc1ccco1
REMARK SMILES IDX 2 1 3 2 5 3 6 4 4 5 7 6 1 7
REMARK H PARENT 1 8
REMARK Flexibility Score: inf
ROOT
ATOM      1  C   UNL     1     -15.924  44.083  -7.307  1.00  0.00     0.231 C 
ENDROOT
BRANCH   1   2
ATOM      2  C   UNL     1     -16.561  43.632  -6.031  1.00  0.00     0.129 A 
ATOM      3  C   UNL     1     -18.019  42.931  -4.546  1.00  0.00     0.042 A 
ATOM      4  C   UNL     1     -16.796  43.187  -3.961  1.00  0.00     0.195 A 
ATOM      5  C   UNL     1     -17.871  43.222  -5.885  1.00  0.00     0.048 A 
ATOM      6  O   UNL     1     -15.947  43.606  -4.872  1.00  0.00    -0.467 OA
ENDBRANCH   1   2
BRANCH   1   7
ATOM      7  O   UNL     1     -16.580  43.506  -8.402  1.00  0.00    -0.388 OA
ATOM      8  H   UNL     1     -16.535  44.166  -9.141  1.00  0.00     0.211 HD
ENDBRANCH   1   7
TORSDOF 2
ENDMDL
MODEL 7
REMARK VINA RESULT:    -2.753     14.311     15.086
REMARK INTER + INTRA:          -3.009
REMARK INTER:                  -2.989
REMARK INTRA:                  -0.020
REMARK UNBOUND:                -0.014
REMARK SMILES OCc1ccco1
REMARK SMILES IDX 2 1 3 2 5 3 6 4 4 5 7 6 1 7
REMARK H PARENT 1 8
REMARK Flexibility Score: inf
ROOT
ATOM      1  C   UNL     1     -29.835  46.427 -10.034  1.00  0.00     0.231 C 
ENDROOT
BRANCH   1   2
ATOM      2  C   UNL     1     -31.210  45.838 -10.029  1.00  0.00     0.129 A 
ATOM      3  C   UNL     1     -33.208  45.165 -10.645  1.00  0.00     0.042 A 
ATOM      4  C   UNL     1     -33.004  44.955  -9.295  1.00  0.00     0.195 A 
ATOM      5  C   UNL     1     -32.049  45.741 -11.121  1.00  0.00     0.048 A 
ATOM      6  O   UNL     1     -31.804  45.369  -8.958  1.00  0.00    -0.467 OA
ENDBRANCH   1   2
BRANCH   1   7
ATOM      7  O   UNL     1     -29.587  47.077  -8.818  1.00  0.00    -0.388 OA
ATOM      8  H   UNL     1     -30.205  47.852  -8.779  1.00  0.00     0.211 HD
ENDBRANCH   1   7
TORSDOF 2
ENDMDL
MODEL 8
REMARK VINA RESULT:    -2.748      2.509      3.085
REMARK INTER + INTRA:          -3.003
REMARK INTER:                  -2.989
REMARK INTRA:                  -0.014
REMARK UNBOUND:                -0.014
REMARK SMILES OCc1ccco1
REMARK SMILES IDX 2 1 3 2 5 3 6 4 4 5 7 6 1 7
REMARK H PARENT 1 8
REMARK Flexibility Score: inf
ROOT
ATOM      1  C   UNL     1     -19.131  44.608  -7.766  1.00  0.00     0.231 C 
ENDROOT
BRANCH   1   2
ATOM      2  C   UNL     1     -17.822  44.169  -7.192  1.00  0.00     0.129 A 
ATOM      3  C   UNL     1     -16.289  43.331  -5.861  1.00  0.00     0.042 A 
ATOM      4  C   UNL     1     -15.718  43.908  -6.978  1.00  0.00     0.195 A 
ATOM      5  C   UNL     1     -17.650  43.502  -5.995  1.00  0.00     0.048 A 
ATOM      6  O   UNL     1     -16.658  44.402  -7.752  1.00  0.00    -0.467 OA
ENDBRANCH   1   2
BRANCH   1   7
ATOM      7  O   UNL     1     -19.678  45.635  -6.984  1.00  0.00    -0.388 OA
ATOM      8  H   UNL     1     -20.156  45.196  -6.233  1.00  0.00     0.211 HD
ENDBRANCH   1   7
TORSDOF 2
ENDMDL
MODEL 9
REMARK VINA RESULT:    -2.682      4.398      5.683
REMARK INTER + INTRA:          -2.931
REMARK INTER:                  -2.919
REMARK INTRA:                  -0.012
REMARK UNBOUND:                -0.014
REMARK SMILES OCc1ccco1
REMARK SMILES IDX 2 1 3 2 5 3 6 4 4 5 7 6 1 7
REMARK H PARENT 1 8
REMARK Flexibility Score: inf
ROOT
ATOM      1  C   UNL     1     -17.932  42.149 -10.766  1.00  0.00     0.231 C 
ENDROOT
BRANCH   1   2
ATOM      2  C   UNL     1     -18.186  43.163  -9.696  1.00  0.00     0.129 A 
ATOM      3  C   UNL     1     -19.177  44.550  -8.311  1.00  0.00     0.042 A 
ATOM      4  C   UNL     1     -17.803  44.624  -8.193  1.00  0.00     0.195 A 
ATOM      5  C   UNL     1     -19.427  43.609  -9.286  1.00  0.00     0.048 A 
ATOM      6  O   UNL     1     -17.240  43.786  -9.034  1.00  0.00    -0.467 OA
ENDBRANCH   1   2
BRANCH   1   7
ATOM      7  O   UNL     1     -18.337  40.880 -10.330  1.00  0.00    -0.388 OA
ATOM      8  H   UNL     1     -18.001  40.229 -11.000  1.00  0.00     0.211 HD
ENDBRANCH   1   7
TORSDOF 2
ENDMDL
