MODEL 1
REMARK VINA RESULT:    -6.312      0.000      0.000
REMARK INTER + INTRA:         -10.352
REMARK INTER:                  -8.526
REMARK INTRA:                  -1.826
REMARK UNBOUND:                -1.826
REMARK SMILES CC[C@H](CC[C@H](C)[C@@H]1CC[C@H]2[C@@H]3CC(=O)C4=CC(=O)CC[C@]4(C)[C@@H]3CC[C@]21C)C(C)C
REMARK SMILES IDX 4 1 3 2 2 3 1 4 29 5 30 6 31 7 5 8 6 9 7 10 8 11 9 12 27 13
REMARK SMILES IDX 10 14 11 15 26 16 28 17 12 18 25 19 24 20 13 21 22 22 14 23
REMARK SMILES IDX 16 24 21 25 23 26 15 27 17 28 20 29 18 30 19 31
REMARK H PARENT
REMARK Flexibility Score: inf
ROOT
ATOM      1  C   UNL     1      55.803  12.557   1.914  1.00  0.00     0.004 C 
ENDROOT
BRANCH   1   2
ATOM      2  C   UNL     1      56.921  13.549   1.493  1.00  0.00    -0.009 C 
BRANCH   2   3
ATOM      3  C   UNL     1      56.822  14.913   2.243  1.00  0.00     0.000 C 
ATOM      4  C   UNL     1      55.603  15.091   3.160  1.00  0.00     0.004 C 
ENDBRANCH   2   3
BRANCH   2   5
ATOM      5  C   UNL     1      58.349  12.899   1.510  1.00  0.00    -0.014 C 
ATOM      6  C   UNL     1      59.421  13.735   2.224  1.00  0.00     0.007 C 
ATOM      7  C   UNL     1      58.825  12.534   0.094  1.00  0.00     0.007 C 
ENDBRANCH   2   5
ENDBRANCH   1   2
BRANCH   1   8
ATOM      8  C   UNL     1      54.801  12.222   0.774  1.00  0.00     0.004 C 
BRANCH   8   9
ATOM      9  C   UNL     1      53.972  13.420   0.220  1.00  0.00    -0.011 C 
ATOM     10  C   UNL     1      52.459  13.201   0.429  1.00  0.00     0.008 C 
BRANCH   9  11
ATOM     11  C   UNL     1      54.292  13.882  -1.250  1.00  0.00    -0.002 C 
ATOM     12  C   UNL     1      55.538  13.288  -1.900  1.00  0.00     0.005 C 
ATOM     13  C   UNL     1      54.345  15.427  -1.562  1.00  0.00    -0.026 C 
ATOM     14  C   UNL     1      55.731  14.122  -3.150  1.00  0.00     0.005 C 
ATOM     15  C   UNL     1      55.400  15.552  -2.715  1.00  0.00    -0.001 C 
ATOM     16  C   UNL     1      52.937  15.928  -1.992  1.00  0.00     0.007 C 
ATOM     17  C   UNL     1      54.825  16.285  -0.362  1.00  0.00     0.012 C 
ATOM     18  C   UNL     1      55.041  16.482  -3.925  1.00  0.00     0.004 C 
ATOM     19  C   UNL     1      52.636  15.615  -3.460  1.00  0.00     0.005 C 
ATOM     20  C   UNL     1      53.541  16.429  -4.414  1.00  0.00     0.003 C 
ATOM     21  C   UNL     1      55.543  17.904  -3.680  1.00  0.00     0.085 C 
ATOM     22  C   UNL     1      52.878  17.789  -4.982  1.00  0.00    -0.000 C 
ATOM     23  C   UNL     1      55.301  18.702  -4.908  1.00  0.00     0.159 C 
ATOM     24  C   UNL     1      53.912  18.870  -5.330  1.00  0.00     0.005 C 
ATOM     25  C   UNL     1      51.876  18.482  -3.997  1.00  0.00     0.020 C 
ATOM     26  C   UNL     1      52.123  17.404  -6.288  1.00  0.00     0.017 C 
ATOM     27  O   UNL     1      56.252  19.260  -5.521  1.00  0.00    -0.295 OA
ATOM     28  C   UNL     1      53.518  20.108  -5.679  1.00  0.00     0.055 C 
ATOM     29  C   UNL     1      51.192  19.725  -4.609  1.00  0.00     0.081 C 
ATOM     30  C   UNL     1      52.132  20.547  -5.450  1.00  0.00     0.156 C 
ATOM     31  O   UNL     1      51.743  21.647  -5.924  1.00  0.00    -0.295 OA
ENDBRANCH   9  11
ENDBRANCH   8   9
ENDBRANCH   1   8
TORSDOF 6
ENDMDL
MODEL 2
REMARK VINA RESULT:    -6.294      3.813      7.854
REMARK INTER + INTRA:         -10.328
REMARK INTER:                  -8.813
REMARK INTRA:                  -1.515
REMARK UNBOUND:                -1.826
REMARK SMILES CC[C@H](CC[C@H](C)[C@@H]1CC[C@H]2[C@@H]3CC(=O)C4=CC(=O)CC[C@]4(C)[C@@H]3CC[C@]21C)C(C)C
REMARK SMILES IDX 4 1 3 2 2 3 1 4 29 5 30 6 31 7 5 8 6 9 7 10 8 11 9 12 27 13
REMARK SMILES IDX 10 14 11 15 26 16 28 17 12 18 25 19 24 20 13 21 22 22 14 23
REMARK SMILES IDX 16 24 21 25 23 26 15 27 17 28 20 29 18 30 19 31
REMARK H PARENT
REMARK Flexibility Score: inf
ROOT
ATOM      1  C   UNL     1      54.739  19.287  -2.422  1.00  0.00     0.004 C 
ENDROOT
BRANCH   1   2
ATOM      2  C   UNL     1      53.705  18.902  -3.513  1.00  0.00    -0.009 C 
BRANCH   2   3
ATOM      3  C   UNL     1      52.391  19.737  -3.412  1.00  0.00     0.000 C 
ATOM      4  C   UNL     1      52.013  20.551  -4.658  1.00  0.00     0.004 C 
ENDBRANCH   2   3
BRANCH   2   5
ATOM      5  C   UNL     1      54.330  18.846  -4.951  1.00  0.00    -0.014 C 
ATOM      6  C   UNL     1      53.961  17.593  -5.759  1.00  0.00     0.007 C 
ATOM      7  C   UNL     1      55.858  19.013  -4.914  1.00  0.00     0.007 C 
ENDBRANCH   2   5
ENDBRANCH   1   2
BRANCH   1   8
ATOM      8  C   UNL     1      54.843  18.254  -1.265  1.00  0.00     0.004 C 
BRANCH   8   9
ATOM      9  C   UNL     1      53.825  17.075  -1.309  1.00  0.00    -0.011 C 
ATOM     10  C   UNL     1      52.522  17.429  -0.563  1.00  0.00     0.008 C 
BRANCH   9  11
ATOM     11  C   UNL     1      54.366  15.657  -0.890  1.00  0.00    -0.002 C 
ATOM     12  C   UNL     1      55.522  15.631   0.104  1.00  0.00     0.005 C 
ATOM     13  C   UNL     1      54.756  14.632  -2.025  1.00  0.00    -0.026 C 
ATOM     14  C   UNL     1      55.993  14.190   0.078  1.00  0.00     0.005 C 
ATOM     15  C   UNL     1      55.916  13.785  -1.396  1.00  0.00    -0.001 C 
ATOM     16  C   UNL     1      53.523  13.761  -2.396  1.00  0.00     0.007 C 
ATOM     17  C   UNL     1      55.285  15.309  -3.316  1.00  0.00     0.012 C 
ATOM     18  C   UNL     1      55.864  12.231  -1.593  1.00  0.00     0.004 C 
ATOM     19  C   UNL     1      53.302  12.618  -1.401  1.00  0.00     0.005 C 
ATOM     20  C   UNL     1      54.436  11.569  -1.477  1.00  0.00     0.003 C 
ATOM     21  C   UNL     1      56.616  11.821  -2.858  1.00  0.00     0.085 C 
ATOM     22  C   UNL     1      54.114  10.288  -2.409  1.00  0.00    -0.000 C 
ATOM     23  C   UNL     1      56.653  10.338  -2.918  1.00  0.00     0.159 C 
ATOM     24  C   UNL     1      55.372   9.643  -3.010  1.00  0.00     0.005 C 
ATOM     25  C   UNL     1      53.185  10.594  -3.632  1.00  0.00     0.020 C 
ATOM     26  C   UNL     1      53.421   9.235  -1.494  1.00  0.00     0.017 C 
ATOM     27  O   UNL     1      57.750   9.715  -2.951  1.00  0.00    -0.295 OA
ATOM     28  C   UNL     1      55.267   8.659  -3.921  1.00  0.00     0.055 C 
ATOM     29  C   UNL     1      52.823   9.330  -4.445  1.00  0.00     0.081 C 
ATOM     30  C   UNL     1      53.982   8.380  -4.582  1.00  0.00     0.156 C 
ATOM     31  O   UNL     1      53.867   7.359  -5.309  1.00  0.00    -0.295 OA
ENDBRANCH   9  11
ENDBRANCH   8   9
ENDBRANCH   1   8
TORSDOF 6
ENDMDL
MODEL 3
REMARK VINA RESULT:    -6.159      3.389      8.360
REMARK INTER + INTRA:         -10.145
REMARK INTER:                  -7.971
REMARK INTRA:                  -2.174
REMARK UNBOUND:                -1.826
REMARK SMILES CC[C@H](CC[C@H](C)[C@@H]1CC[C@H]2[C@@H]3CC(=O)C4=CC(=O)CC[C@]4(C)[C@@H]3CC[C@]21C)C(C)C
REMARK SMILES IDX 4 1 3 2 2 3 1 4 29 5 30 6 31 7 5 8 6 9 7 10 8 11 9 12 27 13
REMARK SMILES IDX 10 14 11 15 26 16 28 17 12 18 25 19 24 20 13 21 22 22 14 23
REMARK SMILES IDX 16 24 21 25 23 26 15 27 17 28 20 29 18 30 19 31
REMARK H PARENT
REMARK Flexibility Score: inf
ROOT
ATOM      1  C   UNL     1      54.276  19.249  -5.375  1.00  0.00     0.004 C 
ENDROOT
BRANCH   1   2
ATOM      2  C   UNL     1      52.829  18.969  -4.886  1.00  0.00    -0.009 C 
BRANCH   2   3
ATOM      3  C   UNL     1      52.042  20.277  -4.568  1.00  0.00     0.000 C 
ATOM      4  C   UNL     1      51.671  20.499  -3.094  1.00  0.00     0.004 C 
ENDBRANCH   2   3
BRANCH   2   5
ATOM      5  C   UNL     1      52.062  17.955  -5.806  1.00  0.00    -0.014 C 
ATOM      6  C   UNL     1      50.737  17.442  -5.223  1.00  0.00     0.007 C 
ATOM      7  C   UNL     1      52.952  16.768  -6.210  1.00  0.00     0.007 C 
ENDBRANCH   2   5
ENDBRANCH   1   2
BRANCH   1   8
ATOM      8  C   UNL     1      55.363  18.986  -4.295  1.00  0.00     0.004 C 
BRANCH   8   9
ATOM      9  C   UNL     1      54.849  18.465  -2.920  1.00  0.00    -0.011 C 
ATOM     10  C   UNL     1      55.328  19.365  -1.762  1.00  0.00     0.008 C 
BRANCH   9  11
ATOM     11  C   UNL     1      55.089  16.941  -2.606  1.00  0.00    -0.002 C 
ATOM     12  C   UNL     1      55.372  16.032  -3.798  1.00  0.00     0.005 C 
ATOM     13  C   UNL     1      54.026  16.174  -1.729  1.00  0.00    -0.026 C 
ATOM     14  C   UNL     1      55.267  14.633  -3.223  1.00  0.00     0.005 C 
ATOM     15  C   UNL     1      54.078  14.700  -2.261  1.00  0.00    -0.001 C 
ATOM     16  C   UNL     1      54.410  16.273  -0.226  1.00  0.00     0.007 C 
ATOM     17  C   UNL     1      52.580  16.707  -1.901  1.00  0.00     0.012 C 
ATOM     18  C   UNL     1      54.098  13.548  -1.198  1.00  0.00     0.004 C 
ATOM     19  C   UNL     1      55.497  15.265   0.160  1.00  0.00     0.005 C 
ATOM     20  C   UNL     1      54.977  13.810   0.086  1.00  0.00     0.003 C 
ATOM     21  C   UNL     1      52.677  13.091  -0.871  1.00  0.00     0.085 C 
ATOM     22  C   UNL     1      54.469  13.199   1.493  1.00  0.00    -0.000 C 
ATOM     23  C   UNL     1      52.762  11.914   0.029  1.00  0.00     0.159 C 
ATOM     24  C   UNL     1      53.393  12.115   1.332  1.00  0.00     0.005 C 
ATOM     25  C   UNL     1      53.846  14.253   2.471  1.00  0.00     0.020 C 
ATOM     26  C   UNL     1      55.712  12.549   2.171  1.00  0.00     0.017 C 
ATOM     27  O   UNL     1      52.254  10.806  -0.297  1.00  0.00    -0.295 OA
ATOM     28  C   UNL     1      52.764  11.609   2.408  1.00  0.00     0.055 C 
ATOM     29  C   UNL     1      53.459  13.649   3.840  1.00  0.00     0.081 C 
ATOM     30  C   UNL     1      52.864  12.273   3.717  1.00  0.00     0.156 C 
ATOM     31  O   UNL     1      52.402  11.701   4.740  1.00  0.00    -0.295 OA
ENDBRANCH   9  11
ENDBRANCH   8   9
ENDBRANCH   1   8
TORSDOF 6
ENDMDL
MODEL 4
REMARK VINA RESULT:    -6.133      3.476      8.046
REMARK INTER + INTRA:         -10.110
REMARK INTER:                  -8.251
REMARK INTRA:                  -1.859
REMARK UNBOUND:                -1.826
REMARK SMILES CC[C@H](CC[C@H](C)[C@@H]1CC[C@H]2[C@@H]3CC(=O)C4=CC(=O)CC[C@]4(C)[C@@H]3CC[C@]21C)C(C)C
REMARK SMILES IDX 4 1 3 2 2 3 1 4 29 5 30 6 31 7 5 8 6 9 7 10 8 11 9 12 27 13
REMARK SMILES IDX 10 14 11 15 26 16 28 17 12 18 25 19 24 20 13 21 22 22 14 23
REMARK SMILES IDX 16 24 21 25 23 26 15 27 17 28 20 29 18 30 19 31
REMARK H PARENT
REMARK Flexibility Score: inf
ROOT
ATOM      1  C   UNL     1      52.662  19.359  -3.113  1.00  0.00     0.004 C 
ENDROOT
BRANCH   1   2
ATOM      2  C   UNL     1      53.752  18.895  -4.117  1.00  0.00    -0.009 C 
BRANCH   2   3
ATOM      3  C   UNL     1      53.721  19.706  -5.450  1.00  0.00     0.000 C 
ATOM      4  C   UNL     1      52.400  20.418  -5.774  1.00  0.00     0.004 C 
ENDBRANCH   2   3
BRANCH   2   5
ATOM      5  C   UNL     1      55.172  18.776  -3.461  1.00  0.00    -0.014 C 
ATOM      6  C   UNL     1      55.287  19.416  -2.070  1.00  0.00     0.007 C 
ATOM      7  C   UNL     1      56.273  19.325  -4.384  1.00  0.00     0.007 C 
ENDBRANCH   2   5
ENDBRANCH   1   2
BRANCH   1   8
ATOM      8  C   UNL     1      51.786  18.199  -2.562  1.00  0.00     0.004 C 
BRANCH   8   9
ATOM      9  C   UNL     1      52.192  16.763  -3.009  1.00  0.00    -0.011 C 
ATOM     10  C   UNL     1      51.007  16.020  -3.659  1.00  0.00     0.008 C 
BRANCH   9  11
ATOM     11  C   UNL     1      52.919  15.868  -1.937  1.00  0.00    -0.002 C 
ATOM     12  C   UNL     1      53.447  16.577  -0.695  1.00  0.00     0.005 C 
ATOM     13  C   UNL     1      54.086  14.918  -2.413  1.00  0.00    -0.026 C 
ATOM     14  C   UNL     1      54.321  15.537  -0.024  1.00  0.00     0.005 C 
ATOM     15  C   UNL     1      55.049  14.842  -1.177  1.00  0.00    -0.001 C 
ATOM     16  C   UNL     1      53.510  13.526  -2.800  1.00  0.00     0.007 C 
ATOM     17  C   UNL     1      54.882  15.473  -3.623  1.00  0.00     0.012 C 
ATOM     18  C   UNL     1      55.601  13.430  -0.779  1.00  0.00     0.004 C 
ATOM     19  C   UNL     1      53.255  12.645  -1.574  1.00  0.00     0.005 C 
ATOM     20  C   UNL     1      54.577  12.234  -0.883  1.00  0.00     0.003 C 
ATOM     21  C   UNL     1      56.927  13.150  -1.484  1.00  0.00     0.085 C 
ATOM     22  C   UNL     1      55.144  10.783  -1.312  1.00  0.00    -0.000 C 
ATOM     23  C   UNL     1      57.469  11.869  -0.966  1.00  0.00     0.159 C 
ATOM     24  C   UNL     1      56.671  10.667  -1.192  1.00  0.00     0.005 C 
ATOM     25  C   UNL     1      54.816  10.370  -2.788  1.00  0.00     0.020 C 
ATOM     26  C   UNL     1      54.502   9.749  -0.341  1.00  0.00     0.017 C 
ATOM     27  O   UNL     1      58.601  11.819  -0.409  1.00  0.00    -0.295 OA
ATOM     28  C   UNL     1      57.312   9.575  -1.646  1.00  0.00     0.055 C 
ATOM     29  C   UNL     1      55.291   8.940  -3.133  1.00  0.00     0.081 C 
ATOM     30  C   UNL     1      56.628   8.613  -2.525  1.00  0.00     0.156 C 
ATOM     31  O   UNL     1      57.192   7.523  -2.809  1.00  0.00    -0.295 OA
ENDBRANCH   9  11
ENDBRANCH   8   9
ENDBRANCH   1   8
TORSDOF 6
ENDMDL
MODEL 5
REMARK VINA RESULT:    -6.093      4.203      8.146
REMARK INTER + INTRA:         -10.056
REMARK INTER:                  -8.212
REMARK INTRA:                  -1.843
REMARK UNBOUND:                -1.826
REMARK SMILES CC[C@H](CC[C@H](C)[C@@H]1CC[C@H]2[C@@H]3CC(=O)C4=CC(=O)CC[C@]4(C)[C@@H]3CC[C@]21C)C(C)C
REMARK SMILES IDX 4 1 3 2 2 3 1 4 29 5 30 6 31 7 5 8 6 9 7 10 8 11 9 12 27 13
REMARK SMILES IDX 10 14 11 15 26 16 28 17 12 18 25 19 24 20 13 21 22 22 14 23
REMARK SMILES IDX 16 24 21 25 23 26 15 27 17 28 20 29 18 30 19 31
REMARK H PARENT
REMARK Flexibility Score: inf
ROOT
ATOM      1  C   UNL     1      54.760  19.043  -2.470  1.00  0.00     0.004 C 
ENDROOT
BRANCH   1   2
ATOM      2  C   UNL     1      53.648  18.755  -3.515  1.00  0.00    -0.009 C 
BRANCH   2   3
ATOM      3  C   UNL     1      52.410  19.687  -3.343  1.00  0.00     0.000 C 
ATOM      4  C   UNL     1      51.143  19.027  -2.779  1.00  0.00     0.004 C 
ENDBRANCH   2   3
BRANCH   2   5
ATOM      5  C   UNL     1      54.200  18.670  -4.982  1.00  0.00    -0.014 C 
ATOM      6  C   UNL     1      53.884  17.353  -5.706  1.00  0.00     0.007 C 
ATOM      7  C   UNL     1      55.711  18.950  -5.039  1.00  0.00     0.007 C 
ENDBRANCH   2   5
ENDBRANCH   1   2
BRANCH   1   8
ATOM      8  C   UNL     1      54.870  17.962  -1.359  1.00  0.00     0.004 C 
BRANCH   8   9
ATOM      9  C   UNL     1      53.870  16.771  -1.462  1.00  0.00    -0.011 C 
ATOM     10  C   UNL     1      53.003  16.654  -0.192  1.00  0.00     0.008 C 
BRANCH   9  11
ATOM     11  C   UNL     1      54.470  15.379  -1.886  1.00  0.00    -0.002 C 
ATOM     12  C   UNL     1      55.569  15.398  -2.944  1.00  0.00     0.005 C 
ATOM     13  C   UNL     1      53.480  14.231  -2.321  1.00  0.00    -0.026 C 
ATOM     14  C   UNL     1      55.723  13.943  -3.336  1.00  0.00     0.005 C 
ATOM     15  C   UNL     1      54.293  13.398  -3.372  1.00  0.00    -0.001 C 
ATOM     16  C   UNL     1      53.075  13.384  -1.081  1.00  0.00     0.007 C 
ATOM     17  C   UNL     1      52.187  14.753  -3.001  1.00  0.00     0.012 C 
ATOM     18  C   UNL     1      54.239  11.836  -3.253  1.00  0.00     0.004 C 
ATOM     19  C   UNL     1      54.147  12.355  -0.709  1.00  0.00     0.005 C 
ATOM     20  C   UNL     1      54.279  11.254  -1.787  1.00  0.00     0.003 C 
ATOM     21  C   UNL     1      53.095  11.270  -4.094  1.00  0.00     0.085 C 
ATOM     22  C   UNL     1      53.445   9.903  -1.482  1.00  0.00    -0.000 C 
ATOM     23  C   UNL     1      53.178   9.789  -4.056  1.00  0.00     0.159 C 
ATOM     24  C   UNL     1      53.029   9.146  -2.752  1.00  0.00     0.005 C 
ATOM     25  C   UNL     1      52.115  10.129  -0.686  1.00  0.00     0.020 C 
ATOM     26  C   UNL     1      54.383   8.978  -0.653  1.00  0.00     0.017 C 
ATOM     27  O   UNL     1      53.309   9.116  -5.116  1.00  0.00    -0.295 OA
ATOM     28  C   UNL     1      52.209   8.083  -2.678  1.00  0.00     0.055 C 
ATOM     29  C   UNL     1      51.393   8.809  -0.331  1.00  0.00     0.081 C 
ATOM     30  C   UNL     1      51.457   7.799  -1.445  1.00  0.00     0.156 C 
ATOM     31  O   UNL     1      50.821   6.717  -1.341  1.00  0.00    -0.295 OA
ENDBRANCH   9  11
ENDBRANCH   8   9
ENDBRANCH   1   8
TORSDOF 6
ENDMDL
MODEL 6
REMARK VINA RESULT:    -5.981      3.247      8.437
REMARK INTER + INTRA:          -9.905
REMARK INTER:                  -7.708
REMARK INTRA:                  -2.197
REMARK UNBOUND:                -1.826
REMARK SMILES CC[C@H](CC[C@H](C)[C@@H]1CC[C@H]2[C@@H]3CC(=O)C4=CC(=O)CC[C@]4(C)[C@@H]3CC[C@]21C)C(C)C
REMARK SMILES IDX 4 1 3 2 2 3 1 4 29 5 30 6 31 7 5 8 6 9 7 10 8 11 9 12 27 13
REMARK SMILES IDX 10 14 11 15 26 16 28 17 12 18 25 19 24 20 13 21 22 22 14 23
REMARK SMILES IDX 16 24 21 25 23 26 15 27 17 28 20 29 18 30 19 31
REMARK H PARENT
REMARK Flexibility Score: inf
ROOT
ATOM      1  C   UNL     1      52.699  20.459  -5.416  1.00  0.00     0.004 C 
ENDROOT
BRANCH   1   2
ATOM      2  C   UNL     1      51.777  19.847  -4.327  1.00  0.00    -0.009 C 
BRANCH   2   3
ATOM      3  C   UNL     1      51.564  20.808  -3.116  1.00  0.00     0.000 C 
ATOM      4  C   UNL     1      50.955  22.179  -3.444  1.00  0.00     0.004 C 
ENDBRANCH   2   3
BRANCH   2   5
ATOM      5  C   UNL     1      50.455  19.243  -4.918  1.00  0.00    -0.014 C 
ATOM      6  C   UNL     1      50.091  17.853  -4.377  1.00  0.00     0.007 C 
ATOM      7  C   UNL     1      50.479  19.217  -6.456  1.00  0.00     0.007 C 
ENDBRANCH   2   5
ENDBRANCH   1   2
BRANCH   1   8
ATOM      8  C   UNL     1      54.032  19.684  -5.614  1.00  0.00     0.004 C 
BRANCH   8   9
ATOM      9  C   UNL     1      54.487  18.790  -4.422  1.00  0.00    -0.011 C 
ATOM     10  C   UNL     1      55.919  19.141  -3.971  1.00  0.00     0.008 C 
BRANCH   9  11
ATOM     11  C   UNL     1      54.296  17.237  -4.590  1.00  0.00    -0.002 C 
ATOM     12  C   UNL     1      53.388  16.776  -5.726  1.00  0.00     0.005 C 
ATOM     13  C   UNL     1      53.869  16.388  -3.332  1.00  0.00    -0.026 C 
ATOM     14  C   UNL     1      53.179  15.300  -5.450  1.00  0.00     0.005 C 
ATOM     15  C   UNL     1      53.025  15.209  -3.930  1.00  0.00    -0.001 C 
ATOM     16  C   UNL     1      55.133  15.885  -2.578  1.00  0.00     0.007 C 
ATOM     17  C   UNL     1      52.980  17.170  -2.329  1.00  0.00     0.012 C 
ATOM     18  C   UNL     1      53.305  13.768  -3.381  1.00  0.00     0.004 C 
ATOM     19  C   UNL     1      55.746  14.647  -3.240  1.00  0.00     0.005 C 
ATOM     20  C   UNL     1      54.820  13.415  -3.112  1.00  0.00     0.003 C 
ATOM     21  C   UNL     1      52.395  13.456  -2.194  1.00  0.00     0.085 C 
ATOM     22  C   UNL     1      55.164  12.434  -1.875  1.00  0.00    -0.000 C 
ATOM     23  C   UNL     1      52.605  12.039  -1.805  1.00  0.00     0.159 C 
ATOM     24  C   UNL     1      53.942  11.663  -1.353  1.00  0.00     0.005 C 
ATOM     25  C   UNL     1      55.759  13.158  -0.619  1.00  0.00     0.020 C 
ATOM     26  C   UNL     1      56.200  11.398  -2.403  1.00  0.00     0.017 C 
ATOM     27  O   UNL     1      51.650  11.214  -1.810  1.00  0.00    -0.295 OA
ATOM     28  C   UNL     1      54.029  10.915  -0.238  1.00  0.00     0.055 C 
ATOM     29  C   UNL     1      56.162  12.178   0.506  1.00  0.00     0.081 C 
ATOM     30  C   UNL     1      55.182  11.047   0.667  1.00  0.00     0.156 C 
ATOM     31  O   UNL     1      55.323  10.231   1.615  1.00  0.00    -0.295 OA
ENDBRANCH   9  11
ENDBRANCH   8   9
ENDBRANCH   1   8
TORSDOF 6
ENDMDL
MODEL 7
REMARK VINA RESULT:    -5.970      2.938      9.118
REMARK INTER + INTRA:          -9.890
REMARK INTER:                  -8.196
REMARK INTRA:                  -1.694
REMARK UNBOUND:                -1.826
REMARK SMILES CC[C@H](CC[C@H](C)[C@@H]1CC[C@H]2[C@@H]3CC(=O)C4=CC(=O)CC[C@]4(C)[C@@H]3CC[C@]21C)C(C)C
REMARK SMILES IDX 4 1 3 2 2 3 1 4 29 5 30 6 31 7 5 8 6 9 7 10 8 11 9 12 27 13
REMARK SMILES IDX 10 14 11 15 26 16 28 17 12 18 25 19 24 20 13 21 22 22 14 23
REMARK SMILES IDX 16 24 21 25 23 26 15 27 17 28 20 29 18 30 19 31
REMARK H PARENT
REMARK Flexibility Score: inf
ROOT
ATOM      1  C   UNL     1      50.718  20.033  -7.426  1.00  0.00     0.004 C 
ENDROOT
BRANCH   1   2
ATOM      2  C   UNL     1      49.365  20.786  -7.538  1.00  0.00    -0.009 C 
BRANCH   2   3
ATOM      3  C   UNL     1      48.211  20.057  -6.782  1.00  0.00     0.000 C 
ATOM      4  C   UNL     1      48.595  18.759  -6.057  1.00  0.00     0.004 C 
ENDBRANCH   2   3
BRANCH   2   5
ATOM      5  C   UNL     1      49.492  22.315  -7.211  1.00  0.00    -0.014 C 
ATOM      6  C   UNL     1      48.455  22.842  -6.208  1.00  0.00     0.007 C 
ATOM      7  C   UNL     1      49.469  23.174  -8.487  1.00  0.00     0.007 C 
ENDBRANCH   2   5
ENDBRANCH   1   2
BRANCH   1   8
ATOM      8  C   UNL     1      51.755  20.743  -6.512  1.00  0.00     0.004 C 
BRANCH   8   9
ATOM      9  C   UNL     1      51.775  20.292  -5.021  1.00  0.00    -0.011 C 
ATOM     10  C   UNL     1      51.389  21.450  -4.078  1.00  0.00     0.008 C 
BRANCH   9  11
ATOM     11  C   UNL     1      53.071  19.548  -4.525  1.00  0.00    -0.002 C 
ATOM     12  C   UNL     1      54.338  19.753  -5.349  1.00  0.00     0.005 C 
ATOM     13  C   UNL     1      52.991  17.998  -4.245  1.00  0.00    -0.026 C 
ATOM     14  C   UNL     1      55.297  18.712  -4.808  1.00  0.00     0.005 C 
ATOM     15  C   UNL     1      54.430  17.472  -4.576  1.00  0.00    -0.001 C 
ATOM     16  C   UNL     1      52.597  17.748  -2.761  1.00  0.00     0.007 C 
ATOM     17  C   UNL     1      51.975  17.256  -5.153  1.00  0.00     0.012 C 
ATOM     18  C   UNL     1      55.080  16.462  -3.568  1.00  0.00     0.004 C 
ATOM     19  C   UNL     1      53.794  17.885  -1.815  1.00  0.00     0.005 C 
ATOM     20  C   UNL     1      54.829  16.757  -2.038  1.00  0.00     0.003 C 
ATOM     21  C   UNL     1      54.758  15.022  -3.963  1.00  0.00     0.085 C 
ATOM     22  C   UNL     1      54.687  15.499  -1.034  1.00  0.00    -0.000 C 
ATOM     23  C   UNL     1      55.509  14.112  -3.062  1.00  0.00     0.159 C 
ATOM     24  C   UNL     1      55.197  14.181  -1.637  1.00  0.00     0.005 C 
ATOM     25  C   UNL     1      53.220  15.198  -0.575  1.00  0.00     0.020 C 
ATOM     26  C   UNL     1      55.554  15.827   0.217  1.00  0.00     0.017 C 
ATOM     27  O   UNL     1      56.334  13.275  -3.521  1.00  0.00    -0.295 OA
ATOM     28  C   UNL     1      55.019  13.017  -0.986  1.00  0.00     0.055 C 
ATOM     29  C   UNL     1      53.134  14.050   0.456  1.00  0.00     0.081 C 
ATOM     30  C   UNL     1      54.086  12.925   0.148  1.00  0.00     0.156 C 
ATOM     31  O   UNL     1      54.051  11.873   0.840  1.00  0.00    -0.295 OA
ENDBRANCH   9  11
ENDBRANCH   8   9
ENDBRANCH   1   8
TORSDOF 6
ENDMDL
MODEL 8
REMARK VINA RESULT:    -5.826      2.411      3.769
REMARK INTER + INTRA:          -9.696
REMARK INTER:                  -7.558
REMARK INTRA:                  -2.138
REMARK UNBOUND:                -1.826
REMARK SMILES CC[C@H](CC[C@H](C)[C@@H]1CC[C@H]2[C@@H]3CC(=O)C4=CC(=O)CC[C@]4(C)[C@@H]3CC[C@]21C)C(C)C
REMARK SMILES IDX 4 1 3 2 2 3 1 4 29 5 30 6 31 7 5 8 6 9 7 10 8 11 9 12 27 13
REMARK SMILES IDX 10 14 11 15 26 16 28 17 12 18 25 19 24 20 13 21 22 22 14 23
REMARK SMILES IDX 16 24 21 25 23 26 15 27 17 28 20 29 18 30 19 31
REMARK H PARENT
REMARK Flexibility Score: inf
ROOT
ATOM      1  C   UNL     1      53.693   8.719  -1.292  1.00  0.00     0.004 C 
ENDROOT
BRANCH   1   2
ATOM      2  C   UNL     1      54.122   9.184   0.126  1.00  0.00    -0.009 C 
BRANCH   2   3
ATOM      3  C   UNL     1      55.501   9.913   0.124  1.00  0.00     0.000 C 
ATOM      4  C   UNL     1      55.502  11.352   0.663  1.00  0.00     0.004 C 
ENDBRANCH   2   3
BRANCH   2   5
ATOM      5  C   UNL     1      52.982   9.949   0.885  1.00  0.00    -0.014 C 
ATOM      6  C   UNL     1      52.822   9.554   2.361  1.00  0.00     0.007 C 
ATOM      7  C   UNL     1      51.632   9.824   0.160  1.00  0.00     0.007 C 
ENDBRANCH   2   5
ENDBRANCH   1   2
BRANCH   1   8
ATOM      8  C   UNL     1      54.370   9.517  -2.443  1.00  0.00     0.004 C 
BRANCH   8   9
ATOM      9  C   UNL     1      53.556  10.717  -3.012  1.00  0.00    -0.011 C 
ATOM     10  C   UNL     1      52.725  10.300  -4.243  1.00  0.00     0.008 C 
BRANCH   9  11
ATOM     11  C   UNL     1      54.352  12.050  -3.275  1.00  0.00    -0.002 C 
ATOM     12  C   UNL     1      55.844  12.030  -2.961  1.00  0.00     0.005 C 
ATOM     13  C   UNL     1      53.804  13.392  -2.653  1.00  0.00    -0.026 C 
ATOM     14  C   UNL     1      56.252  13.488  -3.033  1.00  0.00     0.005 C 
ATOM     15  C   UNL     1      55.091  14.246  -2.384  1.00  0.00    -0.001 C 
ATOM     16  C   UNL     1      52.836  14.082  -3.656  1.00  0.00     0.007 C 
ATOM     17  C   UNL     1      53.056  13.192  -1.309  1.00  0.00     0.012 C 
ATOM     18  C   UNL     1      55.053  15.758  -2.795  1.00  0.00     0.004 C 
ATOM     19  C   UNL     1      53.586  14.859  -4.741  1.00  0.00     0.005 C 
ATOM     20  C   UNL     1      54.325  16.085  -4.157  1.00  0.00     0.003 C 
ATOM     21  C   UNL     1      54.567  16.622  -1.631  1.00  0.00     0.085 C 
ATOM     22  C   UNL     1      53.521  17.482  -4.273  1.00  0.00    -0.000 C 
ATOM     23  C   UNL     1      54.683  18.047  -2.028  1.00  0.00     0.159 C 
ATOM     24  C   UNL     1      53.887  18.487  -3.171  1.00  0.00     0.005 C 
ATOM     25  C   UNL     1      51.963  17.340  -4.197  1.00  0.00     0.020 C 
ATOM     26  C   UNL     1      53.908  18.106  -5.646  1.00  0.00     0.017 C 
ATOM     27  O   UNL     1      55.394  18.852  -1.366  1.00  0.00    -0.295 OA
ATOM     28  C   UNL     1      53.205  19.639  -3.042  1.00  0.00     0.055 C 
ATOM     29  C   UNL     1      51.224  18.682  -4.406  1.00  0.00     0.081 C 
ATOM     30  C   UNL     1      51.922  19.835  -3.737  1.00  0.00     0.156 C 
ATOM     31  O   UNL     1      51.380  20.972  -3.730  1.00  0.00    -0.295 OA
ENDBRANCH   9  11
ENDBRANCH   8   9
ENDBRANCH   1   8
TORSDOF 6
ENDMDL
MODEL 9
REMARK VINA RESULT:    -5.819      1.682      2.658
REMARK INTER + INTRA:          -9.686
REMARK INTER:                  -7.951
REMARK INTRA:                  -1.735
REMARK UNBOUND:                -1.826
REMARK SMILES CC[C@H](CC[C@H](C)[C@@H]1CC[C@H]2[C@@H]3CC(=O)C4=CC(=O)CC[C@]4(C)[C@@H]3CC[C@]21C)C(C)C
REMARK SMILES IDX 4 1 3 2 2 3 1 4 29 5 30 6 31 7 5 8 6 9 7 10 8 11 9 12 27 13
REMARK SMILES IDX 10 14 11 15 26 16 28 17 12 18 25 19 24 20 13 21 22 22 14 23
REMARK SMILES IDX 16 24 21 25 23 26 15 27 17 28 20 29 18 30 19 31
REMARK H PARENT
REMARK Flexibility Score: inf
ROOT
ATOM      1  C   UNL     1      54.840  10.665   0.840  1.00  0.00     0.004 C 
ENDROOT
BRANCH   1   2
ATOM      2  C   UNL     1      55.303   9.715  -0.297  1.00  0.00    -0.009 C 
BRANCH   2   3
ATOM      3  C   UNL     1      54.348   9.748  -1.530  1.00  0.00     0.000 C 
ATOM      4  C   UNL     1      53.586   8.447  -1.826  1.00  0.00     0.004 C 
ENDBRANCH   2   3
BRANCH   2   5
ATOM      5  C   UNL     1      56.823   9.883  -0.648  1.00  0.00    -0.014 C 
ATOM      6  C   UNL     1      57.166   9.652  -2.127  1.00  0.00     0.007 C 
ATOM      7  C   UNL     1      57.714   9.000   0.241  1.00  0.00     0.007 C 
ENDBRANCH   2   5
ENDBRANCH   1   2
BRANCH   1   8
ATOM      8  C   UNL     1      55.324  12.132   0.665  1.00  0.00     0.004 C 
BRANCH   8   9
ATOM      9  C   UNL     1      54.274  13.136   0.101  1.00  0.00    -0.011 C 
ATOM     10  C   UNL     1      52.836  12.612   0.293  1.00  0.00     0.008 C 
BRANCH   9  11
ATOM     11  C   UNL     1      54.510  13.656  -1.366  1.00  0.00    -0.002 C 
ATOM     12  C   UNL     1      55.725  13.102  -2.103  1.00  0.00     0.005 C 
ATOM     13  C   UNL     1      54.531  15.213  -1.621  1.00  0.00    -0.026 C 
ATOM     14  C   UNL     1      55.842  13.984  -3.329  1.00  0.00     0.005 C 
ATOM     15  C   UNL     1      55.521  15.393  -2.824  1.00  0.00    -0.001 C 
ATOM     16  C   UNL     1      53.098  15.713  -1.955  1.00  0.00     0.007 C 
ATOM     17  C   UNL     1      55.067  16.031  -0.417  1.00  0.00     0.012 C 
ATOM     18  C   UNL     1      55.088  16.363  -3.976  1.00  0.00     0.004 C 
ATOM     19  C   UNL     1      52.720  15.452  -3.416  1.00  0.00     0.005 C 
ATOM     20  C   UNL     1      53.565  16.311  -4.386  1.00  0.00     0.003 C 
ATOM     21  C   UNL     1      55.589  17.781  -3.705  1.00  0.00     0.085 C 
ATOM     22  C   UNL     1      52.859  17.684  -4.866  1.00  0.00    -0.000 C 
ATOM     23  C   UNL     1      55.273  18.621  -4.887  1.00  0.00     0.159 C 
ATOM     24  C   UNL     1      53.863  18.789  -5.227  1.00  0.00     0.005 C 
ATOM     25  C   UNL     1      51.905  18.328  -3.803  1.00  0.00     0.020 C 
ATOM     26  C   UNL     1      52.038  17.339  -6.143  1.00  0.00     0.017 C 
ATOM     27  O   UNL     1      56.185  19.213  -5.529  1.00  0.00    -0.295 OA
ATOM     28  C   UNL     1      53.438  20.034  -5.507  1.00  0.00     0.055 C 
ATOM     29  C   UNL     1      51.177  19.585  -4.330  1.00  0.00     0.081 C 
ATOM     30  C   UNL     1      52.062  20.448  -5.188  1.00  0.00     0.156 C 
ATOM     31  O   UNL     1      51.638  21.560  -5.599  1.00  0.00    -0.295 OA
ENDBRANCH   9  11
ENDBRANCH   8   9
ENDBRANCH   1   8
TORSDOF 6
ENDMDL
