MODEL 1
REMARK VINA RESULT:    -0.211      0.000      0.000
REMARK INTER + INTRA:          -0.382
REMARK INTER:                  -0.248
REMARK INTRA:                  -0.134
REMARK UNBOUND:                -0.134
REMARK SMILES O=C([O-])C=Cc1ccc(O)c(O)c1
REMARK SMILES IDX 6 1 13 2 7 3 11 4 8 5 9 6 5 7 4 8 2 9 1 10 3 11 12 12 10 14
REMARK H PARENT 12 13 10 15
REMARK Flexibility Score: inf
ROOT
ATOM      1  C   UNL     1      22.778  25.223  47.030  1.00  0.00    -0.022 A 
ATOM      2  C   UNL     1      21.573  25.865  47.364  1.00  0.00     0.058 A 
ATOM      3  C   UNL     1      22.782  23.822  46.882  1.00  0.00     0.012 A 
ATOM      4  C   UNL     1      20.388  25.131  47.522  1.00  0.00     0.157 A 
ATOM      5  C   UNL     1      21.602  23.090  47.040  1.00  0.00     0.051 A 
ATOM      6  C   UNL     1      20.404  23.737  47.357  1.00  0.00     0.157 A 
ENDROOT
BRANCH   1   7
ATOM      7  C   UNL     1      24.005  26.046  46.885  1.00  0.00     0.010 C 
ATOM      8  C   UNL     1      25.116  25.860  47.610  1.00  0.00     0.025 C 
BRANCH   8   9
ATOM      9  C   UNL     1      26.315  26.692  47.424  1.00  0.00     0.064 C 
ATOM     10  O   UNL     1      26.207  27.828  46.894  1.00  0.00    -0.545 OA
ATOM     11  O   UNL     1      27.569  26.241  47.821  1.00  0.00    -0.545 OA
ENDBRANCH   8   9
ENDBRANCH   1   7
BRANCH   4  12
ATOM     12  O   UNL     1      19.199  25.783  47.844  1.00  0.00    -0.504 OA
ATOM     13  H   UNL     1      18.803  25.738  48.774  1.00  0.00     0.293 HD
ENDBRANCH   4  12
BRANCH   6  14
ATOM     14  O   UNL     1      19.243  22.979  47.506  1.00  0.00    -0.504 OA
ATOM     15  H   UNL     1      18.557  23.181  48.224  1.00  0.00     0.293 HD
ENDBRANCH   6  14
TORSDOF 4
ENDMDL
MODEL 2
REMARK VINA RESULT:    -0.207      3.093      4.450
REMARK INTER + INTRA:          -0.378
REMARK INTER:                  -0.247
REMARK INTRA:                  -0.130
REMARK UNBOUND:                -0.134
REMARK SMILES O=C([O-])C=Cc1ccc(O)c(O)c1
REMARK SMILES IDX 6 1 13 2 7 3 11 4 8 5 9 6 5 7 4 8 2 9 1 10 3 11 12 12 10 14
REMARK H PARENT 12 13 10 15
REMARK Flexibility Score: inf
ROOT
ATOM      1  C   UNL     1      24.344  26.281  47.398  1.00  0.00    -0.022 A 
ATOM      2  C   UNL     1      25.654  25.824  47.621  1.00  0.00     0.058 A 
ATOM      3  C   UNL     1      23.358  25.352  47.010  1.00  0.00     0.012 A 
ATOM      4  C   UNL     1      25.974  24.465  47.486  1.00  0.00     0.157 A 
ATOM      5  C   UNL     1      23.676  23.998  46.876  1.00  0.00     0.051 A 
ATOM      6  C   UNL     1      24.978  23.548  47.114  1.00  0.00     0.157 A 
ENDROOT
BRANCH   1   7
ATOM      7  C   UNL     1      24.063  27.731  47.544  1.00  0.00     0.010 C 
ATOM      8  C   UNL     1      24.807  28.693  46.981  1.00  0.00     0.025 C 
BRANCH   8   9
ATOM      9  C   UNL     1      24.483  30.119  47.142  1.00  0.00     0.064 C 
ATOM     10  O   UNL     1      23.284  30.473  47.282  1.00  0.00    -0.545 OA
ATOM     11  O   UNL     1      25.483  31.087  47.138  1.00  0.00    -0.545 OA
ENDBRANCH   8   9
ENDBRANCH   1   7
BRANCH   4  12
ATOM     12  O   UNL     1      27.276  24.025  47.720  1.00  0.00    -0.504 OA
ATOM     13  H   UNL     1      28.050  24.328  47.143  1.00  0.00     0.293 HD
ENDBRANCH   4  12
BRANCH   6  14
ATOM     14  O   UNL     1      25.263  22.190  46.973  1.00  0.00    -0.504 OA
ATOM     15  H   UNL     1      24.792  21.482  47.524  1.00  0.00     0.293 HD
ENDBRANCH   6  14
TORSDOF 4
ENDMDL
MODEL 3
REMARK VINA RESULT:    -0.200      3.813      5.513
REMARK INTER + INTRA:          -0.370
REMARK INTER:                  -0.224
REMARK INTRA:                  -0.145
REMARK UNBOUND:                -0.134
REMARK SMILES O=C([O-])C=Cc1ccc(O)c(O)c1
REMARK SMILES IDX 6 1 13 2 7 3 11 4 8 5 9 6 5 7 4 8 2 9 1 10 3 11 12 12 10 14
REMARK H PARENT 12 13 10 15
REMARK Flexibility Score: inf
ROOT
ATOM      1  C   UNL     1      25.479  29.367  47.044  1.00  0.00    -0.022 A 
ATOM      2  C   UNL     1      25.603  27.968  47.084  1.00  0.00     0.058 A 
ATOM      3  C   UNL     1      24.193  29.931  46.926  1.00  0.00     0.012 A 
ATOM      4  C   UNL     1      24.469  27.144  47.033  1.00  0.00     0.157 A 
ATOM      5  C   UNL     1      23.062  29.111  46.876  1.00  0.00     0.051 A 
ATOM      6  C   UNL     1      23.192  27.720  46.931  1.00  0.00     0.157 A 
ENDROOT
BRANCH   1   7
ATOM      7  C   UNL     1      26.712  30.191  47.090  1.00  0.00     0.010 C 
ATOM      8  C   UNL     1      26.731  31.514  46.875  1.00  0.00     0.025 C 
BRANCH   8   9
ATOM      9  C   UNL     1      27.976  32.295  46.944  1.00  0.00     0.064 C 
ATOM     10  O   UNL     1      29.078  31.699  47.060  1.00  0.00    -0.545 OA
ATOM     11  O   UNL     1      27.956  33.684  46.885  1.00  0.00    -0.545 OA
ENDBRANCH   8   9
ENDBRANCH   1   7
BRANCH   4  12
ATOM     12  O   UNL     1      24.608  25.758  47.083  1.00  0.00    -0.504 OA
ATOM     13  H   UNL     1      23.878  25.164  47.456  1.00  0.00     0.293 HD
ENDBRANCH   4  12
BRANCH   6  14
ATOM     14  O   UNL     1      22.045  26.929  46.880  1.00  0.00    -0.504 OA
ATOM     15  H   UNL     1      21.159  27.242  47.259  1.00  0.00     0.293 HD
ENDBRANCH   6  14
TORSDOF 4
ENDMDL
MODEL 4
REMARK VINA RESULT:    -0.199      2.448      3.750
REMARK INTER + INTRA:          -0.368
REMARK INTER:                  -0.234
REMARK INTRA:                  -0.134
REMARK UNBOUND:                -0.134
REMARK SMILES O=C([O-])C=Cc1ccc(O)c(O)c1
REMARK SMILES IDX 6 1 13 2 7 3 11 4 8 5 9 6 5 7 4 8 2 9 1 10 3 11 12 12 10 14
REMARK H PARENT 12 13 10 15
REMARK Flexibility Score: inf
ROOT
ATOM      1  C   UNL     1      25.437  26.252  47.150  1.00  0.00    -0.022 A 
ATOM      2  C   UNL     1      24.480  25.223  47.148  1.00  0.00     0.058 A 
ATOM      3  C   UNL     1      24.999  27.587  47.036  1.00  0.00     0.012 A 
ATOM      4  C   UNL     1      23.111  25.516  47.061  1.00  0.00     0.157 A 
ATOM      5  C   UNL     1      23.635  27.879  46.949  1.00  0.00     0.051 A 
ATOM      6  C   UNL     1      22.688  26.851  46.963  1.00  0.00     0.157 A 
ENDROOT
BRANCH   1   7
ATOM      7  C   UNL     1      26.873  25.887  47.234  1.00  0.00     0.010 C 
ATOM      8  C   UNL     1      27.311  24.646  47.484  1.00  0.00     0.025 C 
BRANCH   8   9
ATOM      9  C   UNL     1      28.746  24.325  47.546  1.00  0.00     0.064 C 
ATOM     10  O   UNL     1      29.114  23.196  47.960  1.00  0.00    -0.545 OA
ATOM     11  O   UNL     1      29.705  25.254  47.156  1.00  0.00    -0.545 OA
ENDBRANCH   8   9
ENDBRANCH   1   7
BRANCH   4  12
ATOM     12  O   UNL     1      22.173  24.485  47.070  1.00  0.00    -0.504 OA
ATOM     13  H   UNL     1      22.331  23.627  47.585  1.00  0.00     0.293 HD
ENDBRANCH   4  12
BRANCH   6  14
ATOM     14  O   UNL     1      21.334  27.175  46.876  1.00  0.00    -0.504 OA
ATOM     15  H   UNL     1      20.944  27.988  47.340  1.00  0.00     0.293 HD
ENDBRANCH   6  14
TORSDOF 4
ENDMDL
MODEL 5
REMARK VINA RESULT:    -0.195      2.557      3.914
REMARK INTER + INTRA:          -0.363
REMARK INTER:                  -0.231
REMARK INTRA:                  -0.132
REMARK UNBOUND:                -0.134
REMARK SMILES O=C([O-])C=Cc1ccc(O)c(O)c1
REMARK SMILES IDX 6 1 13 2 7 3 11 4 8 5 9 6 5 7 4 8 2 9 1 10 3 11 12 12 10 14
REMARK H PARENT 12 13 10 15
REMARK Flexibility Score: inf
ROOT
ATOM      1  C   UNL     1      24.520  25.175  47.184  1.00  0.00    -0.022 A 
ATOM      2  C   UNL     1      24.711  26.553  47.382  1.00  0.00     0.058 A 
ATOM      3  C   UNL     1      23.216  24.698  46.946  1.00  0.00     0.012 A 
ATOM      4  C   UNL     1      23.629  27.444  47.318  1.00  0.00     0.157 A 
ATOM      5  C   UNL     1      22.138  25.585  46.883  1.00  0.00     0.051 A 
ATOM      6  C   UNL     1      22.337  26.956  47.066  1.00  0.00     0.157 A 
ENDROOT
BRANCH   1   7
ATOM      7  C   UNL     1      25.697  24.275  47.272  1.00  0.00     0.010 C 
ATOM      8  C   UNL     1      25.903  23.416  48.279  1.00  0.00     0.025 C 
BRANCH   8   9
ATOM      9  C   UNL     1      27.078  22.532  48.319  1.00  0.00     0.064 C 
ATOM     10  O   UNL     1      27.415  21.994  49.405  1.00  0.00    -0.545 OA
ATOM     11  O   UNL     1      27.829  22.284  47.175  1.00  0.00    -0.545 OA
ENDBRANCH   8   9
ENDBRANCH   1   7
BRANCH   4  12
ATOM     12  O   UNL     1      23.836  28.810  47.507  1.00  0.00    -0.504 OA
ATOM     13  H   UNL     1      24.161  29.181  48.391  1.00  0.00     0.293 HD
ENDBRANCH   4  12
BRANCH   6  14
ATOM     14  O   UNL     1      21.241  27.816  46.996  1.00  0.00    -0.504 OA
ATOM     15  H   UNL     1      21.107  28.572  47.657  1.00  0.00     0.293 HD
ENDBRANCH   6  14
TORSDOF 4
ENDMDL
MODEL 6
REMARK VINA RESULT:    -0.193      2.299      3.623
REMARK INTER + INTRA:          -0.361
REMARK INTER:                  -0.219
REMARK INTRA:                  -0.142
REMARK UNBOUND:                -0.134
REMARK SMILES O=C([O-])C=Cc1ccc(O)c(O)c1
REMARK SMILES IDX 6 1 13 2 7 3 11 4 8 5 9 6 5 7 4 8 2 9 1 10 3 11 12 12 10 14
REMARK H PARENT 12 13 10 15
REMARK Flexibility Score: inf
ROOT
ATOM      1  C   UNL     1      25.545  26.034  47.154  1.00  0.00    -0.022 A 
ATOM      2  C   UNL     1      25.748  24.646  47.247  1.00  0.00     0.058 A 
ATOM      3  C   UNL     1      24.234  26.517  46.972  1.00  0.00     0.012 A 
ATOM      4  C   UNL     1      24.666  23.756  47.186  1.00  0.00     0.157 A 
ATOM      5  C   UNL     1      23.155  25.630  46.911  1.00  0.00     0.051 A 
ATOM      6  C   UNL     1      23.363  24.253  47.019  1.00  0.00     0.157 A 
ENDROOT
BRANCH   1   7
ATOM      7  C   UNL     1      26.726  26.930  47.214  1.00  0.00     0.010 C 
ATOM      8  C   UNL     1      26.672  28.249  46.981  1.00  0.00     0.025 C 
BRANCH   8   9
ATOM      9  C   UNL     1      27.866  29.103  47.064  1.00  0.00     0.064 C 
ATOM     10  O   UNL     1      27.758  30.343  46.880  1.00  0.00    -0.545 OA
ATOM     11  O   UNL     1      29.118  28.562  47.339  1.00  0.00    -0.545 OA
ENDBRANCH   8   9
ENDBRANCH   1   7
BRANCH   4  12
ATOM     12  O   UNL     1      24.882  22.383  47.290  1.00  0.00    -0.504 OA
ATOM     13  H   UNL     1      25.151  21.952  48.166  1.00  0.00     0.293 HD
ENDBRANCH   4  12
BRANCH   6  14
ATOM     14  O   UNL     1      22.266  23.394  46.956  1.00  0.00    -0.504 OA
ATOM     15  H   UNL     1      21.353  23.709  46.649  1.00  0.00     0.293 HD
ENDBRANCH   6  14
TORSDOF 4
ENDMDL
MODEL 7
REMARK VINA RESULT:    -0.191      2.400      3.021
REMARK INTER + INTRA:          -0.359
REMARK INTER:                  -0.215
REMARK INTRA:                  -0.144
REMARK UNBOUND:                -0.134
REMARK SMILES O=C([O-])C=Cc1ccc(O)c(O)c1
REMARK SMILES IDX 6 1 13 2 7 3 11 4 8 5 9 6 5 7 4 8 2 9 1 10 3 11 12 12 10 14
REMARK H PARENT 12 13 10 15
REMARK Flexibility Score: inf
ROOT
ATOM      1  C   UNL     1      23.596  27.954  47.354  1.00  0.00    -0.022 A 
ATOM      2  C   UNL     1      22.211  28.133  47.206  1.00  0.00     0.058 A 
ATOM      3  C   UNL     1      24.115  26.644  47.363  1.00  0.00     0.012 A 
ATOM      4  C   UNL     1      21.358  27.031  47.042  1.00  0.00     0.157 A 
ATOM      5  C   UNL     1      23.265  25.546  47.200  1.00  0.00     0.051 A 
ATOM      6  C   UNL     1      21.890  25.732  47.038  1.00  0.00     0.157 A 
ENDROOT
BRANCH   1   7
ATOM      7  C   UNL     1      24.452  29.154  47.535  1.00  0.00     0.010 C 
ATOM      8  C   UNL     1      25.788  29.107  47.630  1.00  0.00     0.025 C 
BRANCH   8   9
ATOM      9  C   UNL     1      26.599  30.323  47.795  1.00  0.00     0.064 C 
ATOM     10  O   UNL     1      26.035  31.448  47.824  1.00  0.00    -0.545 OA
ATOM     11  O   UNL     1      27.982  30.252  47.917  1.00  0.00    -0.545 OA
ENDBRANCH   8   9
ENDBRANCH   1   7
BRANCH   4  12
ATOM     12  O   UNL     1      19.986  27.225  46.886  1.00  0.00    -0.504 OA
ATOM     13  H   UNL     1      19.541  27.169  45.979  1.00  0.00     0.293 HD
ENDBRANCH   4  12
BRANCH   6  14
ATOM     14  O   UNL     1      21.069  24.616  46.876  1.00  0.00    -0.504 OA
ATOM     15  H   UNL     1      20.099  24.614  47.169  1.00  0.00     0.293 HD
ENDBRANCH   6  14
TORSDOF 4
ENDMDL
MODEL 8
REMARK VINA RESULT:    -0.185      4.550      5.743
REMARK INTER + INTRA:          -0.351
REMARK INTER:                  -0.214
REMARK INTRA:                  -0.137
REMARK UNBOUND:                -0.134
REMARK SMILES O=C([O-])C=Cc1ccc(O)c(O)c1
REMARK SMILES IDX 6 1 13 2 7 3 11 4 8 5 9 6 5 7 4 8 2 9 1 10 3 11 12 12 10 14
REMARK H PARENT 12 13 10 15
REMARK Flexibility Score: inf
ROOT
ATOM      1  C   UNL     1      23.699  29.737  47.137  1.00  0.00    -0.022 A 
ATOM      2  C   UNL     1      22.636  28.822  47.056  1.00  0.00     0.058 A 
ATOM      3  C   UNL     1      25.020  29.245  47.152  1.00  0.00     0.012 A 
ATOM      4  C   UNL     1      22.880  27.444  46.965  1.00  0.00     0.157 A 
ATOM      5  C   UNL     1      25.263  27.871  47.061  1.00  0.00     0.051 A 
ATOM      6  C   UNL     1      24.201  26.968  46.966  1.00  0.00     0.157 A 
ENDROOT
BRANCH   1   7
ATOM      7  C   UNL     1      23.385  31.184  47.242  1.00  0.00     0.010 C 
ATOM      8  C   UNL     1      23.942  32.003  48.144  1.00  0.00     0.025 C 
BRANCH   8   9
ATOM      9  C   UNL     1      23.610  33.435  48.204  1.00  0.00     0.064 C 
ATOM     10  O   UNL     1      23.161  34.013  47.181  1.00  0.00    -0.545 OA
ATOM     11  O   UNL     1      23.789  34.164  49.375  1.00  0.00    -0.545 OA
ENDBRANCH   8   9
ENDBRANCH   1   7
BRANCH   4  12
ATOM     12  O   UNL     1      21.815  26.549  46.875  1.00  0.00    -0.504 OA
ATOM     13  H   UNL     1      21.099  26.645  46.167  1.00  0.00     0.293 HD
ENDBRANCH   4  12
BRANCH   6  14
ATOM     14  O   UNL     1      24.478  25.604  46.876  1.00  0.00    -0.504 OA
ATOM     15  H   UNL     1      25.263  25.181  47.356  1.00  0.00     0.293 HD
ENDBRANCH   6  14
TORSDOF 4
ENDMDL
MODEL 9
REMARK VINA RESULT:    -0.181      1.970      5.483
REMARK INTER + INTRA:          -0.347
REMARK INTER:                  -0.205
REMARK INTRA:                  -0.142
REMARK UNBOUND:                -0.134
REMARK SMILES O=C([O-])C=Cc1ccc(O)c(O)c1
REMARK SMILES IDX 6 1 13 2 7 3 11 4 8 5 9 6 5 7 4 8 2 9 1 10 3 11 12 12 10 14
REMARK H PARENT 12 13 10 15
REMARK Flexibility Score: inf
ROOT
ATOM      1  C   UNL     1      23.994  25.759  47.539  1.00  0.00    -0.022 A 
ATOM      2  C   UNL     1      25.273  26.198  47.157  1.00  0.00     0.058 A 
ATOM      3  C   UNL     1      23.844  24.444  48.021  1.00  0.00     0.012 A 
ATOM      4  C   UNL     1      26.387  25.355  47.277  1.00  0.00     0.157 A 
ATOM      5  C   UNL     1      24.954  23.603  48.141  1.00  0.00     0.051 A 
ATOM      6  C   UNL     1      26.226  24.051  47.773  1.00  0.00     0.157 A 
ENDROOT
BRANCH   1   7
ATOM      7  C   UNL     1      22.847  26.688  47.381  1.00  0.00     0.010 C 
ATOM      8  C   UNL     1      21.565  26.301  47.420  1.00  0.00     0.025 C 
BRANCH   8   9
ATOM      9  C   UNL     1      20.459  27.259  47.272  1.00  0.00     0.064 C 
ATOM     10  O   UNL     1      19.331  26.852  46.890  1.00  0.00    -0.545 OA
ATOM     11  O   UNL     1      20.639  28.611  47.544  1.00  0.00    -0.545 OA
ENDBRANCH   8   9
ENDBRANCH   1   7
BRANCH   4  12
ATOM     12  O   UNL     1      27.652  25.808  46.903  1.00  0.00    -0.504 OA
ATOM     13  H   UNL     1      28.484  25.257  47.069  1.00  0.00     0.293 HD
ENDBRANCH   4  12
BRANCH   6  14
ATOM     14  O   UNL     1      27.313  23.189  47.906  1.00  0.00    -0.504 OA
ATOM     15  H   UNL     1      28.054  23.147  47.216  1.00  0.00     0.293 HD
ENDBRANCH   6  14
TORSDOF 4
ENDMDL
