MODEL 1
REMARK VINA RESULT:    -2.016      0.000      0.000
REMARK INTER + INTRA:          -2.406
REMARK INTER:                  -2.723
REMARK INTRA:                   0.317
REMARK UNBOUND:                 0.317
REMARK SMILES O=c1c(-c2ccc(O)cc2)coc2c([C@@H]3O[C@H](CO)[C@@H](O)[C@H](O)[C@H]3O)c(O)ccc12
REMARK SMILES IDX 3 1 11 2 12 3 13 4 30 5 2 6 1 7 29 8 28 9 26 10 14 11 4 12
REMARK SMILES IDX 5 13 6 14 7 15 10 16 9 17 8 18 15 20 24 21 16 22 22 23 17 24
REMARK SMILES IDX 20 25 25 26 23 28 18 30 19 31 21 33 27 35
REMARK H PARENT 8 19 25 27 23 29 19 32 21 34 27 36
REMARK Flexibility Score: inf
ROOT
ATOM      1  C   UNL     1      -9.226   1.291  -6.751  1.00  0.00     0.065 A 
ATOM      2  C   UNL     1      -9.778   2.411  -6.111  1.00  0.00     0.208 A 
ATOM      3  O   UNL     1      -9.566   3.634  -6.577  1.00  0.00    -0.463 OA
ATOM      4  C   UNL     1      -8.832   3.885  -7.660  1.00  0.00     0.147 A 
ATOM      5  C   UNL     1      -8.246   2.814  -8.371  1.00  0.00     0.066 A 
ATOM      6  C   UNL     1      -8.454   1.502  -7.907  1.00  0.00     0.200 A 
ATOM      7  O   UNL     1      -7.968   0.520  -8.536  1.00  0.00    -0.288 OA
ATOM      8  C   UNL     1      -7.487   3.080  -9.521  1.00  0.00     0.020 A 
ATOM      9  C   UNL     1      -7.316   4.390  -9.962  1.00  0.00     0.047 A 
ATOM     10  C   UNL     1      -7.893   5.459  -9.266  1.00  0.00     0.125 A 
ATOM     11  C   UNL     1      -8.645   5.219  -8.094  1.00  0.00     0.069 A 
ENDROOT
BRANCH   1  12
ATOM     12  C   UNL     1      -9.470  -0.068  -6.206  1.00  0.00    -0.011 A 
ATOM     13  C   UNL     1      -9.905  -1.110  -7.044  1.00  0.00     0.013 A 
ATOM     14  C   UNL     1     -10.124  -2.391  -6.527  1.00  0.00     0.047 A 
ATOM     15  C   UNL     1      -9.908  -2.646  -5.167  1.00  0.00     0.115 A 
ATOM     16  C   UNL     1      -9.249  -0.337  -4.843  1.00  0.00     0.013 A 
ATOM     17  C   UNL     1      -9.470  -1.617  -4.328  1.00  0.00     0.047 A 
BRANCH  15  18
ATOM     18  O   UNL     1     -10.123  -3.918  -4.641  1.00  0.00    -0.508 OA
ATOM     19  H   UNL     1      -9.934  -4.127  -3.667  1.00  0.00     0.293 HD
ENDBRANCH  15  18
ENDBRANCH   1  12
BRANCH  11  20
ATOM     20  C   UNL     1      -9.292   6.377  -7.346  1.00  0.00     0.188 C 
ATOM     21  C   UNL     1      -8.539   6.642  -6.022  1.00  0.00     0.179 C 
ATOM     22  O   UNL     1      -9.280   7.528  -8.176  1.00  0.00    -0.362 OA
ATOM     23  C   UNL     1      -9.168   7.846  -5.298  1.00  0.00     0.177 C 
ATOM     24  C   UNL     1      -9.982   8.601  -7.572  1.00  0.00     0.176 C 
ATOM     25  C   UNL     1      -9.276   9.039  -6.263  1.00  0.00     0.177 C 
BRANCH  21  26
ATOM     26  O   UNL     1      -8.618   5.501  -5.204  1.00  0.00    -0.387 OA
ATOM     27  H   UNL     1      -8.284   4.736  -5.742  1.00  0.00     0.211 HD
ENDBRANCH  21  26
BRANCH  23  28
ATOM     28  O   UNL     1      -8.377   8.215  -4.197  1.00  0.00    -0.387 OA
ATOM     29  H   UNL     1      -8.011   9.117  -4.393  1.00  0.00     0.211 HD
ENDBRANCH  23  28
BRANCH  24  30
ATOM     30  C   UNL     1     -10.067   9.760  -8.578  1.00  0.00     0.191 C 
BRANCH  30  31
ATOM     31  O   UNL     1      -9.845   9.311  -9.890  1.00  0.00    -0.394 OA
ATOM     32  H   UNL     1      -9.858   8.318  -9.860  1.00  0.00     0.210 HD
ENDBRANCH  30  31
ENDBRANCH  24  30
BRANCH  25  33
ATOM     33  O   UNL     1      -9.951  10.110  -5.649  1.00  0.00    -0.388 OA
ATOM     34  H   UNL     1      -9.853  10.904  -6.238  1.00  0.00     0.211 HD
ENDBRANCH  25  33
ENDBRANCH  11  20
BRANCH  10  35
ATOM     35  O   UNL     1      -7.720   6.759  -9.742  1.00  0.00    -0.507 OA
ATOM     36  H   UNL     1      -7.860   6.992 -10.719  1.00  0.00     0.293 HD
ENDBRANCH  10  35
TORSDOF 9
ENDMDL
MODEL 2
REMARK VINA RESULT:    -0.930     16.923     19.048
REMARK INTER + INTRA:          -0.939
REMARK INTER:                  -1.952
REMARK INTRA:                   1.012
REMARK UNBOUND:                 0.317
REMARK SMILES O=c1c(-c2ccc(O)cc2)coc2c([C@@H]3O[C@H](CO)[C@@H](O)[C@H](O)[C@H]3O)c(O)ccc12
REMARK SMILES IDX 3 1 11 2 12 3 13 4 30 5 2 6 1 7 29 8 28 9 26 10 14 11 4 12
REMARK SMILES IDX 5 13 6 14 7 15 10 16 9 17 8 18 15 20 24 21 16 22 22 23 17 24
REMARK SMILES IDX 20 25 25 26 23 28 18 30 19 31 21 33 27 35
REMARK H PARENT 8 19 25 27 23 29 19 32 21 34 27 36
REMARK Flexibility Score: inf
ROOT
ATOM      1  C   UNL     1       6.767   9.635   1.432  1.00  0.00     0.065 A 
ATOM      2  C   UNL     1       7.848   9.410   0.568  1.00  0.00     0.208 A 
ATOM      3  O   UNL     1       7.681   9.415  -0.748  1.00  0.00    -0.463 OA
ATOM      4  C   UNL     1       6.504   9.629  -1.333  1.00  0.00     0.147 A 
ATOM      5  C   UNL     1       5.361   9.873  -0.536  1.00  0.00     0.066 A 
ATOM      6  C   UNL     1       5.504   9.879   0.864  1.00  0.00     0.200 A 
ATOM      7  O   UNL     1       4.510  10.123   1.603  1.00  0.00    -0.288 OA
ATOM      8  C   UNL     1       4.125  10.114  -1.155  1.00  0.00     0.020 A 
ATOM      9  C   UNL     1       4.024  10.118  -2.544  1.00  0.00     0.047 A 
ATOM     10  C   UNL     1       5.149   9.878  -3.342  1.00  0.00     0.125 A 
ATOM     11  C   UNL     1       6.401   9.612  -2.744  1.00  0.00     0.069 A 
ENDROOT
BRANCH   1  12
ATOM     12  C   UNL     1       6.978   9.616   2.901  1.00  0.00    -0.011 A 
ATOM     13  C   UNL     1       5.949  10.004   3.778  1.00  0.00     0.013 A 
ATOM     14  C   UNL     1       6.150   9.975   5.162  1.00  0.00     0.047 A 
ATOM     15  C   UNL     1       7.379   9.554   5.686  1.00  0.00     0.115 A 
ATOM     16  C   UNL     1       8.205   9.187   3.437  1.00  0.00     0.013 A 
ATOM     17  C   UNL     1       8.404   9.161   4.820  1.00  0.00     0.047 A 
BRANCH  15  18
ATOM     18  O   UNL     1       7.590   9.522   7.062  1.00  0.00    -0.508 OA
ATOM     19  H   UNL     1       8.472   9.214   7.455  1.00  0.00     0.293 HD
ENDBRANCH  15  18
ENDBRANCH   1  12
BRANCH  11  20
ATOM     20  C   UNL     1       7.631   9.373  -3.609  1.00  0.00     0.188 C 
ATOM     21  C   UNL     1       8.086   7.900  -3.489  1.00  0.00     0.179 C 
ATOM     22  O   UNL     1       7.321   9.700  -4.955  1.00  0.00    -0.362 OA
ATOM     23  C   UNL     1       9.299   7.655  -4.406  1.00  0.00     0.177 C 
ATOM     24  C   UNL     1       8.470   9.611  -5.780  1.00  0.00     0.176 C 
ATOM     25  C   UNL     1       8.988   8.151  -5.829  1.00  0.00     0.177 C 
BRANCH  21  26
ATOM     26  O   UNL     1       8.436   7.628  -2.155  1.00  0.00    -0.387 OA
ATOM     27  H   UNL     1       9.427   7.591  -2.118  1.00  0.00     0.211 HD
ENDBRANCH  21  26
BRANCH  23  28
ATOM     28  O   UNL     1       9.599   6.283  -4.452  1.00  0.00    -0.387 OA
ATOM     29  H   UNL     1       8.736   5.802  -4.556  1.00  0.00     0.211 HD
ENDBRANCH  23  28
BRANCH  24  30
ATOM     30  C   UNL     1       8.107  10.124  -7.183  1.00  0.00     0.191 C 
BRANCH  30  31
ATOM     31  O   UNL     1       7.602   9.091  -7.988  1.00  0.00    -0.394 OA
ATOM     32  H   UNL     1       7.217   9.520  -8.797  1.00  0.00     0.210 HD
ENDBRANCH  30  31
ENDBRANCH  24  30
BRANCH  25  33
ATOM     33  O   UNL     1      10.124   8.036  -6.650  1.00  0.00    -0.388 OA
ATOM     34  H   UNL     1      10.559   7.168  -6.441  1.00  0.00     0.211 HD
ENDBRANCH  25  33
ENDBRANCH  11  20
BRANCH  10  35
ATOM     35  O   UNL     1       5.020   9.907  -4.732  1.00  0.00    -0.507 OA
ATOM     36  H   UNL     1       4.113   9.919  -5.183  1.00  0.00     0.293 HD
ENDBRANCH  10  35
TORSDOF 9
ENDMDL
MODEL 3
REMARK VINA RESULT:     0.110      1.986      4.042
REMARK INTER + INTRA:           0.466
REMARK INTER:                  -1.871
REMARK INTRA:                   2.337
REMARK UNBOUND:                 0.317
REMARK SMILES O=c1c(-c2ccc(O)cc2)coc2c([C@@H]3O[C@H](CO)[C@@H](O)[C@H](O)[C@H]3O)c(O)ccc12
REMARK SMILES IDX 3 1 11 2 12 3 13 4 30 5 2 6 1 7 29 8 28 9 26 10 14 11 4 12
REMARK SMILES IDX 5 13 6 14 7 15 10 16 9 17 8 18 15 20 24 21 16 22 22 23 17 24
REMARK SMILES IDX 20 25 25 26 23 28 18 30 19 31 21 33 27 35
REMARK H PARENT 8 19 25 27 23 29 19 32 21 34 27 36
REMARK Flexibility Score: inf
ROOT
ATOM      1  C   UNL     1      -9.340   3.024  -5.248  1.00  0.00     0.065 A 
ATOM      2  C   UNL     1      -8.896   3.687  -6.401  1.00  0.00     0.208 A 
ATOM      3  O   UNL     1      -8.878   5.012  -6.459  1.00  0.00    -0.463 OA
ATOM      4  C   UNL     1      -9.270   5.792  -5.454  1.00  0.00     0.147 A 
ATOM      5  C   UNL     1      -9.724   5.206  -4.250  1.00  0.00     0.066 A 
ATOM      6  C   UNL     1      -9.752   3.802  -4.152  1.00  0.00     0.200 A 
ATOM      7  O   UNL     1     -10.125   3.247  -3.081  1.00  0.00    -0.288 OA
ATOM      8  C   UNL     1     -10.121   6.030  -3.185  1.00  0.00     0.020 A 
ATOM      9  C   UNL     1     -10.063   7.416  -3.312  1.00  0.00     0.047 A 
ATOM     10  C   UNL     1      -9.615   8.007  -4.499  1.00  0.00     0.125 A 
ATOM     11  C   UNL     1      -9.229   7.200  -5.592  1.00  0.00     0.069 A 
ENDROOT
BRANCH   1  12
ATOM     12  C   UNL     1      -9.359   1.540  -5.209  1.00  0.00    -0.011 A 
ATOM     13  C   UNL     1     -10.115   0.807  -6.141  1.00  0.00     0.013 A 
ATOM     14  C   UNL     1     -10.122  -0.591  -6.106  1.00  0.00     0.047 A 
ATOM     15  C   UNL     1      -9.369  -1.273  -5.142  1.00  0.00     0.115 A 
ATOM     16  C   UNL     1      -8.599   0.845  -4.250  1.00  0.00     0.013 A 
ATOM     17  C   UNL     1      -8.608  -0.552  -4.216  1.00  0.00     0.047 A 
BRANCH  15  18
ATOM     18  O   UNL     1      -9.368  -2.665  -5.097  1.00  0.00    -0.508 OA
ATOM     19  H   UNL     1      -9.752  -3.170  -4.307  1.00  0.00     0.293 HD
ENDBRANCH  15  18
ENDBRANCH   1  12
BRANCH  11  20
ATOM     20  C   UNL     1      -8.720   7.839  -6.877  1.00  0.00     0.188 C 
ATOM     21  C   UNL     1      -7.545   8.794  -6.566  1.00  0.00     0.179 C 
ATOM     22  O   UNL     1      -8.318   6.816  -7.775  1.00  0.00    -0.362 OA
ATOM     23  C   UNL     1      -7.003   9.396  -7.876  1.00  0.00     0.177 C 
ATOM     24  C   UNL     1      -7.951   7.355  -9.033  1.00  0.00     0.176 C 
ATOM     25  C   UNL     1      -6.711   8.273  -8.886  1.00  0.00     0.177 C 
BRANCH  21  26
ATOM     26  O   UNL     1      -7.992   9.824  -5.720  1.00  0.00    -0.387 OA
ATOM     27  H   UNL     1      -7.951  10.667  -6.242  1.00  0.00     0.211 HD
ENDBRANCH  21  26
BRANCH  23  28
ATOM     28  O   UNL     1      -5.820  10.110  -7.626  1.00  0.00    -0.387 OA
ATOM     29  H   UNL     1      -5.097   9.660  -8.137  1.00  0.00     0.211 HD
ENDBRANCH  23  28
BRANCH  24  30
ATOM     30  C   UNL     1      -7.678   6.194 -10.003  1.00  0.00     0.191 C 
BRANCH  30  31
ATOM     31  O   UNL     1      -6.333   5.795  -9.952  1.00  0.00    -0.394 OA
ATOM     32  H   UNL     1      -5.792   6.621  -9.847  1.00  0.00     0.210 HD
ENDBRANCH  30  31
ENDBRANCH  24  30
BRANCH  25  33
ATOM     33  O   UNL     1      -6.322   8.814 -10.125  1.00  0.00    -0.388 OA
ATOM     34  H   UNL     1      -6.725   9.719 -10.198  1.00  0.00     0.211 HD
ENDBRANCH  25  33
ENDBRANCH  11  20
BRANCH  10  35
ATOM     35  O   UNL     1      -9.551   9.398  -4.589  1.00  0.00    -0.507 OA
ATOM     36  H   UNL     1     -10.137   9.918  -5.231  1.00  0.00     0.293 HD
ENDBRANCH  10  35
TORSDOF 9
ENDMDL
