MODEL 1
REMARK VINA RESULT:    -3.197      0.000      0.000
REMARK INTER + INTRA:          -6.722
REMARK INTER:                  -5.159
REMARK INTRA:                  -1.563
REMARK UNBOUND:                -1.563
REMARK SMILES CCCCCCCCCCCCO
REMARK SMILES IDX 7 1 6 2 5 3 4 4 3 5 2 6 1 7 8 8 9 9 10 10 11 11 12 12 13 13
REMARK H PARENT 13 14
REMARK Flexibility Score: inf
ROOT
ATOM      1  C   UNL     1     -10.358  25.942 -39.781  1.00  0.00     0.000 C 
ENDROOT
BRANCH   1   2
ATOM      2  C   UNL     1     -11.220  27.213 -39.727  1.00  0.00    -0.000 C 
BRANCH   2   3
ATOM      3  C   UNL     1     -10.792  28.170 -38.601  1.00  0.00    -0.000 C 
BRANCH   3   4
ATOM      4  C   UNL     1     -11.966  28.585 -37.699  1.00  0.00    -0.000 C 
BRANCH   4   5
ATOM      5  C   UNL     1     -13.143  27.601 -37.773  1.00  0.00    -0.000 C 
BRANCH   5   6
ATOM      6  C   UNL     1     -13.299  26.832 -36.457  1.00  0.00    -0.003 C 
ATOM      7  C   UNL     1     -13.347  25.327 -36.699  1.00  0.00     0.004 C 
ENDBRANCH   5   6
ENDBRANCH   4   5
ENDBRANCH   3   4
ENDBRANCH   2   3
ENDBRANCH   1   2
BRANCH   1   8
ATOM      8  C   UNL     1      -9.450  25.792 -38.552  1.00  0.00     0.000 C 
BRANCH   8   9
ATOM      9  C   UNL     1      -9.857  24.573 -37.714  1.00  0.00     0.000 C 
BRANCH   9  10
ATOM     10  C   UNL     1      -9.586  24.816 -36.221  1.00  0.00     0.002 C 
BRANCH  10  11
ATOM     11  C   UNL     1      -9.592  26.309 -35.851  1.00  0.00     0.028 C 
BRANCH  11  12
ATOM     12  C   UNL     1     -10.173  26.603 -34.462  1.00  0.00     0.156 C 
BRANCH  12  13
ATOM     13  O   UNL     1      -9.882  25.562 -33.568  1.00  0.00    -0.396 OA
ATOM     14  H   UNL     1      -9.880  25.957 -32.657  1.00  0.00     0.210 HD
ENDBRANCH  12  13
ENDBRANCH  11  12
ENDBRANCH  10  11
ENDBRANCH   9  10
ENDBRANCH   8   9
ENDBRANCH   1   8
TORSDOF 11
ENDMDL
MODEL 2
REMARK VINA RESULT:    -3.180      3.361      4.955
REMARK INTER + INTRA:          -6.695
REMARK INTER:                  -6.155
REMARK INTRA:                  -0.539
REMARK UNBOUND:                -1.563
REMARK SMILES CCCCCCCCCCCCO
REMARK SMILES IDX 7 1 6 2 5 3 4 4 3 5 2 6 1 7 8 8 9 9 10 10 11 11 12 12 13 13
REMARK H PARENT 13 14
REMARK Flexibility Score: inf
ROOT
ATOM      1  C   UNL     1     -11.578  29.766 -37.579  1.00  0.00     0.000 C 
ENDROOT
BRANCH   1   2
ATOM      2  C   UNL     1     -12.253  30.889 -38.383  1.00  0.00    -0.000 C 
BRANCH   2   3
ATOM      3  C   UNL     1     -11.979  32.284 -37.794  1.00  0.00    -0.000 C 
BRANCH   3   4
ATOM      4  C   UNL     1     -10.862  32.272 -36.738  1.00  0.00    -0.000 C 
BRANCH   4   5
ATOM      5  C   UNL     1      -9.877  33.438 -36.907  1.00  0.00    -0.000 C 
BRANCH   5   6
ATOM      6  C   UNL     1      -8.431  32.933 -36.948  1.00  0.00    -0.003 C 
ATOM      7  C   UNL     1      -7.545  33.863 -37.771  1.00  0.00     0.004 C 
ENDBRANCH   5   6
ENDBRANCH   4   5
ENDBRANCH   3   4
ENDBRANCH   2   3
ENDBRANCH   1   2
BRANCH   1   8
ATOM      8  C   UNL     1     -11.187  28.567 -38.456  1.00  0.00     0.000 C 
BRANCH   8   9
ATOM      9  C   UNL     1     -10.573  27.445 -37.609  1.00  0.00     0.000 C 
BRANCH   9  10
ATOM     10  C   UNL     1     -10.054  27.987 -36.268  1.00  0.00     0.002 C 
BRANCH  10  11
ATOM     11  C   UNL     1     -10.442  27.096 -35.076  1.00  0.00     0.028 C 
BRANCH  11  12
ATOM     12  C   UNL     1      -9.356  26.091 -34.672  1.00  0.00     0.156 C 
BRANCH  12  13
ATOM     13  O   UNL     1      -9.710  25.422 -33.490  1.00  0.00    -0.396 OA
ATOM     14  H   UNL     1     -10.677  25.209 -33.560  1.00  0.00     0.210 HD
ENDBRANCH  12  13
ENDBRANCH  11  12
ENDBRANCH  10  11
ENDBRANCH   9  10
ENDBRANCH   8   9
ENDBRANCH   1   8
TORSDOF 11
ENDMDL
MODEL 3
REMARK VINA RESULT:    -3.174      4.558      6.092
REMARK INTER + INTRA:          -6.685
REMARK INTER:                  -6.124
REMARK INTRA:                  -0.562
REMARK UNBOUND:                -1.563
REMARK SMILES CCCCCCCCCCCCO
REMARK SMILES IDX 7 1 6 2 5 3 4 4 3 5 2 6 1 7 8 8 9 9 10 10 11 11 12 12 13 13
REMARK H PARENT 13 14
REMARK Flexibility Score: inf
ROOT
ATOM      1  C   UNL     1     -11.169  31.110 -37.413  1.00  0.00     0.000 C 
ENDROOT
BRANCH   1   2
ATOM      2  C   UNL     1     -10.624  32.424 -36.832  1.00  0.00    -0.000 C 
BRANCH   2   3
ATOM      3  C   UNL     1      -9.175  32.292 -36.331  1.00  0.00    -0.000 C 
BRANCH   3   4
ATOM      4  C   UNL     1      -8.189  33.149 -37.141  1.00  0.00    -0.000 C 
BRANCH   4   5
ATOM      5  C   UNL     1      -8.859  34.373 -37.783  1.00  0.00    -0.000 C 
BRANCH   5   6
ATOM      6  C   UNL     1      -8.199  35.672 -37.306  1.00  0.00    -0.003 C 
ATOM      7  C   UNL     1      -7.938  35.639 -35.804  1.00  0.00     0.004 C 
ENDBRANCH   5   6
ENDBRANCH   4   5
ENDBRANCH   3   4
ENDBRANCH   2   3
ENDBRANCH   1   2
BRANCH   1   8
ATOM      8  C   UNL     1     -10.349  29.887 -36.977  1.00  0.00     0.000 C 
BRANCH   8   9
ATOM      9  C   UNL     1     -10.750  28.643 -37.779  1.00  0.00     0.000 C 
BRANCH   9  10
ATOM     10  C   UNL     1     -10.283  27.359 -37.074  1.00  0.00     0.002 C 
BRANCH  10  11
ATOM     11  C   UNL     1     -10.329  27.473 -35.541  1.00  0.00     0.028 C 
BRANCH  11  12
ATOM     12  C   UNL     1      -9.579  26.352 -34.811  1.00  0.00     0.156 C 
BRANCH  12  13
ATOM     13  O   UNL     1     -10.258  25.975 -33.643  1.00  0.00    -0.396 OA
ATOM     14  H   UNL     1     -11.174  26.351 -33.708  1.00  0.00     0.210 HD
ENDBRANCH  12  13
ENDBRANCH  11  12
ENDBRANCH  10  11
ENDBRANCH   9  10
ENDBRANCH   8   9
ENDBRANCH   1   8
TORSDOF 11
ENDMDL
MODEL 4
REMARK VINA RESULT:    -3.126      3.810      5.412
REMARK INTER + INTRA:          -6.608
REMARK INTER:                  -6.156
REMARK INTRA:                  -0.452
REMARK UNBOUND:                -1.563
REMARK SMILES CCCCCCCCCCCCO
REMARK SMILES IDX 7 1 6 2 5 3 4 4 3 5 2 6 1 7 8 8 9 9 10 10 11 11 12 12 13 13
REMARK H PARENT 13 14
REMARK Flexibility Score: inf
ROOT
ATOM      1  C   UNL     1     -10.904  29.507 -37.418  1.00  0.00     0.000 C 
ENDROOT
BRANCH   1   2
ATOM      2  C   UNL     1     -10.350  30.772 -36.745  1.00  0.00    -0.000 C 
BRANCH   2   3
ATOM      3  C   UNL     1     -11.067  32.052 -37.209  1.00  0.00    -0.000 C 
BRANCH   3   4
ATOM      4  C   UNL     1     -10.159  33.291 -37.159  1.00  0.00    -0.000 C 
BRANCH   4   5
ATOM      5  C   UNL     1      -8.730  32.957 -36.703  1.00  0.00    -0.000 C 
BRANCH   5   6
ATOM      6  C   UNL     1      -7.694  33.623 -37.615  1.00  0.00    -0.003 C 
ATOM      7  C   UNL     1      -8.119  35.039 -37.991  1.00  0.00     0.004 C 
ENDBRANCH   5   6
ENDBRANCH   4   5
ENDBRANCH   3   4
ENDBRANCH   2   3
ENDBRANCH   1   2
BRANCH   1   8
ATOM      8  C   UNL     1     -10.074  28.256 -37.096  1.00  0.00     0.000 C 
BRANCH   8   9
ATOM      9  C   UNL     1     -10.269  27.828 -35.636  1.00  0.00     0.000 C 
BRANCH   9  10
ATOM     10  C   UNL     1      -9.690  26.426 -35.391  1.00  0.00     0.002 C 
BRANCH  10  11
ATOM     11  C   UNL     1      -9.489  25.631 -36.692  1.00  0.00     0.028 C 
BRANCH  11  12
ATOM     12  C   UNL     1      -9.503  24.109 -36.499  1.00  0.00     0.156 C 
BRANCH  12  13
ATOM     13  O   UNL     1      -9.041  23.763 -35.220  1.00  0.00    -0.396 OA
ATOM     14  H   UNL     1      -8.213  23.231 -35.348  1.00  0.00     0.210 HD
ENDBRANCH  12  13
ENDBRANCH  11  12
ENDBRANCH  10  11
ENDBRANCH   9  10
ENDBRANCH   8   9
ENDBRANCH   1   8
TORSDOF 11
ENDMDL
MODEL 5
REMARK VINA RESULT:    -3.090      1.746      4.214
REMARK INTER + INTRA:          -6.550
REMARK INTER:                  -5.098
REMARK INTRA:                  -1.452
REMARK UNBOUND:                -1.563
REMARK SMILES CCCCCCCCCCCCO
REMARK SMILES IDX 7 1 6 2 5 3 4 4 3 5 2 6 1 7 8 8 9 9 10 10 11 11 12 12 13 13
REMARK H PARENT 13 14
REMARK Flexibility Score: inf
ROOT
ATOM      1  C   UNL     1     -11.192  29.258 -37.807  1.00  0.00     0.000 C 
ENDROOT
BRANCH   1   2
ATOM      2  C   UNL     1      -9.970  28.790 -37.000  1.00  0.00    -0.000 C 
BRANCH   2   3
ATOM      3  C   UNL     1     -10.362  28.077 -35.694  1.00  0.00    -0.000 C 
BRANCH   3   4
ATOM      4  C   UNL     1      -9.817  26.642 -35.616  1.00  0.00    -0.000 C 
BRANCH   4   5
ATOM      5  C   UNL     1     -10.482  25.702 -36.633  1.00  0.00    -0.000 C 
BRANCH   5   6
ATOM      6  C   UNL     1      -9.429  24.936 -37.442  1.00  0.00    -0.003 C 
ATOM      7  C   UNL     1      -9.403  25.403 -38.894  1.00  0.00     0.004 C 
ENDBRANCH   5   6
ENDBRANCH   4   5
ENDBRANCH   3   4
ENDBRANCH   2   3
ENDBRANCH   1   2
BRANCH   1   8
ATOM      8  C   UNL     1     -11.471  28.365 -39.025  1.00  0.00     0.000 C 
BRANCH   8   9
ATOM      9  C   UNL     1     -12.847  27.696 -38.911  1.00  0.00     0.000 C 
BRANCH   9  10
ATOM     10  C   UNL     1     -13.640  28.266 -37.724  1.00  0.00     0.002 C 
BRANCH  10  11
ATOM     11  C   UNL     1     -13.942  27.208 -36.650  1.00  0.00     0.028 C 
BRANCH  11  12
ATOM     12  C   UNL     1     -14.217  25.808 -37.214  1.00  0.00     0.156 C 
BRANCH  12  13
ATOM     13  O   UNL     1     -13.896  24.818 -36.273  1.00  0.00    -0.396 OA
ATOM     14  H   UNL     1     -13.008  25.056 -35.897  1.00  0.00     0.210 HD
ENDBRANCH  12  13
ENDBRANCH  11  12
ENDBRANCH  10  11
ENDBRANCH   9  10
ENDBRANCH   8   9
ENDBRANCH   1   8
TORSDOF 11
ENDMDL
MODEL 6
REMARK VINA RESULT:    -3.008      1.656      2.632
REMARK INTER + INTRA:          -6.418
REMARK INTER:                  -5.040
REMARK INTRA:                  -1.377
REMARK UNBOUND:                -1.563
REMARK SMILES CCCCCCCCCCCCO
REMARK SMILES IDX 7 1 6 2 5 3 4 4 3 5 2 6 1 7 8 8 9 9 10 10 11 11 12 12 13 13
REMARK H PARENT 13 14
REMARK Flexibility Score: inf
ROOT
ATOM      1  C   UNL     1      -9.906  27.971 -36.932  1.00  0.00     0.000 C 
ENDROOT
BRANCH   1   2
ATOM      2  C   UNL     1     -11.041  28.788 -37.570  1.00  0.00    -0.000 C 
BRANCH   2   3
ATOM      3  C   UNL     1     -11.623  28.113 -38.824  1.00  0.00    -0.000 C 
BRANCH   3   4
ATOM      4  C   UNL     1     -12.882  27.284 -38.519  1.00  0.00    -0.000 C 
BRANCH   4   5
ATOM      5  C   UNL     1     -12.738  25.815 -38.947  1.00  0.00    -0.000 C 
BRANCH   5   6
ATOM      6  C   UNL     1     -12.829  24.881 -37.735  1.00  0.00    -0.003 C 
ATOM      7  C   UNL     1     -13.443  25.593 -36.534  1.00  0.00     0.004 C 
ENDBRANCH   5   6
ENDBRANCH   4   5
ENDBRANCH   3   4
ENDBRANCH   2   3
ENDBRANCH   1   2
BRANCH   1   8
ATOM      8  C   UNL     1     -10.271  27.446 -35.536  1.00  0.00     0.000 C 
BRANCH   8   9
ATOM      9  C   UNL     1      -9.691  26.044 -35.308  1.00  0.00     0.000 C 
BRANCH   9  10
ATOM     10  C   UNL     1      -9.504  25.302 -36.640  1.00  0.00     0.002 C 
BRANCH  10  11
ATOM     11  C   UNL     1      -9.444  23.775 -36.466  1.00  0.00     0.028 C 
BRANCH  11  12
ATOM     12  C   UNL     1      -8.923  23.325 -35.095  1.00  0.00     0.156 C 
BRANCH  12  13
ATOM     13  O   UNL     1      -7.642  22.763 -35.208  1.00  0.00    -0.396 OA
ATOM     14  H   UNL     1      -7.107  23.111 -34.448  1.00  0.00     0.210 HD
ENDBRANCH  12  13
ENDBRANCH  11  12
ENDBRANCH  10  11
ENDBRANCH   9  10
ENDBRANCH   8   9
ENDBRANCH   1   8
TORSDOF 11
ENDMDL
MODEL 7
REMARK VINA RESULT:    -2.951      4.176      5.795
REMARK INTER + INTRA:          -6.326
REMARK INTER:                  -5.690
REMARK INTRA:                  -0.636
REMARK UNBOUND:                -1.563
REMARK SMILES CCCCCCCCCCCCO
REMARK SMILES IDX 7 1 6 2 5 3 4 4 3 5 2 6 1 7 8 8 9 9 10 10 11 11 12 12 13 13
REMARK H PARENT 13 14
REMARK Flexibility Score: inf
ROOT
ATOM      1  C   UNL     1     -11.318  29.345 -37.702  1.00  0.00     0.000 C 
ENDROOT
BRANCH   1   2
ATOM      2  C   UNL     1     -10.676  28.222 -38.531  1.00  0.00    -0.000 C 
BRANCH   2   3
ATOM      3  C   UNL     1     -10.900  26.830 -37.914  1.00  0.00    -0.000 C 
BRANCH   3   4
ATOM      4  C   UNL     1      -9.588  26.155 -37.483  1.00  0.00    -0.000 C 
BRANCH   4   5
ATOM      5  C   UNL     1      -9.662  25.572 -36.064  1.00  0.00    -0.000 C 
BRANCH   5   6
ATOM      6  C   UNL     1      -9.491  26.672 -35.010  1.00  0.00    -0.003 C 
ATOM      7  C   UNL     1     -10.836  27.080 -34.416  1.00  0.00     0.004 C 
ENDBRANCH   5   6
ENDBRANCH   4   5
ENDBRANCH   3   4
ENDBRANCH   2   3
ENDBRANCH   1   2
BRANCH   1   8
ATOM      8  C   UNL     1     -10.284  30.157 -36.909  1.00  0.00     0.000 C 
BRANCH   8   9
ATOM      9  C   UNL     1     -10.704  31.629 -36.806  1.00  0.00     0.000 C 
BRANCH   9  10
ATOM     10  C   UNL     1      -9.643  32.453 -36.059  1.00  0.00     0.002 C 
BRANCH  10  11
ATOM     11  C   UNL     1      -8.464  32.860 -36.960  1.00  0.00     0.028 C 
BRANCH  11  12
ATOM     12  C   UNL     1      -8.438  34.352 -37.314  1.00  0.00     0.156 C 
BRANCH  12  13
ATOM     13  O   UNL     1      -7.548  35.048 -36.482  1.00  0.00    -0.396 OA
ATOM     14  H   UNL     1      -6.753  35.270 -37.033  1.00  0.00     0.210 HD
ENDBRANCH  12  13
ENDBRANCH  11  12
ENDBRANCH  10  11
ENDBRANCH   9  10
ENDBRANCH   8   9
ENDBRANCH   1   8
TORSDOF 11
ENDMDL
MODEL 8
REMARK VINA RESULT:    -2.908     11.828     13.238
REMARK INTER + INTRA:          -6.257
REMARK INTER:                  -4.855
REMARK INTRA:                  -1.402
REMARK UNBOUND:                -1.563
REMARK SMILES CCCCCCCCCCCCO
REMARK SMILES IDX 7 1 6 2 5 3 4 4 3 5 2 6 1 7 8 8 9 9 10 10 11 11 12 12 13 13
REMARK H PARENT 13 14
REMARK Flexibility Score: inf
ROOT
ATOM      1  C   UNL     1      -1.026  31.498 -45.987  1.00  0.00     0.000 C 
ENDROOT
BRANCH   1   2
ATOM      2  C   UNL     1      -0.284  32.562 -45.162  1.00  0.00    -0.000 C 
BRANCH   2   3
ATOM      3  C   UNL     1      -0.094  32.145 -43.693  1.00  0.00    -0.000 C 
BRANCH   3   4
ATOM      4  C   UNL     1      -1.427  32.014 -42.938  1.00  0.00    -0.000 C 
BRANCH   4   5
ATOM      5  C   UNL     1      -1.634  30.612 -42.345  1.00  0.00    -0.000 C 
BRANCH   5   6
ATOM      6  C   UNL     1      -0.342  29.791 -42.416  1.00  0.00    -0.003 C 
ATOM      7  C   UNL     1      -0.639  28.313 -42.649  1.00  0.00     0.004 C 
ENDBRANCH   5   6
ENDBRANCH   4   5
ENDBRANCH   3   4
ENDBRANCH   2   3
ENDBRANCH   1   2
BRANCH   1   8
ATOM      8  C   UNL     1      -0.253  30.174 -46.072  1.00  0.00     0.000 C 
BRANCH   8   9
ATOM      9  C   UNL     1      -1.118  29.072 -46.698  1.00  0.00     0.000 C 
BRANCH   9  10
ATOM     10  C   UNL     1      -2.389  28.832 -45.868  1.00  0.00     0.002 C 
BRANCH  10  11
ATOM     11  C   UNL     1      -2.691  27.338 -45.663  1.00  0.00     0.028 C 
BRANCH  11  12
ATOM     12  C   UNL     1      -1.519  26.412 -46.016  1.00  0.00     0.156 C 
BRANCH  12  13
ATOM     13  O   UNL     1      -1.142  25.639 -44.908  1.00  0.00    -0.396 OA
ATOM     14  H   UNL     1      -1.782  25.849 -44.179  1.00  0.00     0.210 HD
ENDBRANCH  12  13
ENDBRANCH  11  12
ENDBRANCH  10  11
ENDBRANCH   9  10
ENDBRANCH   8   9
ENDBRANCH   1   8
TORSDOF 11
ENDMDL
MODEL 9
REMARK VINA RESULT:    -2.876      8.892     10.628
REMARK INTER + INTRA:          -6.204
REMARK INTER:                  -5.397
REMARK INTRA:                  -0.807
REMARK UNBOUND:                -1.563
REMARK SMILES CCCCCCCCCCCCO
REMARK SMILES IDX 7 1 6 2 5 3 4 4 3 5 2 6 1 7 8 8 9 9 10 10 11 11 12 12 13 13
REMARK H PARENT 13 14
REMARK Flexibility Score: inf
ROOT
ATOM      1  C   UNL     1      -8.914  36.232 -40.595  1.00  0.00     0.000 C 
ENDROOT
BRANCH   1   2
ATOM      2  C   UNL     1      -8.221  37.526 -41.051  1.00  0.00    -0.000 C 
BRANCH   2   3
ATOM      3  C   UNL     1      -7.933  37.542 -42.562  1.00  0.00    -0.000 C 
BRANCH   3   4
ATOM      4  C   UNL     1      -8.875  36.619 -43.354  1.00  0.00    -0.000 C 
BRANCH   4   5
ATOM      5  C   UNL     1     -10.046  37.380 -43.994  1.00  0.00    -0.000 C 
BRANCH   5   6
ATOM      6  C   UNL     1     -11.318  37.238 -43.152  1.00  0.00    -0.003 C 
ATOM      7  C   UNL     1     -11.853  38.602 -42.725  1.00  0.00     0.004 C 
ENDBRANCH   5   6
ENDBRANCH   4   5
ENDBRANCH   3   4
ENDBRANCH   2   3
ENDBRANCH   1   2
BRANCH   1   8
ATOM      8  C   UNL     1      -9.925  36.472 -39.464  1.00  0.00     0.000 C 
BRANCH   8   9
ATOM      9  C   UNL     1      -9.495  35.749 -38.181  1.00  0.00     0.000 C 
BRANCH   9  10
ATOM     10  C   UNL     1      -8.308  34.811 -38.449  1.00  0.00     0.002 C 
BRANCH  10  11
ATOM     11  C   UNL     1      -7.852  34.055 -37.190  1.00  0.00     0.028 C 
BRANCH  11  12
ATOM     12  C   UNL     1      -8.704  32.821 -36.863  1.00  0.00     0.156 C 
BRANCH  12  13
ATOM     13  O   UNL     1      -7.890  31.718 -36.563  1.00  0.00    -0.396 OA
ATOM     14  H   UNL     1      -8.498  30.961 -36.354  1.00  0.00     0.210 HD
ENDBRANCH  12  13
ENDBRANCH  11  12
ENDBRANCH  10  11
ENDBRANCH   9  10
ENDBRANCH   8   9
ENDBRANCH   1   8
TORSDOF 11
ENDMDL
