MODEL 1
REMARK VINA RESULT:    -5.681      0.000      0.000
REMARK INTER + INTRA:         -11.529
REMARK INTER:                 -10.331
REMARK INTRA:                  -1.198
REMARK UNBOUND:                -1.198
REMARK SMILES CCCCCCCCCCCCCCCC(=O)[O-]
REMARK SMILES IDX 9 1 10 2 11 3 12 4 13 5 14 6 15 7 16 8 17 9 18 10 8 11 7 12
REMARK SMILES IDX 6 13 5 14 4 15 3 16 2 17 1 18
REMARK H PARENT
REMARK Flexibility Score: inf
ROOT
ATOM      1  C   UNL     1     101.815 307.299 196.785  1.00  0.00     0.000 C 
ENDROOT
BRANCH   1   2
ATOM      2  C   UNL     1     102.223 305.899 197.277  1.00  0.00     0.000 C 
BRANCH   2   3
ATOM      3  C   UNL     1     101.457 305.468 198.539  1.00  0.00     0.000 C 
BRANCH   3   4
ATOM      4  C   UNL     1     101.531 306.511 199.670  1.00  0.00     0.000 C 
BRANCH   4   5
ATOM      5  C   UNL     1     102.552 306.202 200.782  1.00  0.00     0.000 C 
BRANCH   5   6
ATOM      6  C   UNL     1     101.949 306.296 202.192  1.00  0.00     0.006 C 
BRANCH   6   7
ATOM      7  C   UNL     1     102.135 304.983 202.959  1.00  0.00     0.053 C 
BRANCH   7   8
ATOM      8  C   UNL     1     102.068 305.227 204.434  1.00  0.00     0.041 C 
ATOM      9  O   UNL     1     101.013 304.970 205.070  1.00  0.00    -0.550 OA
ATOM     10  O   UNL     1     103.188 305.689 205.114  1.00  0.00    -0.550 OA
ENDBRANCH   7   8
ENDBRANCH   6   7
ENDBRANCH   5   6
ENDBRANCH   4   5
ENDBRANCH   3   4
ENDBRANCH   2   3
ENDBRANCH   1   2
BRANCH   1  11
ATOM     11  C   UNL     1     101.503 307.331 195.278  1.00  0.00     0.000 C 
BRANCH  11  12
ATOM     12  C   UNL     1     101.407 305.924 194.662  1.00  0.00    -0.000 C 
BRANCH  12  13
ATOM     13  C   UNL     1     101.999 305.792 193.244  1.00  0.00    -0.000 C 
BRANCH  13  14
ATOM     14  C   UNL     1     103.503 306.129 193.166  1.00  0.00    -0.000 C 
BRANCH  14  15
ATOM     15  C   UNL     1     103.771 307.402 192.341  1.00  0.00    -0.000 C 
BRANCH  15  16
ATOM     16  C   UNL     1     102.516 307.912 191.615  1.00  0.00    -0.000 C 
BRANCH  16  17
ATOM     17  C   UNL     1     102.140 309.344 192.023  1.00  0.00    -0.003 C 
ATOM     18  C   UNL     1     103.095 309.880 193.086  1.00  0.00     0.004 C 
ENDBRANCH  16  17
ENDBRANCH  15  16
ENDBRANCH  14  15
ENDBRANCH  13  14
ENDBRANCH  12  13
ENDBRANCH  11  12
ENDBRANCH   1  11
TORSDOF 14
ENDMDL
MODEL 2
REMARK VINA RESULT:    -5.661     19.522     20.490
REMARK INTER + INTRA:         -11.492
REMARK INTER:                 -10.394
REMARK INTRA:                  -1.097
REMARK UNBOUND:                -1.198
REMARK SMILES CCCCCCCCCCCCCCCC(=O)[O-]
REMARK SMILES IDX 9 1 10 2 11 3 12 4 13 5 14 6 15 7 16 8 17 9 18 10 8 11 7 12
REMARK SMILES IDX 6 13 5 14 4 15 3 16 2 17 1 18
REMARK H PARENT
REMARK Flexibility Score: inf
ROOT
ATOM      1  C   UNL     1      86.550 320.322 197.146  1.00  0.00     0.000 C 
ENDROOT
BRANCH   1   2
ATOM      2  C   UNL     1      87.138 320.983 198.404  1.00  0.00     0.000 C 
BRANCH   2   3
ATOM      3  C   UNL     1      87.536 319.960 199.481  1.00  0.00     0.000 C 
BRANCH   3   4
ATOM      4  C   UNL     1      87.647 320.582 200.886  1.00  0.00     0.000 C 
BRANCH   4   5
ATOM      5  C   UNL     1      89.085 320.753 201.416  1.00  0.00     0.000 C 
BRANCH   5   6
ATOM      6  C   UNL     1      89.134 321.115 202.907  1.00  0.00     0.006 C 
BRANCH   6   7
ATOM      7  C   UNL     1      87.726 321.153 203.511  1.00  0.00     0.053 C 
BRANCH   7   8
ATOM      8  C   UNL     1      87.787 320.934 204.990  1.00  0.00     0.041 C 
ATOM      9  O   UNL     1      88.603 321.586 205.693  1.00  0.00    -0.550 OA
ATOM     10  O   UNL     1      86.905 320.050 205.600  1.00  0.00    -0.550 OA
ENDBRANCH   7   8
ENDBRANCH   6   7
ENDBRANCH   5   6
ENDBRANCH   4   5
ENDBRANCH   3   4
ENDBRANCH   2   3
ENDBRANCH   1   2
BRANCH   1  11
ATOM     11  C   UNL     1      87.404 320.572 195.890  1.00  0.00     0.000 C 
BRANCH  11  12
ATOM     12  C   UNL     1      86.559 320.980 194.669  1.00  0.00    -0.000 C 
BRANCH  12  13
ATOM     13  C   UNL     1      85.101 320.479 194.691  1.00  0.00    -0.000 C 
BRANCH  13  14
ATOM     14  C   UNL     1      84.773 319.472 193.567  1.00  0.00    -0.000 C 
BRANCH  14  15
ATOM     15  C   UNL     1      86.027 319.059 192.774  1.00  0.00    -0.000 C 
BRANCH  15  16
ATOM     16  C   UNL     1      86.261 317.540 192.785  1.00  0.00    -0.000 C 
BRANCH  16  17
ATOM     17  C   UNL     1      85.929 316.902 194.141  1.00  0.00    -0.003 C 
ATOM     18  C   UNL     1      87.073 317.096 195.134  1.00  0.00     0.004 C 
ENDBRANCH  16  17
ENDBRANCH  15  16
ENDBRANCH  14  15
ENDBRANCH  13  14
ENDBRANCH  12  13
ENDBRANCH  11  12
ENDBRANCH   1  11
TORSDOF 14
ENDMDL
MODEL 3
REMARK VINA RESULT:    -5.659      1.484      2.573
REMARK INTER + INTRA:         -11.488
REMARK INTER:                 -10.579
REMARK INTRA:                  -0.909
REMARK UNBOUND:                -1.198
REMARK SMILES CCCCCCCCCCCCCCCC(=O)[O-]
REMARK SMILES IDX 9 1 10 2 11 3 12 4 13 5 14 6 15 7 16 8 17 9 18 10 8 11 7 12
REMARK SMILES IDX 6 13 5 14 4 15 3 16 2 17 1 18
REMARK H PARENT
REMARK Flexibility Score: inf
ROOT
ATOM      1  C   UNL     1     101.424 305.929 194.866  1.00  0.00     0.000 C 
ENDROOT
BRANCH   1   2
ATOM      2  C   UNL     1     102.411 306.646 195.803  1.00  0.00     0.000 C 
BRANCH   2   3
ATOM      3  C   UNL     1     101.723 307.673 196.717  1.00  0.00     0.000 C 
BRANCH   3   4
ATOM      4  C   UNL     1     101.885 307.346 198.214  1.00  0.00     0.000 C 
BRANCH   4   5
ATOM      5  C   UNL     1     101.530 305.899 198.611  1.00  0.00     0.000 C 
BRANCH   5   6
ATOM      6  C   UNL     1     101.309 305.730 200.121  1.00  0.00     0.006 C 
BRANCH   6   7
ATOM      7  C   UNL     1     102.545 306.174 200.911  1.00  0.00     0.053 C 
BRANCH   7   8
ATOM      8  C   UNL     1     102.255 306.169 202.379  1.00  0.00     0.041 C 
ATOM      9  O   UNL     1     102.213 307.252 203.020  1.00  0.00    -0.550 OA
ATOM     10  O   UNL     1     101.976 304.973 203.029  1.00  0.00    -0.550 OA
ENDBRANCH   7   8
ENDBRANCH   6   7
ENDBRANCH   5   6
ENDBRANCH   4   5
ENDBRANCH   3   4
ENDBRANCH   2   3
ENDBRANCH   1   2
BRANCH   1  11
ATOM     11  C   UNL     1     101.936 305.844 193.417  1.00  0.00     0.000 C 
BRANCH  11  12
ATOM     12  C   UNL     1     103.469 305.949 193.322  1.00  0.00    -0.000 C 
BRANCH  12  13
ATOM     13  C   UNL     1     103.989 307.084 192.418  1.00  0.00    -0.000 C 
BRANCH  13  14
ATOM     14  C   UNL     1     103.553 308.492 192.876  1.00  0.00    -0.000 C 
BRANCH  14  15
ATOM     15  C   UNL     1     102.292 308.979 192.136  1.00  0.00    -0.000 C 
BRANCH  15  16
ATOM     16  C   UNL     1     102.203 308.440 190.700  1.00  0.00    -0.000 C 
BRANCH  16  17
ATOM     17  C   UNL     1     102.001 309.554 189.664  1.00  0.00    -0.003 C 
ATOM     18  C   UNL     1     100.975 309.145 188.610  1.00  0.00     0.004 C 
ENDBRANCH  16  17
ENDBRANCH  15  16
ENDBRANCH  14  15
ENDBRANCH  13  14
ENDBRANCH  12  13
ENDBRANCH  11  12
ENDBRANCH   1  11
TORSDOF 14
ENDMDL
MODEL 4
REMARK VINA RESULT:    -5.646      5.970     10.446
REMARK INTER + INTRA:         -11.464
REMARK INTER:                 -10.874
REMARK INTRA:                  -0.590
REMARK UNBOUND:                -1.198
REMARK SMILES CCCCCCCCCCCCCCCC(=O)[O-]
REMARK SMILES IDX 9 1 10 2 11 3 12 4 13 5 14 6 15 7 16 8 17 9 18 10 8 11 7 12
REMARK SMILES IDX 6 13 5 14 4 15 3 16 2 17 1 18
REMARK H PARENT
REMARK Flexibility Score: inf
ROOT
ATOM      1  C   UNL     1     101.511 306.075 194.815  1.00  0.00     0.000 C 
ENDROOT
BRANCH   1   2
ATOM      2  C   UNL     1     102.170 305.793 193.454  1.00  0.00     0.000 C 
BRANCH   2   3
ATOM      3  C   UNL     1     103.648 306.220 193.412  1.00  0.00     0.000 C 
BRANCH   3   4
ATOM      4  C   UNL     1     103.922 307.326 192.375  1.00  0.00     0.000 C 
BRANCH   4   5
ATOM      5  C   UNL     1     102.671 307.891 191.673  1.00  0.00     0.000 C 
BRANCH   5   6
ATOM      6  C   UNL     1     103.011 308.885 190.553  1.00  0.00     0.006 C 
BRANCH   6   7
ATOM      7  C   UNL     1     101.778 309.697 190.145  1.00  0.00     0.053 C 
BRANCH   7   8
ATOM      8  C   UNL     1     101.528 309.562 188.676  1.00  0.00     0.041 C 
ATOM      9  O   UNL     1     100.468 309.024 188.261  1.00  0.00    -0.550 OA
ATOM     10  O   UNL     1     102.440 310.079 187.764  1.00  0.00    -0.550 OA
ENDBRANCH   7   8
ENDBRANCH   6   7
ENDBRANCH   5   6
ENDBRANCH   4   5
ENDBRANCH   3   4
ENDBRANCH   2   3
ENDBRANCH   1   2
BRANCH   1  11
ATOM     11  C   UNL     1     102.477 306.729 195.819  1.00  0.00     0.000 C 
BRANCH  11  12
ATOM     12  C   UNL     1     101.836 306.953 197.200  1.00  0.00    -0.000 C 
BRANCH  12  13
ATOM     13  C   UNL     1     101.894 305.739 198.148  1.00  0.00    -0.000 C 
BRANCH  13  14
ATOM     14  C   UNL     1     101.291 306.010 199.543  1.00  0.00    -0.000 C 
BRANCH  14  15
ATOM     15  C   UNL     1     102.343 305.897 200.662  1.00  0.00    -0.000 C 
BRANCH  15  16
ATOM     16  C   UNL     1     101.770 306.226 202.050  1.00  0.00    -0.000 C 
BRANCH  16  17
ATOM     17  C   UNL     1     101.918 305.062 203.040  1.00  0.00    -0.003 C 
ATOM     18  C   UNL     1     102.660 305.504 204.299  1.00  0.00     0.004 C 
ENDBRANCH  16  17
ENDBRANCH  15  16
ENDBRANCH  14  15
ENDBRANCH  13  14
ENDBRANCH  12  13
ENDBRANCH  11  12
ENDBRANCH   1  11
TORSDOF 14
ENDMDL
MODEL 5
REMARK VINA RESULT:    -5.643      1.271      2.022
REMARK INTER + INTRA:         -11.459
REMARK INTER:                 -10.390
REMARK INTRA:                  -1.069
REMARK UNBOUND:                -1.198
REMARK SMILES CCCCCCCCCCCCCCCC(=O)[O-]
REMARK SMILES IDX 9 1 10 2 11 3 12 4 13 5 14 6 15 7 16 8 17 9 18 10 8 11 7 12
REMARK SMILES IDX 6 13 5 14 4 15 3 16 2 17 1 18
REMARK H PARENT
REMARK Flexibility Score: inf
ROOT
ATOM      1  C   UNL     1     101.734 305.585 197.739  1.00  0.00     0.000 C 
ENDROOT
BRANCH   1   2
ATOM      2  C   UNL     1     101.426 305.599 199.245  1.00  0.00     0.000 C 
BRANCH   2   3
ATOM      3  C   UNL     1     101.786 306.937 199.912  1.00  0.00     0.000 C 
BRANCH   3   4
ATOM      4  C   UNL     1     102.847 306.789 201.019  1.00  0.00     0.000 C 
BRANCH   4   5
ATOM      5  C   UNL     1     102.440 307.346 202.397  1.00  0.00     0.000 C 
BRANCH   5   6
ATOM      6  C   UNL     1     102.596 306.319 203.528  1.00  0.00     0.006 C 
BRANCH   6   7
ATOM      7  C   UNL     1     101.924 304.992 203.162  1.00  0.00     0.053 C 
BRANCH   7   8
ATOM      8  C   UNL     1     100.437 305.111 203.277  1.00  0.00     0.041 C 
ATOM      9  O   UNL     1      99.715 305.038 202.249  1.00  0.00    -0.550 OA
ATOM     10  O   UNL     1      99.844 305.249 204.527  1.00  0.00    -0.550 OA
ENDBRANCH   7   8
ENDBRANCH   6   7
ENDBRANCH   5   6
ENDBRANCH   4   5
ENDBRANCH   3   4
ENDBRANCH   2   3
ENDBRANCH   1   2
BRANCH   1  11
ATOM     11  C   UNL     1     101.887 307.000 197.152  1.00  0.00     0.000 C 
BRANCH  11  12
ATOM     12  C   UNL     1     102.292 306.986 195.667  1.00  0.00    -0.000 C 
BRANCH  12  13
ATOM     13  C   UNL     1     101.488 306.012 194.783  1.00  0.00    -0.000 C 
BRANCH  13  14
ATOM     14  C   UNL     1     102.028 305.890 193.341  1.00  0.00    -0.000 C 
BRANCH  14  15
ATOM     15  C   UNL     1     103.462 306.434 193.212  1.00  0.00    -0.000 C 
BRANCH  15  16
ATOM     16  C   UNL     1     103.584 307.535 192.147  1.00  0.00    -0.000 C 
BRANCH  16  17
ATOM     17  C   UNL     1     102.259 307.800 191.418  1.00  0.00    -0.003 C 
ATOM     18  C   UNL     1     102.375 309.006 190.488  1.00  0.00     0.004 C 
ENDBRANCH  16  17
ENDBRANCH  15  16
ENDBRANCH  14  15
ENDBRANCH  13  14
ENDBRANCH  12  13
ENDBRANCH  11  12
ENDBRANCH   1  11
TORSDOF 14
ENDMDL
MODEL 6
REMARK VINA RESULT:    -5.606      1.055      2.360
REMARK INTER + INTRA:         -11.392
REMARK INTER:                  -9.908
REMARK INTRA:                  -1.485
REMARK UNBOUND:                -1.198
REMARK SMILES CCCCCCCCCCCCCCCC(=O)[O-]
REMARK SMILES IDX 9 1 10 2 11 3 12 4 13 5 14 6 15 7 16 8 17 9 18 10 8 11 7 12
REMARK SMILES IDX 6 13 5 14 4 15 3 16 2 17 1 18
REMARK H PARENT
REMARK Flexibility Score: inf
ROOT
ATOM      1  C   UNL     1     101.477 306.065 194.613  1.00  0.00     0.000 C 
ENDROOT
BRANCH   1   2
ATOM      2  C   UNL     1     102.555 306.525 195.608  1.00  0.00     0.000 C 
BRANCH   2   3
ATOM      3  C   UNL     1     101.959 307.128 196.891  1.00  0.00     0.000 C 
BRANCH   3   4
ATOM      4  C   UNL     1     101.801 306.094 198.022  1.00  0.00     0.000 C 
BRANCH   4   5
ATOM      5  C   UNL     1     101.855 306.670 199.450  1.00  0.00     0.000 C 
BRANCH   5   6
ATOM      6  C   UNL     1     101.615 305.608 200.534  1.00  0.00     0.006 C 
BRANCH   6   7
ATOM      7  C   UNL     1     102.164 306.069 201.888  1.00  0.00     0.053 C 
BRANCH   7   8
ATOM      8  C   UNL     1     101.677 305.170 202.981  1.00  0.00     0.041 C 
ATOM      9  O   UNL     1     102.477 304.750 203.857  1.00  0.00    -0.550 OA
ATOM     10  O   UNL     1     100.330 304.840 203.062  1.00  0.00    -0.550 OA
ENDBRANCH   7   8
ENDBRANCH   6   7
ENDBRANCH   5   6
ENDBRANCH   4   5
ENDBRANCH   3   4
ENDBRANCH   2   3
ENDBRANCH   1   2
BRANCH   1  11
ATOM     11  C   UNL     1     102.049 305.767 193.215  1.00  0.00     0.000 C 
BRANCH  11  12
ATOM     12  C   UNL     1     103.510 306.229 193.060  1.00  0.00    -0.000 C 
BRANCH  12  13
ATOM     13  C   UNL     1     103.721 307.405 192.086  1.00  0.00    -0.000 C 
BRANCH  13  14
ATOM     14  C   UNL     1     102.406 308.024 191.565  1.00  0.00    -0.000 C 
BRANCH  14  15
ATOM     15  C   UNL     1     102.125 309.402 192.190  1.00  0.00    -0.000 C 
BRANCH  15  16
ATOM     16  C   UNL     1     103.289 309.908 193.056  1.00  0.00    -0.000 C 
BRANCH  16  17
ATOM     17  C   UNL     1     102.899 310.070 194.532  1.00  0.00    -0.003 C 
ATOM     18  C   UNL     1     101.396 309.885 194.726  1.00  0.00     0.004 C 
ENDBRANCH  16  17
ENDBRANCH  15  16
ENDBRANCH  14  15
ENDBRANCH  13  14
ENDBRANCH  12  13
ENDBRANCH  11  12
ENDBRANCH   1  11
TORSDOF 14
ENDMDL
MODEL 7
REMARK VINA RESULT:    -5.599      6.804      9.994
REMARK INTER + INTRA:         -11.380
REMARK INTER:                  -9.342
REMARK INTRA:                  -2.038
REMARK UNBOUND:                -1.198
REMARK SMILES CCCCCCCCCCCCCCCC(=O)[O-]
REMARK SMILES IDX 9 1 10 2 11 3 12 4 13 5 14 6 15 7 16 8 17 9 18 10 8 11 7 12
REMARK SMILES IDX 6 13 5 14 4 15 3 16 2 17 1 18
REMARK H PARENT
REMARK Flexibility Score: inf
ROOT
ATOM      1  C   UNL     1     102.227 306.227 192.851  1.00  0.00     0.000 C 
ENDROOT
BRANCH   1   2
ATOM      2  C   UNL     1     102.163 307.417 191.879  1.00  0.00     0.000 C 
BRANCH   2   3
ATOM      3  C   UNL     1     103.552 307.994 191.556  1.00  0.00     0.000 C 
BRANCH   3   4
ATOM      4  C   UNL     1     103.489 309.225 190.632  1.00  0.00     0.000 C 
BRANCH   4   5
ATOM      5  C   UNL     1     102.072 309.643 190.192  1.00  0.00     0.000 C 
BRANCH   5   6
ATOM      6  C   UNL     1     101.873 309.574 188.671  1.00  0.00     0.006 C 
BRANCH   6   7
ATOM      7  C   UNL     1     100.422 309.226 188.322  1.00  0.00     0.053 C 
BRANCH   7   8
ATOM      8  C   UNL     1      99.630 310.473 188.084  1.00  0.00     0.041 C 
ATOM      9  O   UNL     1      98.565 310.678 188.723  1.00  0.00    -0.550 OA
ATOM     10  O   UNL     1     100.096 311.435 187.196  1.00  0.00    -0.550 OA
ENDBRANCH   7   8
ENDBRANCH   6   7
ENDBRANCH   5   6
ENDBRANCH   4   5
ENDBRANCH   3   4
ENDBRANCH   2   3
ENDBRANCH   1   2
BRANCH   1  11
ATOM     11  C   UNL     1     103.596 306.098 193.543  1.00  0.00     0.000 C 
BRANCH  11  12
ATOM     12  C   UNL     1     103.508 306.263 195.070  1.00  0.00    -0.000 C 
BRANCH  12  13
ATOM     13  C   UNL     1     102.084 306.162 195.654  1.00  0.00    -0.000 C 
BRANCH  13  14
ATOM     14  C   UNL     1     101.600 307.457 196.340  1.00  0.00    -0.000 C 
BRANCH  14  15
ATOM     15  C   UNL     1     102.328 308.704 195.805  1.00  0.00    -0.000 C 
BRANCH  15  16
ATOM     16  C   UNL     1     101.379 309.688 195.103  1.00  0.00    -0.000 C 
BRANCH  16  17
ATOM     17  C   UNL     1     102.052 310.426 193.937  1.00  0.00    -0.003 C 
ATOM     18  C   UNL     1     103.556 310.557 194.165  1.00  0.00     0.004 C 
ENDBRANCH  16  17
ENDBRANCH  15  16
ENDBRANCH  14  15
ENDBRANCH  13  14
ENDBRANCH  12  13
ENDBRANCH  11  12
ENDBRANCH   1  11
TORSDOF 14
ENDMDL
MODEL 8
REMARK VINA RESULT:    -5.586      1.191      1.933
REMARK INTER + INTRA:         -11.356
REMARK INTER:                 -10.661
REMARK INTRA:                  -0.695
REMARK UNBOUND:                -1.198
REMARK SMILES CCCCCCCCCCCCCCCC(=O)[O-]
REMARK SMILES IDX 9 1 10 2 11 3 12 4 13 5 14 6 15 7 16 8 17 9 18 10 8 11 7 12
REMARK SMILES IDX 6 13 5 14 4 15 3 16 2 17 1 18
REMARK H PARENT
REMARK Flexibility Score: inf
ROOT
ATOM      1  C   UNL     1     101.820 306.676 198.113  1.00  0.00     0.000 C 
ENDROOT
BRANCH   1   2
ATOM      2  C   UNL     1     101.585 305.883 199.410  1.00  0.00     0.000 C 
BRANCH   2   3
ATOM      3  C   UNL     1     102.588 306.248 200.518  1.00  0.00     0.000 C 
BRANCH   3   4
ATOM      4  C   UNL     1     101.901 306.682 201.827  1.00  0.00     0.000 C 
BRANCH   4   5
ATOM      5  C   UNL     1     101.229 305.547 202.624  1.00  0.00     0.000 C 
BRANCH   5   6
ATOM      6  C   UNL     1     102.195 304.836 203.583  1.00  0.00     0.006 C 
BRANCH   6   7
ATOM      7  C   UNL     1     102.999 305.850 204.405  1.00  0.00     0.053 C 
BRANCH   7   8
ATOM      8  C   UNL     1     102.503 305.887 205.816  1.00  0.00     0.041 C 
ATOM      9  O   UNL     1     101.386 305.384 206.108  1.00  0.00    -0.550 OA
ATOM     10  O   UNL     1     103.297 306.430 206.819  1.00  0.00    -0.550 OA
ENDBRANCH   7   8
ENDBRANCH   6   7
ENDBRANCH   5   6
ENDBRANCH   4   5
ENDBRANCH   3   4
ENDBRANCH   2   3
ENDBRANCH   1   2
BRANCH   1  11
ATOM     11  C   UNL     1     101.905 305.771 196.871  1.00  0.00     0.000 C 
BRANCH  11  12
ATOM     12  C   UNL     1     102.353 306.532 195.611  1.00  0.00    -0.000 C 
BRANCH  12  13
ATOM     13  C   UNL     1     103.646 306.005 194.957  1.00  0.00    -0.000 C 
BRANCH  13  14
ATOM     14  C   UNL     1     103.544 305.836 193.426  1.00  0.00    -0.000 C 
BRANCH  14  15
ATOM     15  C   UNL     1     102.158 306.238 192.889  1.00  0.00    -0.000 C 
BRANCH  15  16
ATOM     16  C   UNL     1     102.221 307.433 191.925  1.00  0.00    -0.000 C 
BRANCH  16  17
ATOM     17  C   UNL     1     103.658 307.908 191.667  1.00  0.00    -0.003 C 
ATOM     18  C   UNL     1     103.679 309.108 190.723  1.00  0.00     0.004 C 
ENDBRANCH  16  17
ENDBRANCH  15  16
ENDBRANCH  14  15
ENDBRANCH  13  14
ENDBRANCH  12  13
ENDBRANCH  11  12
ENDBRANCH   1  11
TORSDOF 14
ENDMDL
MODEL 9
REMARK VINA RESULT:    -5.566      5.337     10.151
REMARK INTER + INTRA:         -11.319
REMARK INTER:                 -10.694
REMARK INTRA:                  -0.626
REMARK UNBOUND:                -1.198
REMARK SMILES CCCCCCCCCCCCCCCC(=O)[O-]
REMARK SMILES IDX 9 1 10 2 11 3 12 4 13 5 14 6 15 7 16 8 17 9 18 10 8 11 7 12
REMARK SMILES IDX 6 13 5 14 4 15 3 16 2 17 1 18
REMARK H PARENT
REMARK Flexibility Score: inf
ROOT
ATOM      1  C   UNL     1     101.886 305.661 197.128  1.00  0.00     0.000 C 
ENDROOT
BRANCH   1   2
ATOM      2  C   UNL     1     102.579 306.254 195.890  1.00  0.00     0.000 C 
BRANCH   2   3
ATOM      3  C   UNL     1     101.612 306.465 194.713  1.00  0.00     0.000 C 
BRANCH   3   4
ATOM      4  C   UNL     1     102.121 305.843 193.399  1.00  0.00     0.000 C 
BRANCH   4   5
ATOM      5  C   UNL     1     103.528 306.294 192.962  1.00  0.00     0.000 C 
BRANCH   5   6
ATOM      6  C   UNL     1     103.528 307.661 192.263  1.00  0.00     0.006 C 
BRANCH   6   7
ATOM      7  C   UNL     1     102.255 307.855 191.434  1.00  0.00     0.053 C 
BRANCH   7   8
ATOM      8  C   UNL     1     102.499 308.828 190.323  1.00  0.00     0.041 C 
ATOM      9  O   UNL     1     103.615 309.400 190.217  1.00  0.00    -0.550 OA
ATOM     10  O   UNL     1     101.512 309.063 189.374  1.00  0.00    -0.550 OA
ENDBRANCH   7   8
ENDBRANCH   6   7
ENDBRANCH   5   6
ENDBRANCH   4   5
ENDBRANCH   3   4
ENDBRANCH   2   3
ENDBRANCH   1   2
BRANCH   1  11
ATOM     11  C   UNL     1     101.756 306.677 198.278  1.00  0.00     0.000 C 
BRANCH  11  12
ATOM     12  C   UNL     1     101.290 306.028 199.593  1.00  0.00    -0.000 C 
BRANCH  12  13
ATOM     13  C   UNL     1     102.391 305.855 200.659  1.00  0.00    -0.000 C 
BRANCH  13  14
ATOM     14  C   UNL     1     102.659 307.130 201.488  1.00  0.00    -0.000 C 
BRANCH  14  15
ATOM     15  C   UNL     1     102.430 306.902 202.994  1.00  0.00    -0.000 C 
BRANCH  15  16
ATOM     16  C   UNL     1     102.257 305.417 203.348  1.00  0.00    -0.000 C 
BRANCH  16  17
ATOM     17  C   UNL     1     102.582 305.121 204.819  1.00  0.00    -0.003 C 
ATOM     18  C   UNL     1     103.505 306.188 205.404  1.00  0.00     0.004 C 
ENDBRANCH  16  17
ENDBRANCH  15  16
ENDBRANCH  14  15
ENDBRANCH  13  14
ENDBRANCH  12  13
ENDBRANCH  11  12
ENDBRANCH   1  11
TORSDOF 14
ENDMDL
