MODEL 1
REMARK VINA RESULT:    -7.144      0.000      0.000
REMARK INTER + INTRA:          -8.931
REMARK INTER:                  -8.606
REMARK INTRA:                  -0.325
REMARK UNBOUND:                -0.325
REMARK SMILES O=c1c(O)c(-c2ccc(O)c(O)c2)oc2cc(O)cc(O)c12
REMARK SMILES IDX 5 1 3 2 2 3 1 4 22 5 20 6 19 7 17 8 16 9 15 10 14 11 6 12
REMARK SMILES IDX 7 13 8 14 9 15 13 16 11 17 10 18 12 20 4 22 21 24 18 26
REMARK H PARENT 10 19 12 21 4 23 21 25 18 27
REMARK Flexibility Score: inf
ROOT
ATOM      1  C   UNL     1      14.738  18.659  30.745  1.00  0.00     0.180 A 
ATOM      2  C   UNL     1      13.721  19.240  29.969  1.00  0.00     0.208 A 
ATOM      3  C   UNL     1      14.034  20.332  29.144  1.00  0.00     0.238 A 
ATOM      4  O   UNL     1      13.108  20.883  28.492  1.00  0.00    -0.285 OA
ATOM      5  C   UNL     1      15.363  20.820  29.092  1.00  0.00     0.111 A 
ATOM      6  C   UNL     1      15.800  21.894  28.261  1.00  0.00     0.134 A 
ATOM      7  C   UNL     1      17.109  22.377  28.390  1.00  0.00     0.093 A 
ATOM      8  C   UNL     1      18.013  21.780  29.272  1.00  0.00     0.123 A 
ATOM      9  C   UNL     1      17.613  20.692  30.043  1.00  0.00     0.094 A 
ATOM     10  C   UNL     1      16.303  20.212  29.964  1.00  0.00     0.146 A 
ATOM     11  O   UNL     1      15.959  19.179  30.725  1.00  0.00    -0.452 OA
ENDROOT
BRANCH   1  12
ATOM     12  C   UNL     1      14.491  17.490  31.619  1.00  0.00     0.025 A 
ATOM     13  C   UNL     1      14.708  16.178  31.165  1.00  0.00     0.016 A 
ATOM     14  C   UNL     1      14.491  15.091  32.016  1.00  0.00     0.051 A 
ATOM     15  C   UNL     1      14.069  15.298  33.335  1.00  0.00     0.157 A 
ATOM     16  C   UNL     1      14.088  17.694  32.949  1.00  0.00     0.062 A 
ATOM     17  C   UNL     1      13.869  16.607  33.804  1.00  0.00     0.158 A 
BRANCH  15  18
ATOM     18  O   UNL     1      13.852  14.211  34.181  1.00  0.00    -0.504 OA
ATOM     19  H   UNL     1      13.223  14.273  34.973  1.00  0.00     0.293 HD
ENDBRANCH  15  18
BRANCH  17  20
ATOM     20  O   UNL     1      13.456  16.849  35.114  1.00  0.00    -0.504 OA
ATOM     21  H   UNL     1      12.647  17.420  35.327  1.00  0.00     0.293 HD
ENDBRANCH  17  20
ENDBRANCH   1  12
BRANCH   2  22
ATOM     22  O   UNL     1      12.411  18.759  30.050  1.00  0.00    -0.502 OA
ATOM     23  H   UNL     1      12.114  18.109  30.768  1.00  0.00     0.293 HD
ENDBRANCH   2  22
BRANCH   6  24
ATOM     24  O   UNL     1      15.005  22.499  27.284  1.00  0.00    -0.507 OA
ATOM     25  H   UNL     1      14.990  22.235  26.312  1.00  0.00     0.293 HD
ENDBRANCH   6  24
BRANCH   8  26
ATOM     26  O   UNL     1      19.319  22.257  29.381  1.00  0.00    -0.508 OA
ATOM     27  H   UNL     1      19.613  22.817  30.172  1.00  0.00     0.293 HD
ENDBRANCH   8  26
TORSDOF 6
ENDMDL
MODEL 2
REMARK VINA RESULT:    -7.041      1.892      6.935
REMARK INTER + INTRA:          -8.807
REMARK INTER:                  -8.482
REMARK INTRA:                  -0.325
REMARK UNBOUND:                -0.325
REMARK SMILES O=c1c(O)c(-c2ccc(O)c(O)c2)oc2cc(O)cc(O)c12
REMARK SMILES IDX 5 1 3 2 2 3 1 4 22 5 20 6 19 7 17 8 16 9 15 10 14 11 6 12
REMARK SMILES IDX 7 13 8 14 9 15 13 16 11 17 10 18 12 20 4 22 21 24 18 26
REMARK H PARENT 10 19 12 21 4 23 21 25 18 27
REMARK Flexibility Score: inf
ROOT
ATOM      1  C   UNL     1      16.207  21.399  29.395  1.00  0.00     0.180 A 
ATOM      2  C   UNL     1      15.239  21.403  28.376  1.00  0.00     0.208 A 
ATOM      3  C   UNL     1      14.366  20.310  28.263  1.00  0.00     0.238 A 
ATOM      4  O   UNL     1      13.536  20.294  27.316  1.00  0.00    -0.285 OA
ATOM      5  C   UNL     1      14.461  19.233  29.178  1.00  0.00     0.111 A 
ATOM      6  C   UNL     1      13.602  18.093  29.180  1.00  0.00     0.134 A 
ATOM      7  C   UNL     1      13.872  17.028  30.049  1.00  0.00     0.093 A 
ATOM      8  C   UNL     1      14.929  17.091  30.959  1.00  0.00     0.123 A 
ATOM      9  C   UNL     1      15.736  18.225  31.005  1.00  0.00     0.094 A 
ATOM     10  C   UNL     1      15.515  19.288  30.127  1.00  0.00     0.146 A 
ATOM     11  O   UNL     1      16.315  20.346  30.196  1.00  0.00    -0.452 OA
ENDROOT
BRANCH   1  12
ATOM     12  C   UNL     1      17.146  22.526  29.594  1.00  0.00     0.025 A 
ATOM     13  C   UNL     1      16.860  23.566  30.496  1.00  0.00     0.016 A 
ATOM     14  C   UNL     1      17.772  24.607  30.685  1.00  0.00     0.051 A 
ATOM     15  C   UNL     1      18.987  24.619  29.989  1.00  0.00     0.157 A 
ATOM     16  C   UNL     1      18.375  22.532  28.914  1.00  0.00     0.062 A 
ATOM     17  C   UNL     1      19.290  23.574  29.101  1.00  0.00     0.158 A 
BRANCH  15  18
ATOM     18  O   UNL     1      19.895  25.661  30.179  1.00  0.00    -0.504 OA
ATOM     19  H   UNL     1      20.700  25.779  29.576  1.00  0.00     0.293 HD
ENDBRANCH  15  18
BRANCH  17  20
ATOM     20  O   UNL     1      20.494  23.553  28.396  1.00  0.00    -0.504 OA
ATOM     21  H   UNL     1      20.715  22.822  27.731  1.00  0.00     0.293 HD
ENDBRANCH  17  20
ENDBRANCH   1  12
BRANCH   2  22
ATOM     22  O   UNL     1      15.176  22.465  27.470  1.00  0.00    -0.502 OA
ATOM     23  H   UNL     1      15.507  23.394  27.697  1.00  0.00     0.293 HD
ENDBRANCH   2  22
BRANCH   6  24
ATOM     24  O   UNL     1      12.465  17.970  28.376  1.00  0.00    -0.507 OA
ATOM     25  H   UNL     1      11.726  18.653  28.319  1.00  0.00     0.293 HD
ENDBRANCH   6  24
BRANCH   8  26
ATOM     26  O   UNL     1      15.180  16.033  31.832  1.00  0.00    -0.508 OA
ATOM     27  H   UNL     1      16.020  15.470  31.754  1.00  0.00     0.293 HD
ENDBRANCH   8  26
TORSDOF 6
ENDMDL
MODEL 3
REMARK VINA RESULT:    -7.020      3.149      4.261
REMARK INTER + INTRA:          -8.782
REMARK INTER:                  -8.506
REMARK INTRA:                  -0.275
REMARK UNBOUND:                -0.325
REMARK SMILES O=c1c(O)c(-c2ccc(O)c(O)c2)oc2cc(O)cc(O)c12
REMARK SMILES IDX 5 1 3 2 2 3 1 4 22 5 20 6 19 7 17 8 16 9 15 10 14 11 6 12
REMARK SMILES IDX 7 13 8 14 9 15 13 16 11 17 10 18 12 20 4 22 21 24 18 26
REMARK H PARENT 10 19 12 21 4 23 21 25 18 27
REMARK Flexibility Score: inf
ROOT
ATOM      1  C   UNL     1      14.374  17.401  32.207  1.00  0.00     0.180 A 
ATOM      2  C   UNL     1      14.905  18.367  33.079  1.00  0.00     0.208 A 
ATOM      3  C   UNL     1      14.518  19.708  32.928  1.00  0.00     0.238 A 
ATOM      4  O   UNL     1      15.037  20.576  33.677  1.00  0.00    -0.285 OA
ATOM      5  C   UNL     1      13.593  20.065  31.917  1.00  0.00     0.111 A 
ATOM      6  C   UNL     1      13.100  21.387  31.699  1.00  0.00     0.134 A 
ATOM      7  C   UNL     1      12.289  21.646  30.587  1.00  0.00     0.093 A 
ATOM      8  C   UNL     1      11.901  20.619  29.723  1.00  0.00     0.123 A 
ATOM      9  C   UNL     1      12.327  19.315  29.962  1.00  0.00     0.094 A 
ATOM     10  C   UNL     1      13.167  19.031  31.042  1.00  0.00     0.146 A 
ATOM     11  O   UNL     1      13.560  17.776  31.227  1.00  0.00    -0.452 OA
ENDROOT
BRANCH   1  12
ATOM     12  C   UNL     1      14.715  15.965  32.320  1.00  0.00     0.025 A 
ATOM     13  C   UNL     1      15.948  15.468  31.865  1.00  0.00     0.016 A 
ATOM     14  C   UNL     1      16.259  14.113  32.003  1.00  0.00     0.051 A 
ATOM     15  C   UNL     1      15.349  13.237  32.611  1.00  0.00     0.157 A 
ATOM     16  C   UNL     1      13.816  15.088  32.947  1.00  0.00     0.062 A 
ATOM     17  C   UNL     1      14.123  13.729  33.087  1.00  0.00     0.158 A 
BRANCH  15  18
ATOM     18  O   UNL     1      15.661  11.885  32.747  1.00  0.00    -0.504 OA
ATOM     19  H   UNL     1      16.523  11.581  33.181  1.00  0.00     0.293 HD
ENDBRANCH  15  18
BRANCH  17  20
ATOM     20  O   UNL     1      13.198  12.886  33.703  1.00  0.00    -0.504 OA
ATOM     21  H   UNL     1      12.358  13.239  34.144  1.00  0.00     0.293 HD
ENDBRANCH  17  20
ENDBRANCH   1  12
BRANCH   2  22
ATOM     22  O   UNL     1      15.833  17.997  34.057  1.00  0.00    -0.502 OA
ATOM     23  H   UNL     1      16.125  18.625  34.795  1.00  0.00     0.293 HD
ENDBRANCH   2  22
BRANCH   6  24
ATOM     24  O   UNL     1      13.353  22.464  32.552  1.00  0.00    -0.507 OA
ATOM     25  H   UNL     1      14.134  23.095  32.465  1.00  0.00     0.293 HD
ENDBRANCH   6  24
BRANCH   8  26
ATOM     26  O   UNL     1      11.080  20.884  28.628  1.00  0.00    -0.508 OA
ATOM     27  H   UNL     1      10.802  21.829  28.391  1.00  0.00     0.293 HD
ENDBRANCH   8  26
TORSDOF 6
ENDMDL
MODEL 4
REMARK VINA RESULT:    -7.011      1.898      6.808
REMARK INTER + INTRA:          -8.771
REMARK INTER:                  -8.462
REMARK INTRA:                  -0.309
REMARK UNBOUND:                -0.325
REMARK SMILES O=c1c(O)c(-c2ccc(O)c(O)c2)oc2cc(O)cc(O)c12
REMARK SMILES IDX 5 1 3 2 2 3 1 4 22 5 20 6 19 7 17 8 16 9 15 10 14 11 6 12
REMARK SMILES IDX 7 13 8 14 9 15 13 16 11 17 10 18 12 20 4 22 21 24 18 26
REMARK H PARENT 10 19 12 21 4 23 21 25 18 27
REMARK Flexibility Score: inf
ROOT
ATOM      1  C   UNL     1      14.586  17.843  30.298  1.00  0.00     0.180 A 
ATOM      2  C   UNL     1      13.611  17.695  31.300  1.00  0.00     0.208 A 
ATOM      3  C   UNL     1      13.645  16.557  32.121  1.00  0.00     0.238 A 
ATOM      4  O   UNL     1      12.738  16.403  32.980  1.00  0.00    -0.285 OA
ATOM      5  C   UNL     1      14.663  15.588  31.942  1.00  0.00     0.111 A 
ATOM      6  C   UNL     1      14.817  14.417  32.743  1.00  0.00     0.134 A 
ATOM      7  C   UNL     1      15.781  13.463  32.392  1.00  0.00     0.093 A 
ATOM      8  C   UNL     1      16.638  13.670  31.308  1.00  0.00     0.123 A 
ATOM      9  C   UNL     1      16.535  14.838  30.558  1.00  0.00     0.094 A 
ATOM     10  C   UNL     1      15.559  15.791  30.861  1.00  0.00     0.146 A 
ATOM     11  O   UNL     1      15.487  16.886  30.112  1.00  0.00    -0.452 OA
ENDROOT
BRANCH   1  12
ATOM     12  C   UNL     1      14.630  19.026  29.410  1.00  0.00     0.025 A 
ATOM     13  C   UNL     1      14.028  19.011  28.140  1.00  0.00     0.016 A 
ATOM     14  C   UNL     1      14.061  20.148  27.329  1.00  0.00     0.051 A 
ATOM     15  C   UNL     1      14.682  21.320  27.778  1.00  0.00     0.157 A 
ATOM     16  C   UNL     1      15.233  20.210  29.865  1.00  0.00     0.062 A 
ATOM     17  C   UNL     1      15.269  21.351  29.054  1.00  0.00     0.158 A 
BRANCH  15  18
ATOM     18  O   UNL     1      14.715  22.452  26.965  1.00  0.00    -0.504 OA
ATOM     19  H   UNL     1      14.878  22.385  25.968  1.00  0.00     0.293 HD
ENDBRANCH  15  18
BRANCH  17  20
ATOM     20  O   UNL     1      15.889  22.504  29.535  1.00  0.00    -0.504 OA
ATOM     21  H   UNL     1      16.362  22.528  30.430  1.00  0.00     0.293 HD
ENDBRANCH  17  20
ENDBRANCH   1  12
BRANCH   2  22
ATOM     22  O   UNL     1      12.602  18.651  31.446  1.00  0.00    -0.502 OA
ATOM     23  H   UNL     1      12.516  19.229  32.272  1.00  0.00     0.293 HD
ENDBRANCH   2  22
BRANCH   6  24
ATOM     24  O   UNL     1      14.075  14.158  33.898  1.00  0.00    -0.507 OA
ATOM     25  H   UNL     1      14.471  13.953  34.802  1.00  0.00     0.293 HD
ENDBRANCH   6  24
BRANCH   8  26
ATOM     26  O   UNL     1      17.606  12.723  30.976  1.00  0.00    -0.508 OA
ATOM     27  H   UNL     1      18.356  12.487  31.615  1.00  0.00     0.293 HD
ENDBRANCH   8  26
TORSDOF 6
ENDMDL
MODEL 5
REMARK VINA RESULT:    -6.998      2.249      7.010
REMARK INTER + INTRA:          -8.755
REMARK INTER:                  -8.420
REMARK INTRA:                  -0.335
REMARK UNBOUND:                -0.325
REMARK SMILES O=c1c(O)c(-c2ccc(O)c(O)c2)oc2cc(O)cc(O)c12
REMARK SMILES IDX 5 1 3 2 2 3 1 4 22 5 20 6 19 7 17 8 16 9 15 10 14 11 6 12
REMARK SMILES IDX 7 13 8 14 9 15 13 16 11 17 10 18 12 20 4 22 21 24 18 26
REMARK H PARENT 10 19 12 21 4 23 21 25 18 27
REMARK Flexibility Score: inf
ROOT
ATOM      1  C   UNL     1      14.494  17.843  31.496  1.00  0.00     0.180 A 
ATOM      2  C   UNL     1      14.707  17.896  32.884  1.00  0.00     0.208 A 
ATOM      3  C   UNL     1      15.086  16.726  33.561  1.00  0.00     0.238 A 
ATOM      4  O   UNL     1      15.223  16.768  34.811  1.00  0.00    -0.285 OA
ATOM      5  C   UNL     1      15.263  15.520  32.839  1.00  0.00     0.111 A 
ATOM      6  C   UNL     1      15.685  14.285  33.416  1.00  0.00     0.134 A 
ATOM      7  C   UNL     1      15.700  13.126  32.630  1.00  0.00     0.093 A 
ATOM      8  C   UNL     1      15.372  13.171  31.273  1.00  0.00     0.123 A 
ATOM      9  C   UNL     1      15.018  14.384  30.687  1.00  0.00     0.094 A 
ATOM     10  C   UNL     1      14.958  15.551  31.454  1.00  0.00     0.146 A 
ATOM     11  O   UNL     1      14.604  16.684  30.858  1.00  0.00    -0.452 OA
ENDROOT
BRANCH   1  12
ATOM     12  C   UNL     1      14.117  19.039  30.710  1.00  0.00     0.025 A 
ATOM     13  C   UNL     1      15.092  19.888  30.157  1.00  0.00     0.016 A 
ATOM     14  C   UNL     1      14.713  20.999  29.398  1.00  0.00     0.051 A 
ATOM     15  C   UNL     1      13.358  21.270  29.169  1.00  0.00     0.157 A 
ATOM     16  C   UNL     1      12.761  19.303  30.459  1.00  0.00     0.062 A 
ATOM     17  C   UNL     1      12.378  20.416  29.700  1.00  0.00     0.158 A 
BRANCH  15  18
ATOM     18  O   UNL     1      12.984  22.380  28.413  1.00  0.00    -0.504 OA
ATOM     19  H   UNL     1      12.740  23.261  28.849  1.00  0.00     0.293 HD
ENDBRANCH  15  18
BRANCH  17  20
ATOM     20  O   UNL     1      11.021  20.654  29.485  1.00  0.00    -0.504 OA
ATOM     21  H   UNL     1      10.448  21.151  30.156  1.00  0.00     0.293 HD
ENDBRANCH  17  20
ENDBRANCH   1  12
BRANCH   2  22
ATOM     22  O   UNL     1      14.505  19.091  33.581  1.00  0.00    -0.502 OA
ATOM     23  H   UNL     1      13.792  19.760  33.319  1.00  0.00     0.293 HD
ENDBRANCH   2  22
BRANCH   6  24
ATOM     24  O   UNL     1      16.121  14.149  34.737  1.00  0.00    -0.507 OA
ATOM     25  H   UNL     1      16.705  13.400  35.075  1.00  0.00     0.293 HD
ENDBRANCH   6  24
BRANCH   8  26
ATOM     26  O   UNL     1      15.405  12.016  30.494  1.00  0.00    -0.508 OA
ATOM     27  H   UNL     1      16.277  11.544  30.285  1.00  0.00     0.293 HD
ENDBRANCH   8  26
TORSDOF 6
ENDMDL
MODEL 6
REMARK VINA RESULT:    -6.969      2.313      4.170
REMARK INTER + INTRA:          -8.721
REMARK INTER:                  -8.395
REMARK INTRA:                  -0.326
REMARK UNBOUND:                -0.325
REMARK SMILES O=c1c(O)c(-c2ccc(O)c(O)c2)oc2cc(O)cc(O)c12
REMARK SMILES IDX 5 1 3 2 2 3 1 4 22 5 20 6 19 7 17 8 16 9 15 10 14 11 6 12
REMARK SMILES IDX 7 13 8 14 9 15 13 16 11 17 10 18 12 20 4 22 21 24 18 26
REMARK H PARENT 10 19 12 21 4 23 21 25 18 27
REMARK Flexibility Score: inf
ROOT
ATOM      1  C   UNL     1      15.369  17.045  31.266  1.00  0.00     0.180 A 
ATOM      2  C   UNL     1      16.427  17.963  31.380  1.00  0.00     0.208 A 
ATOM      3  C   UNL     1      16.227  19.288  30.962  1.00  0.00     0.238 A 
ATOM      4  O   UNL     1      17.194  20.092  31.017  1.00  0.00    -0.285 OA
ATOM      5  C   UNL     1      14.967  19.684  30.451  1.00  0.00     0.111 A 
ATOM      6  C   UNL     1      14.641  21.010  30.036  1.00  0.00     0.134 A 
ATOM      7  C   UNL     1      13.406  21.257  29.424  1.00  0.00     0.093 A 
ATOM      8  C   UNL     1      12.460  20.240  29.272  1.00  0.00     0.123 A 
ATOM      9  C   UNL     1      12.746  18.956  29.729  1.00  0.00     0.094 A 
ATOM     10  C   UNL     1      13.984  18.670  30.310  1.00  0.00     0.146 A 
ATOM     11  O   UNL     1      14.221  17.429  30.722  1.00  0.00    -0.452 OA
ENDROOT
BRANCH   1  12
ATOM     12  C   UNL     1      15.495  15.638  31.707  1.00  0.00     0.025 A 
ATOM     13  C   UNL     1      15.110  15.239  32.999  1.00  0.00     0.016 A 
ATOM     14  C   UNL     1      15.216  13.900  33.386  1.00  0.00     0.051 A 
ATOM     15  C   UNL     1      15.694  12.939  32.486  1.00  0.00     0.157 A 
ATOM     16  C   UNL     1      15.954  14.667  30.802  1.00  0.00     0.062 A 
ATOM     17  C   UNL     1      16.062  13.325  31.187  1.00  0.00     0.158 A 
BRANCH  15  18
ATOM     18  O   UNL     1      15.800  11.604  32.876  1.00  0.00    -0.504 OA
ATOM     19  H   UNL     1      15.979  11.346  33.839  1.00  0.00     0.293 HD
ENDBRANCH  15  18
BRANCH  17  20
ATOM     20  O   UNL     1      16.535  12.392  30.264  1.00  0.00    -0.504 OA
ATOM     21  H   UNL     1      17.088  12.662  29.461  1.00  0.00     0.293 HD
ENDBRANCH  17  20
ENDBRANCH   1  12
BRANCH   2  22
ATOM     22  O   UNL     1      17.669  17.547  31.867  1.00  0.00    -0.502 OA
ATOM     23  H   UNL     1      18.005  16.598  31.760  1.00  0.00     0.293 HD
ENDBRANCH   2  22
BRANCH   6  24
ATOM     24  O   UNL     1      15.476  22.114  30.225  1.00  0.00    -0.507 OA
ATOM     25  H   UNL     1      15.171  23.075  30.212  1.00  0.00     0.293 HD
ENDBRANCH   6  24
BRANCH   8  26
ATOM     26  O   UNL     1      11.227  20.499  28.677  1.00  0.00    -0.508 OA
ATOM     27  H   UNL     1      10.395  19.982  28.937  1.00  0.00     0.293 HD
ENDBRANCH   8  26
TORSDOF 6
ENDMDL
MODEL 7
REMARK VINA RESULT:    -6.894      2.850      7.006
REMARK INTER + INTRA:          -8.630
REMARK INTER:                  -8.402
REMARK INTRA:                  -0.228
REMARK UNBOUND:                -0.325
REMARK SMILES O=c1c(O)c(-c2ccc(O)c(O)c2)oc2cc(O)cc(O)c12
REMARK SMILES IDX 5 1 3 2 2 3 1 4 22 5 20 6 19 7 17 8 16 9 15 10 14 11 6 12
REMARK SMILES IDX 7 13 8 14 9 15 13 16 11 17 10 18 12 20 4 22 21 24 18 26
REMARK H PARENT 10 19 12 21 4 23 21 25 18 27
REMARK Flexibility Score: inf
ROOT
ATOM      1  C   UNL     1      14.254  18.228  31.672  1.00  0.00     0.180 A 
ATOM      2  C   UNL     1      15.654  18.199  31.550  1.00  0.00     0.208 A 
ATOM      3  C   UNL     1      16.343  17.022  31.881  1.00  0.00     0.238 A 
ATOM      4  O   UNL     1      17.600  17.019  31.821  1.00  0.00    -0.285 OA
ATOM      5  C   UNL     1      15.623  15.882  32.316  1.00  0.00     0.111 A 
ATOM      6  C   UNL     1      16.214  14.624  32.639  1.00  0.00     0.134 A 
ATOM      7  C   UNL     1      15.419  13.608  33.183  1.00  0.00     0.093 A 
ATOM      8  C   UNL     1      14.044  13.782  33.354  1.00  0.00     0.123 A 
ATOM      9  C   UNL     1      13.448  14.985  32.985  1.00  0.00     0.094 A 
ATOM     10  C   UNL     1      14.220  16.031  32.473  1.00  0.00     0.146 A 
ATOM     11  O   UNL     1      13.614  17.166  32.145  1.00  0.00    -0.452 OA
ENDROOT
BRANCH   1  12
ATOM     12  C   UNL     1      13.457  19.424  31.318  1.00  0.00     0.025 A 
ATOM     13  C   UNL     1      13.485  20.584  32.112  1.00  0.00     0.016 A 
ATOM     14  C   UNL     1      12.743  21.709  31.745  1.00  0.00     0.051 A 
ATOM     15  C   UNL     1      11.974  21.699  30.574  1.00  0.00     0.157 A 
ATOM     16  C   UNL     1      12.701  19.426  30.134  1.00  0.00     0.062 A 
ATOM     17  C   UNL     1      11.956  20.552  29.764  1.00  0.00     0.158 A 
BRANCH  15  18
ATOM     18  O   UNL     1      11.233  22.823  30.212  1.00  0.00    -0.504 OA
ATOM     19  H   UNL     1      10.223  22.838  30.282  1.00  0.00     0.293 HD
ENDBRANCH  15  18
BRANCH  17  20
ATOM     20  O   UNL     1      11.206  20.511  28.589  1.00  0.00    -0.504 OA
ATOM     21  H   UNL     1      10.605  19.728  28.361  1.00  0.00     0.293 HD
ENDBRANCH  17  20
ENDBRANCH   1  12
BRANCH   2  22
ATOM     22  O   UNL     1      16.348  19.341  31.140  1.00  0.00    -0.502 OA
ATOM     23  H   UNL     1      16.023  19.934  30.386  1.00  0.00     0.293 HD
ENDBRANCH   2  22
BRANCH   6  24
ATOM     24  O   UNL     1      17.560  14.316  32.422  1.00  0.00    -0.507 OA
ATOM     25  H   UNL     1      18.017  14.343  31.524  1.00  0.00     0.293 HD
ENDBRANCH   6  24
BRANCH   8  26
ATOM     26  O   UNL     1      13.258  12.758  33.881  1.00  0.00    -0.508 OA
ATOM     27  H   UNL     1      12.798  12.082  33.282  1.00  0.00     0.293 HD
ENDBRANCH   8  26
TORSDOF 6
ENDMDL
MODEL 8
REMARK VINA RESULT:    -6.861     12.969     14.361
REMARK INTER + INTRA:          -8.591
REMARK INTER:                  -8.268
REMARK INTRA:                  -0.323
REMARK UNBOUND:                -0.325
REMARK SMILES O=c1c(O)c(-c2ccc(O)c(O)c2)oc2cc(O)cc(O)c12
REMARK SMILES IDX 5 1 3 2 2 3 1 4 22 5 20 6 19 7 17 8 16 9 15 10 14 11 6 12
REMARK SMILES IDX 7 13 8 14 9 15 13 16 11 17 10 18 12 20 4 22 21 24 18 26
REMARK H PARENT 10 19 12 21 4 23 21 25 18 27
REMARK Flexibility Score: inf
ROOT
ATOM      1  C   UNL     1       9.219  16.655  18.839  1.00  0.00     0.180 A 
ATOM      2  C   UNL     1       9.646  17.980  19.031  1.00  0.00     0.208 A 
ATOM      3  C   UNL     1       8.765  18.901  19.618  1.00  0.00     0.238 A 
ATOM      4  O   UNL     1       9.133  20.099  19.739  1.00  0.00    -0.285 OA
ATOM      5  C   UNL     1       7.472  18.483  20.020  1.00  0.00     0.111 A 
ATOM      6  C   UNL     1       6.512  19.322  20.661  1.00  0.00     0.134 A 
ATOM      7  C   UNL     1       5.219  18.837  20.895  1.00  0.00     0.093 A 
ATOM      8  C   UNL     1       4.873  17.523  20.571  1.00  0.00     0.123 A 
ATOM      9  C   UNL     1       5.821  16.679  20.001  1.00  0.00     0.094 A 
ATOM     10  C   UNL     1       7.109  17.145  19.721  1.00  0.00     0.146 A 
ATOM     11  O   UNL     1       7.979  16.309  19.166  1.00  0.00    -0.452 OA
ENDROOT
BRANCH   1  12
ATOM     12  C   UNL     1      10.099  15.621  18.250  1.00  0.00     0.025 A 
ATOM     13  C   UNL     1      10.147  15.404  16.862  1.00  0.00     0.016 A 
ATOM     14  C   UNL     1      11.003  14.439  16.327  1.00  0.00     0.051 A 
ATOM     15  C   UNL     1      11.835  13.687  17.166  1.00  0.00     0.157 A 
ATOM     16  C   UNL     1      10.950  14.879  19.086  1.00  0.00     0.062 A 
ATOM     17  C   UNL     1      11.809  13.911  18.553  1.00  0.00     0.158 A 
BRANCH  15  18
ATOM     18  O   UNL     1      12.688  12.723  16.629  1.00  0.00    -0.504 OA
ATOM     19  H   UNL     1      12.476  11.735  16.689  1.00  0.00     0.293 HD
ENDBRANCH  15  18
BRANCH  17  20
ATOM     20  O   UNL     1      12.629  13.184  19.416  1.00  0.00    -0.504 OA
ATOM     21  H   UNL     1      13.361  12.572  19.076  1.00  0.00     0.293 HD
ENDBRANCH  17  20
ENDBRANCH   1  12
BRANCH   2  22
ATOM     22  O   UNL     1      10.917  18.377  18.608  1.00  0.00    -0.502 OA
ATOM     23  H   UNL     1      11.256  19.325  18.718  1.00  0.00     0.293 HD
ENDBRANCH   2  22
BRANCH   6  24
ATOM     24  O   UNL     1       6.783  20.619  21.108  1.00  0.00    -0.507 OA
ATOM     25  H   UNL     1       6.332  21.451  20.763  1.00  0.00     0.293 HD
ENDBRANCH   6  24
BRANCH   8  26
ATOM     26  O   UNL     1       3.588  17.044  20.823  1.00  0.00    -0.508 OA
ATOM     27  H   UNL     1       2.811  17.673  20.987  1.00  0.00     0.293 HD
ENDBRANCH   8  26
TORSDOF 6
ENDMDL
MODEL 9
REMARK VINA RESULT:    -6.813      2.266      2.929
REMARK INTER + INTRA:          -8.533
REMARK INTER:                  -8.217
REMARK INTRA:                  -0.316
REMARK UNBOUND:                -0.325
REMARK SMILES O=c1c(O)c(-c2ccc(O)c(O)c2)oc2cc(O)cc(O)c12
REMARK SMILES IDX 5 1 3 2 2 3 1 4 22 5 20 6 19 7 17 8 16 9 15 10 14 11 6 12
REMARK SMILES IDX 7 13 8 14 9 15 13 16 11 17 10 18 12 20 4 22 21 24 18 26
REMARK H PARENT 10 19 12 21 4 23 21 25 18 27
REMARK Flexibility Score: inf
ROOT
ATOM      1  C   UNL     1      15.302  17.161  30.731  1.00  0.00     0.180 A 
ATOM      2  C   UNL     1      14.530  17.471  29.598  1.00  0.00     0.208 A 
ATOM      3  C   UNL     1      14.448  18.807  29.174  1.00  0.00     0.238 A 
ATOM      4  O   UNL     1      13.713  19.085  28.191  1.00  0.00    -0.285 OA
ATOM      5  C   UNL     1      15.152  19.814  29.878  1.00  0.00     0.111 A 
ATOM      6  C   UNL     1      15.172  21.194  29.513  1.00  0.00     0.134 A 
ATOM      7  C   UNL     1      15.795  22.121  30.358  1.00  0.00     0.093 A 
ATOM      8  C   UNL     1      16.453  21.710  31.520  1.00  0.00     0.123 A 
ATOM      9  C   UNL     1      16.490  20.358  31.852  1.00  0.00     0.094 A 
ATOM     10  C   UNL     1      15.847  19.413  31.049  1.00  0.00     0.146 A 
ATOM     11  O   UNL     1      15.896  18.136  31.408  1.00  0.00    -0.452 OA
ENDROOT
BRANCH   1  12
ATOM     12  C   UNL     1      15.456  15.774  31.223  1.00  0.00     0.025 A 
ATOM     13  C   UNL     1      14.610  15.251  32.216  1.00  0.00     0.016 A 
ATOM     14  C   UNL     1      14.759  13.931  32.649  1.00  0.00     0.051 A 
ATOM     15  C   UNL     1      15.744  13.109  32.087  1.00  0.00     0.157 A 
ATOM     16  C   UNL     1      16.429  14.939  30.648  1.00  0.00     0.062 A 
ATOM     17  C   UNL     1      16.581  13.616  31.080  1.00  0.00     0.158 A 
BRANCH  15  18
ATOM     18  O   UNL     1      15.891  11.792  32.522  1.00  0.00    -0.504 OA
ATOM     19  H   UNL     1      16.600  11.533  33.197  1.00  0.00     0.293 HD
ENDBRANCH  15  18
BRANCH  17  20
ATOM     20  O   UNL     1      17.568  12.823  30.495  1.00  0.00    -0.504 OA
ATOM     21  H   UNL     1      17.984  12.037  30.979  1.00  0.00     0.293 HD
ENDBRANCH  17  20
ENDBRANCH   1  12
BRANCH   2  22
ATOM     22  O   UNL     1      13.826  16.465  28.930  1.00  0.00    -0.502 OA
ATOM     23  H   UNL     1      13.827  16.378  27.921  1.00  0.00     0.293 HD
ENDBRANCH   2  22
BRANCH   6  24
ATOM     24  O   UNL     1      14.625  21.696  28.329  1.00  0.00    -0.507 OA
ATOM     25  H   UNL     1      15.100  21.717  27.441  1.00  0.00     0.293 HD
ENDBRANCH   6  24
BRANCH   8  26
ATOM     26  O   UNL     1      17.084  22.638  32.346  1.00  0.00    -0.508 OA
ATOM     27  H   UNL     1      17.865  22.377  32.936  1.00  0.00     0.293 HD
ENDBRANCH   8  26
TORSDOF 6
ENDMDL
