MODEL 1
REMARK VINA RESULT:    -3.617      0.000      0.000
REMARK INTER + INTRA:          -8.840
REMARK INTER:                  -6.578
REMARK INTRA:                  -2.262
REMARK UNBOUND:                -2.262
REMARK SMILES CCCCCC=CCC=CCCCCCCCC(=O)[O-]
REMARK SMILES IDX 11 1 12 2 13 3 14 4 15 5 16 6 17 7 18 8 19 9 20 10 10 11
REMARK SMILES IDX 9 12 8 13 7 14 6 15 5 16 4 17 3 18 2 19 1 20
REMARK H PARENT
REMARK Flexibility Score: inf
ROOT
ATOM      1  C   UNL     1      64.009  33.985  59.790  1.00  0.00     0.027 C 
ENDROOT
BRANCH   1   2
ATOM      2  C   UNL     1      64.408  34.322  61.233  1.00  0.00     0.004 C 
BRANCH   2   3
ATOM      3  C   UNL     1      64.233  35.819  61.517  1.00  0.00     0.000 C 
BRANCH   3   4
ATOM      4  C   UNL     1      63.287  36.466  60.494  1.00  0.00     0.000 C 
BRANCH   4   5
ATOM      5  C   UNL     1      61.925  36.843  61.100  1.00  0.00     0.000 C 
BRANCH   5   6
ATOM      6  C   UNL     1      60.749  36.159  60.381  1.00  0.00     0.006 C 
BRANCH   6   7
ATOM      7  C   UNL     1      60.988  36.034  58.870  1.00  0.00     0.053 C 
BRANCH   7   8
ATOM      8  C   UNL     1      60.082  35.019  58.244  1.00  0.00     0.041 C 
ATOM      9  O   UNL     1      60.565  34.006  57.673  1.00  0.00    -0.550 OA
ATOM     10  O   UNL     1      58.705  35.206  58.263  1.00  0.00    -0.550 OA
ENDBRANCH   7   8
ENDBRANCH   6   7
ENDBRANCH   5   6
ENDBRANCH   4   5
ENDBRANCH   3   4
ENDBRANCH   2   3
ENDBRANCH   1   2
BRANCH   1  11
ATOM     11  C   UNL     1      63.046  32.832  59.747  1.00  0.00    -0.031 C 
ATOM     12  C   UNL     1      62.014  32.747  60.600  1.00  0.00    -0.027 C 
BRANCH  12  13
ATOM     13  C   UNL     1      61.055  31.589  60.564  1.00  0.00     0.054 C 
BRANCH  13  14
ATOM     14  C   UNL     1      61.128  30.781  61.835  1.00  0.00    -0.027 C 
ATOM     15  C   UNL     1      61.710  29.572  61.939  1.00  0.00    -0.031 C 
BRANCH  15  16
ATOM     16  C   UNL     1      62.445  28.875  60.820  1.00  0.00     0.027 C 
BRANCH  16  17
ATOM     17  C   UNL     1      63.956  28.807  61.080  1.00  0.00     0.004 C 
BRANCH  17  18
ATOM     18  C   UNL     1      64.753  29.674  60.091  1.00  0.00     0.000 C 
BRANCH  18  19
ATOM     19  C   UNL     1      66.270  29.579  60.313  1.00  0.00    -0.003 C 
ATOM     20  C   UNL     1      66.690  28.260  60.960  1.00  0.00     0.004 C 
ENDBRANCH  18  19
ENDBRANCH  17  18
ENDBRANCH  16  17
ENDBRANCH  15  16
ENDBRANCH  13  14
ENDBRANCH  12  13
ENDBRANCH   1  11
TORSDOF 14
ENDMDL
MODEL 2
REMARK VINA RESULT:    -3.582     11.005     12.883
REMARK INTER + INTRA:          -8.776
REMARK INTER:                  -6.197
REMARK INTRA:                  -2.579
REMARK UNBOUND:                -2.262
REMARK SMILES CCCCCC=CCC=CCCCCCCCC(=O)[O-]
REMARK SMILES IDX 11 1 12 2 13 3 14 4 15 5 16 6 17 7 18 8 19 9 20 10 10 11
REMARK SMILES IDX 9 12 8 13 7 14 6 15 5 16 4 17 3 18 2 19 1 20
REMARK H PARENT
REMARK Flexibility Score: inf
ROOT
ATOM      1  C   UNL     1      55.715  26.437  51.156  1.00  0.00     0.027 C 
ENDROOT
BRANCH   1   2
ATOM      2  C   UNL     1      55.398  25.904  49.753  1.00  0.00     0.004 C 
BRANCH   2   3
ATOM      3  C   UNL     1      53.993  26.328  49.308  1.00  0.00     0.000 C 
BRANCH   3   4
ATOM      4  C   UNL     1      53.316  27.197  50.379  1.00  0.00     0.000 C 
BRANCH   4   5
ATOM      5  C   UNL     1      52.902  28.579  49.849  1.00  0.00     0.000 C 
BRANCH   5   6
ATOM      6  C   UNL     1      53.757  29.716  50.434  1.00  0.00     0.006 C 
BRANCH   6   7
ATOM      7  C   UNL     1      53.917  29.597  51.956  1.00  0.00     0.053 C 
BRANCH   7   8
ATOM      8  C   UNL     1      54.779  30.688  52.514  1.00  0.00     0.041 C 
ATOM      9  O   UNL     1      54.314  31.848  52.664  1.00  0.00    -0.550 OA
ATOM     10  O   UNL     1      56.106  30.431  52.838  1.00  0.00    -0.550 OA
ENDBRANCH   7   8
ENDBRANCH   6   7
ENDBRANCH   5   6
ENDBRANCH   4   5
ENDBRANCH   3   4
ENDBRANCH   2   3
ENDBRANCH   1   2
BRANCH   1  11
ATOM     11  C   UNL     1      56.892  27.372  51.129  1.00  0.00    -0.031 C 
ATOM     12  C   UNL     1      57.040  28.288  50.160  1.00  0.00    -0.027 C 
BRANCH  12  13
ATOM     13  C   UNL     1      58.222  29.217  50.127  1.00  0.00     0.054 C 
BRANCH  13  14
ATOM     14  C   UNL     1      59.299  28.697  49.209  1.00  0.00    -0.027 C 
ATOM     15  C   UNL     1      60.502  28.254  49.618  1.00  0.00    -0.031 C 
BRANCH  15  16
ATOM     16  C   UNL     1      60.928  28.137  51.061  1.00  0.00     0.027 C 
BRANCH  16  17
ATOM     17  C   UNL     1      60.571  26.768  51.656  1.00  0.00     0.004 C 
BRANCH  17  18
ATOM     18  C   UNL     1      60.683  25.639  50.618  1.00  0.00     0.000 C 
BRANCH  18  19
ATOM     19  C   UNL     1      59.422  24.763  50.561  1.00  0.00    -0.003 C 
ATOM     20  C   UNL     1      59.389  23.702  51.658  1.00  0.00     0.004 C 
ENDBRANCH  18  19
ENDBRANCH  17  18
ENDBRANCH  16  17
ENDBRANCH  15  16
ENDBRANCH  13  14
ENDBRANCH  12  13
ENDBRANCH   1  11
TORSDOF 14
ENDMDL
MODEL 3
REMARK VINA RESULT:    -3.574      4.287      8.413
REMARK INTER + INTRA:          -8.760
REMARK INTER:                  -7.035
REMARK INTRA:                  -1.725
REMARK UNBOUND:                -2.262
REMARK SMILES CCCCCC=CCC=CCCCCCCCC(=O)[O-]
REMARK SMILES IDX 11 1 12 2 13 3 14 4 15 5 16 6 17 7 18 8 19 9 20 10 10 11
REMARK SMILES IDX 9 12 8 13 7 14 6 15 5 16 4 17 3 18 2 19 1 20
REMARK H PARENT
REMARK Flexibility Score: inf
ROOT
ATOM      1  C   UNL     1      60.991  31.149  61.217  1.00  0.00     0.027 C 
ENDROOT
BRANCH   1   2
ATOM      2  C   UNL     1      61.951  30.151  61.876  1.00  0.00     0.004 C 
BRANCH   2   3
ATOM      3  C   UNL     1      61.884  28.784  61.184  1.00  0.00     0.000 C 
BRANCH   3   4
ATOM      4  C   UNL     1      63.285  28.167  61.050  1.00  0.00     0.000 C 
BRANCH   4   5
ATOM      5  C   UNL     1      63.283  26.642  61.245  1.00  0.00     0.000 C 
BRANCH   5   6
ATOM      6  C   UNL     1      62.121  26.161  62.132  1.00  0.00     0.006 C 
BRANCH   6   7
ATOM      7  C   UNL     1      61.995  24.631  62.141  1.00  0.00     0.053 C 
BRANCH   7   8
ATOM      8  C   UNL     1      62.131  24.068  63.523  1.00  0.00     0.041 C 
ATOM      9  O   UNL     1      63.154  23.405  63.838  1.00  0.00    -0.550 OA
ATOM     10  O   UNL     1      61.115  24.249  64.453  1.00  0.00    -0.550 OA
ENDBRANCH   7   8
ENDBRANCH   6   7
ENDBRANCH   5   6
ENDBRANCH   4   5
ENDBRANCH   3   4
ENDBRANCH   2   3
ENDBRANCH   1   2
BRANCH   1  11
ATOM     11  C   UNL     1      61.725  32.365  60.724  1.00  0.00    -0.031 C 
ATOM     12  C   UNL     1      63.059  32.368  60.576  1.00  0.00    -0.027 C 
BRANCH  12  13
ATOM     13  C   UNL     1      63.794  33.587  60.093  1.00  0.00     0.054 C 
BRANCH  13  14
ATOM     14  C   UNL     1      64.295  34.416  61.248  1.00  0.00    -0.027 C 
ATOM     15  C   UNL     1      64.058  35.732  61.403  1.00  0.00    -0.031 C 
BRANCH  15  16
ATOM     16  C   UNL     1      63.193  36.561  60.486  1.00  0.00     0.027 C 
BRANCH  16  17
ATOM     17  C   UNL     1      61.782  36.766  61.057  1.00  0.00     0.004 C 
BRANCH  17  18
ATOM     18  C   UNL     1      60.723  35.959  60.287  1.00  0.00     0.000 C 
BRANCH  18  19
ATOM     19  C   UNL     1      61.070  35.802  58.798  1.00  0.00    -0.003 C 
ATOM     20  C   UNL     1      60.397  34.588  58.160  1.00  0.00     0.004 C 
ENDBRANCH  18  19
ENDBRANCH  17  18
ENDBRANCH  16  17
ENDBRANCH  15  16
ENDBRANCH  13  14
ENDBRANCH  12  13
ENDBRANCH   1  11
TORSDOF 14
ENDMDL
MODEL 4
REMARK VINA RESULT:    -3.565      2.929      7.130
REMARK INTER + INTRA:          -8.744
REMARK INTER:                  -6.345
REMARK INTRA:                  -2.399
REMARK UNBOUND:                -2.262
REMARK SMILES CCCCCC=CCC=CCCCCCCCC(=O)[O-]
REMARK SMILES IDX 11 1 12 2 13 3 14 4 15 5 16 6 17 7 18 8 19 9 20 10 10 11
REMARK SMILES IDX 9 12 8 13 7 14 6 15 5 16 4 17 3 18 2 19 1 20
REMARK H PARENT
REMARK Flexibility Score: inf
ROOT
ATOM      1  C   UNL     1      61.610  31.619  59.606  1.00  0.00     0.027 C 
ENDROOT
BRANCH   1   2
ATOM      2  C   UNL     1      61.022  31.608  61.022  1.00  0.00     0.004 C 
BRANCH   2   3
ATOM      3  C   UNL     1      61.378  30.309  61.755  1.00  0.00     0.000 C 
BRANCH   3   4
ATOM      4  C   UNL     1      61.738  29.196  60.759  1.00  0.00     0.000 C 
BRANCH   4   5
ATOM      5  C   UNL     1      63.124  28.587  61.025  1.00  0.00     0.000 C 
BRANCH   5   6
ATOM      6  C   UNL     1      64.171  29.647  61.410  1.00  0.00     0.006 C 
BRANCH   6   7
ATOM      7  C   UNL     1      65.234  29.834  60.318  1.00  0.00     0.053 C 
BRANCH   7   8
ATOM      8  C   UNL     1      65.798  28.524  59.858  1.00  0.00     0.041 C 
ATOM      9  O   UNL     1      65.603  28.131  58.678  1.00  0.00    -0.550 OA
ATOM     10  O   UNL     1      66.512  27.723  60.741  1.00  0.00    -0.550 OA
ENDBRANCH   7   8
ENDBRANCH   6   7
ENDBRANCH   5   6
ENDBRANCH   4   5
ENDBRANCH   3   4
ENDBRANCH   2   3
ENDBRANCH   1   2
BRANCH   1  11
ATOM     11  C   UNL     1      62.661  32.685  59.461  1.00  0.00    -0.031 C 
ATOM     12  C   UNL     1      63.389  33.100  60.508  1.00  0.00    -0.027 C 
BRANCH  12  13
ATOM     13  C   UNL     1      64.433  34.173  60.366  1.00  0.00     0.054 C 
BRANCH  13  14
ATOM     14  C   UNL     1      64.330  35.185  61.479  1.00  0.00    -0.027 C 
ATOM     15  C   UNL     1      63.513  36.254  61.466  1.00  0.00    -0.031 C 
BRANCH  15  16
ATOM     16  C   UNL     1      62.522  36.561  60.370  1.00  0.00     0.027 C 
BRANCH  16  17
ATOM     17  C   UNL     1      61.138  35.965  60.665  1.00  0.00     0.004 C 
BRANCH  17  18
ATOM     18  C   UNL     1      60.142  36.221  59.521  1.00  0.00     0.000 C 
BRANCH  18  19
ATOM     19  C   UNL     1      60.008  35.017  58.576  1.00  0.00    -0.003 C 
ATOM     20  C   UNL     1      60.873  35.151  57.323  1.00  0.00     0.004 C 
ENDBRANCH  18  19
ENDBRANCH  17  18
ENDBRANCH  16  17
ENDBRANCH  15  16
ENDBRANCH  13  14
ENDBRANCH  12  13
ENDBRANCH   1  11
TORSDOF 14
ENDMDL
MODEL 5
REMARK VINA RESULT:    -3.545      3.524      6.376
REMARK INTER + INTRA:          -8.708
REMARK INTER:                  -7.701
REMARK INTRA:                  -1.006
REMARK UNBOUND:                -2.262
REMARK SMILES CCCCCC=CCC=CCCCCCCCC(=O)[O-]
REMARK SMILES IDX 11 1 12 2 13 3 14 4 15 5 16 6 17 7 18 8 19 9 20 10 10 11
REMARK SMILES IDX 9 12 8 13 7 14 6 15 5 16 4 17 3 18 2 19 1 20
REMARK H PARENT
REMARK Flexibility Score: inf
ROOT
ATOM      1  C   UNL     1      64.813  28.836  59.860  1.00  0.00     0.027 C 
ENDROOT
BRANCH   1   2
ATOM      2  C   UNL     1      63.836  28.722  61.037  1.00  0.00     0.004 C 
BRANCH   2   3
ATOM      3  C   UNL     1      63.362  30.106  61.495  1.00  0.00     0.000 C 
BRANCH   3   4
ATOM      4  C   UNL     1      61.828  30.183  61.512  1.00  0.00     0.000 C 
BRANCH   4   5
ATOM      5  C   UNL     1      61.298  31.565  61.095  1.00  0.00     0.000 C 
BRANCH   5   6
ATOM      6  C   UNL     1      62.418  32.509  60.624  1.00  0.00     0.006 C 
BRANCH   6   7
ATOM      7  C   UNL     1      61.905  33.933  60.369  1.00  0.00     0.053 C 
BRANCH   7   8
ATOM      8  C   UNL     1      62.811  34.968  60.963  1.00  0.00     0.041 C 
ATOM      9  O   UNL     1      63.985  34.661  61.301  1.00  0.00    -0.550 OA
ATOM     10  O   UNL     1      62.351  36.262  61.171  1.00  0.00    -0.550 OA
ENDBRANCH   7   8
ENDBRANCH   6   7
ENDBRANCH   5   6
ENDBRANCH   4   5
ENDBRANCH   3   4
ENDBRANCH   2   3
ENDBRANCH   1   2
BRANCH   1  11
ATOM     11  C   UNL     1      66.189  29.218  60.330  1.00  0.00    -0.031 C 
ATOM     12  C   UNL     1      66.896  28.427  61.152  1.00  0.00    -0.027 C 
BRANCH  12  13
ATOM     13  C   UNL     1      68.268  28.813  61.630  1.00  0.00     0.054 C 
BRANCH  13  14
ATOM     14  C   UNL     1      69.332  28.344  60.671  1.00  0.00    -0.027 C 
ATOM     15  C   UNL     1      70.574  28.858  60.598  1.00  0.00    -0.031 C 
BRANCH  15  16
ATOM     16  C   UNL     1      71.115  29.927  61.517  1.00  0.00     0.027 C 
BRANCH  16  17
ATOM     17  C   UNL     1      72.139  30.826  60.811  1.00  0.00     0.004 C 
BRANCH  17  18
ATOM     18  C   UNL     1      71.626  32.266  60.641  1.00  0.00     0.000 C 
BRANCH  18  19
ATOM     19  C   UNL     1      71.300  32.607  59.179  1.00  0.00    -0.003 C 
ATOM     20  C   UNL     1      71.686  31.489  58.212  1.00  0.00     0.004 C 
ENDBRANCH  18  19
ENDBRANCH  17  18
ENDBRANCH  16  17
ENDBRANCH  15  16
ENDBRANCH  13  14
ENDBRANCH  12  13
ENDBRANCH   1  11
TORSDOF 14
ENDMDL
MODEL 6
REMARK VINA RESULT:    -3.543      1.157      2.826
REMARK INTER + INTRA:          -8.704
REMARK INTER:                  -6.135
REMARK INTRA:                  -2.569
REMARK UNBOUND:                -2.262
REMARK SMILES CCCCCC=CCC=CCCCCCCCC(=O)[O-]
REMARK SMILES IDX 11 1 12 2 13 3 14 4 15 5 16 6 17 7 18 8 19 9 20 10 10 11
REMARK SMILES IDX 9 12 8 13 7 14 6 15 5 16 4 17 3 18 2 19 1 20
REMARK H PARENT
REMARK Flexibility Score: inf
ROOT
ATOM      1  C   UNL     1      64.234  34.544  61.346  1.00  0.00     0.027 C 
ENDROOT
BRANCH   1   2
ATOM      2  C   UNL     1      64.576  35.481  60.180  1.00  0.00     0.004 C 
BRANCH   2   3
ATOM      3  C   UNL     1      63.698  36.737  60.209  1.00  0.00     0.000 C 
BRANCH   3   4
ATOM      4  C   UNL     1      62.551  36.584  61.220  1.00  0.00     0.000 C 
BRANCH   4   5
ATOM      5  C   UNL     1      61.183  36.404  60.543  1.00  0.00     0.000 C 
BRANCH   5   6
ATOM      6  C   UNL     1      60.913  34.945  60.134  1.00  0.00     0.006 C 
BRANCH   6   7
ATOM      7  C   UNL     1      61.009  34.742  58.616  1.00  0.00     0.053 C 
BRANCH   7   8
ATOM      8  C   UNL     1      59.663  34.523  57.996  1.00  0.00     0.041 C 
ATOM      9  O   UNL     1      59.396  33.429  57.433  1.00  0.00    -0.550 OA
ATOM     10  O   UNL     1      58.715  35.538  58.011  1.00  0.00    -0.550 OA
ENDBRANCH   7   8
ENDBRANCH   6   7
ENDBRANCH   5   6
ENDBRANCH   4   5
ENDBRANCH   3   4
ENDBRANCH   2   3
ENDBRANCH   1   2
BRANCH   1  11
ATOM     11  C   UNL     1      64.214  33.108  60.901  1.00  0.00    -0.031 C 
ATOM     12  C   UNL     1      64.429  32.765  59.621  1.00  0.00    -0.027 C 
BRANCH  12  13
ATOM     13  C   UNL     1      64.399  31.330  59.174  1.00  0.00     0.054 C 
BRANCH  13  14
ATOM     14  C   UNL     1      64.949  30.415  60.239  1.00  0.00    -0.027 C 
ATOM     15  C   UNL     1      64.355  29.280  60.651  1.00  0.00    -0.031 C 
BRANCH  15  16
ATOM     16  C   UNL     1      63.089  28.711  60.059  1.00  0.00     0.027 C 
BRANCH  16  17
ATOM     17  C   UNL     1      61.883  28.903  60.988  1.00  0.00     0.004 C 
BRANCH  17  18
ATOM     18  C   UNL     1      61.998  30.187  61.828  1.00  0.00     0.000 C 
BRANCH  18  19
ATOM     19  C   UNL     1      60.955  31.245  61.433  1.00  0.00    -0.003 C 
ATOM     20  C   UNL     1      60.640  31.234  59.939  1.00  0.00     0.004 C 
ENDBRANCH  18  19
ENDBRANCH  17  18
ENDBRANCH  16  17
ENDBRANCH  15  16
ENDBRANCH  13  14
ENDBRANCH  12  13
ENDBRANCH   1  11
TORSDOF 14
ENDMDL
MODEL 7
REMARK VINA RESULT:    -3.514      3.469      6.950
REMARK INTER + INTRA:          -8.652
REMARK INTER:                  -6.451
REMARK INTRA:                  -2.201
REMARK UNBOUND:                -2.262
REMARK SMILES CCCCCC=CCC=CCCCCCCCC(=O)[O-]
REMARK SMILES IDX 11 1 12 2 13 3 14 4 15 5 16 6 17 7 18 8 19 9 20 10 10 11
REMARK SMILES IDX 9 12 8 13 7 14 6 15 5 16 4 17 3 18 2 19 1 20
REMARK H PARENT
REMARK Flexibility Score: inf
ROOT
ATOM      1  C   UNL     1      61.460  31.873  60.113  1.00  0.00     0.027 C 
ENDROOT
BRANCH   1   2
ATOM      2  C   UNL     1      61.082  31.194  61.435  1.00  0.00     0.004 C 
BRANCH   2   3
ATOM      3  C   UNL     1      61.992  29.993  61.718  1.00  0.00     0.000 C 
BRANCH   3   4
ATOM      4  C   UNL     1      63.463  30.340  61.436  1.00  0.00     0.000 C 
BRANCH   4   5
ATOM      5  C   UNL     1      64.288  29.117  61.003  1.00  0.00     0.000 C 
BRANCH   5   6
ATOM      6  C   UNL     1      63.417  27.996  60.411  1.00  0.00     0.006 C 
BRANCH   6   7
ATOM      7  C   UNL     1      63.777  26.618  60.987  1.00  0.00     0.053 C 
BRANCH   7   8
ATOM      8  C   UNL     1      62.587  25.936  61.589  1.00  0.00     0.041 C 
ATOM      9  O   UNL     1      61.949  26.486  62.525  1.00  0.00    -0.550 OA
ATOM     10  O   UNL     1      62.202  24.680  61.138  1.00  0.00    -0.550 OA
ENDBRANCH   7   8
ENDBRANCH   6   7
ENDBRANCH   5   6
ENDBRANCH   4   5
ENDBRANCH   3   4
ENDBRANCH   2   3
ENDBRANCH   1   2
BRANCH   1  11
ATOM     11  C   UNL     1      61.697  33.345  60.305  1.00  0.00    -0.031 C 
ATOM     12  C   UNL     1      62.844  33.810  60.823  1.00  0.00    -0.027 C 
BRANCH  12  13
ATOM     13  C   UNL     1      63.077  35.282  61.025  1.00  0.00     0.054 C 
BRANCH  13  14
ATOM     14  C   UNL     1      64.477  35.550  61.517  1.00  0.00    -0.027 C 
ATOM     15  C   UNL     1      65.506  35.915  60.730  1.00  0.00    -0.031 C 
BRANCH  15  16
ATOM     16  C   UNL     1      65.399  36.185  59.249  1.00  0.00     0.027 C 
BRANCH  16  17
ATOM     17  C   UNL     1      65.652  34.921  58.415  1.00  0.00     0.004 C 
BRANCH  17  18
ATOM     18  C   UNL     1      64.435  34.543  57.554  1.00  0.00     0.000 C 
BRANCH  18  19
ATOM     19  C   UNL     1      64.201  33.025  57.498  1.00  0.00    -0.003 C 
ATOM     20  C   UNL     1      65.089  32.255  58.474  1.00  0.00     0.004 C 
ENDBRANCH  18  19
ENDBRANCH  17  18
ENDBRANCH  16  17
ENDBRANCH  15  16
ENDBRANCH  13  14
ENDBRANCH  12  13
ENDBRANCH   1  11
TORSDOF 14
ENDMDL
MODEL 8
REMARK VINA RESULT:    -3.477     10.981     12.158
REMARK INTER + INTRA:          -8.584
REMARK INTER:                  -6.219
REMARK INTRA:                  -2.365
REMARK UNBOUND:                -2.262
REMARK SMILES CCCCCC=CCC=CCCCCCCCC(=O)[O-]
REMARK SMILES IDX 11 1 12 2 13 3 14 4 15 5 16 6 17 7 18 8 19 9 20 10 10 11
REMARK SMILES IDX 9 12 8 13 7 14 6 15 5 16 4 17 3 18 2 19 1 20
REMARK H PARENT
REMARK Flexibility Score: inf
ROOT
ATOM      1  C   UNL     1      62.624  27.373  50.266  1.00  0.00     0.027 C 
ENDROOT
BRANCH   1   2
ATOM      2  C   UNL     1      63.719  26.809  49.351  1.00  0.00     0.004 C 
BRANCH   2   3
ATOM      3  C   UNL     1      64.093  27.815  48.256  1.00  0.00     0.000 C 
BRANCH   3   4
ATOM      4  C   UNL     1      64.938  28.963  48.830  1.00  0.00     0.000 C 
BRANCH   4   5
ATOM      5  C   UNL     1      64.282  30.339  48.634  1.00  0.00     0.000 C 
BRANCH   5   6
ATOM      6  C   UNL     1      63.732  30.923  49.947  1.00  0.00     0.006 C 
BRANCH   6   7
ATOM      7  C   UNL     1      62.437  31.718  49.730  1.00  0.00     0.053 C 
BRANCH   7   8
ATOM      8  C   UNL     1      62.711  33.119  49.277  1.00  0.00     0.041 C 
ATOM      9  O   UNL     1      63.701  33.750  49.734  1.00  0.00    -0.550 OA
ATOM     10  O   UNL     1      61.856  33.741  48.376  1.00  0.00    -0.550 OA
ENDBRANCH   7   8
ENDBRANCH   6   7
ENDBRANCH   5   6
ENDBRANCH   4   5
ENDBRANCH   3   4
ENDBRANCH   2   3
ENDBRANCH   1   2
BRANCH   1  11
ATOM     11  C   UNL     1      61.374  27.683  49.490  1.00  0.00    -0.031 C 
ATOM     12  C   UNL     1      60.471  28.570  49.937  1.00  0.00    -0.027 C 
BRANCH  12  13
ATOM     13  C   UNL     1      59.216  28.873  49.167  1.00  0.00     0.054 C 
BRANCH  13  14
ATOM     14  C   UNL     1      58.068  29.180  50.094  1.00  0.00    -0.027 C 
ATOM     15  C   UNL     1      57.147  28.283  50.493  1.00  0.00    -0.031 C 
BRANCH  15  16
ATOM     16  C   UNL     1      57.168  26.817  50.135  1.00  0.00     0.027 C 
BRANCH  16  17
ATOM     17  C   UNL     1      58.098  26.014  51.056  1.00  0.00     0.004 C 
BRANCH  17  18
ATOM     18  C   UNL     1      59.042  25.094  50.264  1.00  0.00     0.000 C 
BRANCH  18  19
ATOM     19  C   UNL     1      60.163  24.509  51.137  1.00  0.00    -0.003 C 
ATOM     20  C   UNL     1      61.267  23.846  50.314  1.00  0.00     0.004 C 
ENDBRANCH  18  19
ENDBRANCH  17  18
ENDBRANCH  16  17
ENDBRANCH  15  16
ENDBRANCH  13  14
ENDBRANCH  12  13
ENDBRANCH   1  11
TORSDOF 14
ENDMDL
MODEL 9
REMARK VINA RESULT:    -3.463      3.336      6.933
REMARK INTER + INTRA:          -8.559
REMARK INTER:                  -6.100
REMARK INTRA:                  -2.460
REMARK UNBOUND:                -2.262
REMARK SMILES CCCCCC=CCC=CCCCCCCCC(=O)[O-]
REMARK SMILES IDX 11 1 12 2 13 3 14 4 15 5 16 6 17 7 18 8 19 9 20 10 10 11
REMARK SMILES IDX 9 12 8 13 7 14 6 15 5 16 4 17 3 18 2 19 1 20
REMARK H PARENT
REMARK Flexibility Score: inf
ROOT
ATOM      1  C   UNL     1      64.794  28.878  60.873  1.00  0.00     0.027 C 
ENDROOT
BRANCH   1   2
ATOM      2  C   UNL     1      64.899  27.366  60.637  1.00  0.00     0.004 C 
BRANCH   2   3
ATOM      3  C   UNL     1      63.524  26.759  60.332  1.00  0.00     0.000 C 
BRANCH   3   4
ATOM      4  C   UNL     1      63.121  25.742  61.411  1.00  0.00     0.000 C 
BRANCH   4   5
ATOM      5  C   UNL     1      61.921  26.211  62.250  1.00  0.00     0.000 C 
BRANCH   5   6
ATOM      6  C   UNL     1      60.707  26.592  61.384  1.00  0.00     0.006 C 
BRANCH   6   7
ATOM      7  C   UNL     1      59.387  26.093  61.988  1.00  0.00     0.053 C 
BRANCH   7   8
ATOM      8  C   UNL     1      58.227  26.949  61.578  1.00  0.00     0.041 C 
ATOM      9  O   UNL     1      57.050  26.585  61.834  1.00  0.00    -0.550 OA
ATOM     10  O   UNL     1      58.446  28.134  60.884  1.00  0.00    -0.550 OA
ENDBRANCH   7   8
ENDBRANCH   6   7
ENDBRANCH   5   6
ENDBRANCH   4   5
ENDBRANCH   3   4
ENDBRANCH   2   3
ENDBRANCH   1   2
BRANCH   1  11
ATOM     11  C   UNL     1      63.379  29.356  60.709  1.00  0.00    -0.031 C 
ATOM     12  C   UNL     1      62.698  29.899  61.730  1.00  0.00    -0.027 C 
BRANCH  12  13
ATOM     13  C   UNL     1      61.279  30.369  61.569  1.00  0.00     0.054 C 
BRANCH  13  14
ATOM     14  C   UNL     1      61.007  30.811  60.154  1.00  0.00    -0.027 C 
ATOM     15  C   UNL     1      61.089  32.083  59.722  1.00  0.00    -0.031 C 
BRANCH  15  16
ATOM     16  C   UNL     1      61.539  33.248  60.568  1.00  0.00     0.027 C 
BRANCH  16  17
ATOM     17  C   UNL     1      62.828  33.885  60.030  1.00  0.00     0.004 C 
BRANCH  17  18
ATOM     18  C   UNL     1      64.088  33.180  60.562  1.00  0.00     0.000 C 
BRANCH  18  19
ATOM     19  C   UNL     1      64.794  32.344  59.483  1.00  0.00    -0.003 C 
ATOM     20  C   UNL     1      64.388  32.744  58.066  1.00  0.00     0.004 C 
ENDBRANCH  18  19
ENDBRANCH  17  18
ENDBRANCH  16  17
ENDBRANCH  15  16
ENDBRANCH  13  14
ENDBRANCH  12  13
ENDBRANCH   1  11
TORSDOF 14
ENDMDL
