MODEL 1
REMARK VINA RESULT:    -1.144      0.000      0.000
REMARK INTER + INTRA:          -4.736
REMARK INTER:                  -2.014
REMARK INTRA:                  -2.722
REMARK UNBOUND:                -2.722
REMARK SMILES CCCCCCCCCCCCCCC(=O)[O-]
REMARK SMILES IDX 9 1 10 2 11 3 12 4 13 5 14 6 15 7 16 8 17 9 8 10 7 11 6 12
REMARK SMILES IDX 5 13 4 14 3 15 2 16 1 17
REMARK H PARENT
REMARK Flexibility Score: inf
ROOT
ATOM      1  C   UNL     1      20.897 -26.241   0.328  1.00  0.00     0.000 C 
ENDROOT
BRANCH   1   2
ATOM      2  C   UNL     1      21.910 -26.104   1.475  1.00  0.00     0.000 C 
BRANCH   2   3
ATOM      3  C   UNL     1      21.776 -27.219   2.523  1.00  0.00     0.000 C 
BRANCH   3   4
ATOM      4  C   UNL     1      20.481 -28.013   2.316  1.00  0.00     0.000 C 
BRANCH   4   5
ATOM      5  C   UNL     1      20.685 -29.498   2.655  1.00  0.00     0.006 C 
BRANCH   5   6
ATOM      6  C   UNL     1      20.016 -30.424   1.632  1.00  0.00     0.053 C 
BRANCH   6   7
ATOM      7  C   UNL     1      20.652 -31.780   1.608  1.00  0.00     0.041 C 
ATOM      8  O   UNL     1      21.040 -32.277   0.518  1.00  0.00    -0.550 OA
ATOM      9  O   UNL     1      20.847 -32.480   2.791  1.00  0.00    -0.550 OA
ENDBRANCH   6   7
ENDBRANCH   5   6
ENDBRANCH   4   5
ENDBRANCH   3   4
ENDBRANCH   2   3
ENDBRANCH   1   2
BRANCH   1  10
ATOM     10  C   UNL     1      21.506 -25.901  -1.042  1.00  0.00     0.000 C 
BRANCH  10  11
ATOM     11  C   UNL     1      21.232 -27.019  -2.056  1.00  0.00    -0.000 C 
BRANCH  11  12
ATOM     12  C   UNL     1      20.583 -28.231  -1.377  1.00  0.00    -0.000 C 
BRANCH  12  13
ATOM     13  C   UNL     1      21.255 -29.538  -1.825  1.00  0.00    -0.000 C 
BRANCH  13  14
ATOM     14  C   UNL     1      22.777 -29.525  -1.612  1.00  0.00    -0.000 C 
BRANCH  14  15
ATOM     15  C   UNL     1      23.166 -29.501  -0.123  1.00  0.00    -0.000 C 
BRANCH  15  16
ATOM     16  C   UNL     1      24.357 -28.572   0.160  1.00  0.00    -0.003 C 
ATOM     17  C   UNL     1      24.753 -27.729  -1.053  1.00  0.00     0.004 C 
ENDBRANCH  15  16
ENDBRANCH  14  15
ENDBRANCH  13  14
ENDBRANCH  12  13
ENDBRANCH  11  12
ENDBRANCH  10  11
ENDBRANCH   1  10
TORSDOF 13
ENDMDL
MODEL 2
REMARK VINA RESULT:    -1.134      1.750      3.600
REMARK INTER + INTRA:          -4.717
REMARK INTER:                  -2.435
REMARK INTRA:                  -2.283
REMARK UNBOUND:                -2.722
REMARK SMILES CCCCCCCCCCCCCCC(=O)[O-]
REMARK SMILES IDX 9 1 10 2 11 3 12 4 13 5 14 6 15 7 16 8 17 9 8 10 7 11 6 12
REMARK SMILES IDX 5 13 4 14 3 15 2 16 1 17
REMARK H PARENT
REMARK Flexibility Score: inf
ROOT
ATOM      1  C   UNL     1      22.341 -27.823  -1.052  1.00  0.00     0.000 C 
ENDROOT
BRANCH   1   2
ATOM      2  C   UNL     1      21.741 -29.139  -0.531  1.00  0.00     0.000 C 
BRANCH   2   3
ATOM      3  C   UNL     1      20.206 -29.115  -0.487  1.00  0.00     0.000 C 
BRANCH   3   4
ATOM      4  C   UNL     1      19.685 -29.702   0.830  1.00  0.00     0.000 C 
BRANCH   4   5
ATOM      5  C   UNL     1      20.440 -30.990   1.195  1.00  0.00     0.006 C 
BRANCH   5   6
ATOM      6  C   UNL     1      19.491 -32.115   1.628  1.00  0.00     0.053 C 
BRANCH   6   7
ATOM      7  C   UNL     1      18.628 -31.703   2.782  1.00  0.00     0.041 C 
ATOM      8  O   UNL     1      19.145 -31.462   3.904  1.00  0.00    -0.550 OA
ATOM      9  O   UNL     1      17.258 -31.553   2.608  1.00  0.00    -0.550 OA
ENDBRANCH   6   7
ENDBRANCH   5   6
ENDBRANCH   4   5
ENDBRANCH   3   4
ENDBRANCH   2   3
ENDBRANCH   1   2
BRANCH   1  10
ATOM     10  C   UNL     1      21.337 -27.000  -1.874  1.00  0.00     0.000 C 
BRANCH  10  11
ATOM     11  C   UNL     1      21.233 -25.567  -1.337  1.00  0.00    -0.000 C 
BRANCH  11  12
ATOM     12  C   UNL     1      21.694 -25.491   0.124  1.00  0.00    -0.000 C 
BRANCH  12  13
ATOM     13  C   UNL     1      20.490 -25.449   1.078  1.00  0.00    -0.000 C 
BRANCH  13  14
ATOM     14  C   UNL     1      20.625 -26.439   2.246  1.00  0.00    -0.000 C 
BRANCH  14  15
ATOM     15  C   UNL     1      22.092 -26.707   2.628  1.00  0.00    -0.000 C 
BRANCH  15  16
ATOM     16  C   UNL     1      22.348 -28.181   2.980  1.00  0.00    -0.003 C 
ATOM     17  C   UNL     1      21.385 -28.715   4.040  1.00  0.00     0.004 C 
ENDBRANCH  15  16
ENDBRANCH  14  15
ENDBRANCH  13  14
ENDBRANCH  12  13
ENDBRANCH  11  12
ENDBRANCH  10  11
ENDBRANCH   1  10
TORSDOF 13
ENDMDL
MODEL 3
REMARK VINA RESULT:    -1.122      2.081      2.876
REMARK INTER + INTRA:          -4.697
REMARK INTER:                  -2.135
REMARK INTRA:                  -2.562
REMARK UNBOUND:                -2.722
REMARK SMILES CCCCCCCCCCCCCCC(=O)[O-]
REMARK SMILES IDX 9 1 10 2 11 3 12 4 13 5 14 6 15 7 16 8 17 9 8 10 7 11 6 12
REMARK SMILES IDX 5 13 4 14 3 15 2 16 1 17
REMARK H PARENT
REMARK Flexibility Score: inf
ROOT
ATOM      1  C   UNL     1      21.044 -26.298  -1.008  1.00  0.00     0.000 C 
ENDROOT
BRANCH   1   2
ATOM      2  C   UNL     1      22.261 -25.737  -0.254  1.00  0.00     0.000 C 
BRANCH   2   3
ATOM      3  C   UNL     1      21.913 -25.261   1.164  1.00  0.00     0.000 C 
BRANCH   3   4
ATOM      4  C   UNL     1      21.838 -26.442   2.137  1.00  0.00     0.000 C 
BRANCH   4   5
ATOM      5  C   UNL     1      20.401 -26.651   2.641  1.00  0.00     0.006 C 
BRANCH   5   6
ATOM      6  C   UNL     1      20.224 -28.004   3.341  1.00  0.00     0.053 C 
BRANCH   6   7
ATOM      7  C   UNL     1      21.153 -28.155   4.507  1.00  0.00     0.041 C 
ATOM      8  O   UNL     1      21.980 -29.104   4.538  1.00  0.00    -0.550 OA
ATOM      9  O   UNL     1      21.129 -27.228   5.541  1.00  0.00    -0.550 OA
ENDBRANCH   6   7
ENDBRANCH   5   6
ENDBRANCH   4   5
ENDBRANCH   3   4
ENDBRANCH   2   3
ENDBRANCH   1   2
BRANCH   1  10
ATOM     10  C   UNL     1      21.433 -27.350  -2.059  1.00  0.00     0.000 C 
BRANCH  10  11
ATOM     11  C   UNL     1      20.655 -28.654  -1.843  1.00  0.00    -0.000 C 
BRANCH  11  12
ATOM     12  C   UNL     1      19.960 -28.661  -0.476  1.00  0.00    -0.000 C 
BRANCH  12  13
ATOM     13  C   UNL     1      20.251 -29.965   0.282  1.00  0.00    -0.000 C 
BRANCH  13  14
ATOM     14  C   UNL     1      21.689 -30.465   0.071  1.00  0.00    -0.000 C 
BRANCH  14  15
ATOM     15  C   UNL     1      22.672 -29.893   1.108  1.00  0.00    -0.000 C 
BRANCH  15  16
ATOM     16  C   UNL     1      23.784 -29.050   0.463  1.00  0.00    -0.003 C 
ATOM     17  C   UNL     1      24.176 -29.549  -0.928  1.00  0.00     0.004 C 
ENDBRANCH  15  16
ENDBRANCH  14  15
ENDBRANCH  13  14
ENDBRANCH  12  13
ENDBRANCH  11  12
ENDBRANCH  10  11
ENDBRANCH   1  10
TORSDOF 13
ENDMDL
MODEL 4
REMARK VINA RESULT:    -1.113      1.644      2.765
REMARK INTER + INTRA:          -4.680
REMARK INTER:                  -2.162
REMARK INTRA:                  -2.518
REMARK UNBOUND:                -2.722
REMARK SMILES CCCCCCCCCCCCCCC(=O)[O-]
REMARK SMILES IDX 9 1 10 2 11 3 12 4 13 5 14 6 15 7 16 8 17 9 8 10 7 11 6 12
REMARK SMILES IDX 5 13 4 14 3 15 2 16 1 17
REMARK H PARENT
REMARK Flexibility Score: inf
ROOT
ATOM      1  C   UNL     1      21.971 -27.773   2.813  1.00  0.00     0.000 C 
ENDROOT
BRANCH   1   2
ATOM      2  C   UNL     1      22.458 -29.214   3.035  1.00  0.00     0.000 C 
BRANCH   2   3
ATOM      3  C   UNL     1      21.352 -30.256   2.810  1.00  0.00     0.000 C 
BRANCH   3   4
ATOM      4  C   UNL     1      19.971 -29.593   2.777  1.00  0.00     0.000 C 
BRANCH   4   5
ATOM      5  C   UNL     1      18.901 -30.571   2.267  1.00  0.00     0.006 C 
BRANCH   5   6
ATOM      6  C   UNL     1      19.507 -31.902   1.804  1.00  0.00     0.053 C 
BRANCH   6   7
ATOM      7  C   UNL     1      18.519 -33.025   1.892  1.00  0.00     0.041 C 
ATOM      8  O   UNL     1      18.506 -33.927   1.013  1.00  0.00    -0.550 OA
ATOM      9  O   UNL     1      17.636 -33.093   2.962  1.00  0.00    -0.550 OA
ENDBRANCH   6   7
ENDBRANCH   5   6
ENDBRANCH   4   5
ENDBRANCH   3   4
ENDBRANCH   2   3
ENDBRANCH   1   2
BRANCH   1  10
ATOM     10  C   UNL     1      22.867 -26.989   1.841  1.00  0.00     0.000 C 
BRANCH  10  11
ATOM     11  C   UNL     1      22.045 -25.977   1.034  1.00  0.00    -0.000 C 
BRANCH  11  12
ATOM     12  C   UNL     1      20.716 -26.588   0.572  1.00  0.00    -0.000 C 
BRANCH  12  13
ATOM     13  C   UNL     1      20.888 -27.335  -0.759  1.00  0.00    -0.000 C 
BRANCH  13  14
ATOM     14  C   UNL     1      20.175 -28.696  -0.773  1.00  0.00    -0.000 C 
BRANCH  14  15
ATOM     15  C   UNL     1      21.156 -29.876  -0.888  1.00  0.00    -0.000 C 
BRANCH  15  16
ATOM     16  C   UNL     1      22.620 -29.418  -0.979  1.00  0.00    -0.003 C 
ATOM     17  C   UNL     1      23.583 -30.356  -0.251  1.00  0.00     0.004 C 
ENDBRANCH  15  16
ENDBRANCH  14  15
ENDBRANCH  13  14
ENDBRANCH  12  13
ENDBRANCH  11  12
ENDBRANCH  10  11
ENDBRANCH   1  10
TORSDOF 13
ENDMDL
MODEL 5
REMARK VINA RESULT:    -1.111      7.158      9.160
REMARK INTER + INTRA:          -4.677
REMARK INTER:                  -2.718
REMARK INTRA:                  -1.959
REMARK UNBOUND:                -2.722
REMARK SMILES CCCCCCCCCCCCCCC(=O)[O-]
REMARK SMILES IDX 9 1 10 2 11 3 12 4 13 5 14 6 15 7 16 8 17 9 8 10 7 11 6 12
REMARK SMILES IDX 5 13 4 14 3 15 2 16 1 17
REMARK H PARENT
REMARK Flexibility Score: inf
ROOT
ATOM      1  C   UNL     1      17.791 -33.179   2.182  1.00  0.00     0.000 C 
ENDROOT
BRANCH   1   2
ATOM      2  C   UNL     1      16.362 -32.829   2.627  1.00  0.00     0.000 C 
BRANCH   2   3
ATOM      3  C   UNL     1      16.137 -31.316   2.766  1.00  0.00     0.000 C 
BRANCH   3   4
ATOM      4  C   UNL     1      15.363 -30.992   4.048  1.00  0.00     0.000 C 
BRANCH   4   5
ATOM      5  C   UNL     1      13.987 -30.387   3.724  1.00  0.00     0.006 C 
BRANCH   5   6
ATOM      6  C   UNL     1      13.842 -30.042   2.236  1.00  0.00     0.053 C 
BRANCH   6   7
ATOM      7  C   UNL     1      13.725 -28.565   2.015  1.00  0.00     0.041 C 
ATOM      8  O   UNL     1      13.469 -28.116   0.867  1.00  0.00    -0.550 OA
ATOM      9  O   UNL     1      13.866 -27.688   3.082  1.00  0.00    -0.550 OA
ENDBRANCH   6   7
ENDBRANCH   5   6
ENDBRANCH   4   5
ENDBRANCH   3   4
ENDBRANCH   2   3
ENDBRANCH   1   2
BRANCH   1  10
ATOM     10  C   UNL     1      17.819 -34.176   1.013  1.00  0.00     0.000 C 
BRANCH  10  11
ATOM     11  C   UNL     1      16.593 -35.097   1.048  1.00  0.00    -0.000 C 
BRANCH  11  12
ATOM     12  C   UNL     1      16.070 -35.374  -0.366  1.00  0.00    -0.000 C 
BRANCH  12  13
ATOM     13  C   UNL     1      14.912 -34.428  -0.719  1.00  0.00    -0.000 C 
BRANCH  13  14
ATOM     14  C   UNL     1      13.666 -34.666   0.148  1.00  0.00    -0.000 C 
BRANCH  14  15
ATOM     15  C   UNL     1      13.167 -33.381   0.832  1.00  0.00    -0.000 C 
BRANCH  15  16
ATOM     16  C   UNL     1      12.728 -33.620   2.285  1.00  0.00    -0.003 C 
ATOM     17  C   UNL     1      13.353 -34.875   2.895  1.00  0.00     0.004 C 
ENDBRANCH  15  16
ENDBRANCH  14  15
ENDBRANCH  13  14
ENDBRANCH  12  13
ENDBRANCH  11  12
ENDBRANCH  10  11
ENDBRANCH   1  10
TORSDOF 13
ENDMDL
MODEL 6
REMARK VINA RESULT:    -1.064      7.170      9.494
REMARK INTER + INTRA:          -4.595
REMARK INTER:                  -2.881
REMARK INTRA:                  -1.713
REMARK UNBOUND:                -2.722
REMARK SMILES CCCCCCCCCCCCCCC(=O)[O-]
REMARK SMILES IDX 9 1 10 2 11 3 12 4 13 5 14 6 15 7 16 8 17 9 8 10 7 11 6 12
REMARK SMILES IDX 5 13 4 14 3 15 2 16 1 17
REMARK H PARENT
REMARK Flexibility Score: inf
ROOT
ATOM      1  C   UNL     1      15.164 -32.172   2.548  1.00  0.00     0.000 C 
ENDROOT
BRANCH   1   2
ATOM      2  C   UNL     1      15.863 -33.403   1.949  1.00  0.00     0.000 C 
BRANCH   2   3
ATOM      3  C   UNL     1      17.392 -33.345   2.092  1.00  0.00     0.000 C 
BRANCH   3   4
ATOM      4  C   UNL     1      18.077 -34.172   0.998  1.00  0.00     0.000 C 
BRANCH   4   5
ATOM      5  C   UNL     1      17.057 -35.035   0.239  1.00  0.00     0.006 C 
BRANCH   5   6
ATOM      6  C   UNL     1      17.674 -35.716  -0.989  1.00  0.00     0.053 C 
BRANCH   6   7
ATOM      7  C   UNL     1      17.514 -37.205  -0.939  1.00  0.00     0.041 C 
ATOM      8  O   UNL     1      18.107 -37.876  -0.054  1.00  0.00    -0.550 OA
ATOM      9  O   UNL     1      16.684 -37.847  -1.849  1.00  0.00    -0.550 OA
ENDBRANCH   6   7
ENDBRANCH   5   6
ENDBRANCH   4   5
ENDBRANCH   3   4
ENDBRANCH   2   3
ENDBRANCH   1   2
BRANCH   1  10
ATOM     10  C   UNL     1      13.720 -32.010   2.046  1.00  0.00     0.000 C 
BRANCH  10  11
ATOM     11  C   UNL     1      13.334 -33.159   1.107  1.00  0.00    -0.000 C 
BRANCH  11  12
ATOM     12  C   UNL     1      12.335 -32.689   0.043  1.00  0.00    -0.000 C 
BRANCH  12  13
ATOM     13  C   UNL     1      12.755 -33.167  -1.355  1.00  0.00    -0.000 C 
BRANCH  13  14
ATOM     14  C   UNL     1      14.088 -33.931  -1.345  1.00  0.00    -0.000 C 
BRANCH  14  15
ATOM     15  C   UNL     1      13.942 -35.382  -1.835  1.00  0.00    -0.000 C 
BRANCH  15  16
ATOM     16  C   UNL     1      13.738 -36.377  -0.681  1.00  0.00    -0.003 C 
ATOM     17  C   UNL     1      12.864 -37.569  -1.071  1.00  0.00     0.004 C 
ENDBRANCH  15  16
ENDBRANCH  14  15
ENDBRANCH  13  14
ENDBRANCH  12  13
ENDBRANCH  11  12
ENDBRANCH  10  11
ENDBRANCH   1  10
TORSDOF 13
ENDMDL
MODEL 7
REMARK VINA RESULT:    -1.062      2.528      5.408
REMARK INTER + INTRA:          -4.590
REMARK INTER:                  -2.361
REMARK INTRA:                  -2.229
REMARK UNBOUND:                -2.722
REMARK SMILES CCCCCCCCCCCCCCC(=O)[O-]
REMARK SMILES IDX 9 1 10 2 11 3 12 4 13 5 14 6 15 7 16 8 17 9 8 10 7 11 6 12
REMARK SMILES IDX 5 13 4 14 3 15 2 16 1 17
REMARK H PARENT
REMARK Flexibility Score: inf
ROOT
ATOM      1  C   UNL     1      23.349 -29.854   0.238  1.00  0.00     0.000 C 
ENDROOT
BRANCH   1   2
ATOM      2  C   UNL     1      23.732 -29.596  -1.228  1.00  0.00     0.000 C 
BRANCH   2   3
ATOM      3  C   UNL     1      22.571 -29.021  -2.053  1.00  0.00     0.000 C 
BRANCH   3   4
ATOM      4  C   UNL     1      21.220 -29.387  -1.428  1.00  0.00     0.000 C 
BRANCH   4   5
ATOM      5  C   UNL     1      20.369 -28.131  -1.182  1.00  0.00     0.006 C 
BRANCH   5   6
ATOM      6  C   UNL     1      21.164 -26.838  -1.404  1.00  0.00     0.053 C 
BRANCH   6   7
ATOM      7  C   UNL     1      21.397 -26.099  -0.122  1.00  0.00     0.041 C 
ATOM      8  O   UNL     1      22.452 -25.431   0.041  1.00  0.00    -0.550 OA
ATOM      9  O   UNL     1      20.433 -26.119   0.877  1.00  0.00    -0.550 OA
ENDBRANCH   6   7
ENDBRANCH   5   6
ENDBRANCH   4   5
ENDBRANCH   3   4
ENDBRANCH   2   3
ENDBRANCH   1   2
BRANCH   1  10
ATOM     10  C   UNL     1      23.735 -28.691   1.165  1.00  0.00     0.000 C 
BRANCH  10  11
ATOM     11  C   UNL     1      22.715 -28.532   2.299  1.00  0.00    -0.000 C 
BRANCH  11  12
ATOM     12  C   UNL     1      21.752 -29.725   2.346  1.00  0.00    -0.000 C 
BRANCH  12  13
ATOM     13  C   UNL     1      20.293 -29.251   2.415  1.00  0.00    -0.000 C 
BRANCH  13  14
ATOM     14  C   UNL     1      19.316 -30.242   1.763  1.00  0.00    -0.000 C 
BRANCH  14  15
ATOM     15  C   UNL     1      20.010 -31.531   1.288  1.00  0.00    -0.000 C 
BRANCH  15  16
ATOM     16  C   UNL     1      19.332 -32.799   1.832  1.00  0.00    -0.003 C 
ATOM     17  C   UNL     1      17.945 -32.528   2.416  1.00  0.00     0.004 C 
ENDBRANCH  15  16
ENDBRANCH  14  15
ENDBRANCH  13  14
ENDBRANCH  12  13
ENDBRANCH  11  12
ENDBRANCH  10  11
ENDBRANCH   1  10
TORSDOF 13
ENDMDL
MODEL 8
REMARK VINA RESULT:    -1.056      6.877      9.407
REMARK INTER + INTRA:          -4.581
REMARK INTER:                  -2.441
REMARK INTRA:                  -2.140
REMARK UNBOUND:                -2.722
REMARK SMILES CCCCCCCCCCCCCCC(=O)[O-]
REMARK SMILES IDX 9 1 10 2 11 3 12 4 13 5 14 6 15 7 16 8 17 9 8 10 7 11 6 12
REMARK SMILES IDX 5 13 4 14 3 15 2 16 1 17
REMARK H PARENT
REMARK Flexibility Score: inf
ROOT
ATOM      1  C   UNL     1      12.391 -35.987   0.869  1.00  0.00     0.000 C 
ENDROOT
BRANCH   1   2
ATOM      2  C   UNL     1      13.638 -36.217   1.737  1.00  0.00     0.000 C 
BRANCH   2   3
ATOM      3  C   UNL     1      14.041 -34.971   2.540  1.00  0.00     0.000 C 
BRANCH   3   4
ATOM      4  C   UNL     1      12.906 -33.941   2.563  1.00  0.00     0.000 C 
BRANCH   4   5
ATOM      5  C   UNL     1      13.433 -32.532   2.253  1.00  0.00     0.006 C 
BRANCH   5   6
ATOM      6  C   UNL     1      14.960 -32.444   2.374  1.00  0.00     0.053 C 
BRANCH   6   7
ATOM      7  C   UNL     1      15.416 -31.049   2.673  1.00  0.00     0.041 C 
ATOM      8  O   UNL     1      16.615 -30.830   2.991  1.00  0.00    -0.550 OA
ATOM      9  O   UNL     1      14.527 -29.988   2.566  1.00  0.00    -0.550 OA
ENDBRANCH   6   7
ENDBRANCH   5   6
ENDBRANCH   4   5
ENDBRANCH   3   4
ENDBRANCH   2   3
ENDBRANCH   1   2
BRANCH   1  10
ATOM     10  C   UNL     1      12.718 -35.931  -0.632  1.00  0.00     0.000 C 
BRANCH  10  11
ATOM     11  C   UNL     1      12.860 -34.480  -1.108  1.00  0.00    -0.000 C 
BRANCH  11  12
ATOM     12  C   UNL     1      14.336 -34.088  -1.247  1.00  0.00    -0.000 C 
BRANCH  12  13
ATOM     13  C   UNL     1      15.136 -35.197  -1.946  1.00  0.00    -0.000 C 
BRANCH  13  14
ATOM     14  C   UNL     1      16.367 -35.640  -1.139  1.00  0.00    -0.000 C 
BRANCH  14  15
ATOM     15  C   UNL     1      16.616 -34.753   0.094  1.00  0.00    -0.000 C 
BRANCH  15  16
ATOM     16  C   UNL     1      18.073 -34.816   0.580  1.00  0.00    -0.003 C 
ATOM     17  C   UNL     1      18.412 -33.711   1.581  1.00  0.00     0.004 C 
ENDBRANCH  15  16
ENDBRANCH  14  15
ENDBRANCH  13  14
ENDBRANCH  12  13
ENDBRANCH  11  12
ENDBRANCH  10  11
ENDBRANCH   1  10
TORSDOF 13
ENDMDL
MODEL 9
REMARK VINA RESULT:    -1.017      6.437      8.923
REMARK INTER + INTRA:          -4.511
REMARK INTER:                  -2.853
REMARK INTRA:                  -1.658
REMARK UNBOUND:                -2.722
REMARK SMILES CCCCCCCCCCCCCCC(=O)[O-]
REMARK SMILES IDX 9 1 10 2 11 3 12 4 13 5 14 6 15 7 16 8 17 9 8 10 7 11 6 12
REMARK SMILES IDX 5 13 4 14 3 15 2 16 1 17
REMARK H PARENT
REMARK Flexibility Score: inf
ROOT
ATOM      1  C   UNL     1      13.804 -33.868  -1.358  1.00  0.00     0.000 C 
ENDROOT
BRANCH   1   2
ATOM      2  C   UNL     1      12.847 -34.139  -0.187  1.00  0.00     0.000 C 
BRANCH   2   3
ATOM      3  C   UNL     1      12.536 -32.877   0.631  1.00  0.00     0.000 C 
BRANCH   3   4
ATOM      4  C   UNL     1      12.620 -33.162   2.135  1.00  0.00     0.000 C 
BRANCH   4   5
ATOM      5  C   UNL     1      12.982 -31.890   2.918  1.00  0.00     0.006 C 
BRANCH   5   6
ATOM      6  C   UNL     1      13.348 -30.723   1.991  1.00  0.00     0.053 C 
BRANCH   6   7
ATOM      7  C   UNL     1      13.694 -29.486   2.763  1.00  0.00     0.041 C 
ATOM      8  O   UNL     1      13.939 -29.557   3.996  1.00  0.00    -0.550 OA
ATOM      9  O   UNL     1      13.779 -28.262   2.113  1.00  0.00    -0.550 OA
ENDBRANCH   6   7
ENDBRANCH   5   6
ENDBRANCH   4   5
ENDBRANCH   3   4
ENDBRANCH   2   3
ENDBRANCH   1   2
BRANCH   1  10
ATOM     10  C   UNL     1      14.936 -34.904  -1.448  1.00  0.00     0.000 C 
BRANCH  10  11
ATOM     11  C   UNL     1      15.337 -35.401  -0.054  1.00  0.00    -0.000 C 
BRANCH  11  12
ATOM     12  C   UNL     1      16.528 -34.606   0.493  1.00  0.00    -0.000 C 
BRANCH  12  13
ATOM     13  C   UNL     1      16.168 -33.919   1.820  1.00  0.00    -0.000 C 
BRANCH  13  14
ATOM     14  C   UNL     1      17.250 -32.935   2.291  1.00  0.00    -0.000 C 
BRANCH  14  15
ATOM     15  C   UNL     1      16.671 -31.763   3.102  1.00  0.00    -0.000 C 
BRANCH  15  16
ATOM     16  C   UNL     1      17.568 -30.516   3.058  1.00  0.00    -0.003 C 
ATOM     17  C   UNL     1      18.849 -30.734   2.252  1.00  0.00     0.004 C 
ENDBRANCH  15  16
ENDBRANCH  14  15
ENDBRANCH  13  14
ENDBRANCH  12  13
ENDBRANCH  11  12
ENDBRANCH  10  11
ENDBRANCH   1  10
TORSDOF 13
ENDMDL
