MODEL 1
REMARK VINA RESULT:    -3.812      0.000      0.000
REMARK INTER + INTRA:          -6.127
REMARK INTER:                  -5.594
REMARK INTRA:                  -0.533
REMARK UNBOUND:                -0.533
REMARK SMILES O=C([O-])CCCCCCCC(=O)[O-]
REMARK SMILES IDX 7 1 6 2 5 3 4 4 2 5 1 6 3 7 8 8 9 9 10 10 11 11 12 12 13 13
REMARK H PARENT
REMARK Flexibility Score: inf
ROOT
ATOM      1  C   UNL     1      11.666  35.466  22.359  1.00  0.00     0.000 C 
ENDROOT
BRANCH   1   2
ATOM      2  C   UNL     1      12.733  35.887  21.335  1.00  0.00     0.000 C 
BRANCH   2   3
ATOM      3  C   UNL     1      13.590  34.704  20.851  1.00  0.00     0.006 C 
BRANCH   3   4
ATOM      4  C   UNL     1      12.792  33.395  20.799  1.00  0.00     0.053 C 
BRANCH   4   5
ATOM      5  C   UNL     1      13.419  32.327  21.643  1.00  0.00     0.041 C 
ATOM      6  O   UNL     1      14.671  32.261  21.752  1.00  0.00    -0.550 OA
ATOM      7  O   UNL     1      12.619  31.429  22.338  1.00  0.00    -0.550 OA
ENDBRANCH   4   5
ENDBRANCH   3   4
ENDBRANCH   2   3
ENDBRANCH   1   2
BRANCH   1   8
ATOM      8  C   UNL     1      10.369  36.283  22.231  1.00  0.00     0.000 C 
BRANCH   8   9
ATOM      9  C   UNL     1       9.814  36.290  20.797  1.00  0.00     0.006 C 
BRANCH   9  10
ATOM     10  C   UNL     1       9.143  34.964  20.416  1.00  0.00     0.053 C 
BRANCH  10  11
ATOM     11  C   UNL     1       7.722  35.197  20.008  1.00  0.00     0.041 C 
ATOM     12  O   UNL     1       6.813  34.427  20.412  1.00  0.00    -0.550 OA
ATOM     13  O   UNL     1       7.411  36.237  19.142  1.00  0.00    -0.550 OA
ENDBRANCH  10  11
ENDBRANCH   9  10
ENDBRANCH   8   9
ENDBRANCH   1   8
TORSDOF 8
ENDMDL
MODEL 2
REMARK VINA RESULT:    -3.768      3.123      4.242
REMARK INTER + INTRA:          -6.063
REMARK INTER:                  -5.834
REMARK INTRA:                  -0.229
REMARK UNBOUND:                -0.533
REMARK SMILES O=C([O-])CCCCCCCC(=O)[O-]
REMARK SMILES IDX 7 1 6 2 5 3 4 4 2 5 1 6 3 7 8 8 9 9 10 10 11 11 12 12 13 13
REMARK H PARENT
REMARK Flexibility Score: inf
ROOT
ATOM      1  C   UNL     1      14.151  34.171  20.875  1.00  0.00     0.000 C 
ENDROOT
BRANCH   1   2
ATOM      2  C   UNL     1      15.565  33.763  20.432  1.00  0.00     0.000 C 
BRANCH   2   3
ATOM      3  C   UNL     1      15.996  32.401  21.005  1.00  0.00     0.006 C 
BRANCH   3   4
ATOM      4  C   UNL     1      17.516  32.308  21.196  1.00  0.00     0.053 C 
BRANCH   4   5
ATOM      5  C   UNL     1      17.879  31.415  22.343  1.00  0.00     0.041 C 
ATOM      6  O   UNL     1      17.078  31.260  23.302  1.00  0.00    -0.550 OA
ATOM      7  O   UNL     1      19.085  30.728  22.336  1.00  0.00    -0.550 OA
ENDBRANCH   4   5
ENDBRANCH   3   4
ENDBRANCH   2   3
ENDBRANCH   1   2
BRANCH   1   8
ATOM      8  C   UNL     1      13.720  35.530  20.298  1.00  0.00     0.000 C 
BRANCH   8   9
ATOM      9  C   UNL     1      12.400  36.037  20.901  1.00  0.00     0.006 C 
BRANCH   9  10
ATOM     10  C   UNL     1      11.883  35.138  22.032  1.00  0.00     0.053 C 
BRANCH  10  11
ATOM     11  C   UNL     1      10.954  35.903  22.922  1.00  0.00     0.041 C 
ATOM     12  O   UNL     1      11.068  35.826  24.173  1.00  0.00    -0.550 OA
ATOM     13  O   UNL     1       9.931  36.663  22.368  1.00  0.00    -0.550 OA
ENDBRANCH  10  11
ENDBRANCH   9  10
ENDBRANCH   8   9
ENDBRANCH   1   8
TORSDOF 8
ENDMDL
MODEL 3
REMARK VINA RESULT:    -3.754      1.144      5.439
REMARK INTER + INTRA:          -6.043
REMARK INTER:                  -5.482
REMARK INTRA:                  -0.561
REMARK UNBOUND:                -0.533
REMARK SMILES O=C([O-])CCCCCCCC(=O)[O-]
REMARK SMILES IDX 7 1 6 2 5 3 4 4 2 5 1 6 3 7 8 8 9 9 10 10 11 11 12 12 13 13
REMARK H PARENT
REMARK Flexibility Score: inf
ROOT
ATOM      1  C   UNL     1      12.551  36.209  20.685  1.00  0.00     0.000 C 
ENDROOT
BRANCH   1   2
ATOM      2  C   UNL     1      11.938  35.904  22.061  1.00  0.00     0.000 C 
BRANCH   2   3
ATOM      3  C   UNL     1      10.437  36.238  22.129  1.00  0.00     0.006 C 
BRANCH   3   4
ATOM      4  C   UNL     1       9.796  36.304  20.736  1.00  0.00     0.053 C 
BRANCH   4   5
ATOM      5  C   UNL     1       8.960  35.094  20.451  1.00  0.00     0.041 C 
ATOM      6  O   UNL     1       7.704  35.180  20.441  1.00  0.00    -0.550 OA
ATOM      7  O   UNL     1       9.569  33.879  20.162  1.00  0.00    -0.550 OA
ENDBRANCH   4   5
ENDBRANCH   3   4
ENDBRANCH   2   3
ENDBRANCH   1   2
BRANCH   1   8
ATOM      8  C   UNL     1      13.765  35.319  20.368  1.00  0.00     0.000 C 
BRANCH   8   9
ATOM      9  C   UNL     1      13.399  33.828  20.289  1.00  0.00     0.006 C 
BRANCH   9  10
ATOM     10  C   UNL     1      14.344  32.942  21.111  1.00  0.00     0.053 C 
BRANCH  10  11
ATOM     11  C   UNL     1      13.563  31.934  21.894  1.00  0.00     0.041 C 
ATOM     12  O   UNL     1      12.396  32.200  22.282  1.00  0.00    -0.550 OA
ATOM     13  O   UNL     1      14.145  30.720  22.238  1.00  0.00    -0.550 OA
ENDBRANCH  10  11
ENDBRANCH   9  10
ENDBRANCH   8   9
ENDBRANCH   1   8
TORSDOF 8
ENDMDL
MODEL 4
REMARK VINA RESULT:    -3.736      0.416      5.651
REMARK INTER + INTRA:          -6.016
REMARK INTER:                  -5.453
REMARK INTRA:                  -0.563
REMARK UNBOUND:                -0.533
REMARK SMILES O=C([O-])CCCCCCCC(=O)[O-]
REMARK SMILES IDX 7 1 6 2 5 3 4 4 2 5 1 6 3 7 8 8 9 9 10 10 11 11 12 12 13 13
REMARK H PARENT
REMARK Flexibility Score: inf
ROOT
ATOM      1  C   UNL     1      11.840  35.955  22.183  1.00  0.00     0.000 C 
ENDROOT
BRANCH   1   2
ATOM      2  C   UNL     1      10.393  36.352  21.849  1.00  0.00     0.000 C 
BRANCH   2   3
ATOM      3  C   UNL     1       9.983  35.952  20.421  1.00  0.00     0.006 C 
BRANCH   3   4
ATOM      4  C   UNL     1       9.071  34.718  20.406  1.00  0.00     0.053 C 
BRANCH   4   5
ATOM      5  C   UNL     1       7.655  35.077  20.071  1.00  0.00     0.041 C 
ATOM      6  O   UNL     1       6.702  34.415  20.558  1.00  0.00    -0.550 OA
ATOM      7  O   UNL     1       7.388  36.166  19.251  1.00  0.00    -0.550 OA
ENDBRANCH   4   5
ENDBRANCH   3   4
ENDBRANCH   2   3
ENDBRANCH   1   2
BRANCH   1   8
ATOM      8  C   UNL     1      12.708  35.771  20.926  1.00  0.00     0.000 C 
BRANCH   8   9
ATOM      9  C   UNL     1      13.289  34.352  20.813  1.00  0.00     0.006 C 
BRANCH   9  10
ATOM     10  C   UNL     1      12.417  33.298  21.507  1.00  0.00     0.053 C 
BRANCH  10  11
ATOM     11  C   UNL     1      13.232  32.091  21.850  1.00  0.00     0.041 C 
ATOM     12  O   UNL     1      12.667  31.029  22.220  1.00  0.00    -0.550 OA
ATOM     13  O   UNL     1      14.619  32.155  21.807  1.00  0.00    -0.550 OA
ENDBRANCH  10  11
ENDBRANCH   9  10
ENDBRANCH   8   9
ENDBRANCH   1   8
TORSDOF 8
ENDMDL
MODEL 5
REMARK VINA RESULT:    -3.717     16.976     18.834
REMARK INTER + INTRA:          -5.988
REMARK INTER:                  -5.432
REMARK INTRA:                  -0.556
REMARK UNBOUND:                -0.533
REMARK SMILES O=C([O-])CCCCCCCC(=O)[O-]
REMARK SMILES IDX 7 1 6 2 5 3 4 4 2 5 1 6 3 7 8 8 9 9 10 10 11 11 12 12 13 13
REMARK H PARENT
REMARK Flexibility Score: inf
ROOT
ATOM      1  C   UNL     1       9.374  48.951  31.604  1.00  0.00     0.000 C 
ENDROOT
BRANCH   1   2
ATOM      2  C   UNL     1       8.739  50.039  30.723  1.00  0.00     0.000 C 
BRANCH   2   3
ATOM      3  C   UNL     1       7.206  50.080  30.843  1.00  0.00     0.006 C 
BRANCH   3   4
ATOM      4  C   UNL     1       6.513  49.831  29.497  1.00  0.00     0.053 C 
BRANCH   4   5
ATOM      5  C   UNL     1       6.054  48.411  29.362  1.00  0.00     0.041 C 
ATOM      6  O   UNL     1       5.501  48.023  28.300  1.00  0.00    -0.550 OA
ATOM      7  O   UNL     1       6.270  47.509  30.396  1.00  0.00    -0.550 OA
ENDBRANCH   4   5
ENDBRANCH   3   4
ENDBRANCH   2   3
ENDBRANCH   1   2
BRANCH   1   8
ATOM      8  C   UNL     1       8.908  49.029  33.068  1.00  0.00     0.000 C 
BRANCH   8   9
ATOM      9  C   UNL     1       8.102  47.794  33.498  1.00  0.00     0.006 C 
BRANCH   9  10
ATOM     10  C   UNL     1       7.344  48.011  34.815  1.00  0.00     0.053 C 
BRANCH  10  11
ATOM     11  C   UNL     1       6.015  48.646  34.552  1.00  0.00     0.041 C 
ATOM     12  O   UNL     1       5.550  49.495  35.356  1.00  0.00    -0.550 OA
ATOM     13  O   UNL     1       5.269  48.263  33.445  1.00  0.00    -0.550 OA
ENDBRANCH  10  11
ENDBRANCH   9  10
ENDBRANCH   8   9
ENDBRANCH   1   8
TORSDOF 8
ENDMDL
MODEL 6
REMARK VINA RESULT:    -3.709      2.596      3.194
REMARK INTER + INTRA:          -5.976
REMARK INTER:                  -5.405
REMARK INTRA:                  -0.571
REMARK UNBOUND:                -0.533
REMARK SMILES O=C([O-])CCCCCCCC(=O)[O-]
REMARK SMILES IDX 7 1 6 2 5 3 4 4 2 5 1 6 3 7 8 8 9 9 10 10 11 11 12 12 13 13
REMARK H PARENT
REMARK Flexibility Score: inf
ROOT
ATOM      1  C   UNL     1      12.990  36.289  19.688  1.00  0.00     0.000 C 
ENDROOT
BRANCH   1   2
ATOM      2  C   UNL     1      13.439  34.820  19.736  1.00  0.00     0.000 C 
BRANCH   2   3
ATOM      3  C   UNL     1      14.536  34.569  20.785  1.00  0.00     0.006 C 
BRANCH   3   4
ATOM      4  C   UNL     1      15.371  33.322  20.463  1.00  0.00     0.053 C 
BRANCH   4   5
ATOM      5  C   UNL     1      15.229  32.270  21.520  1.00  0.00     0.041 C 
ATOM      6  O   UNL     1      16.251  31.715  22.001  1.00  0.00    -0.550 OA
ATOM      7  O   UNL     1      13.971  31.929  21.999  1.00  0.00    -0.550 OA
ENDBRANCH   4   5
ENDBRANCH   3   4
ENDBRANCH   2   3
ENDBRANCH   1   2
BRANCH   1   8
ATOM      8  C   UNL     1      11.476  36.437  19.458  1.00  0.00     0.000 C 
BRANCH   8   9
ATOM      9  C   UNL     1      10.643  35.654  20.486  1.00  0.00     0.006 C 
BRANCH   9  10
ATOM     10  C   UNL     1      10.535  36.377  21.835  1.00  0.00     0.053 C 
BRANCH  10  11
ATOM     11  C   UNL     1      11.085  35.519  22.931  1.00  0.00     0.041 C 
ATOM     12  O   UNL     1      11.529  34.370  22.674  1.00  0.00    -0.550 OA
ATOM     13  O   UNL     1      11.063  35.972  24.244  1.00  0.00    -0.550 OA
ENDBRANCH  10  11
ENDBRANCH   9  10
ENDBRANCH   8   9
ENDBRANCH   1   8
TORSDOF 8
ENDMDL
MODEL 7
REMARK VINA RESULT:    -3.696      1.189      1.774
REMARK INTER + INTRA:          -5.958
REMARK INTER:                  -5.366
REMARK INTRA:                  -0.592
REMARK UNBOUND:                -0.533
REMARK SMILES O=C([O-])CCCCCCCC(=O)[O-]
REMARK SMILES IDX 7 1 6 2 5 3 4 4 2 5 1 6 3 7 8 8 9 9 10 10 11 11 12 12 13 13
REMARK H PARENT
REMARK Flexibility Score: inf
ROOT
ATOM      1  C   UNL     1      12.769  36.251  20.385  1.00  0.00     0.000 C 
ENDROOT
BRANCH   1   2
ATOM      2  C   UNL     1      13.713  35.244  19.709  1.00  0.00     0.000 C 
BRANCH   2   3
ATOM      3  C   UNL     1      14.442  34.344  20.721  1.00  0.00     0.006 C 
BRANCH   3   4
ATOM      4  C   UNL     1      14.162  32.855  20.477  1.00  0.00     0.053 C 
BRANCH   4   5
ATOM      5  C   UNL     1      13.896  32.122  21.757  1.00  0.00     0.041 C 
ATOM      6  O   UNL     1      14.839  31.555  22.369  1.00  0.00    -0.550 OA
ATOM      7  O   UNL     1      12.614  32.097  22.291  1.00  0.00    -0.550 OA
ENDBRANCH   4   5
ENDBRANCH   3   4
ENDBRANCH   2   3
ENDBRANCH   1   2
BRANCH   1   8
ATOM      8  C   UNL     1      12.454  35.879  21.844  1.00  0.00     0.000 C 
BRANCH   8   9
ATOM      9  C   UNL     1      11.015  35.368  22.025  1.00  0.00     0.006 C 
BRANCH   9  10
ATOM     10  C   UNL     1       9.990  36.195  21.239  1.00  0.00     0.053 C 
BRANCH  10  11
ATOM     11  C   UNL     1       9.196  35.312  20.328  1.00  0.00     0.041 C 
ATOM     12  O   UNL     1       9.771  34.667  19.413  1.00  0.00    -0.550 OA
ATOM     13  O   UNL     1       7.816  35.239  20.460  1.00  0.00    -0.550 OA
ENDBRANCH  10  11
ENDBRANCH   9  10
ENDBRANCH   8   9
ENDBRANCH   1   8
TORSDOF 8
ENDMDL
MODEL 8
REMARK VINA RESULT:    -3.685     16.981     18.754
REMARK INTER + INTRA:          -5.941
REMARK INTER:                  -5.349
REMARK INTRA:                  -0.592
REMARK UNBOUND:                -0.533
REMARK SMILES O=C([O-])CCCCCCCC(=O)[O-]
REMARK SMILES IDX 7 1 6 2 5 3 4 4 2 5 1 6 3 7 8 8 9 9 10 10 11 11 12 12 13 13
REMARK H PARENT
REMARK Flexibility Score: inf
ROOT
ATOM      1  C   UNL     1       6.393  48.224  33.876  1.00  0.00     0.000 C 
ENDROOT
BRANCH   1   2
ATOM      2  C   UNL     1       5.981  49.070  32.660  1.00  0.00     0.000 C 
BRANCH   2   3
ATOM      3  C   UNL     1       5.283  48.239  31.569  1.00  0.00     0.006 C 
BRANCH   3   4
ATOM      4  C   UNL     1       6.232  47.884  30.417  1.00  0.00     0.053 C 
BRANCH   4   5
ATOM      5  C   UNL     1       5.898  48.641  29.168  1.00  0.00     0.041 C 
ATOM      6  O   UNL     1       6.110  49.881  29.104  1.00  0.00    -0.550 OA
ATOM      7  O   UNL     1       5.387  47.972  28.063  1.00  0.00    -0.550 OA
ENDBRANCH   4   5
ENDBRANCH   3   4
ENDBRANCH   2   3
ENDBRANCH   1   2
BRANCH   1   8
ATOM      8  C   UNL     1       7.860  48.447  34.281  1.00  0.00     0.000 C 
BRANCH   8   9
ATOM      9  C   UNL     1       8.823  48.366  33.086  1.00  0.00     0.006 C 
BRANCH   9  10
ATOM     10  C   UNL     1       9.673  49.633  32.923  1.00  0.00     0.053 C 
BRANCH  10  11
ATOM     11  C   UNL     1      10.138  49.770  31.507  1.00  0.00     0.041 C 
ATOM     12  O   UNL     1      11.339  50.051  31.260  1.00  0.00    -0.550 OA
ATOM     13  O   UNL     1       9.232  49.635  30.463  1.00  0.00    -0.550 OA
ENDBRANCH  10  11
ENDBRANCH   9  10
ENDBRANCH   8   9
ENDBRANCH   1   8
TORSDOF 8
ENDMDL
MODEL 9
REMARK VINA RESULT:    -2.877     17.223     18.732
REMARK INTER + INTRA:          -4.755
REMARK INTER:                  -3.962
REMARK INTRA:                  -0.794
REMARK UNBOUND:                -0.533
REMARK SMILES O=C([O-])CCCCCCCC(=O)[O-]
REMARK SMILES IDX 7 1 6 2 5 3 4 4 2 5 1 6 3 7 8 8 9 9 10 10 11 11 12 12 13 13
REMARK H PARENT
REMARK Flexibility Score: inf
ROOT
ATOM      1  C   UNL     1       8.673  50.125  31.369  1.00  0.00     0.000 C 
ENDROOT
BRANCH   1   2
ATOM      2  C   UNL     1       9.475  48.962  31.975  1.00  0.00     0.000 C 
BRANCH   2   3
ATOM      3  C   UNL     1       8.833  48.406  33.259  1.00  0.00     0.006 C 
BRANCH   3   4
ATOM      4  C   UNL     1       7.673  49.281  33.752  1.00  0.00     0.053 C 
BRANCH   4   5
ATOM      5  C   UNL     1       6.825  48.565  34.758  1.00  0.00     0.041 C 
ATOM      6  O   UNL     1       7.331  47.685  35.502  1.00  0.00    -0.550 OA
ATOM      7  O   UNL     1       5.482  48.895  34.897  1.00  0.00    -0.550 OA
ENDBRANCH   4   5
ENDBRANCH   3   4
ENDBRANCH   2   3
ENDBRANCH   1   2
BRANCH   1   8
ATOM      8  C   UNL     1       8.323  49.893  29.889  1.00  0.00     0.000 C 
BRANCH   8   9
ATOM      9  C   UNL     1       6.807  49.843  29.641  1.00  0.00     0.006 C 
BRANCH   9  10
ATOM     10  C   UNL     1       6.263  48.409  29.590  1.00  0.00     0.053 C 
BRANCH  10  11
ATOM     11  C   UNL     1       5.717  48.011  30.925  1.00  0.00     0.041 C 
ATOM     12  O   UNL     1       6.193  47.017  31.533  1.00  0.00    -0.550 OA
ATOM     13  O   UNL     1       4.649  48.709  31.475  1.00  0.00    -0.550 OA
ENDBRANCH  10  11
ENDBRANCH   9  10
ENDBRANCH   8   9
ENDBRANCH   1   8
TORSDOF 8
ENDMDL
