MODEL 1
REMARK VINA RESULT:    -4.794      0.000      0.000
REMARK INTER + INTRA:         -10.378
REMARK INTER:                  -8.718
REMARK INTRA:                  -1.660
REMARK UNBOUND:                -1.660
REMARK SMILES CCCCCCCCCCCCCCCC(=O)[O-]
REMARK SMILES IDX 9 1 10 2 11 3 12 4 13 5 14 6 15 7 16 8 17 9 18 10 8 11 7 12
REMARK SMILES IDX 6 13 5 14 4 15 3 16 2 17 1 18
REMARK H PARENT
REMARK Flexibility Score: inf
ROOT
ATOM      1  C   UNL     1     -48.901 -49.520  19.430  1.00  0.00     0.000 C 
ENDROOT
BRANCH   1   2
ATOM      2  C   UNL     1     -50.177 -50.200  19.956  1.00  0.00     0.000 C 
BRANCH   2   3
ATOM      3  C   UNL     1     -51.257 -50.350  18.872  1.00  0.00     0.000 C 
BRANCH   3   4
ATOM      4  C   UNL     1     -52.579 -49.657  19.246  1.00  0.00     0.000 C 
BRANCH   4   5
ATOM      5  C   UNL     1     -52.792 -49.593  20.775  1.00  0.00     0.000 C 
BRANCH   5   6
ATOM      6  C   UNL     1     -52.803 -48.158  21.333  1.00  0.00     0.006 C 
BRANCH   6   7
ATOM      7  C   UNL     1     -54.094 -47.789  22.079  1.00  0.00     0.053 C 
BRANCH   7   8
ATOM      8  C   UNL     1     -55.300 -47.904  21.198  1.00  0.00     0.041 C 
ATOM      9  O   UNL     1     -55.460 -47.106  20.237  1.00  0.00    -0.550 OA
ATOM     10  O   UNL     1     -56.241 -48.901  21.425  1.00  0.00    -0.550 OA
ENDBRANCH   7   8
ENDBRANCH   6   7
ENDBRANCH   5   6
ENDBRANCH   4   5
ENDBRANCH   3   4
ENDBRANCH   2   3
ENDBRANCH   1   2
BRANCH   1  11
ATOM     11  C   UNL     1     -49.161 -48.113  18.861  1.00  0.00     0.000 C 
BRANCH  11  12
ATOM     12  C   UNL     1     -47.907 -47.344  18.404  1.00  0.00    -0.000 C 
BRANCH  12  13
ATOM     13  C   UNL     1     -47.920 -47.013  16.902  1.00  0.00    -0.000 C 
BRANCH  13  14
ATOM     14  C   UNL     1     -47.158 -48.049  16.062  1.00  0.00    -0.000 C 
BRANCH  14  15
ATOM     15  C   UNL     1     -48.077 -49.132  15.470  1.00  0.00    -0.000 C 
BRANCH  15  16
ATOM     16  C   UNL     1     -47.705 -50.546  15.964  1.00  0.00    -0.000 C 
BRANCH  16  17
ATOM     17  C   UNL     1     -48.923 -51.439  16.251  1.00  0.00    -0.003 C 
ATOM     18  C   UNL     1     -50.119 -51.125  15.355  1.00  0.00     0.004 C 
ENDBRANCH  16  17
ENDBRANCH  15  16
ENDBRANCH  14  15
ENDBRANCH  13  14
ENDBRANCH  12  13
ENDBRANCH  11  12
ENDBRANCH   1  11
TORSDOF 14
ENDMDL
MODEL 2
REMARK VINA RESULT:    -4.790      2.987      7.357
REMARK INTER + INTRA:         -10.370
REMARK INTER:                  -8.952
REMARK INTRA:                  -1.418
REMARK UNBOUND:                -1.660
REMARK SMILES CCCCCCCCCCCCCCCC(=O)[O-]
REMARK SMILES IDX 9 1 10 2 11 3 12 4 13 5 14 6 15 7 16 8 17 9 18 10 8 11 7 12
REMARK SMILES IDX 6 13 5 14 4 15 3 16 2 17 1 18
REMARK H PARENT
REMARK Flexibility Score: inf
ROOT
ATOM      1  C   UNL     1     -51.869 -49.534  19.586  1.00  0.00     0.000 C 
ENDROOT
BRANCH   1   2
ATOM      2  C   UNL     1     -50.618 -50.348  19.212  1.00  0.00     0.000 C 
BRANCH   2   3
ATOM      3  C   UNL     1     -49.322 -49.727  19.758  1.00  0.00     0.000 C 
BRANCH   3   4
ATOM      4  C   UNL     1     -48.528 -48.962  18.685  1.00  0.00     0.000 C 
BRANCH   4   5
ATOM      5  C   UNL     1     -47.401 -49.822  18.070  1.00  0.00     0.000 C 
BRANCH   5   6
ATOM      6  C   UNL     1     -47.451 -49.889  16.532  1.00  0.00     0.006 C 
BRANCH   6   7
ATOM      7  C   UNL     1     -48.204 -51.112  15.985  1.00  0.00     0.053 C 
BRANCH   7   8
ATOM      8  C   UNL     1     -49.483 -50.723  15.308  1.00  0.00     0.041 C 
ATOM      9  O   UNL     1     -50.578 -51.201  15.702  1.00  0.00    -0.550 OA
ATOM     10  O   UNL     1     -49.468 -49.820  14.252  1.00  0.00    -0.550 OA
ENDBRANCH   7   8
ENDBRANCH   6   7
ENDBRANCH   5   6
ENDBRANCH   4   5
ENDBRANCH   3   4
ENDBRANCH   2   3
ENDBRANCH   1   2
BRANCH   1  11
ATOM     11  C   UNL     1     -52.438 -49.909  20.967  1.00  0.00     0.000 C 
BRANCH  11  12
ATOM     12  C   UNL     1     -52.091 -48.938  22.110  1.00  0.00    -0.000 C 
BRANCH  12  13
ATOM     13  C   UNL     1     -52.505 -47.486  21.811  1.00  0.00    -0.000 C 
BRANCH  13  14
ATOM     14  C   UNL     1     -53.630 -46.991  22.732  1.00  0.00    -0.000 C 
BRANCH  14  15
ATOM     15  C   UNL     1     -54.843 -46.449  21.954  1.00  0.00    -0.000 C 
BRANCH  15  16
ATOM     16  C   UNL     1     -55.125 -47.262  20.673  1.00  0.00    -0.000 C 
BRANCH  16  17
ATOM     17  C   UNL     1     -56.371 -48.157  20.774  1.00  0.00    -0.003 C 
ATOM     18  C   UNL     1     -56.135 -49.421  21.596  1.00  0.00     0.004 C 
ENDBRANCH  16  17
ENDBRANCH  15  16
ENDBRANCH  14  15
ENDBRANCH  13  14
ENDBRANCH  12  13
ENDBRANCH  11  12
ENDBRANCH   1  11
TORSDOF 14
ENDMDL
MODEL 3
REMARK VINA RESULT:    -4.716      1.309      1.994
REMARK INTER + INTRA:         -10.236
REMARK INTER:                  -8.716
REMARK INTRA:                  -1.520
REMARK UNBOUND:                -1.660
REMARK SMILES CCCCCCCCCCCCCCCC(=O)[O-]
REMARK SMILES IDX 9 1 10 2 11 3 12 4 13 5 14 6 15 7 16 8 17 9 18 10 8 11 7 12
REMARK SMILES IDX 6 13 5 14 4 15 3 16 2 17 1 18
REMARK H PARENT
REMARK Flexibility Score: inf
ROOT
ATOM      1  C   UNL     1     -50.207 -49.415  19.392  1.00  0.00     0.000 C 
ENDROOT
BRANCH   1   2
ATOM      2  C   UNL     1     -51.338 -49.312  20.430  1.00  0.00     0.000 C 
BRANCH   2   3
ATOM      3  C   UNL     1     -50.838 -49.504  21.871  1.00  0.00     0.000 C 
BRANCH   3   4
ATOM      4  C   UNL     1     -51.252 -48.354  22.805  1.00  0.00     0.000 C 
BRANCH   4   5
ATOM      5  C   UNL     1     -52.103 -47.289  22.078  1.00  0.00     0.000 C 
BRANCH   5   6
ATOM      6  C   UNL     1     -53.431 -46.974  22.792  1.00  0.00     0.006 C 
BRANCH   6   7
ATOM      7  C   UNL     1     -54.655 -46.985  21.864  1.00  0.00     0.053 C 
BRANCH   7   8
ATOM      8  C   UNL     1     -54.804 -48.295  21.151  1.00  0.00     0.041 C 
ATOM      9  O   UNL     1     -54.816 -49.372  21.803  1.00  0.00    -0.550 OA
ATOM     10  O   UNL     1     -54.947 -48.328  19.770  1.00  0.00    -0.550 OA
ENDBRANCH   7   8
ENDBRANCH   6   7
ENDBRANCH   5   6
ENDBRANCH   4   5
ENDBRANCH   3   4
ENDBRANCH   2   3
ENDBRANCH   1   2
BRANCH   1  11
ATOM     11  C   UNL     1     -49.385 -48.119  19.269  1.00  0.00     0.000 C 
BRANCH  11  12
ATOM     12  C   UNL     1     -47.860 -48.290  19.397  1.00  0.00    -0.000 C 
BRANCH  12  13
ATOM     13  C   UNL     1     -47.280 -49.287  18.379  1.00  0.00    -0.000 C 
BRANCH  13  14
ATOM     14  C   UNL     1     -47.561 -48.877  16.925  1.00  0.00    -0.000 C 
BRANCH  14  15
ATOM     15  C   UNL     1     -47.604 -50.078  15.963  1.00  0.00    -0.000 C 
BRANCH  15  16
ATOM     16  C   UNL     1     -48.479 -51.228  16.505  1.00  0.00    -0.000 C 
BRANCH  16  17
ATOM     17  C   UNL     1     -49.967 -51.093  16.139  1.00  0.00    -0.003 C 
ATOM     18  C   UNL     1     -50.215 -51.093  14.634  1.00  0.00     0.004 C 
ENDBRANCH  16  17
ENDBRANCH  15  16
ENDBRANCH  14  15
ENDBRANCH  13  14
ENDBRANCH  12  13
ENDBRANCH  11  12
ENDBRANCH   1  11
TORSDOF 14
ENDMDL
MODEL 4
REMARK VINA RESULT:    -4.713      3.496      7.383
REMARK INTER + INTRA:         -10.229
REMARK INTER:                  -8.730
REMARK INTRA:                  -1.499
REMARK UNBOUND:                -1.660
REMARK SMILES CCCCCCCCCCCCCCCC(=O)[O-]
REMARK SMILES IDX 9 1 10 2 11 3 12 4 13 5 14 6 15 7 16 8 17 9 18 10 8 11 7 12
REMARK SMILES IDX 6 13 5 14 4 15 3 16 2 17 1 18
REMARK H PARENT
REMARK Flexibility Score: inf
ROOT
ATOM      1  C   UNL     1     -50.699 -49.920  20.697  1.00  0.00     0.000 C 
ENDROOT
BRANCH   1   2
ATOM      2  C   UNL     1     -50.344 -48.499  20.225  1.00  0.00     0.000 C 
BRANCH   2   3
ATOM      3  C   UNL     1     -49.327 -48.495  19.072  1.00  0.00     0.000 C 
BRANCH   3   4
ATOM      4  C   UNL     1     -48.502 -49.792  18.998  1.00  0.00     0.000 C 
BRANCH   4   5
ATOM      5  C   UNL     1     -47.321 -49.677  18.009  1.00  0.00     0.000 C 
BRANCH   5   6
ATOM      6  C   UNL     1     -47.759 -49.649  16.532  1.00  0.00     0.006 C 
BRANCH   6   7
ATOM      7  C   UNL     1     -48.556 -50.887  16.095  1.00  0.00     0.053 C 
BRANCH   7   8
ATOM      8  C   UNL     1     -49.426 -50.601  14.909  1.00  0.00     0.041 C 
ATOM      9  O   UNL     1     -49.262 -49.545  14.244  1.00  0.00    -0.550 OA
ATOM     10  O   UNL     1     -50.407 -51.508  14.526  1.00  0.00    -0.550 OA
ENDBRANCH   7   8
ENDBRANCH   6   7
ENDBRANCH   5   6
ENDBRANCH   4   5
ENDBRANCH   3   4
ENDBRANCH   2   3
ENDBRANCH   1   2
BRANCH   1  11
ATOM     11  C   UNL     1     -52.203 -50.232  20.584  1.00  0.00     0.000 C 
BRANCH  11  12
ATOM     12  C   UNL     1     -53.136 -49.008  20.644  1.00  0.00    -0.000 C 
BRANCH  12  13
ATOM     13  C   UNL     1     -53.723 -48.769  22.046  1.00  0.00    -0.000 C 
BRANCH  13  14
ATOM     14  C   UNL     1     -53.422 -47.361  22.580  1.00  0.00    -0.000 C 
BRANCH  14  15
ATOM     15  C   UNL     1     -52.719 -47.378  23.949  1.00  0.00    -0.000 C 
BRANCH  15  16
ATOM     16  C   UNL     1     -51.284 -47.939  23.859  1.00  0.00    -0.000 C 
BRANCH  16  17
ATOM     17  C   UNL     1     -51.076 -49.229  24.671  1.00  0.00    -0.003 C 
ATOM     18  C   UNL     1     -49.916 -50.078  24.158  1.00  0.00     0.004 C 
ENDBRANCH  16  17
ENDBRANCH  15  16
ENDBRANCH  14  15
ENDBRANCH  13  14
ENDBRANCH  12  13
ENDBRANCH  11  12
ENDBRANCH   1  11
TORSDOF 14
ENDMDL
MODEL 5
REMARK VINA RESULT:    -4.667     12.137     13.434
REMARK INTER + INTRA:         -10.147
REMARK INTER:                  -7.856
REMARK INTRA:                  -2.292
REMARK UNBOUND:                -1.660
REMARK SMILES CCCCCCCCCCCCCCCC(=O)[O-]
REMARK SMILES IDX 9 1 10 2 11 3 12 4 13 5 14 6 15 7 16 8 17 9 18 10 8 11 7 12
REMARK SMILES IDX 6 13 5 14 4 15 3 16 2 17 1 18
REMARK H PARENT
REMARK Flexibility Score: inf
ROOT
ATOM      1  C   UNL     1     -41.150 -50.002  28.726  1.00  0.00     0.000 C 
ENDROOT
BRANCH   1   2
ATOM      2  C   UNL     1     -41.223 -49.567  30.200  1.00  0.00     0.000 C 
BRANCH   2   3
ATOM      3  C   UNL     1     -42.493 -50.072  30.904  1.00  0.00     0.000 C 
BRANCH   3   4
ATOM      4  C   UNL     1     -43.173 -51.230  30.152  1.00  0.00     0.000 C 
BRANCH   4   5
ATOM      5  C   UNL     1     -44.673 -51.349  30.500  1.00  0.00     0.000 C 
BRANCH   5   6
ATOM      6  C   UNL     1     -45.275 -50.053  31.075  1.00  0.00     0.006 C 
BRANCH   6   7
ATOM      7  C   UNL     1     -46.725 -50.201  31.559  1.00  0.00     0.053 C 
BRANCH   7   8
ATOM      8  C   UNL     1     -46.834 -50.064  33.047  1.00  0.00     0.041 C 
ATOM      9  O   UNL     1     -47.277 -49.000  33.554  1.00  0.00    -0.550 OA
ATOM     10  O   UNL     1     -46.463 -51.116  33.875  1.00  0.00    -0.550 OA
ENDBRANCH   7   8
ENDBRANCH   6   7
ENDBRANCH   5   6
ENDBRANCH   4   5
ENDBRANCH   3   4
ENDBRANCH   2   3
ENDBRANCH   1   2
BRANCH   1  11
ATOM     11  C   UNL     1     -40.508 -48.938  27.817  1.00  0.00     0.000 C 
BRANCH  11  12
ATOM     12  C   UNL     1     -40.373 -47.535  28.437  1.00  0.00    -0.000 C 
BRANCH  12  13
ATOM     13  C   UNL     1     -40.981 -46.429  27.559  1.00  0.00    -0.000 C 
BRANCH  13  14
ATOM     14  C   UNL     1     -42.354 -46.815  26.989  1.00  0.00    -0.000 C 
BRANCH  14  15
ATOM     15  C   UNL     1     -43.504 -46.567  27.982  1.00  0.00    -0.000 C 
BRANCH  15  16
ATOM     16  C   UNL     1     -44.153 -47.882  28.462  1.00  0.00    -0.000 C 
BRANCH  16  17
ATOM     17  C   UNL     1     -44.979 -48.593  27.376  1.00  0.00    -0.003 C 
ATOM     18  C   UNL     1     -44.400 -49.947  26.975  1.00  0.00     0.004 C 
ENDBRANCH  16  17
ENDBRANCH  15  16
ENDBRANCH  14  15
ENDBRANCH  13  14
ENDBRANCH  12  13
ENDBRANCH  11  12
ENDBRANCH   1  11
TORSDOF 14
ENDMDL
MODEL 6
REMARK VINA RESULT:    -4.652     12.073     14.263
REMARK INTER + INTRA:         -10.120
REMARK INTER:                  -8.529
REMARK INTRA:                  -1.591
REMARK UNBOUND:                -1.660
REMARK SMILES CCCCCCCCCCCCCCCC(=O)[O-]
REMARK SMILES IDX 9 1 10 2 11 3 12 4 13 5 14 6 15 7 16 8 17 9 18 10 8 11 7 12
REMARK SMILES IDX 6 13 5 14 4 15 3 16 2 17 1 18
REMARK H PARENT
REMARK Flexibility Score: inf
ROOT
ATOM      1  C   UNL     1     -41.261 -49.238  29.793  1.00  0.00     0.000 C 
ENDROOT
BRANCH   1   2
ATOM      2  C   UNL     1     -39.868 -48.598  29.658  1.00  0.00     0.000 C 
BRANCH   2   3
ATOM      3  C   UNL     1     -39.654 -47.928  28.291  1.00  0.00     0.000 C 
BRANCH   3   4
ATOM      4  C   UNL     1     -40.771 -46.932  27.933  1.00  0.00     0.000 C 
BRANCH   4   5
ATOM      5  C   UNL     1     -41.290 -47.131  26.492  1.00  0.00     0.000 C 
BRANCH   5   6
ATOM      6  C   UNL     1     -41.794 -48.559  26.213  1.00  0.00     0.006 C 
BRANCH   6   7
ATOM      7  C   UNL     1     -43.223 -48.823  26.710  1.00  0.00     0.053 C 
BRANCH   7   8
ATOM      8  C   UNL     1     -43.979 -49.725  25.782  1.00  0.00     0.041 C 
ATOM      9  O   UNL     1     -45.005 -50.332  26.185  1.00  0.00    -0.550 OA
ATOM     10  O   UNL     1     -43.561 -49.884  24.466  1.00  0.00    -0.550 OA
ENDBRANCH   7   8
ENDBRANCH   6   7
ENDBRANCH   5   6
ENDBRANCH   4   5
ENDBRANCH   3   4
ENDBRANCH   2   3
ENDBRANCH   1   2
BRANCH   1  11
ATOM     11  C   UNL     1     -41.452 -49.987  31.125  1.00  0.00     0.000 C 
BRANCH  11  12
ATOM     12  C   UNL     1     -42.761 -50.789  31.249  1.00  0.00    -0.000 C 
BRANCH  12  13
ATOM     13  C   UNL     1     -43.407 -51.097  29.888  1.00  0.00    -0.000 C 
BRANCH  13  14
ATOM     14  C   UNL     1     -44.801 -50.468  29.740  1.00  0.00    -0.000 C 
BRANCH  14  15
ATOM     15  C   UNL     1     -45.230 -49.665  30.982  1.00  0.00    -0.000 C 
BRANCH  15  16
ATOM     16  C   UNL     1     -46.618 -50.093  31.502  1.00  0.00    -0.000 C 
BRANCH  16  17
ATOM     17  C   UNL     1     -46.561 -50.934  32.788  1.00  0.00    -0.003 C 
ATOM     18  C   UNL     1     -46.047 -52.352  32.554  1.00  0.00     0.004 C 
ENDBRANCH  16  17
ENDBRANCH  15  16
ENDBRANCH  14  15
ENDBRANCH  13  14
ENDBRANCH  12  13
ENDBRANCH  11  12
ENDBRANCH   1  11
TORSDOF 14
ENDMDL
MODEL 7
REMARK VINA RESULT:    -4.651      1.354      2.896
REMARK INTER + INTRA:         -10.118
REMARK INTER:                  -8.701
REMARK INTRA:                  -1.417
REMARK UNBOUND:                -1.660
REMARK SMILES CCCCCCCCCCCCCCCC(=O)[O-]
REMARK SMILES IDX 9 1 10 2 11 3 12 4 13 5 14 6 15 7 16 8 17 9 18 10 8 11 7 12
REMARK SMILES IDX 6 13 5 14 4 15 3 16 2 17 1 18
REMARK H PARENT
REMARK Flexibility Score: inf
ROOT
ATOM      1  C   UNL     1     -49.172 -48.422  19.879  1.00  0.00     0.000 C 
ENDROOT
BRANCH   1   2
ATOM      2  C   UNL     1     -49.430 -47.624  21.169  1.00  0.00     0.000 C 
BRANCH   2   3
ATOM      3  C   UNL     1     -50.924 -47.355  21.410  1.00  0.00     0.000 C 
BRANCH   3   4
ATOM      4  C   UNL     1     -51.320 -47.470  22.892  1.00  0.00     0.000 C 
BRANCH   4   5
ATOM      5  C   UNL     1     -52.518 -48.421  23.104  1.00  0.00     0.000 C 
BRANCH   5   6
ATOM      6  C   UNL     1     -53.374 -48.621  21.838  1.00  0.00     0.006 C 
BRANCH   6   7
ATOM      7  C   UNL     1     -54.561 -47.653  21.729  1.00  0.00     0.053 C 
BRANCH   7   8
ATOM      8  C   UNL     1     -55.484 -48.025  20.609  1.00  0.00     0.041 C 
ATOM      9  O   UNL     1     -55.018 -48.351  19.486  1.00  0.00    -0.550 OA
ATOM     10  O   UNL     1     -56.859 -48.030  20.809  1.00  0.00    -0.550 OA
ENDBRANCH   7   8
ENDBRANCH   6   7
ENDBRANCH   5   6
ENDBRANCH   4   5
ENDBRANCH   3   4
ENDBRANCH   2   3
ENDBRANCH   1   2
BRANCH   1  11
ATOM     11  C   UNL     1     -50.436 -49.118  19.340  1.00  0.00     0.000 C 
BRANCH  11  12
ATOM     12  C   UNL     1     -50.183 -50.358  18.462  1.00  0.00    -0.000 C 
BRANCH  12  13
ATOM     13  C   UNL     1     -48.688 -50.635  18.231  1.00  0.00    -0.000 C 
BRANCH  13  14
ATOM     14  C   UNL     1     -48.406 -51.238  16.847  1.00  0.00    -0.000 C 
BRANCH  14  15
ATOM     15  C   UNL     1     -47.683 -50.259  15.904  1.00  0.00    -0.000 C 
BRANCH  15  16
ATOM     16  C   UNL     1     -47.245 -48.968  16.629  1.00  0.00    -0.000 C 
BRANCH  16  17
ATOM     17  C   UNL     1     -47.690 -47.681  15.915  1.00  0.00    -0.003 C 
ATOM     18  C   UNL     1     -47.987 -46.535  16.878  1.00  0.00     0.004 C 
ENDBRANCH  16  17
ENDBRANCH  15  16
ENDBRANCH  14  15
ENDBRANCH  13  14
ENDBRANCH  12  13
ENDBRANCH  11  12
ENDBRANCH   1  11
TORSDOF 14
ENDMDL
MODEL 8
REMARK VINA RESULT:    -4.596     12.416     13.628
REMARK INTER + INTRA:         -10.018
REMARK INTER:                  -8.052
REMARK INTRA:                  -1.966
REMARK UNBOUND:                -1.660
REMARK SMILES CCCCCCCCCCCCCCCC(=O)[O-]
REMARK SMILES IDX 9 1 10 2 11 3 12 4 13 5 14 6 15 7 16 8 17 9 18 10 8 11 7 12
REMARK SMILES IDX 6 13 5 14 4 15 3 16 2 17 1 18
REMARK H PARENT
REMARK Flexibility Score: inf
ROOT
ATOM      1  C   UNL     1     -41.862 -49.696  30.204  1.00  0.00     0.000 C 
ENDROOT
BRANCH   1   2
ATOM      2  C   UNL     1     -43.068 -50.533  30.665  1.00  0.00     0.000 C 
BRANCH   2   3
ATOM      3  C   UNL     1     -44.251 -50.454  29.687  1.00  0.00     0.000 C 
BRANCH   3   4
ATOM      4  C   UNL     1     -45.144 -49.224  29.926  1.00  0.00     0.000 C 
BRANCH   4   5
ATOM      5  C   UNL     1     -45.607 -49.116  31.396  1.00  0.00     0.000 C 
BRANCH   5   6
ATOM      6  C   UNL     1     -46.802 -50.028  31.730  1.00  0.00     0.006 C 
BRANCH   6   7
ATOM      7  C   UNL     1     -46.611 -50.863  33.006  1.00  0.00     0.053 C 
BRANCH   7   8
ATOM      8  C   UNL     1     -45.660 -52.000  32.791  1.00  0.00     0.041 C 
ATOM      9  O   UNL     1     -45.845 -52.810  31.845  1.00  0.00    -0.550 OA
ATOM     10  O   UNL     1     -44.559 -52.159  33.625  1.00  0.00    -0.550 OA
ENDBRANCH   7   8
ENDBRANCH   6   7
ENDBRANCH   5   6
ENDBRANCH   4   5
ENDBRANCH   3   4
ENDBRANCH   2   3
ENDBRANCH   1   2
BRANCH   1  11
ATOM     11  C   UNL     1     -41.362 -50.085  28.800  1.00  0.00     0.000 C 
BRANCH  11  12
ATOM     12  C   UNL     1     -40.254 -49.186  28.222  1.00  0.00    -0.000 C 
BRANCH  12  13
ATOM     13  C   UNL     1     -40.202 -47.797  28.882  1.00  0.00    -0.000 C 
BRANCH  13  14
ATOM     14  C   UNL     1     -40.180 -46.655  27.854  1.00  0.00    -0.000 C 
BRANCH  14  15
ATOM     15  C   UNL     1     -41.265 -46.803  26.773  1.00  0.00    -0.000 C 
BRANCH  15  16
ATOM     16  C   UNL     1     -42.687 -46.814  27.372  1.00  0.00    -0.000 C 
BRANCH  16  17
ATOM     17  C   UNL     1     -43.599 -47.899  26.775  1.00  0.00    -0.003 C 
ATOM     18  C   UNL     1     -42.923 -48.705  25.669  1.00  0.00     0.004 C 
ENDBRANCH  16  17
ENDBRANCH  15  16
ENDBRANCH  14  15
ENDBRANCH  13  14
ENDBRANCH  12  13
ENDBRANCH  11  12
ENDBRANCH   1  11
TORSDOF 14
ENDMDL
MODEL 9
REMARK VINA RESULT:    -4.583      4.053      7.451
REMARK INTER + INTRA:          -9.994
REMARK INTER:                  -7.984
REMARK INTRA:                  -2.010
REMARK UNBOUND:                -1.660
REMARK SMILES CCCCCCCCCCCCCCCC(=O)[O-]
REMARK SMILES IDX 9 1 10 2 11 3 12 4 13 5 14 6 15 7 16 8 17 9 18 10 8 11 7 12
REMARK SMILES IDX 6 13 5 14 4 15 3 16 2 17 1 18
REMARK H PARENT
REMARK Flexibility Score: inf
ROOT
ATOM      1  C   UNL     1     -50.155 -49.694  22.508  1.00  0.00     0.000 C 
ENDROOT
BRANCH   1   2
ATOM      2  C   UNL     1     -49.299 -48.543  21.953  1.00  0.00     0.000 C 
BRANCH   2   3
ATOM      3  C   UNL     1     -49.918 -47.894  20.704  1.00  0.00     0.000 C 
BRANCH   3   4
ATOM      4  C   UNL     1     -50.692 -48.897  19.830  1.00  0.00     0.000 C 
BRANCH   4   5
ATOM      5  C   UNL     1     -49.797 -49.538  18.746  1.00  0.00     0.000 C 
BRANCH   5   6
ATOM      6  C   UNL     1     -48.510 -48.740  18.464  1.00  0.00     0.006 C 
BRANCH   6   7
ATOM      7  C   UNL     1     -47.323 -49.608  18.021  1.00  0.00     0.053 C 
BRANCH   7   8
ATOM      8  C   UNL     1     -47.645 -50.412  16.798  1.00  0.00     0.041 C 
ATOM      9  O   UNL     1     -47.795 -49.841  15.686  1.00  0.00    -0.550 OA
ATOM     10  O   UNL     1     -47.763 -51.794  16.880  1.00  0.00    -0.550 OA
ENDBRANCH   7   8
ENDBRANCH   6   7
ENDBRANCH   5   6
ENDBRANCH   4   5
ENDBRANCH   3   4
ENDBRANCH   2   3
ENDBRANCH   1   2
BRANCH   1  11
ATOM     11  C   UNL     1     -49.846 -50.015  23.982  1.00  0.00     0.000 C 
BRANCH  11  12
ATOM     12  C   UNL     1     -50.791 -49.366  25.011  1.00  0.00    -0.000 C 
BRANCH  12  13
ATOM     13  C   UNL     1     -50.331 -47.965  25.448  1.00  0.00    -0.000 C 
BRANCH  13  14
ATOM     14  C   UNL     1     -51.325 -46.864  25.048  1.00  0.00    -0.000 C 
BRANCH  14  15
ATOM     15  C   UNL     1     -52.542 -47.409  24.279  1.00  0.00    -0.000 C 
BRANCH  15  16
ATOM     16  C   UNL     1     -52.662 -46.796  22.868  1.00  0.00    -0.000 C 
BRANCH  16  17
ATOM     17  C   UNL     1     -53.760 -47.443  22.008  1.00  0.00    -0.003 C 
ATOM     18  C   UNL     1     -53.728 -48.968  22.044  1.00  0.00     0.004 C 
ENDBRANCH  16  17
ENDBRANCH  15  16
ENDBRANCH  14  15
ENDBRANCH  13  14
ENDBRANCH  12  13
ENDBRANCH  11  12
ENDBRANCH   1  11
TORSDOF 14
ENDMDL
