MODEL 1
REMARK VINA RESULT:    -5.004      0.000      0.000
REMARK INTER + INTRA:          -8.001
REMARK INTER:                  -7.637
REMARK INTRA:                  -0.364
REMARK UNBOUND:                -0.364
REMARK SMILES CCCCCCCCCCC(=O)[O-]
REMARK SMILES IDX 7 1 8 2 9 3 10 4 11 5 12 6 13 7 6 8 5 9 4 10 3 11 2 12 1 13
REMARK H PARENT
REMARK Flexibility Score: inf
ROOT
ATOM      1  C   UNL     1      -4.557  35.822  19.472  1.00  0.00     0.000 C 
ENDROOT
BRANCH   1   2
ATOM      2  C   UNL     1      -5.502  35.740  20.683  1.00  0.00     0.000 C 
BRANCH   2   3
ATOM      3  C   UNL     1      -4.786  36.028  22.011  1.00  0.00     0.006 C 
BRANCH   3   4
ATOM      4  C   UNL     1      -5.761  36.387  23.140  1.00  0.00     0.053 C 
BRANCH   4   5
ATOM      5  C   UNL     1      -5.171  37.441  24.023  1.00  0.00     0.041 C 
ATOM      6  O   UNL     1      -4.765  37.145  25.178  1.00  0.00    -0.550 OA
ATOM      7  O   UNL     1      -5.024  38.740  23.554  1.00  0.00    -0.550 OA
ENDBRANCH   4   5
ENDBRANCH   3   4
ENDBRANCH   2   3
ENDBRANCH   1   2
BRANCH   1   8
ATOM      8  C   UNL     1      -4.114  37.262  19.153  1.00  0.00     0.000 C 
BRANCH   8   9
ATOM      9  C   UNL     1      -3.055  37.390  18.042  1.00  0.00    -0.000 C 
BRANCH   9  10
ATOM     10  C   UNL     1      -3.098  36.227  17.036  1.00  0.00    -0.000 C 
BRANCH  10  11
ATOM     11  C   UNL     1      -2.314  36.523  15.745  1.00  0.00    -0.000 C 
BRANCH  11  12
ATOM     12  C   UNL     1      -3.152  36.509  14.454  1.00  0.00    -0.003 C 
ATOM     13  C   UNL     1      -4.001  37.766  14.276  1.00  0.00     0.004 C 
ENDBRANCH  11  12
ENDBRANCH  10  11
ENDBRANCH   9  10
ENDBRANCH   8   9
ENDBRANCH   1   8
TORSDOF 9
ENDMDL
MODEL 2
REMARK VINA RESULT:    -4.922      3.833      6.996
REMARK INTER + INTRA:          -7.875
REMARK INTER:                  -7.181
REMARK INTRA:                  -0.694
REMARK UNBOUND:                -0.364
REMARK SMILES CCCCCCCCCCC(=O)[O-]
REMARK SMILES IDX 7 1 8 2 9 3 10 4 11 5 12 6 13 7 6 8 5 9 4 10 3 11 2 12 1 13
REMARK H PARENT
REMARK Flexibility Score: inf
ROOT
ATOM      1  C   UNL     1      -4.025  37.161  19.212  1.00  0.00     0.000 C 
ENDROOT
BRANCH   1   2
ATOM      2  C   UNL     1      -2.540  37.487  18.975  1.00  0.00     0.000 C 
BRANCH   2   3
ATOM      3  C   UNL     1      -2.072  37.113  17.560  1.00  0.00     0.006 C 
BRANCH   3   4
ATOM      4  C   UNL     1      -3.165  36.407  16.747  1.00  0.00     0.053 C 
BRANCH   4   5
ATOM      5  C   UNL     1      -3.133  36.865  15.323  1.00  0.00     0.041 C 
ATOM      6  O   UNL     1      -2.540  36.178  14.449  1.00  0.00    -0.550 OA
ATOM      7  O   UNL     1      -3.799  38.025  14.950  1.00  0.00    -0.550 OA
ENDBRANCH   4   5
ENDBRANCH   3   4
ENDBRANCH   2   3
ENDBRANCH   1   2
BRANCH   1   8
ATOM      8  C   UNL     1      -4.233  35.974  20.171  1.00  0.00     0.000 C 
BRANCH   8   9
ATOM      9  C   UNL     1      -5.702  35.654  20.508  1.00  0.00    -0.000 C 
BRANCH   9  10
ATOM     10  C   UNL     1      -6.003  35.737  22.013  1.00  0.00    -0.000 C 
BRANCH  10  11
ATOM     11  C   UNL     1      -4.852  36.363  22.821  1.00  0.00    -0.000 C 
BRANCH  11  12
ATOM     12  C   UNL     1      -5.161  37.737  23.442  1.00  0.00    -0.003 C 
ATOM     13  C   UNL     1      -4.647  38.904  22.600  1.00  0.00     0.004 C 
ENDBRANCH  11  12
ENDBRANCH  10  11
ENDBRANCH   9  10
ENDBRANCH   8   9
ENDBRANCH   1   8
TORSDOF 9
ENDMDL
MODEL 3
REMARK VINA RESULT:    -4.917      0.798      1.367
REMARK INTER + INTRA:          -7.868
REMARK INTER:                  -7.412
REMARK INTRA:                  -0.456
REMARK UNBOUND:                -0.364
REMARK SMILES CCCCCCCCCCC(=O)[O-]
REMARK SMILES IDX 7 1 8 2 9 3 10 4 11 5 12 6 13 7 6 8 5 9 4 10 3 11 2 12 1 13
REMARK H PARENT
REMARK Flexibility Score: inf
ROOT
ATOM      1  C   UNL     1      -5.718  36.000  20.882  1.00  0.00     0.000 C 
ENDROOT
BRANCH   1   2
ATOM      2  C   UNL     1      -4.714  35.376  21.866  1.00  0.00     0.000 C 
BRANCH   2   3
ATOM      3  C   UNL     1      -5.304  35.194  23.274  1.00  0.00     0.006 C 
BRANCH   3   4
ATOM      4  C   UNL     1      -6.098  36.420  23.742  1.00  0.00     0.053 C 
BRANCH   4   5
ATOM      5  C   UNL     1      -5.175  37.457  24.299  1.00  0.00     0.041 C 
ATOM      6  O   UNL     1      -4.686  37.318  25.451  1.00  0.00    -0.550 OA
ATOM      7  O   UNL     1      -4.816  38.555  23.527  1.00  0.00    -0.550 OA
ENDBRANCH   4   5
ENDBRANCH   3   4
ENDBRANCH   2   3
ENDBRANCH   1   2
BRANCH   1   8
ATOM      8  C   UNL     1      -5.057  36.973  19.888  1.00  0.00     0.000 C 
BRANCH   8   9
ATOM      9  C   UNL     1      -3.861  36.398  19.105  1.00  0.00    -0.000 C 
BRANCH   9  10
ATOM     10  C   UNL     1      -3.451  37.274  17.909  1.00  0.00    -0.000 C 
BRANCH  10  11
ATOM     11  C   UNL     1      -2.063  36.912  17.351  1.00  0.00    -0.000 C 
BRANCH  11  12
ATOM     12  C   UNL     1      -2.076  36.140  16.019  1.00  0.00    -0.003 C 
ATOM     13  C   UNL     1      -3.188  36.593  15.074  1.00  0.00     0.004 C 
ENDBRANCH  11  12
ENDBRANCH  10  11
ENDBRANCH   9  10
ENDBRANCH   8   9
ENDBRANCH   1   8
TORSDOF 9
ENDMDL
MODEL 4
REMARK VINA RESULT:    -4.885      3.685      6.902
REMARK INTER + INTRA:          -7.819
REMARK INTER:                  -6.982
REMARK INTRA:                  -0.837
REMARK UNBOUND:                -0.364
REMARK SMILES CCCCCCCCCCC(=O)[O-]
REMARK SMILES IDX 7 1 8 2 9 3 10 4 11 5 12 6 13 7 6 8 5 9 4 10 3 11 2 12 1 13
REMARK H PARENT
REMARK Flexibility Score: inf
ROOT
ATOM      1  C   UNL     1      -5.098  36.428  19.568  1.00  0.00     0.000 C 
ENDROOT
BRANCH   1   2
ATOM      2  C   UNL     1      -3.773  37.175  19.802  1.00  0.00     0.000 C 
BRANCH   2   3
ATOM      3  C   UNL     1      -2.909  37.256  18.534  1.00  0.00     0.006 C 
BRANCH   3   4
ATOM      4  C   UNL     1      -3.427  36.349  17.410  1.00  0.00     0.053 C 
BRANCH   4   5
ATOM      5  C   UNL     1      -2.942  36.838  16.081  1.00  0.00     0.041 C 
ATOM      6  O   UNL     1      -3.575  37.738  15.468  1.00  0.00    -0.550 OA
ATOM      7  O   UNL     1      -1.766  36.334  15.542  1.00  0.00    -0.550 OA
ENDBRANCH   4   5
ENDBRANCH   3   4
ENDBRANCH   2   3
ENDBRANCH   1   2
BRANCH   1   8
ATOM      8  C   UNL     1      -5.667  35.799  20.853  1.00  0.00     0.000 C 
BRANCH   8   9
ATOM      9  C   UNL     1      -4.671  35.681  22.021  1.00  0.00    -0.000 C 
BRANCH   9  10
ATOM     10  C   UNL     1      -5.347  35.784  23.398  1.00  0.00    -0.000 C 
BRANCH  10  11
ATOM     11  C   UNL     1      -5.926  37.183  23.678  1.00  0.00    -0.000 C 
BRANCH  11  12
ATOM     12  C   UNL     1      -4.914  38.339  23.585  1.00  0.00    -0.003 C 
ATOM     13  C   UNL     1      -5.254  39.346  22.487  1.00  0.00     0.004 C 
ENDBRANCH  11  12
ENDBRANCH  10  11
ENDBRANCH   9  10
ENDBRANCH   8   9
ENDBRANCH   1   8
TORSDOF 9
ENDMDL
MODEL 5
REMARK VINA RESULT:    -4.556      1.133      1.513
REMARK INTER + INTRA:          -7.317
REMARK INTER:                  -6.770
REMARK INTRA:                  -0.547
REMARK UNBOUND:                -0.364
REMARK SMILES CCCCCCCCCCC(=O)[O-]
REMARK SMILES IDX 7 1 8 2 9 3 10 4 11 5 12 6 13 7 6 8 5 9 4 10 3 11 2 12 1 13
REMARK H PARENT
REMARK Flexibility Score: inf
ROOT
ATOM      1  C   UNL     1      -3.767  35.778  20.445  1.00  0.00     0.000 C 
ENDROOT
BRANCH   1   2
ATOM      2  C   UNL     1      -4.866  35.150  21.319  1.00  0.00     0.000 C 
BRANCH   2   3
ATOM      3  C   UNL     1      -5.782  36.203  21.963  1.00  0.00     0.006 C 
BRANCH   3   4
ATOM      4  C   UNL     1      -5.053  37.056  23.010  1.00  0.00     0.053 C 
BRANCH   4   5
ATOM      5  C   UNL     1      -5.133  38.506  22.648  1.00  0.00     0.041 C 
ATOM      6  O   UNL     1      -5.425  38.850  21.472  1.00  0.00    -0.550 OA
ATOM      7  O   UNL     1      -4.932  39.477  23.620  1.00  0.00    -0.550 OA
ENDBRANCH   4   5
ENDBRANCH   3   4
ENDBRANCH   2   3
ENDBRANCH   1   2
BRANCH   1   8
ATOM      8  C   UNL     1      -4.227  36.041  18.999  1.00  0.00     0.000 C 
BRANCH   8   9
ATOM      9  C   UNL     1      -3.603  37.279  18.329  1.00  0.00    -0.000 C 
BRANCH   9  10
ATOM     10  C   UNL     1      -2.450  36.927  17.374  1.00  0.00    -0.000 C 
BRANCH  10  11
ATOM     11  C   UNL     1      -2.879  35.979  16.240  1.00  0.00    -0.000 C 
BRANCH  11  12
ATOM     12  C   UNL     1      -2.672  36.526  14.817  1.00  0.00    -0.003 C 
ATOM     13  C   UNL     1      -3.868  37.324  14.301  1.00  0.00     0.004 C 
ENDBRANCH  11  12
ENDBRANCH  10  11
ENDBRANCH   9  10
ENDBRANCH   8   9
ENDBRANCH   1   8
TORSDOF 9
ENDMDL
MODEL 6
REMARK VINA RESULT:    -4.426      3.764      7.234
REMARK INTER + INTRA:          -7.119
REMARK INTER:                  -6.722
REMARK INTRA:                  -0.396
REMARK UNBOUND:                -0.364
REMARK SMILES CCCCCCCCCCC(=O)[O-]
REMARK SMILES IDX 7 1 8 2 9 3 10 4 11 5 12 6 13 7 6 8 5 9 4 10 3 11 2 12 1 13
REMARK H PARENT
REMARK Flexibility Score: inf
ROOT
ATOM      1  C   UNL     1      -4.703  35.861  20.773  1.00  0.00     0.000 C 
ENDROOT
BRANCH   1   2
ATOM      2  C   UNL     1      -3.504  35.932  19.811  1.00  0.00     0.000 C 
BRANCH   2   3
ATOM      3  C   UNL     1      -3.928  36.198  18.358  1.00  0.00     0.006 C 
BRANCH   3   4
ATOM      4  C   UNL     1      -3.116  37.324  17.705  1.00  0.00     0.053 C 
BRANCH   4   5
ATOM      5  C   UNL     1      -2.839  37.003  16.271  1.00  0.00     0.041 C 
ATOM      6  O   UNL     1      -2.001  36.111  15.972  1.00  0.00    -0.550 OA
ATOM      7  O   UNL     1      -3.541  37.653  15.264  1.00  0.00    -0.550 OA
ENDBRANCH   4   5
ENDBRANCH   3   4
ENDBRANCH   2   3
ENDBRANCH   1   2
BRANCH   1   8
ATOM      8  C   UNL     1      -5.450  37.202  20.900  1.00  0.00     0.000 C 
BRANCH   8   9
ATOM      9  C   UNL     1      -4.691  38.305  21.661  1.00  0.00    -0.000 C 
BRANCH   9  10
ATOM     10  C   UNL     1      -5.012  38.325  23.165  1.00  0.00    -0.000 C 
BRANCH  10  11
ATOM     11  C   UNL     1      -5.912  37.154  23.601  1.00  0.00    -0.000 C 
BRANCH  11  12
ATOM     12  C   UNL     1      -5.607  36.580  24.996  1.00  0.00    -0.003 C 
ATOM     13  C   UNL     1      -4.504  37.342  25.730  1.00  0.00     0.004 C 
ENDBRANCH  11  12
ENDBRANCH  10  11
ENDBRANCH   9  10
ENDBRANCH   8   9
ENDBRANCH   1   8
TORSDOF 9
ENDMDL
MODEL 7
REMARK VINA RESULT:    -3.928      1.473      2.009
REMARK INTER + INTRA:          -6.358
REMARK INTER:                  -5.928
REMARK INTRA:                  -0.430
REMARK UNBOUND:                -0.364
REMARK SMILES CCCCCCCCCCC(=O)[O-]
REMARK SMILES IDX 7 1 8 2 9 3 10 4 11 5 12 6 13 7 6 8 5 9 4 10 3 11 2 12 1 13
REMARK H PARENT
REMARK Flexibility Score: inf
ROOT
ATOM      1  C   UNL     1      -4.685  35.489  20.545  1.00  0.00     0.000 C 
ENDROOT
BRANCH   1   2
ATOM      2  C   UNL     1      -5.750  35.873  21.587  1.00  0.00     0.000 C 
BRANCH   2   3
ATOM      3  C   UNL     1      -5.365  35.442  23.011  1.00  0.00     0.006 C 
BRANCH   3   4
ATOM      4  C   UNL     1      -6.037  36.303  24.089  1.00  0.00     0.053 C 
BRANCH   4   5
ATOM      5  C   UNL     1      -5.116  37.395  24.533  1.00  0.00     0.041 C 
ATOM      6  O   UNL     1      -4.484  37.289  25.617  1.00  0.00    -0.550 OA
ATOM      7  O   UNL     1      -4.918  38.509  23.727  1.00  0.00    -0.550 OA
ENDBRANCH   4   5
ENDBRANCH   3   4
ENDBRANCH   2   3
ENDBRANCH   1   2
BRANCH   1   8
ATOM      8  C   UNL     1      -5.226  35.499  19.104  1.00  0.00     0.000 C 
BRANCH   8   9
ATOM      9  C   UNL     1      -4.294  34.870  18.051  1.00  0.00    -0.000 C 
BRANCH   9  10
ATOM     10  C   UNL     1      -3.923  35.845  16.920  1.00  0.00    -0.000 C 
BRANCH  10  11
ATOM     11  C   UNL     1      -2.403  35.959  16.702  1.00  0.00    -0.000 C 
BRANCH  11  12
ATOM     12  C   UNL     1      -1.768  37.268  17.205  1.00  0.00    -0.003 C 
ATOM     13  C   UNL     1      -2.145  37.602  18.647  1.00  0.00     0.004 C 
ENDBRANCH  11  12
ENDBRANCH  10  11
ENDBRANCH   9  10
ENDBRANCH   8   9
ENDBRANCH   1   8
TORSDOF 9
ENDMDL
MODEL 8
REMARK VINA RESULT:    -3.920      1.721      2.714
REMARK INTER + INTRA:          -6.347
REMARK INTER:                  -5.645
REMARK INTRA:                  -0.702
REMARK UNBOUND:                -0.364
REMARK SMILES CCCCCCCCCCC(=O)[O-]
REMARK SMILES IDX 7 1 8 2 9 3 10 4 11 5 12 6 13 7 6 8 5 9 4 10 3 11 2 12 1 13
REMARK H PARENT
REMARK Flexibility Score: inf
ROOT
ATOM      1  C   UNL     1      -5.633  34.602  18.782  1.00  0.00     0.000 C 
ENDROOT
BRANCH   1   2
ATOM      2  C   UNL     1      -5.795  35.536  19.993  1.00  0.00     0.000 C 
BRANCH   2   3
ATOM      3  C   UNL     1      -4.447  36.026  20.545  1.00  0.00     0.006 C 
BRANCH   3   4
ATOM      4  C   UNL     1      -4.366  37.556  20.627  1.00  0.00     0.053 C 
BRANCH   4   5
ATOM      5  C   UNL     1      -4.551  38.012  22.040  1.00  0.00     0.041 C 
ATOM      6  O   UNL     1      -4.400  39.227  22.338  1.00  0.00    -0.550 OA
ATOM      7  O   UNL     1      -4.937  37.106  23.018  1.00  0.00    -0.550 OA
ENDBRANCH   4   5
ENDBRANCH   3   4
ENDBRANCH   2   3
ENDBRANCH   1   2
BRANCH   1   8
ATOM      8  C   UNL     1      -4.264  34.745  18.092  1.00  0.00     0.000 C 
BRANCH   8   9
ATOM      9  C   UNL     1      -4.151  35.918  17.100  1.00  0.00    -0.000 C 
BRANCH   9  10
ATOM     10  C   UNL     1      -2.917  35.815  16.188  1.00  0.00    -0.000 C 
BRANCH  10  11
ATOM     11  C   UNL     1      -1.686  36.543  16.760  1.00  0.00    -0.000 C 
BRANCH  11  12
ATOM     12  C   UNL     1      -1.976  37.482  17.945  1.00  0.00    -0.003 C 
ATOM     13  C   UNL     1      -0.760  37.708  18.842  1.00  0.00     0.004 C 
ENDBRANCH  11  12
ENDBRANCH  10  11
ENDBRANCH   9  10
ENDBRANCH   8   9
ENDBRANCH   1   8
TORSDOF 9
ENDMDL
