MODEL 1
REMARK VINA RESULT:    -4.834      0.000      0.000
REMARK INTER + INTRA:          -5.374
REMARK INTER:                  -5.117
REMARK INTRA:                  -0.257
REMARK UNBOUND:                -0.257
REMARK SMILES O=c1cc(-c2ccccc2)oc2ccccc12
REMARK SMILES IDX 4 1 3 2 2 3 1 4 17 5 16 6 15 7 14 8 13 9 12 10 11 11 5 12
REMARK SMILES IDX 8 13 7 14 9 15 6 16 10 17
REMARK H PARENT
REMARK Flexibility Score: inf
ROOT
ATOM      1  C   UNL     1      19.648  -4.712 -36.460  1.00  0.00     0.138 A 
ATOM      2  C   UNL     1      19.479  -3.804 -37.527  1.00  0.00     0.100 A 
ATOM      3  C   UNL     1      18.385  -3.941 -38.383  1.00  0.00     0.193 A 
ATOM      4  O   UNL     1      18.233  -3.130 -39.335  1.00  0.00    -0.289 OA
ATOM      5  C   UNL     1      17.468  -4.981 -38.170  1.00  0.00     0.065 A 
ATOM      6  C   UNL     1      16.345  -5.177 -38.993  1.00  0.00     0.016 A 
ATOM      7  C   UNL     1      15.463  -6.230 -38.736  1.00  0.00     0.001 A 
ATOM      8  C   UNL     1      15.693  -7.093 -37.660  1.00  0.00     0.004 A 
ATOM      9  C   UNL     1      16.806  -6.906 -36.837  1.00  0.00     0.048 A 
ATOM     10  C   UNL     1      17.695  -5.855 -37.085  1.00  0.00     0.138 A 
ATOM     11  O   UNL     1      18.752  -5.686 -36.296  1.00  0.00    -0.456 OA
ENDROOT
BRANCH   1  12
ATOM     12  C   UNL     1      20.791  -4.635 -35.499  1.00  0.00     0.017 A 
ATOM     13  C   UNL     1      22.953  -4.395 -33.701  1.00  0.00     0.000 A 
ATOM     14  C   UNL     1      22.371  -5.641 -33.930  1.00  0.00     0.001 A 
ATOM     15  C   UNL     1      22.466  -3.268 -34.361  1.00  0.00     0.001 A 
ATOM     16  C   UNL     1      21.299  -5.766 -34.820  1.00  0.00     0.012 A 
ATOM     17  C   UNL     1      21.395  -3.384 -35.253  1.00  0.00     0.012 A 
ENDBRANCH   1  12
TORSDOF 1
ENDMDL
MODEL 2
REMARK VINA RESULT:    -4.829      8.046     11.368
REMARK INTER + INTRA:          -5.369
REMARK INTER:                  -5.106
REMARK INTRA:                  -0.262
REMARK UNBOUND:                -0.257
REMARK SMILES O=c1cc(-c2ccccc2)oc2ccccc12
REMARK SMILES IDX 4 1 3 2 2 3 1 4 17 5 16 6 15 7 14 8 13 9 12 10 11 11 5 12
REMARK SMILES IDX 8 13 7 14 9 15 6 16 10 17
REMARK H PARENT
REMARK Flexibility Score: inf
ROOT
ATOM      1  C   UNL     1      15.944 -14.149 -38.342  1.00  0.00     0.138 A 
ATOM      2  C   UNL     1      16.256 -15.483 -38.002  1.00  0.00     0.100 A 
ATOM      3  C   UNL     1      17.509 -15.782 -37.463  1.00  0.00     0.193 A 
ATOM      4  O   UNL     1      17.788 -16.973 -37.159  1.00  0.00    -0.289 OA
ATOM      5  C   UNL     1      18.440 -14.751 -37.269  1.00  0.00     0.065 A 
ATOM      6  C   UNL     1      19.719 -14.983 -36.732  1.00  0.00     0.016 A 
ATOM      7  C   UNL     1      20.610 -13.919 -36.559  1.00  0.00     0.001 A 
ATOM      8  C   UNL     1      20.233 -12.621 -36.920  1.00  0.00     0.004 A 
ATOM      9  C   UNL     1      18.964 -12.383 -37.454  1.00  0.00     0.048 A 
ATOM     10  C   UNL     1      18.066 -13.440 -37.631  1.00  0.00     0.138 A 
ATOM     11  O   UNL     1      16.861 -13.202 -38.141  1.00  0.00    -0.456 OA
ENDROOT
BRANCH   1  12
ATOM     12  C   UNL     1      14.627 -13.744 -38.923  1.00  0.00     0.017 A 
ATOM     13  C   UNL     1      12.103 -13.064 -39.988  1.00  0.00     0.000 A 
ATOM     14  C   UNL     1      13.178 -12.185 -40.124  1.00  0.00     0.001 A 
ATOM     15  C   UNL     1      12.277 -14.278 -39.325  1.00  0.00     0.001 A 
ATOM     16  C   UNL     1      14.431 -12.518 -39.598  1.00  0.00     0.012 A 
ATOM     17  C   UNL     1      13.526 -14.618 -38.797  1.00  0.00     0.012 A 
ENDBRANCH   1  12
TORSDOF 1
ENDMDL
MODEL 3
REMARK VINA RESULT:    -4.756     10.859     13.670
REMARK INTER + INTRA:          -5.292
REMARK INTER:                  -5.026
REMARK INTRA:                  -0.265
REMARK UNBOUND:                -0.257
REMARK SMILES O=c1cc(-c2ccccc2)oc2ccccc12
REMARK SMILES IDX 4 1 3 2 2 3 1 4 17 5 16 6 15 7 14 8 13 9 12 10 11 11 5 12
REMARK SMILES IDX 8 13 7 14 9 15 6 16 10 17
REMARK H PARENT
REMARK Flexibility Score: inf
ROOT
ATOM      1  C   UNL     1      20.350  -1.798 -25.128  1.00  0.00     0.138 A 
ATOM      2  C   UNL     1      20.459  -3.114 -25.625  1.00  0.00     0.100 A 
ATOM      3  C   UNL     1      21.090  -4.092 -24.853  1.00  0.00     0.193 A 
ATOM      4  O   UNL     1      21.187  -5.268 -25.297  1.00  0.00    -0.289 OA
ATOM      5  C   UNL     1      21.607  -3.752 -23.595  1.00  0.00     0.065 A 
ATOM      6  C   UNL     1      22.254  -4.687 -22.768  1.00  0.00     0.016 A 
ATOM      7  C   UNL     1      22.752  -4.294 -21.522  1.00  0.00     0.001 A 
ATOM      8  C   UNL     1      22.609  -2.970 -21.093  1.00  0.00     0.004 A 
ATOM      9  C   UNL     1      21.967  -2.035 -21.909  1.00  0.00     0.048 A 
ATOM     10  C   UNL     1      21.465  -2.417 -23.157  1.00  0.00     0.138 A 
ATOM     11  O   UNL     1      20.857  -1.519 -23.927  1.00  0.00    -0.456 OA
ENDROOT
BRANCH   1  12
ATOM     12  C   UNL     1      19.691  -0.693 -25.889  1.00  0.00     0.017 A 
ATOM     13  C   UNL     1      18.415   1.328 -27.391  1.00  0.00     0.000 A 
ATOM     14  C   UNL     1      19.095   1.654 -26.218  1.00  0.00     0.001 A 
ATOM     15  C   UNL     1      18.366   0.003 -27.821  1.00  0.00     0.001 A 
ATOM     16  C   UNL     1      19.729   0.656 -25.469  1.00  0.00     0.012 A 
ATOM     17  C   UNL     1      18.997  -1.001 -27.079  1.00  0.00     0.012 A 
ENDBRANCH   1  12
TORSDOF 1
ENDMDL
MODEL 4
REMARK VINA RESULT:    -4.720     11.084     14.293
REMARK INTER + INTRA:          -5.253
REMARK INTER:                  -5.025
REMARK INTRA:                  -0.229
REMARK UNBOUND:                -0.257
REMARK SMILES O=c1cc(-c2ccccc2)oc2ccccc12
REMARK SMILES IDX 4 1 3 2 2 3 1 4 17 5 16 6 15 7 14 8 13 9 12 10 11 11 5 12
REMARK SMILES IDX 8 13 7 14 9 15 6 16 10 17
REMARK H PARENT
REMARK Flexibility Score: inf
ROOT
ATOM      1  C   UNL     1      21.398  -0.400 -24.966  1.00  0.00     0.138 A 
ATOM      2  C   UNL     1      22.709   0.093 -25.139  1.00  0.00     0.100 A 
ATOM      3  C   UNL     1      23.724  -0.332 -24.280  1.00  0.00     0.193 A 
ATOM      4  O   UNL     1      24.896   0.107 -24.436  1.00  0.00    -0.289 OA
ATOM      5  C   UNL     1      23.426  -1.243 -23.257  1.00  0.00     0.065 A 
ATOM      6  C   UNL     1      24.401  -1.711 -22.357  1.00  0.00     0.016 A 
ATOM      7  C   UNL     1      24.049  -2.619 -21.354  1.00  0.00     0.001 A 
ATOM      8  C   UNL     1      22.728  -3.065 -21.240  1.00  0.00     0.004 A 
ATOM      9  C   UNL     1      21.755  -2.605 -22.130  1.00  0.00     0.048 A 
ATOM     10  C   UNL     1      22.095  -1.697 -23.138  1.00  0.00     0.138 A 
ATOM     11  O   UNL     1      21.160  -1.264 -23.979  1.00  0.00    -0.456 OA
ENDROOT
BRANCH   1  12
ATOM     12  C   UNL     1      20.254   0.003 -25.841  1.00  0.00     0.017 A 
ATOM     13  C   UNL     1      18.092   0.673 -27.527  1.00  0.00     0.000 A 
ATOM     14  C   UNL     1      18.652   1.640 -26.693  1.00  0.00     0.001 A 
ATOM     15  C   UNL     1      18.602  -0.624 -27.527  1.00  0.00     0.001 A 
ATOM     16  C   UNL     1      19.724   1.313 -25.855  1.00  0.00     0.012 A 
ATOM     17  C   UNL     1      19.673  -0.959 -26.693  1.00  0.00     0.012 A 
ENDBRANCH   1  12
TORSDOF 1
ENDMDL
MODEL 5
REMARK VINA RESULT:    -4.667     11.030     12.487
REMARK INTER + INTRA:          -5.197
REMARK INTER:                  -4.937
REMARK INTRA:                  -0.260
REMARK UNBOUND:                -0.257
REMARK SMILES O=c1cc(-c2ccccc2)oc2ccccc12
REMARK SMILES IDX 4 1 3 2 2 3 1 4 17 5 16 6 15 7 14 8 13 9 12 10 11 11 5 12
REMARK SMILES IDX 8 13 7 14 9 15 6 16 10 17
REMARK H PARENT
REMARK Flexibility Score: inf
ROOT
ATOM      1  C   UNL     1      20.746   0.146 -25.727  1.00  0.00     0.138 A 
ATOM      2  C   UNL     1      19.412   0.106 -26.187  1.00  0.00     0.100 A 
ATOM      3  C   UNL     1      19.050   0.841 -27.317  1.00  0.00     0.193 A 
ATOM      4  O   UNL     1      17.859   0.805 -27.728  1.00  0.00    -0.289 OA
ATOM      5  C   UNL     1      20.018   1.611 -27.979  1.00  0.00     0.065 A 
ATOM      6  C   UNL     1      19.720   2.375 -29.122  1.00  0.00     0.016 A 
ATOM      7  C   UNL     1      20.723   3.125 -29.743  1.00  0.00     0.001 A 
ATOM      8  C   UNL     1      22.025   3.118 -29.232  1.00  0.00     0.004 A 
ATOM      9  C   UNL     1      22.329   2.362 -28.097  1.00  0.00     0.048 A 
ATOM     10  C   UNL     1      21.333   1.608 -27.467  1.00  0.00     0.138 A 
ATOM     11  O   UNL     1      21.632   0.892 -26.388  1.00  0.00    -0.456 OA
ENDROOT
BRANCH   1  12
ATOM     12  C   UNL     1      21.217  -0.611 -24.526  1.00  0.00     0.017 A 
ATOM     13  C   UNL     1      22.030  -2.102 -22.272  1.00  0.00     0.000 A 
ATOM     14  C   UNL     1      22.762  -0.983 -22.671  1.00  0.00     0.001 A 
ATOM     15  C   UNL     1      20.896  -2.483 -22.989  1.00  0.00     0.001 A 
ATOM     16  C   UNL     1      22.363  -0.241 -23.788  1.00  0.00     0.012 A 
ATOM     17  C   UNL     1      20.491  -1.746 -24.106  1.00  0.00     0.012 A 
ENDBRANCH   1  12
TORSDOF 1
ENDMDL
MODEL 6
REMARK VINA RESULT:    -4.634      2.482      7.216
REMARK INTER + INTRA:          -5.162
REMARK INTER:                  -4.903
REMARK INTRA:                  -0.259
REMARK UNBOUND:                -0.257
REMARK SMILES O=c1cc(-c2ccccc2)oc2ccccc12
REMARK SMILES IDX 4 1 3 2 2 3 1 4 17 5 16 6 15 7 14 8 13 9 12 10 11 11 5 12
REMARK SMILES IDX 8 13 7 14 9 15 6 16 10 17
REMARK H PARENT
REMARK Flexibility Score: inf
ROOT
ATOM      1  C   UNL     1      21.522  -4.689 -34.737  1.00  0.00     0.138 A 
ATOM      2  C   UNL     1      21.665  -5.769 -33.840  1.00  0.00     0.100 A 
ATOM      3  C   UNL     1      22.690  -5.746 -32.892  1.00  0.00     0.193 A 
ATOM      4  O   UNL     1      22.817  -6.711 -32.090  1.00  0.00    -0.289 OA
ATOM      5  C   UNL     1      23.563  -4.651 -32.846  1.00  0.00     0.065 A 
ATOM      6  C   UNL     1      24.616  -4.564 -31.917  1.00  0.00     0.016 A 
ATOM      7  C   UNL     1      25.459  -3.449 -31.915  1.00  0.00     0.001 A 
ATOM      8  C   UNL     1      25.258  -2.414 -32.835  1.00  0.00     0.004 A 
ATOM      9  C   UNL     1      24.215  -2.492 -33.760  1.00  0.00     0.048 A 
ATOM     10  C   UNL     1      23.366  -3.603 -33.772  1.00  0.00     0.138 A 
ATOM     11  O   UNL     1      22.376  -3.668 -34.657  1.00  0.00    -0.456 OA
ENDROOT
BRANCH   1  12
ATOM     12  C   UNL     1      20.452  -4.634 -35.781  1.00  0.00     0.017 A 
ATOM     13  C   UNL     1      18.491  -4.469 -37.803  1.00  0.00     0.000 A 
ATOM     14  C   UNL     1      18.267  -5.261 -36.677  1.00  0.00     0.001 A 
ATOM     15  C   UNL     1      19.684  -3.760 -37.929  1.00  0.00     0.001 A 
ATOM     16  C   UNL     1      19.236  -5.346 -35.672  1.00  0.00     0.012 A 
ATOM     17  C   UNL     1      20.657  -3.839 -36.929  1.00  0.00     0.012 A 
ENDBRANCH   1  12
TORSDOF 1
ENDMDL
MODEL 7
REMARK VINA RESULT:    -4.632      2.292      4.004
REMARK INTER + INTRA:          -5.160
REMARK INTER:                  -4.894
REMARK INTRA:                  -0.266
REMARK UNBOUND:                -0.257
REMARK SMILES O=c1cc(-c2ccccc2)oc2ccccc12
REMARK SMILES IDX 4 1 3 2 2 3 1 4 17 5 16 6 15 7 14 8 13 9 12 10 11 11 5 12
REMARK SMILES IDX 8 13 7 14 9 15 6 16 10 17
REMARK H PARENT
REMARK Flexibility Score: inf
ROOT
ATOM      1  C   UNL     1      21.899  -5.339 -34.066  1.00  0.00     0.138 A 
ATOM      2  C   UNL     1      20.818  -6.144 -33.651  1.00  0.00     0.100 A 
ATOM      3  C   UNL     1      19.651  -6.180 -34.417  1.00  0.00     0.193 A 
ATOM      4  O   UNL     1      18.685  -6.900 -34.047  1.00  0.00    -0.289 OA
ATOM      5  C   UNL     1      19.572  -5.415 -35.590  1.00  0.00     0.065 A 
ATOM      6  C   UNL     1      18.428  -5.406 -36.408  1.00  0.00     0.016 A 
ATOM      7  C   UNL     1      18.401  -4.624 -37.567  1.00  0.00     0.001 A 
ATOM      8  C   UNL     1      19.512  -3.849 -37.918  1.00  0.00     0.004 A 
ATOM      9  C   UNL     1      20.652  -3.853 -37.111  1.00  0.00     0.048 A 
ATOM     10  C   UNL     1      20.690  -4.632 -35.949  1.00  0.00     0.138 A 
ATOM     11  O   UNL     1      21.780  -4.628 -35.188  1.00  0.00    -0.456 OA
ENDROOT
BRANCH   1  12
ATOM     12  C   UNL     1      23.183  -5.243 -33.304  1.00  0.00     0.017 A 
ATOM     13  C   UNL     1      25.635  -4.994 -31.929  1.00  0.00     0.000 A 
ATOM     14  C   UNL     1      24.671  -5.897 -31.480  1.00  0.00     0.001 A 
ATOM     15  C   UNL     1      25.385  -4.215 -33.057  1.00  0.00     0.001 A 
ATOM     16  C   UNL     1      23.454  -6.024 -32.158  1.00  0.00     0.012 A 
ATOM     17  C   UNL     1      24.172  -4.336 -33.741  1.00  0.00     0.012 A 
ENDBRANCH   1  12
TORSDOF 1
ENDMDL
MODEL 8
REMARK VINA RESULT:    -4.587      3.094      4.919
REMARK INTER + INTRA:          -5.112
REMARK INTER:                  -4.877
REMARK INTRA:                  -0.235
REMARK UNBOUND:                -0.257
REMARK SMILES O=c1cc(-c2ccccc2)oc2ccccc12
REMARK SMILES IDX 4 1 3 2 2 3 1 4 17 5 16 6 15 7 14 8 13 9 12 10 11 11 5 12
REMARK SMILES IDX 8 13 7 14 9 15 6 16 10 17
REMARK H PARENT
REMARK Flexibility Score: inf
ROOT
ATOM      1  C   UNL     1      22.994  -4.277 -33.526  1.00  0.00     0.138 A 
ATOM      2  C   UNL     1      22.917  -2.872 -33.421  1.00  0.00     0.100 A 
ATOM      3  C   UNL     1      22.027  -2.168 -34.234  1.00  0.00     0.193 A 
ATOM      4  O   UNL     1      21.957  -0.912 -34.139  1.00  0.00    -0.289 OA
ATOM      5  C   UNL     1      21.223  -2.867 -35.146  1.00  0.00     0.065 A 
ATOM      6  C   UNL     1      20.307  -2.220 -35.994  1.00  0.00     0.016 A 
ATOM      7  C   UNL     1      19.530  -2.966 -36.885  1.00  0.00     0.001 A 
ATOM      8  C   UNL     1      19.659  -4.358 -36.936  1.00  0.00     0.004 A 
ATOM      9  C   UNL     1      20.567  -5.008 -36.097  1.00  0.00     0.048 A 
ATOM     10  C   UNL     1      21.350  -4.272 -35.201  1.00  0.00     0.138 A 
ATOM     11  O   UNL     1      22.211  -4.901 -34.407  1.00  0.00    -0.456 OA
ENDROOT
BRANCH   1  12
ATOM     12  C   UNL     1      23.919  -5.106 -32.693  1.00  0.00     0.017 A 
ATOM     13  C   UNL     1      25.739  -6.618 -31.155  1.00  0.00     0.000 A 
ATOM     14  C   UNL     1      24.377  -6.915 -31.116  1.00  0.00     0.001 A 
ATOM     15  C   UNL     1      26.200  -5.573 -31.955  1.00  0.00     0.001 A 
ATOM     16  C   UNL     1      23.471  -6.169 -31.876  1.00  0.00     0.012 A 
ATOM     17  C   UNL     1      25.301  -4.823 -32.718  1.00  0.00     0.012 A 
ENDBRANCH   1  12
TORSDOF 1
ENDMDL
MODEL 9
REMARK VINA RESULT:    -4.534      7.327     10.867
REMARK INTER + INTRA:          -5.056
REMARK INTER:                  -4.793
REMARK INTRA:                  -0.263
REMARK UNBOUND:                -0.257
REMARK SMILES O=c1cc(-c2ccccc2)oc2ccccc12
REMARK SMILES IDX 4 1 3 2 2 3 1 4 17 5 16 6 15 7 14 8 13 9 12 10 11 11 5 12
REMARK SMILES IDX 8 13 7 14 9 15 6 16 10 17
REMARK H PARENT
REMARK Flexibility Score: inf
ROOT
ATOM      1  C   UNL     1      15.133 -13.073 -38.522  1.00  0.00     0.138 A 
ATOM      2  C   UNL     1      15.513 -11.736 -38.282  1.00  0.00     0.100 A 
ATOM      3  C   UNL     1      16.792 -11.459 -37.797  1.00  0.00     0.193 A 
ATOM      4  O   UNL     1      17.132 -10.264 -37.583  1.00  0.00    -0.289 OA
ATOM      5  C   UNL     1      17.681 -12.515 -37.554  1.00  0.00     0.065 A 
ATOM      6  C   UNL     1      18.984 -12.307 -37.065  1.00  0.00     0.016 A 
ATOM      7  C   UNL     1      19.830 -13.397 -36.840  1.00  0.00     0.001 A 
ATOM      8  C   UNL     1      19.386 -14.698 -37.100  1.00  0.00     0.004 A 
ATOM      9  C   UNL     1      18.094 -14.913 -37.586  1.00  0.00     0.048 A 
ATOM     10  C   UNL     1      17.239 -13.830 -37.815  1.00  0.00     0.138 A 
ATOM     11  O   UNL     1      16.011 -14.046 -38.277  1.00  0.00    -0.456 OA
ENDROOT
BRANCH   1  12
ATOM     12  C   UNL     1      13.783 -13.456 -39.042  1.00  0.00     0.017 A 
ATOM     13  C   UNL     1      11.253 -14.270 -39.991  1.00  0.00     0.000 A 
ATOM     14  C   UNL     1      11.655 -12.940 -40.125  1.00  0.00     0.001 A 
ATOM     15  C   UNL     1      12.103 -15.195 -39.388  1.00  0.00     0.001 A 
ATOM     16  C   UNL     1      12.907 -12.532 -39.655  1.00  0.00     0.012 A 
ATOM     17  C   UNL     1      13.357 -14.795 -38.917  1.00  0.00     0.012 A 
ENDBRANCH   1  12
TORSDOF 1
ENDMDL
