MODEL 1
REMARK VINA RESULT:    -2.574      0.000      0.000
REMARK INTER + INTRA:          -3.374
REMARK INTER:                  -3.252
REMARK INTRA:                  -0.122
REMARK UNBOUND:                -0.122
REMARK SMILES CCCCCCO
REMARK SMILES IDX 4 1 3 2 2 3 1 4 5 5 6 6 7 7
REMARK H PARENT 7 8
REMARK Flexibility Score: inf
ROOT
ATOM      1  C   UNL     1     138.212 148.552 138.576  1.00  0.00     0.002 C 
ENDROOT
BRANCH   1   2
ATOM      2  C   UNL     1     139.338 148.860 137.577  1.00  0.00    -0.000 C 
BRANCH   2   3
ATOM      3  C   UNL     1     139.868 147.600 136.875  1.00  0.00    -0.003 C 
ATOM      4  C   UNL     1     139.374 146.335 137.571  1.00  0.00     0.004 C 
ENDBRANCH   2   3
ENDBRANCH   1   2
BRANCH   1   5
ATOM      5  C   UNL     1     136.874 149.189 138.173  1.00  0.00     0.028 C 
BRANCH   5   6
ATOM      6  C   UNL     1     135.773 148.135 138.069  1.00  0.00     0.156 C 
BRANCH   6   7
ATOM      7  O   UNL     1     134.973 148.405 136.952  1.00  0.00    -0.396 OA
ATOM      8  H   UNL     1     134.059 148.573 137.302  1.00  0.00     0.210 HD
ENDBRANCH   6   7
ENDBRANCH   5   6
ENDBRANCH   1   5
TORSDOF 5
ENDMDL
MODEL 2
REMARK VINA RESULT:    -2.554     15.286     16.833
REMARK INTER + INTRA:          -3.348
REMARK INTER:                  -3.254
REMARK INTRA:                  -0.094
REMARK UNBOUND:                -0.122
REMARK SMILES CCCCCCO
REMARK SMILES IDX 4 1 3 2 2 3 1 4 5 5 6 6 7 7
REMARK H PARENT 7 8
REMARK Flexibility Score: inf
ROOT
ATOM      1  C   UNL     1     144.493 133.480 138.296  1.00  0.00     0.002 C 
ENDROOT
BRANCH   1   2
ATOM      2  C   UNL     1     143.067 133.598 138.856  1.00  0.00    -0.000 C 
BRANCH   2   3
ATOM      3  C   UNL     1     142.087 134.224 137.853  1.00  0.00    -0.003 C 
ATOM      4  C   UNL     1     141.559 133.178 136.875  1.00  0.00     0.004 C 
ENDBRANCH   2   3
ENDBRANCH   1   2
BRANCH   1   5
ATOM      5  C   UNL     1     145.040 132.047 138.370  1.00  0.00     0.028 C 
BRANCH   5   6
ATOM      6  C   UNL     1     146.350 131.917 137.594  1.00  0.00     0.156 C 
BRANCH   6   7
ATOM      7  O   UNL     1     146.606 133.110 136.906  1.00  0.00    -0.396 OA
ATOM      8  H   UNL     1     147.410 133.506 137.333  1.00  0.00     0.210 HD
ENDBRANCH   6   7
ENDBRANCH   5   6
ENDBRANCH   1   5
TORSDOF 5
ENDMDL
MODEL 3
REMARK VINA RESULT:    -2.540     14.904     16.427
REMARK INTER + INTRA:          -3.331
REMARK INTER:                  -3.216
REMARK INTRA:                  -0.115
REMARK UNBOUND:                -0.122
REMARK SMILES CCCCCCO
REMARK SMILES IDX 4 1 3 2 2 3 1 4 5 5 6 6 7 7
REMARK H PARENT 7 8
REMARK Flexibility Score: inf
ROOT
ATOM      1  C   UNL     1     144.048 134.198 138.475  1.00  0.00     0.002 C 
ENDROOT
BRANCH   1   2
ATOM      2  C   UNL     1     143.347 132.891 138.073  1.00  0.00    -0.000 C 
BRANCH   2   3
ATOM      3  C   UNL     1     141.846 133.082 137.805  1.00  0.00    -0.003 C 
ATOM      4  C   UNL     1     141.464 134.559 137.848  1.00  0.00     0.004 C 
ENDBRANCH   2   3
ENDBRANCH   1   2
BRANCH   1   5
ATOM      5  C   UNL     1     145.538 133.999 138.786  1.00  0.00     0.028 C 
BRANCH   5   6
ATOM      6  C   UNL     1     146.091 132.772 138.063  1.00  0.00     0.156 C 
BRANCH   6   7
ATOM      7  O   UNL     1     146.729 133.173 136.882  1.00  0.00    -0.396 OA
ATOM      8  H   UNL     1     146.687 132.394 136.269  1.00  0.00     0.210 HD
ENDBRANCH   6   7
ENDBRANCH   5   6
ENDBRANCH   1   5
TORSDOF 5
ENDMDL
MODEL 4
REMARK VINA RESULT:    -2.533     10.667     11.660
REMARK INTER + INTRA:          -3.321
REMARK INTER:                  -3.206
REMARK INTRA:                  -0.116
REMARK UNBOUND:                -0.122
REMARK SMILES CCCCCCO
REMARK SMILES IDX 4 1 3 2 2 3 1 4 5 5 6 6 7 7
REMARK H PARENT 7 8
REMARK Flexibility Score: inf
ROOT
ATOM      1  C   UNL     1     133.890 137.896 138.828  1.00  0.00     0.002 C 
ENDROOT
BRANCH   1   2
ATOM      2  C   UNL     1     134.923 138.759 138.086  1.00  0.00    -0.000 C 
BRANCH   2   3
ATOM      3  C   UNL     1     134.323 139.490 136.875  1.00  0.00    -0.003 C 
ATOM      4  C   UNL     1     132.885 139.921 137.151  1.00  0.00     0.004 C 
ENDBRANCH   2   3
ENDBRANCH   1   2
BRANCH   1   5
ATOM      5  C   UNL     1     134.100 136.393 138.594  1.00  0.00     0.028 C 
BRANCH   5   6
ATOM      6  C   UNL     1     132.859 135.754 137.972  1.00  0.00     0.156 C 
BRANCH   6   7
ATOM      7  O   UNL     1     133.241 134.940 136.898  1.00  0.00    -0.396 OA
ATOM      8  H   UNL     1     134.049 134.450 137.199  1.00  0.00     0.210 HD
ENDBRANCH   6   7
ENDBRANCH   5   6
ENDBRANCH   1   5
TORSDOF 5
ENDMDL
MODEL 5
REMARK VINA RESULT:    -2.531      0.759      1.114
REMARK INTER + INTRA:          -3.319
REMARK INTER:                  -3.177
REMARK INTRA:                  -0.142
REMARK UNBOUND:                -0.122
REMARK SMILES CCCCCCO
REMARK SMILES IDX 4 1 3 2 2 3 1 4 5 5 6 6 7 7
REMARK H PARENT 7 8
REMARK Flexibility Score: inf
ROOT
ATOM      1  C   UNL     1     137.677 147.619 138.912  1.00  0.00     0.002 C 
ENDROOT
BRANCH   1   2
ATOM      2  C   UNL     1     138.279 148.806 138.143  1.00  0.00    -0.000 C 
BRANCH   2   3
ATOM      3  C   UNL     1     139.621 148.462 137.480  1.00  0.00    -0.003 C 
ATOM      4  C   UNL     1     139.734 146.964 137.212  1.00  0.00     0.004 C 
ENDBRANCH   2   3
ENDBRANCH   1   2
BRANCH   1   5
ATOM      5  C   UNL     1     136.178 147.434 138.634  1.00  0.00     0.028 C 
BRANCH   5   6
ATOM      6  C   UNL     1     135.571 148.697 138.027  1.00  0.00     0.156 C 
BRANCH   6   7
ATOM      7  O   UNL     1     134.849 148.362 136.875  1.00  0.00    -0.396 OA
ATOM      8  H   UNL     1     134.284 147.585 137.122  1.00  0.00     0.210 HD
ENDBRANCH   6   7
ENDBRANCH   5   6
ENDBRANCH   1   5
TORSDOF 5
ENDMDL
MODEL 6
REMARK VINA RESULT:    -2.512     10.445     11.228
REMARK INTER + INTRA:          -3.296
REMARK INTER:                  -3.231
REMARK INTRA:                  -0.065
REMARK UNBOUND:                -0.122
REMARK SMILES CCCCCCO
REMARK SMILES IDX 4 1 3 2 2 3 1 4 5 5 6 6 7 7
REMARK H PARENT 7 8
REMARK Flexibility Score: inf
ROOT
ATOM      1  C   UNL     1     147.956 143.952 138.207  1.00  0.00     0.002 C 
ENDROOT
BRANCH   1   2
ATOM      2  C   UNL     1     147.199 142.788 138.865  1.00  0.00    -0.000 C 
BRANCH   2   3
ATOM      3  C   UNL     1     147.113 141.550 137.958  1.00  0.00    -0.003 C 
ATOM      4  C   UNL     1     148.311 141.475 137.016  1.00  0.00     0.004 C 
ENDBRANCH   2   3
ENDBRANCH   1   2
BRANCH   1   5
ATOM      5  C   UNL     1     147.466 145.324 138.692  1.00  0.00     0.028 C 
BRANCH   5   6
ATOM      6  C   UNL     1     148.423 146.434 138.259  1.00  0.00     0.156 C 
BRANCH   6   7
ATOM      7  O   UNL     1     148.324 146.623 136.875  1.00  0.00    -0.396 OA
ATOM      8  H   UNL     1     149.239 146.497 136.514  1.00  0.00     0.210 HD
ENDBRANCH   6   7
ENDBRANCH   5   6
ENDBRANCH   1   5
TORSDOF 5
ENDMDL
MODEL 7
REMARK VINA RESULT:    -2.367      2.178      3.572
REMARK INTER + INTRA:          -3.111
REMARK INTER:                  -3.001
REMARK INTRA:                  -0.110
REMARK UNBOUND:                -0.122
REMARK SMILES CCCCCCO
REMARK SMILES IDX 4 1 3 2 2 3 1 4 5 5 6 6 7 7
REMARK H PARENT 7 8
REMARK Flexibility Score: inf
ROOT
ATOM      1  C   UNL     1     139.739 146.518 138.287  1.00  0.00     0.002 C 
ENDROOT
BRANCH   1   2
ATOM      2  C   UNL     1     138.489 145.707 138.662  1.00  0.00    -0.000 C 
BRANCH   2   3
ATOM      3  C   UNL     1     137.238 146.585 138.817  1.00  0.00    -0.003 C 
ATOM      4  C   UNL     1     136.100 145.809 139.473  1.00  0.00     0.004 C 
ENDBRANCH   2   3
ENDBRANCH   1   2
BRANCH   1   5
ATOM      5  C   UNL     1     139.550 147.335 137.001  1.00  0.00     0.028 C 
BRANCH   5   6
ATOM      6  C   UNL     1     139.815 148.819 137.247  1.00  0.00     0.156 C 
BRANCH   6   7
ATOM      7  O   UNL     1     138.688 149.563 136.875  1.00  0.00    -0.396 OA
ATOM      8  H   UNL     1     138.942 150.051 136.049  1.00  0.00     0.210 HD
ENDBRANCH   6   7
ENDBRANCH   5   6
ENDBRANCH   1   5
TORSDOF 5
ENDMDL
MODEL 8
REMARK VINA RESULT:    -2.361      2.065      2.684
REMARK INTER + INTRA:          -3.104
REMARK INTER:                  -2.969
REMARK INTRA:                  -0.135
REMARK UNBOUND:                -0.122
REMARK SMILES CCCCCCO
REMARK SMILES IDX 4 1 3 2 2 3 1 4 5 5 6 6 7 7
REMARK H PARENT 7 8
REMARK Flexibility Score: inf
ROOT
ATOM      1  C   UNL     1     137.231 147.903 138.277  1.00  0.00     0.002 C 
ENDROOT
BRANCH   1   2
ATOM      2  C   UNL     1     137.472 146.706 139.210  1.00  0.00    -0.000 C 
BRANCH   2   3
ATOM      3  C   UNL     1     136.311 145.700 139.193  1.00  0.00    -0.003 C 
ATOM      4  C   UNL     1     136.824 144.268 139.327  1.00  0.00     0.004 C 
ENDBRANCH   2   3
ENDBRANCH   1   2
BRANCH   1   5
ATOM      5  C   UNL     1     136.208 148.898 138.844  1.00  0.00     0.028 C 
BRANCH   5   6
ATOM      6  C   UNL     1     135.110 149.200 137.825  1.00  0.00     0.156 C 
BRANCH   6   7
ATOM      7  O   UNL     1     135.060 148.172 136.875  1.00  0.00    -0.396 OA
ATOM      8  H   UNL     1     134.129 148.161 136.532  1.00  0.00     0.210 HD
ENDBRANCH   6   7
ENDBRANCH   5   6
ENDBRANCH   1   5
TORSDOF 5
ENDMDL
MODEL 9
REMARK VINA RESULT:    -2.306      9.773     11.348
REMARK INTER + INTRA:          -3.035
REMARK INTER:                  -2.920
REMARK INTRA:                  -0.116
REMARK UNBOUND:                -0.122
REMARK SMILES CCCCCCO
REMARK SMILES IDX 4 1 3 2 2 3 1 4 5 5 6 6 7 7
REMARK H PARENT 7 8
REMARK Flexibility Score: inf
ROOT
ATOM      1  C   UNL     1     147.495 143.751 137.996  1.00  0.00     0.002 C 
ENDROOT
BRANCH   1   2
ATOM      2  C   UNL     1     147.334 144.592 139.273  1.00  0.00    -0.000 C 
BRANCH   2   3
ATOM      3  C   UNL     1     146.117 145.527 139.216  1.00  0.00    -0.003 C 
ATOM      4  C   UNL     1     144.820 144.734 139.082  1.00  0.00     0.004 C 
ENDBRANCH   2   3
ENDBRANCH   1   2
BRANCH   1   5
ATOM      5  C   UNL     1     147.676 142.256 138.292  1.00  0.00     0.028 C 
BRANCH   5   6
ATOM      6  C   UNL     1     148.909 141.699 137.581  1.00  0.00     0.156 C 
BRANCH   6   7
ATOM      7  O   UNL     1     149.546 142.728 136.876  1.00  0.00    -0.396 OA
ATOM      8  H   UNL     1     150.428 142.367 136.601  1.00  0.00     0.210 HD
ENDBRANCH   6   7
ENDBRANCH   5   6
ENDBRANCH   1   5
TORSDOF 5
ENDMDL
