MODEL 1
REMARK VINA RESULT:    -6.203      0.000      0.000
REMARK INTER + INTRA:          -9.115
REMARK INTER:                  -8.379
REMARK INTRA:                  -0.736
REMARK UNBOUND:                -0.736
REMARK SMILES COc1ccc(-c2cc(=O)c3c(OC)c(OC)c(OC)c(OC)c3o2)cc1
REMARK SMILES IDX 7 1 8 2 9 3 10 4 11 5 24 6 25 7 21 8 18 9 15 10 12 11 6 12
REMARK SMILES IDX 3 13 4 14 27 15 5 16 26 17 2 18 1 19 22 20 23 21 13 22 14 23
REMARK SMILES IDX 19 24 20 25 16 26 17 27
REMARK H PARENT
REMARK Flexibility Score: inf
ROOT
ATOM      1  C   UNL     1       8.720  13.952 -18.414  1.00  0.00     0.138 A 
ATOM      2  C   UNL     1       9.215  14.422 -17.191  1.00  0.00     0.100 A 
ATOM      3  C   UNL     1       9.183  13.588 -16.074  1.00  0.00     0.197 A 
ATOM      4  O   UNL     1       9.656  14.014 -14.986  1.00  0.00    -0.289 OA
ATOM      5  C   UNL     1       8.646  12.287 -16.187  1.00  0.00     0.115 A 
ATOM      6  C   UNL     1       8.189  11.878 -17.455  1.00  0.00     0.188 A 
ATOM      7  O   UNL     1       8.243  12.713 -18.491  1.00  0.00    -0.452 OA
ATOM      8  C   UNL     1       7.663  10.597 -17.655  1.00  0.00     0.209 A 
ATOM      9  C   UNL     1       7.616   9.675 -16.577  1.00  0.00     0.211 A 
ATOM     10  C   UNL     1       8.106  10.067 -15.302  1.00  0.00     0.208 A 
ATOM     11  C   UNL     1       8.555  11.393 -15.099  1.00  0.00     0.179 A 
ENDROOT
BRANCH   1  12
ATOM     12  C   UNL     1       8.728  14.791 -19.640  1.00  0.00     0.018 A 
ATOM     13  C   UNL     1       8.718  16.333 -22.007  1.00  0.00     0.118 A 
ATOM     14  C   UNL     1       8.638  16.959 -20.750  1.00  0.00     0.047 A 
ATOM     15  C   UNL     1       8.793  14.937 -22.069  1.00  0.00     0.047 A 
ATOM     16  C   UNL     1       8.638  16.194 -19.579  1.00  0.00     0.016 A 
ATOM     17  C   UNL     1       8.793  14.173 -20.901  1.00  0.00     0.016 A 
BRANCH  13  18
ATOM     18  O   UNL     1       8.723  17.056 -23.210  1.00  0.00    -0.497 OA
ATOM     19  C   UNL     1       9.265  16.573 -24.435  1.00  0.00     0.278 C 
ENDBRANCH  13  18
ENDBRANCH   1  12
BRANCH   8  20
ATOM     20  O   UNL     1       7.212  10.305 -18.959  1.00  0.00    -0.490 OA
ATOM     21  C   UNL     1       5.875  10.372 -19.442  1.00  0.00     0.278 C 
ENDBRANCH   8  20
BRANCH  11  22
ATOM     22  O   UNL     1       8.873  11.830 -13.811  1.00  0.00    -0.492 OA
ATOM     23  C   UNL     1       7.856  12.054 -12.841  1.00  0.00     0.278 C 
ENDBRANCH  11  22
BRANCH   9  24
ATOM     24  O   UNL     1       7.089   8.392 -16.825  1.00  0.00    -0.490 OA
ATOM     25  C   UNL     1       7.751   7.283 -17.422  1.00  0.00     0.279 C 
ENDBRANCH   9  24
BRANCH  10  26
ATOM     26  O   UNL     1       8.135   9.118 -14.265  1.00  0.00    -0.490 OA
ATOM     27  C   UNL     1       9.171   8.168 -14.031  1.00  0.00     0.278 C 
ENDBRANCH  10  26
TORSDOF 6
ENDMDL
MODEL 2
REMARK VINA RESULT:    -5.999      2.085      7.855
REMARK INTER + INTRA:          -8.839
REMARK INTER:                  -8.099
REMARK INTRA:                  -0.740
REMARK UNBOUND:                -0.736
REMARK SMILES COc1ccc(-c2cc(=O)c3c(OC)c(OC)c(OC)c(OC)c3o2)cc1
REMARK SMILES IDX 7 1 8 2 9 3 10 4 11 5 24 6 25 7 21 8 18 9 15 10 12 11 6 12
REMARK SMILES IDX 3 13 4 14 27 15 5 16 26 17 2 18 1 19 22 20 23 21 13 22 14 23
REMARK SMILES IDX 19 24 20 25 16 26 17 27
REMARK H PARENT
REMARK Flexibility Score: inf
ROOT
ATOM      1  C   UNL     1       8.234  11.314 -14.656  1.00  0.00     0.138 A 
ATOM      2  C   UNL     1       8.886  12.466 -14.199  1.00  0.00     0.100 A 
ATOM      3  C   UNL     1       9.244  13.457 -15.114  1.00  0.00     0.197 A 
ATOM      4  O   UNL     1       9.807  14.500 -14.686  1.00  0.00    -0.289 OA
ATOM      5  C   UNL     1       8.954  13.282 -16.485  1.00  0.00     0.115 A 
ATOM      6  C   UNL     1       8.276  12.107 -16.864  1.00  0.00     0.188 A 
ATOM      7  O   UNL     1       7.954  11.193 -15.950  1.00  0.00    -0.452 OA
ATOM      8  C   UNL     1       7.932  11.870 -18.198  1.00  0.00     0.209 A 
ATOM      9  C   UNL     1       8.238  12.837 -19.190  1.00  0.00     0.211 A 
ATOM     10  C   UNL     1       8.892  14.041 -18.813  1.00  0.00     0.208 A 
ATOM     11  C   UNL     1       9.306  14.225 -17.473  1.00  0.00     0.179 A 
ENDROOT
BRANCH   1  12
ATOM     12  C   UNL     1       7.824  10.224 -13.733  1.00  0.00     0.018 A 
ATOM     13  C   UNL     1       6.993   8.190 -11.958  1.00  0.00     0.118 A 
ATOM     14  C   UNL     1       7.786   7.877 -13.077  1.00  0.00     0.047 A 
ATOM     15  C   UNL     1       6.614   9.519 -11.741  1.00  0.00     0.047 A 
ATOM     16  C   UNL     1       8.193   8.884 -13.957  1.00  0.00     0.016 A 
ATOM     17  C   UNL     1       7.020  10.526 -12.620  1.00  0.00     0.016 A 
BRANCH  13  18
ATOM     18  O   UNL     1       6.560   7.216 -11.045  1.00  0.00    -0.497 OA
ATOM     19  C   UNL     1       6.615   7.361  -9.629  1.00  0.00     0.278 C 
ENDBRANCH  13  18
ENDBRANCH   1  12
BRANCH   8  20
ATOM     20  O   UNL     1       7.279  10.649 -18.466  1.00  0.00    -0.490 OA
ATOM     21  C   UNL     1       5.876  10.419 -18.522  1.00  0.00     0.278 C 
ENDBRANCH   8  20
BRANCH  11  22
ATOM     22  O   UNL     1      10.099  15.325 -17.135  1.00  0.00    -0.492 OA
ATOM     23  C   UNL     1      11.474  15.377 -17.500  1.00  0.00     0.278 C 
ENDBRANCH  11  22
BRANCH   9  24
ATOM     24  O   UNL     1       7.865  12.563 -20.521  1.00  0.00    -0.490 OA
ATOM     25  C   UNL     1       6.632  12.878 -21.159  1.00  0.00     0.279 C 
ENDBRANCH   9  24
BRANCH  10  26
ATOM     26  O   UNL     1       9.110  15.030 -19.789  1.00  0.00    -0.490 OA
ATOM     27  C   UNL     1       8.231  16.108 -20.097  1.00  0.00     0.278 C 
ENDBRANCH  10  26
TORSDOF 6
ENDMDL
MODEL 3
REMARK VINA RESULT:    -5.987      2.217      8.435
REMARK INTER + INTRA:          -8.823
REMARK INTER:                  -8.247
REMARK INTRA:                  -0.576
REMARK UNBOUND:                -0.736
REMARK SMILES COc1ccc(-c2cc(=O)c3c(OC)c(OC)c(OC)c(OC)c3o2)cc1
REMARK SMILES IDX 7 1 8 2 9 3 10 4 11 5 24 6 25 7 21 8 18 9 15 10 12 11 6 12
REMARK SMILES IDX 3 13 4 14 27 15 5 16 26 17 2 18 1 19 22 20 23 21 13 22 14 23
REMARK SMILES IDX 19 24 20 25 16 26 17 27
REMARK H PARENT
REMARK Flexibility Score: inf
ROOT
ATOM      1  C   UNL     1       7.207  10.075 -15.698  1.00  0.00     0.138 A 
ATOM      2  C   UNL     1       6.482   9.616 -16.805  1.00  0.00     0.100 A 
ATOM      3  C   UNL     1       6.659  10.234 -18.043  1.00  0.00     0.197 A 
ATOM      4  O   UNL     1       6.021   9.794 -19.036  1.00  0.00    -0.289 OA
ATOM      5  C   UNL     1       7.557  11.317 -18.162  1.00  0.00     0.115 A 
ATOM      6  C   UNL     1       8.267  11.707 -17.009  1.00  0.00     0.188 A 
ATOM      7  O   UNL     1       8.062  11.081 -15.851  1.00  0.00    -0.452 OA
ATOM      8  C   UNL     1       9.191  12.756 -17.049  1.00  0.00     0.209 A 
ATOM      9  C   UNL     1       9.450  13.423 -18.273  1.00  0.00     0.211 A 
ATOM     10  C   UNL     1       8.765  13.016 -19.450  1.00  0.00     0.208 A 
ATOM     11  C   UNL     1       7.773  12.010 -19.372  1.00  0.00     0.179 A 
ENDROOT
BRANCH   1  12
ATOM     12  C   UNL     1       7.064   9.458 -14.354  1.00  0.00     0.018 A 
ATOM     13  C   UNL     1       6.810   8.223 -11.825  1.00  0.00     0.118 A 
ATOM     14  C   UNL     1       7.073   9.602 -11.921  1.00  0.00     0.047 A 
ATOM     15  C   UNL     1       6.686   7.471 -12.999  1.00  0.00     0.047 A 
ATOM     16  C   UNL     1       7.203  10.211 -13.173  1.00  0.00     0.016 A 
ATOM     17  C   UNL     1       6.816   8.078 -14.250  1.00  0.00     0.016 A 
BRANCH  13  18
ATOM     18  O   UNL     1       6.669   7.567 -10.593  1.00  0.00    -0.497 OA
ATOM     19  C   UNL     1       7.388   7.911  -9.413  1.00  0.00     0.278 C 
ENDBRANCH  13  18
ENDBRANCH   1  12
BRANCH   8  20
ATOM     20  O   UNL     1       9.823  13.076 -15.829  1.00  0.00    -0.490 OA
ATOM     21  C   UNL     1       9.573  14.207 -15.002  1.00  0.00     0.278 C 
ENDBRANCH   8  20
BRANCH  11  22
ATOM     22  O   UNL     1       6.979  11.729 -20.486  1.00  0.00    -0.492 OA
ATOM     23  C   UNL     1       5.876  12.561 -20.828  1.00  0.00     0.278 C 
ENDBRANCH  11  22
BRANCH   9  24
ATOM     24  O   UNL     1      10.397  14.467 -18.272  1.00  0.00    -0.490 OA
ATOM     25  C   UNL     1      10.145  15.866 -18.185  1.00  0.00     0.279 C 
ENDBRANCH   9  24
BRANCH  10  26
ATOM     26  O   UNL     1       9.094  13.625 -20.673  1.00  0.00    -0.490 OA
ATOM     27  C   UNL     1       8.511  14.815 -21.197  1.00  0.00     0.278 C 
ENDBRANCH  10  26
TORSDOF 6
ENDMDL
MODEL 4
REMARK VINA RESULT:    -5.919      2.499      3.892
REMARK INTER + INTRA:          -8.731
REMARK INTER:                  -8.012
REMARK INTRA:                  -0.718
REMARK UNBOUND:                -0.736
REMARK SMILES COc1ccc(-c2cc(=O)c3c(OC)c(OC)c(OC)c(OC)c3o2)cc1
REMARK SMILES IDX 7 1 8 2 9 3 10 4 11 5 24 6 25 7 21 8 18 9 15 10 12 11 6 12
REMARK SMILES IDX 3 13 4 14 27 15 5 16 26 17 2 18 1 19 22 20 23 21 13 22 14 23
REMARK SMILES IDX 19 24 20 25 16 26 17 27
REMARK H PARENT
REMARK Flexibility Score: inf
ROOT
ATOM      1  C   UNL     1       8.752  13.880 -17.770  1.00  0.00     0.138 A 
ATOM      2  C   UNL     1       9.276  13.065 -18.782  1.00  0.00     0.100 A 
ATOM      3  C   UNL     1       9.488  11.710 -18.528  1.00  0.00     0.197 A 
ATOM      4  O   UNL     1       9.934  10.983 -19.455  1.00  0.00    -0.289 OA
ATOM      5  C   UNL     1       9.181  11.180 -17.255  1.00  0.00     0.115 A 
ATOM      6  C   UNL     1       8.637  12.058 -16.297  1.00  0.00     0.188 A 
ATOM      7  O   UNL     1       8.453  13.343 -16.591  1.00  0.00    -0.452 OA
ATOM      8  C   UNL     1       8.286  11.606 -15.020  1.00  0.00     0.209 A 
ATOM      9  C   UNL     1       8.446  10.236 -14.686  1.00  0.00     0.211 A 
ATOM     10  C   UNL     1       8.963   9.336 -15.656  1.00  0.00     0.208 A 
ATOM     11  C   UNL     1       9.390   9.828 -16.913  1.00  0.00     0.179 A 
ENDROOT
BRANCH   1  12
ATOM     12  C   UNL     1       8.502  15.330 -17.978  1.00  0.00     0.018 A 
ATOM     13  C   UNL     1       8.077  18.087 -18.421  1.00  0.00     0.118 A 
ATOM     14  C   UNL     1       7.034  17.274 -17.942  1.00  0.00     0.047 A 
ATOM     15  C   UNL     1       9.324  17.510 -18.685  1.00  0.00     0.047 A 
ATOM     16  C   UNL     1       7.244  15.909 -17.727  1.00  0.00     0.016 A 
ATOM     17  C   UNL     1       9.535  16.146 -18.471  1.00  0.00     0.016 A 
BRANCH  13  18
ATOM     18  O   UNL     1       7.917  19.462 -18.651  1.00  0.00    -0.497 OA
ATOM     19  C   UNL     1       8.615  20.481 -17.944  1.00  0.00     0.278 C 
ENDBRANCH  13  18
ENDBRANCH   1  12
BRANCH   8  20
ATOM     20  O   UNL     1       7.775  12.577 -14.134  1.00  0.00    -0.490 OA
ATOM     21  C   UNL     1       6.409  12.808 -13.807  1.00  0.00     0.278 C 
ENDBRANCH   8  20
BRANCH  11  22
ATOM     22  O   UNL     1      10.056   8.980 -17.801  1.00  0.00    -0.492 OA
ATOM     23  C   UNL     1      11.414   8.612 -17.585  1.00  0.00     0.278 C 
ENDBRANCH  11  22
BRANCH   9  24
ATOM     24  O   UNL     1       8.071   9.821 -13.393  1.00  0.00    -0.490 OA
ATOM     25  C   UNL     1       6.842   9.221 -12.997  1.00  0.00     0.279 C 
ENDBRANCH   9  24
BRANCH  10  26
ATOM     26  O   UNL     1       9.035   7.967 -15.344  1.00  0.00    -0.490 OA
ATOM     27  C   UNL     1       8.114   6.965 -15.766  1.00  0.00     0.278 C 
ENDBRANCH  10  26
TORSDOF 6
ENDMDL
MODEL 5
REMARK VINA RESULT:    -5.785      1.900      3.017
REMARK INTER + INTRA:          -8.550
REMARK INTER:                  -7.904
REMARK INTRA:                  -0.646
REMARK UNBOUND:                -0.736
REMARK SMILES COc1ccc(-c2cc(=O)c3c(OC)c(OC)c(OC)c(OC)c3o2)cc1
REMARK SMILES IDX 7 1 8 2 9 3 10 4 11 5 24 6 25 7 21 8 18 9 15 10 12 11 6 12
REMARK SMILES IDX 3 13 4 14 27 15 5 16 26 17 2 18 1 19 22 20 23 21 13 22 14 23
REMARK SMILES IDX 19 24 20 25 16 26 17 27
REMARK H PARENT
REMARK Flexibility Score: inf
ROOT
ATOM      1  C   UNL     1       8.791  12.468 -18.637  1.00  0.00     0.138 A 
ATOM      2  C   UNL     1       9.724  11.445 -18.854  1.00  0.00     0.100 A 
ATOM      3  C   UNL     1       9.737  10.340 -18.003  1.00  0.00     0.197 A 
ATOM      4  O   UNL     1      10.564   9.415 -18.224  1.00  0.00    -0.289 OA
ATOM      5  C   UNL     1       8.819  10.271 -16.932  1.00  0.00     0.115 A 
ATOM      6  C   UNL     1       7.897  11.327 -16.793  1.00  0.00     0.188 A 
ATOM      7  O   UNL     1       7.926  12.359 -17.635  1.00  0.00    -0.452 OA
ATOM      8  C   UNL     1       6.941  11.322 -15.772  1.00  0.00     0.209 A 
ATOM      9  C   UNL     1       6.868  10.224 -14.876  1.00  0.00     0.211 A 
ATOM     10  C   UNL     1       7.772   9.137 -15.029  1.00  0.00     0.208 A 
ATOM     11  C   UNL     1       8.785   9.200 -16.014  1.00  0.00     0.179 A 
ENDROOT
BRANCH   1  12
ATOM     12  C   UNL     1       8.726  13.669 -19.510  1.00  0.00     0.018 A 
ATOM     13  C   UNL     1       8.574  15.914 -21.217  1.00  0.00     0.118 A 
ATOM     14  C   UNL     1       8.581  16.082 -19.821  1.00  0.00     0.047 A 
ATOM     15  C   UNL     1       8.633  14.621 -21.748  1.00  0.00     0.047 A 
ATOM     16  C   UNL     1       8.651  14.970 -18.976  1.00  0.00     0.016 A 
ATOM     17  C   UNL     1       8.704  13.509 -20.906  1.00  0.00     0.016 A 
BRANCH  13  18
ATOM     18  O   UNL     1       8.506  16.998 -22.106  1.00  0.00    -0.497 OA
ATOM     19  C   UNL     1       8.844  16.927 -23.487  1.00  0.00     0.278 C 
ENDBRANCH  13  18
ENDBRANCH   1  12
BRANCH   8  20
ATOM     20  O   UNL     1       6.087  12.442 -15.713  1.00  0.00    -0.490 OA
ATOM     21  C   UNL     1       6.206  13.570 -14.853  1.00  0.00     0.278 C 
ENDBRANCH   8  20
BRANCH  11  22
ATOM     22  O   UNL     1       9.778   8.219 -16.053  1.00  0.00    -0.492 OA
ATOM     23  C   UNL     1      10.840   8.211 -15.105  1.00  0.00     0.278 C 
ENDBRANCH  11  22
BRANCH   9  24
ATOM     24  O   UNL     1       5.884  10.254 -13.869  1.00  0.00    -0.490 OA
ATOM     25  C   UNL     1       6.083  10.352 -12.463  1.00  0.00     0.279 C 
ENDBRANCH   9  24
BRANCH  10  26
ATOM     26  O   UNL     1       7.633   8.016 -14.192  1.00  0.00    -0.490 OA
ATOM     27  C   UNL     1       6.990   6.792 -14.535  1.00  0.00     0.278 C 
ENDBRANCH  10  26
TORSDOF 6
ENDMDL
MODEL 6
REMARK VINA RESULT:    -5.687      2.347      8.359
REMARK INTER + INTRA:          -8.418
REMARK INTER:                  -7.753
REMARK INTRA:                  -0.666
REMARK UNBOUND:                -0.736
REMARK SMILES COc1ccc(-c2cc(=O)c3c(OC)c(OC)c(OC)c(OC)c3o2)cc1
REMARK SMILES IDX 7 1 8 2 9 3 10 4 11 5 24 6 25 7 21 8 18 9 15 10 12 11 6 12
REMARK SMILES IDX 3 13 4 14 27 15 5 16 26 17 2 18 1 19 22 20 23 21 13 22 14 23
REMARK SMILES IDX 19 24 20 25 16 26 17 27
REMARK H PARENT
REMARK Flexibility Score: inf
ROOT
ATOM      1  C   UNL     1       8.074  10.549 -15.396  1.00  0.00     0.138 A 
ATOM      2  C   UNL     1       8.719   9.918 -16.467  1.00  0.00     0.100 A 
ATOM      3  C   UNL     1       9.110  10.675 -17.572  1.00  0.00     0.197 A 
ATOM      4  O   UNL     1       9.714  10.100 -18.517  1.00  0.00    -0.289 OA
ATOM      5  C   UNL     1       8.843  12.062 -17.600  1.00  0.00     0.115 A 
ATOM      6  C   UNL     1       8.211  12.628 -16.476  1.00  0.00     0.188 A 
ATOM      7  O   UNL     1       7.860  11.860 -15.446  1.00  0.00    -0.452 OA
ATOM      8  C   UNL     1       7.932  13.997 -16.417  1.00  0.00     0.209 A 
ATOM      9  C   UNL     1       8.317  14.844 -17.487  1.00  0.00     0.211 A 
ATOM     10  C   UNL     1       8.986  14.289 -18.612  1.00  0.00     0.208 A 
ATOM     11  C   UNL     1       9.184  12.890 -18.690  1.00  0.00     0.179 A 
ENDROOT
BRANCH   1  12
ATOM     12  C   UNL     1       7.635   9.799 -14.191  1.00  0.00     0.018 A 
ATOM     13  C   UNL     1       6.833   8.317 -11.923  1.00  0.00     0.118 A 
ATOM     14  C   UNL     1       6.922   9.720 -11.862  1.00  0.00     0.047 A 
ATOM     15  C   UNL     1       7.156   7.666 -13.119  1.00  0.00     0.047 A 
ATOM     16  C   UNL     1       7.324  10.452 -12.983  1.00  0.00     0.016 A 
ATOM     17  C   UNL     1       7.557   8.396 -14.240  1.00  0.00     0.016 A 
BRANCH  13  18
ATOM     18  O   UNL     1       6.434   7.539 -10.827  1.00  0.00    -0.497 OA
ATOM     19  C   UNL     1       7.033   7.601  -9.537  1.00  0.00     0.278 C 
ENDBRANCH  13  18
ENDBRANCH   1  12
BRANCH   8  20
ATOM     20  O   UNL     1       7.273  14.449 -15.255  1.00  0.00    -0.490 OA
ATOM     21  C   UNL     1       5.875  14.655 -15.083  1.00  0.00     0.278 C 
ENDBRANCH   8  20
BRANCH  11  22
ATOM     22  O   UNL     1       9.682  12.323 -19.865  1.00  0.00    -0.492 OA
ATOM     23  C   UNL     1       8.836  12.101 -20.988  1.00  0.00     0.278 C 
ENDBRANCH  11  22
BRANCH   9  24
ATOM     24  O   UNL     1       8.026  16.219 -17.383  1.00  0.00    -0.490 OA
ATOM     25  C   UNL     1       6.850  16.892 -17.818  1.00  0.00     0.279 C 
ENDBRANCH   9  24
BRANCH  10  26
ATOM     26  O   UNL     1       9.441  15.150 -19.625  1.00  0.00    -0.490 OA
ATOM     27  C   UNL     1       8.662  15.652 -20.707  1.00  0.00     0.278 C 
ENDBRANCH  10  26
TORSDOF 6
ENDMDL
MODEL 7
REMARK VINA RESULT:    -5.655      1.913      7.508
REMARK INTER + INTRA:          -8.374
REMARK INTER:                  -7.708
REMARK INTRA:                  -0.666
REMARK UNBOUND:                -0.736
REMARK SMILES COc1ccc(-c2cc(=O)c3c(OC)c(OC)c(OC)c(OC)c3o2)cc1
REMARK SMILES IDX 7 1 8 2 9 3 10 4 11 5 24 6 25 7 21 8 18 9 15 10 12 11 6 12
REMARK SMILES IDX 3 13 4 14 27 15 5 16 26 17 2 18 1 19 22 20 23 21 13 22 14 23
REMARK SMILES IDX 19 24 20 25 16 26 17 27
REMARK H PARENT
REMARK Flexibility Score: inf
ROOT
ATOM      1  C   UNL     1       7.877   9.750 -15.757  1.00  0.00     0.138 A 
ATOM      2  C   UNL     1       8.306  10.488 -14.646  1.00  0.00     0.100 A 
ATOM      3  C   UNL     1       8.592  11.845 -14.796  1.00  0.00     0.197 A 
ATOM      4  O   UNL     1       8.952  12.503 -13.783  1.00  0.00    -0.289 OA
ATOM      5  C   UNL     1       8.456  12.454 -16.063  1.00  0.00     0.115 A 
ATOM      6  C   UNL     1       7.997  11.651 -17.126  1.00  0.00     0.188 A 
ATOM      7  O   UNL     1       7.736  10.360 -16.930  1.00  0.00    -0.452 OA
ATOM      8  C   UNL     1       7.814  12.184 -18.407  1.00  0.00     0.209 A 
ATOM      9  C   UNL     1       8.060  13.562 -18.641  1.00  0.00     0.211 A 
ATOM     10  C   UNL     1       8.490  14.387 -17.567  1.00  0.00     0.208 A 
ATOM     11  C   UNL     1       8.750  13.813 -16.300  1.00  0.00     0.179 A 
ENDROOT
BRANCH   1  12
ATOM     12  C   UNL     1       7.554   8.303 -15.662  1.00  0.00     0.018 A 
ATOM     13  C   UNL     1       6.993   5.538 -15.523  1.00  0.00     0.118 A 
ATOM     14  C   UNL     1       6.587   6.399 -14.488  1.00  0.00     0.047 A 
ATOM     15  C   UNL     1       7.687   6.067 -16.617  1.00  0.00     0.047 A 
ATOM     16  C   UNL     1       6.869   7.767 -14.555  1.00  0.00     0.016 A 
ATOM     17  C   UNL     1       7.969   7.433 -16.686  1.00  0.00     0.016 A 
BRANCH  13  18
ATOM     18  O   UNL     1       6.733   4.159 -15.502  1.00  0.00    -0.497 OA
ATOM     19  C   UNL     1       7.210   3.237 -16.477  1.00  0.00     0.278 C 
ENDBRANCH  13  18
ENDBRANCH   1  12
BRANCH   8  20
ATOM     20  O   UNL     1       7.377  11.283 -19.400  1.00  0.00    -0.490 OA
ATOM     21  C   UNL     1       6.053  11.126 -19.896  1.00  0.00     0.278 C 
ENDBRANCH   8  20
BRANCH  11  22
ATOM     22  O   UNL     1       9.336  14.584 -15.294  1.00  0.00    -0.492 OA
ATOM     23  C   UNL     1      10.747  14.766 -15.238  1.00  0.00     0.278 C 
ENDBRANCH  11  22
BRANCH   9  24
ATOM     24  O   UNL     1       7.853  14.060 -19.943  1.00  0.00    -0.490 OA
ATOM     25  C   UNL     1       8.730  13.961 -21.059  1.00  0.00     0.279 C 
ENDBRANCH   9  24
BRANCH  10  26
ATOM     26  O   UNL     1       8.645  15.767 -17.790  1.00  0.00    -0.490 OA
ATOM     27  C   UNL     1       9.783  16.396 -18.373  1.00  0.00     0.278 C 
ENDBRANCH  10  26
TORSDOF 6
ENDMDL
MODEL 8
REMARK VINA RESULT:    -5.532      1.935      7.394
REMARK INTER + INTRA:          -8.209
REMARK INTER:                  -7.499
REMARK INTRA:                  -0.711
REMARK UNBOUND:                -0.736
REMARK SMILES COc1ccc(-c2cc(=O)c3c(OC)c(OC)c(OC)c(OC)c3o2)cc1
REMARK SMILES IDX 7 1 8 2 9 3 10 4 11 5 24 6 25 7 21 8 18 9 15 10 12 11 6 12
REMARK SMILES IDX 3 13 4 14 27 15 5 16 26 17 2 18 1 19 22 20 23 21 13 22 14 23
REMARK SMILES IDX 19 24 20 25 16 26 17 27
REMARK H PARENT
REMARK Flexibility Score: inf
ROOT
ATOM      1  C   UNL     1       8.562  10.100 -16.495  1.00  0.00     0.138 A 
ATOM      2  C   UNL     1       8.759  10.731 -15.260  1.00  0.00     0.100 A 
ATOM      3  C   UNL     1       9.056  12.094 -15.229  1.00  0.00     0.197 A 
ATOM      4  O   UNL     1       9.205  12.655 -14.110  1.00  0.00    -0.289 OA
ATOM      5  C   UNL     1       9.162  12.815 -16.438  1.00  0.00     0.115 A 
ATOM      6  C   UNL     1       8.928  12.116 -17.638  1.00  0.00     0.188 A 
ATOM      7  O   UNL     1       8.646  10.814 -17.613  1.00  0.00    -0.452 OA
ATOM      8  C   UNL     1       8.992  12.763 -18.876  1.00  0.00     0.209 A 
ATOM      9  C   UNL     1       9.265  14.155 -18.933  1.00  0.00     0.211 A 
ATOM     10  C   UNL     1       9.469  14.877 -17.726  1.00  0.00     0.208 A 
ATOM     11  C   UNL     1       9.483  14.188 -16.490  1.00  0.00     0.179 A 
ENDROOT
BRANCH   1  12
ATOM     12  C   UNL     1       8.241   8.652 -16.596  1.00  0.00     0.018 A 
ATOM     13  C   UNL     1       7.621   5.899 -16.719  1.00  0.00     0.118 A 
ATOM     14  C   UNL     1       7.472   6.714 -17.856  1.00  0.00     0.047 A 
ATOM     15  C   UNL     1       8.070   6.473 -15.525  1.00  0.00     0.047 A 
ATOM     16  C   UNL     1       7.775   8.077 -17.793  1.00  0.00     0.016 A 
ATOM     17  C   UNL     1       8.373   7.835 -15.460  1.00  0.00     0.016 A 
BRANCH  13  18
ATOM     18  O   UNL     1       7.331   4.526 -16.733  1.00  0.00    -0.497 OA
ATOM     19  C   UNL     1       7.428   3.674 -15.596  1.00  0.00     0.278 C 
ENDBRANCH  13  18
ENDBRANCH   1  12
BRANCH   8  20
ATOM     20  O   UNL     1       8.766  11.959 -20.012  1.00  0.00    -0.490 OA
ATOM     21  C   UNL     1       7.531  11.755 -20.690  1.00  0.00     0.278 C 
ENDBRANCH   8  20
BRANCH  11  22
ATOM     22  O   UNL     1       9.854  14.861 -15.324  1.00  0.00    -0.492 OA
ATOM     23  C   UNL     1      11.225  15.019 -14.973  1.00  0.00     0.278 C 
ENDBRANCH  11  22
BRANCH   9  24
ATOM     24  O   UNL     1       9.310  14.770 -20.200  1.00  0.00    -0.490 OA
ATOM     25  C   UNL     1       8.238  15.391 -20.902  1.00  0.00     0.279 C 
ENDBRANCH   9  24
BRANCH  10  26
ATOM     26  O   UNL     1       9.651  16.269 -17.790  1.00  0.00    -0.490 OA
ATOM     27  C   UNL     1       8.617  17.249 -17.742  1.00  0.00     0.278 C 
ENDBRANCH  10  26
TORSDOF 6
ENDMDL
MODEL 9
REMARK VINA RESULT:    -5.435      2.647      3.371
REMARK INTER + INTRA:          -8.077
REMARK INTER:                  -7.702
REMARK INTRA:                  -0.376
REMARK UNBOUND:                -0.736
REMARK SMILES COc1ccc(-c2cc(=O)c3c(OC)c(OC)c(OC)c(OC)c3o2)cc1
REMARK SMILES IDX 7 1 8 2 9 3 10 4 11 5 24 6 25 7 21 8 18 9 15 10 12 11 6 12
REMARK SMILES IDX 3 13 4 14 27 15 5 16 26 17 2 18 1 19 22 20 23 21 13 22 14 23
REMARK SMILES IDX 19 24 20 25 16 26 17 27
REMARK H PARENT
REMARK Flexibility Score: inf
ROOT
ATOM      1  C   UNL     1       8.418  13.974 -16.138  1.00  0.00     0.138 A 
ATOM      2  C   UNL     1       7.904  13.769 -14.851  1.00  0.00     0.100 A 
ATOM      3  C   UNL     1       7.962  12.495 -14.286  1.00  0.00     0.197 A 
ATOM      4  O   UNL     1       7.521  12.330 -13.118  1.00  0.00    -0.289 OA
ATOM      5  C   UNL     1       8.528  11.429 -15.020  1.00  0.00     0.115 A 
ATOM      6  C   UNL     1       9.044  11.719 -16.299  1.00  0.00     0.188 A 
ATOM      7  O   UNL     1       8.965  12.954 -16.791  1.00  0.00    -0.452 OA
ATOM      8  C   UNL     1       9.641  10.724 -17.080  1.00  0.00     0.209 A 
ATOM      9  C   UNL     1       9.763   9.405 -16.572  1.00  0.00     0.211 A 
ATOM     10  C   UNL     1       9.277   9.110 -15.270  1.00  0.00     0.208 A 
ATOM     11  C   UNL     1       8.601  10.109 -14.529  1.00  0.00     0.179 A 
ENDROOT
BRANCH   1  12
ATOM     12  C   UNL     1       8.387  15.308 -16.793  1.00  0.00     0.018 A 
ATOM     13  C   UNL     1       8.303  17.869 -17.981  1.00  0.00     0.118 A 
ATOM     14  C   UNL     1       9.210  16.899 -18.444  1.00  0.00     0.047 A 
ATOM     15  C   UNL     1       7.451  17.552 -16.917  1.00  0.00     0.047 A 
ATOM     16  C   UNL     1       9.254  15.633 -17.853  1.00  0.00     0.016 A 
ATOM     17  C   UNL     1       7.494  16.287 -16.325  1.00  0.00     0.016 A 
BRANCH  13  18
ATOM     18  O   UNL     1       8.219  19.153 -18.542  1.00  0.00    -0.497 OA
ATOM     19  C   UNL     1       8.591  20.350 -17.867  1.00  0.00     0.278 C 
ENDBRANCH  13  18
ENDBRANCH   1  12
BRANCH   8  20
ATOM     20  O   UNL     1      10.099  11.122 -18.353  1.00  0.00    -0.490 OA
ATOM     21  C   UNL     1       9.311  11.587 -19.443  1.00  0.00     0.278 C 
ENDBRANCH   8  20
BRANCH  11  22
ATOM     22  O   UNL     1       7.971   9.777 -13.328  1.00  0.00    -0.492 OA
ATOM     23  C   UNL     1       6.689   9.159 -13.318  1.00  0.00     0.278 C 
ENDBRANCH  11  22
BRANCH   9  24
ATOM     24  O   UNL     1      10.380   8.435 -17.387  1.00  0.00    -0.490 OA
ATOM     25  C   UNL     1      11.775   8.195 -17.545  1.00  0.00     0.279 C 
ENDBRANCH   9  24
BRANCH  10  26
ATOM     26  O   UNL     1       9.482   7.822 -14.743  1.00  0.00    -0.490 OA
ATOM     27  C   UNL     1       8.670   6.679 -14.992  1.00  0.00     0.278 C 
ENDBRANCH  10  26
TORSDOF 6
ENDMDL
