MODEL 1
REMARK VINA RESULT:    -4.417      0.000      0.000
REMARK INTER + INTRA:          -7.060
REMARK INTER:                  -6.740
REMARK INTRA:                  -0.319
REMARK UNBOUND:                -0.319
REMARK SMILES CC1=CCC[C@H](C)C(=O)C[C@H](C(C)C)C(=O)C1
REMARK SMILES IDX 8 1 9 2 6 3 7 4 5 5 4 6 3 7 2 8 1 9 10 11 11 12 15 13 16 14
REMARK SMILES IDX 17 15 12 17 13 18 14 19
REMARK H PARENT
REMARK Flexibility Score: 70.00
ROOT
ATOM      1  C   UNL     1      13.652  16.848  55.407  1.00  0.00     0.136 C 
ATOM      2  O   UNL     1      12.907  15.937  55.739  1.00  0.00    -0.299 OA
ENDROOT
BRANCH   1   3
ATOM      3  C   UNL     1      13.335  17.660  54.167  1.00  0.00     0.053 C 
ATOM      4  C   UNL     1      13.528  16.785  52.925  1.00  0.00     0.016 C 
BRANCH   3   5
ATOM      5  C   UNL     1      11.899  18.236  54.196  1.00  0.00     0.015 C 
BRANCH   5   6
ATOM      6  C   UNL     1      11.714  19.410  55.170  1.00  0.00     0.028 C 
BRANCH   6   7
ATOM      7  C   UNL     1      10.961  18.988  56.409  1.00  0.00    -0.028 C 
ATOM      8  C   UNL     1      11.437  19.070  57.672  1.00  0.00    -0.070 CG0
ATOM      9  C   UNL     1      10.557  18.584  58.796  1.00  0.00     0.039 C 
ATOM     10  G   UNL     1      12.813  19.623  58.001  1.00  0.00     0.000 G0
ENDBRANCH   6   7
ENDBRANCH   5   6
ENDBRANCH   3   5
ENDBRANCH   1   3
BRANCH   1  11
ATOM     11  C   UNL     1      14.901  17.107  56.218  1.00  0.00     0.087 C 
BRANCH  11  12
ATOM     12  C   UNL     1      14.932  18.511  56.872  1.00  0.00     0.066 C 
BRANCH  12  13
ATOM     13  C   UNL     1      13.928  18.620  58.015  1.00  0.00     0.140 C 
ATOM     14  O   UNL     1      14.046  17.879  58.980  1.00  0.00    -0.299 OA
BRANCH  13  15
ATOM     15  C   UNL     1      12.808  19.641  58.037  1.00  0.00     0.106 CG0
ATOM     16  G   UNL     1      11.442  19.078  57.689  1.00  0.00     0.000 G0
ENDBRANCH  13  15
ENDBRANCH  12  13
BRANCH  12  17
ATOM     17  C   UNL     1      16.378  18.910  57.303  1.00  0.00    -0.006 C 
ATOM     18  C   UNL     1      17.280  19.151  56.082  1.00  0.00     0.008 C 
ATOM     19  C   UNL     1      16.443  20.124  58.246  1.00  0.00     0.008 C 
ENDBRANCH  12  17
ENDBRANCH  11  12
ENDBRANCH   1  11
TORSDOF 1
ENDMDL
MODEL 2
REMARK VINA RESULT:    -4.305      1.948      4.784
REMARK INTER + INTRA:          -6.889
REMARK INTER:                  -6.536
REMARK INTRA:                  -0.353
REMARK UNBOUND:                -0.319
REMARK SMILES CC1=CCC[C@H](C)C(=O)C[C@H](C(C)C)C(=O)C1
REMARK SMILES IDX 8 1 9 2 6 3 7 4 5 5 4 6 3 7 2 8 1 9 10 11 11 12 15 13 16 14
REMARK SMILES IDX 17 15 12 17 13 18 14 19
REMARK H PARENT
REMARK Flexibility Score: 70.00
ROOT
ATOM      1  C   UNL     1      13.555  18.041  59.150  1.00  0.00     0.136 C 
ATOM      2  O   UNL     1      14.114  17.865  60.223  1.00  0.00    -0.299 OA
ENDROOT
BRANCH   1   3
ATOM      3  C   UNL     1      14.333  18.628  57.988  1.00  0.00     0.053 C 
ATOM      4  C   UNL     1      15.450  19.525  58.528  1.00  0.00     0.016 C 
BRANCH   3   5
ATOM      5  C   UNL     1      14.926  17.532  57.069  1.00  0.00     0.015 C 
BRANCH   5   6
ATOM      6  C   UNL     1      14.401  17.574  55.625  1.00  0.00     0.028 C 
BRANCH   6   7
ATOM      7  C   UNL     1      13.585  16.346  55.297  1.00  0.00    -0.028 C 
ATOM      8  C   UNL     1      12.235  16.308  55.227  1.00  0.00    -0.070 CG0
ATOM      9  C   UNL     1      11.579  14.989  54.904  1.00  0.00     0.039 C 
ATOM     10  G   UNL     1      11.361  17.527  55.462  1.00  0.00     0.000 G0
ENDBRANCH   6   7
ENDBRANCH   5   6
ENDBRANCH   3   5
ENDBRANCH   1   3
BRANCH   1  11
ATOM     11  C   UNL     1      12.085  17.716  59.026  1.00  0.00     0.087 C 
BRANCH  11  12
ATOM     12  C   UNL     1      11.364  18.527  57.921  1.00  0.00     0.066 C 
BRANCH  12  13
ATOM     13  C   UNL     1      10.771  17.615  56.851  1.00  0.00     0.140 C 
ATOM     14  O   UNL     1       9.773  16.962  57.115  1.00  0.00    -0.299 OA
BRANCH  13  15
ATOM     15  C   UNL     1      11.337  17.511  55.448  1.00  0.00     0.106 CG0
ATOM     16  G   UNL     1      12.229  16.304  55.222  1.00  0.00     0.000 G0
ENDBRANCH  13  15
ENDBRANCH  12  13
BRANCH  12  17
ATOM     17  C   UNL     1      10.310  19.507  58.525  1.00  0.00    -0.006 C 
ATOM     18  C   UNL     1       9.762  18.986  59.863  1.00  0.00     0.008 C 
ATOM     19  C   UNL     1      10.815  20.950  58.696  1.00  0.00     0.008 C 
ENDBRANCH  12  17
ENDBRANCH  11  12
ENDBRANCH   1  11
TORSDOF 1
ENDMDL
MODEL 3
REMARK VINA RESULT:    -4.049     10.038     12.044
REMARK INTER + INTRA:          -6.499
REMARK INTER:                  -6.738
REMARK INTRA:                   0.239
REMARK UNBOUND:                -0.319
REMARK SMILES CC1=CCC[C@H](C)C(=O)C[C@H](C(C)C)C(=O)C1
REMARK SMILES IDX 8 1 9 2 6 3 7 4 5 5 4 6 3 7 2 8 1 9 10 11 11 12 15 13 16 14
REMARK SMILES IDX 17 15 12 17 13 18 14 19
REMARK H PARENT
REMARK Flexibility Score: 70.00
ROOT
ATOM      1  C   UNL     1      18.305  11.285  52.608  1.00  0.00     0.136 C 
ATOM      2  O   UNL     1      17.206  11.273  52.073  1.00  0.00    -0.299 OA
ENDROOT
BRANCH   1   3
ATOM      3  C   UNL     1      19.444  12.050  51.963  1.00  0.00     0.053 C 
ATOM      4  C   UNL     1      18.895  12.908  50.820  1.00  0.00     0.016 C 
BRANCH   3   5
ATOM      5  C   UNL     1      20.202  12.937  52.980  1.00  0.00     0.015 C 
BRANCH   5   6
ATOM      6  C   UNL     1      21.347  12.217  53.710  1.00  0.00     0.028 C 
BRANCH   6   7
ATOM      7  C   UNL     1      22.106  11.300  52.780  1.00  0.00    -0.028 C 
ATOM      8  C   UNL     1      22.075   9.949  52.827  1.00  0.00    -0.070 CG0
ATOM      9  C   UNL     1      22.912   9.185  51.831  1.00  0.00     0.039 C 
ATOM     10  G   UNL     1      21.244   9.177  53.836  1.00  0.00     0.000 G0
ENDBRANCH   6   7
ENDBRANCH   5   6
ENDBRANCH   3   5
ENDBRANCH   1   3
BRANCH   1  11
ATOM     11  C   UNL     1      18.512  10.491  53.877  1.00  0.00     0.087 C 
BRANCH  11  12
ATOM     12  C   UNL     1      18.582   8.961  53.644  1.00  0.00     0.066 C 
BRANCH  12  13
ATOM     13  C   UNL     1      19.989   8.516  53.256  1.00  0.00     0.140 C 
ATOM     14  O   UNL     1      20.122   7.636  52.419  1.00  0.00    -0.299 OA
BRANCH  13  15
ATOM     15  C   UNL     1      21.242   9.148  53.828  1.00  0.00     0.106 CG0
ATOM     16  G   UNL     1      22.066   9.927  52.818  1.00  0.00     0.000 G0
ENDBRANCH  13  15
ENDBRANCH  12  13
BRANCH  12  17
ATOM     17  C   UNL     1      18.016   8.169  54.864  1.00  0.00    -0.006 C 
ATOM     18  C   UNL     1      16.703   8.785  55.372  1.00  0.00     0.008 C 
ATOM     19  C   UNL     1      17.819   6.665  54.604  1.00  0.00     0.008 C 
ENDBRANCH  12  17
ENDBRANCH  11  12
ENDBRANCH   1  11
TORSDOF 1
ENDMDL
MODEL 4
REMARK VINA RESULT:    -3.971      2.538      4.703
REMARK INTER + INTRA:          -6.380
REMARK INTER:                  -6.025
REMARK INTRA:                  -0.356
REMARK UNBOUND:                -0.319
REMARK SMILES CC1=CCC[C@H](C)C(=O)C[C@H](C(C)C)C(=O)C1
REMARK SMILES IDX 8 1 9 2 6 3 7 4 5 5 4 6 3 7 2 8 1 9 10 11 11 12 15 13 16 14
REMARK SMILES IDX 17 15 12 17 13 18 14 19
REMARK H PARENT
REMARK Flexibility Score: 70.00
ROOT
ATOM      1  C   UNL     1      12.594  18.792  58.239  1.00  0.00     0.136 C 
ATOM      2  O   UNL     1      12.535  20.001  58.406  1.00  0.00    -0.299 OA
ENDROOT
BRANCH   1   3
ATOM      3  C   UNL     1      12.408  17.864  59.424  1.00  0.00     0.053 C 
ATOM      4  C   UNL     1      13.688  17.853  60.265  1.00  0.00     0.016 C 
BRANCH   3   5
ATOM      5  C   UNL     1      11.197  18.268  60.299  1.00  0.00     0.015 C 
BRANCH   5   6
ATOM      6  C   UNL     1       9.835  17.886  59.699  1.00  0.00     0.028 C 
BRANCH   6   7
ATOM      7  C   UNL     1       9.179  19.065  59.019  1.00  0.00    -0.028 C 
ATOM      8  C   UNL     1       8.911  19.147  57.696  1.00  0.00    -0.070 CG0
ATOM      9  C   UNL     1       8.269  20.409  57.179  1.00  0.00     0.039 C 
ATOM     10  G   UNL     1       9.233  18.031  56.718  1.00  0.00     0.000 G0
ENDBRANCH   6   7
ENDBRANCH   5   6
ENDBRANCH   3   5
ENDBRANCH   1   3
BRANCH   1  11
ATOM     11  C   UNL     1      12.903  18.254  56.861  1.00  0.00     0.087 C 
BRANCH  11  12
ATOM     12  C   UNL     1      11.780  17.358  56.282  1.00  0.00     0.066 C 
BRANCH  12  13
ATOM     13  C   UNL     1      10.532  18.169  55.944  1.00  0.00     0.140 C 
ATOM     14  O   UNL     1      10.570  18.950  55.005  1.00  0.00    -0.299 OA
BRANCH  13  15
ATOM     15  C   UNL     1       9.223  18.020  56.692  1.00  0.00     0.106 CG0
ATOM     16  G   UNL     1       8.928  19.147  57.666  1.00  0.00     0.000 G0
ENDBRANCH  13  15
ENDBRANCH  12  13
BRANCH  12  17
ATOM     17  C   UNL     1      12.290  16.510  55.075  1.00  0.00    -0.006 C 
ATOM     18  C   UNL     1      13.824  16.504  55.003  1.00  0.00     0.008 C 
ATOM     19  C   UNL     1      11.762  15.064  55.053  1.00  0.00     0.008 C 
ENDBRANCH  12  17
ENDBRANCH  11  12
ENDBRANCH   1  11
TORSDOF 1
ENDMDL
MODEL 5
REMARK VINA RESULT:    -3.971      2.418      5.273
REMARK INTER + INTRA:          -6.379
REMARK INTER:                  -5.941
REMARK INTRA:                  -0.438
REMARK UNBOUND:                -0.319
REMARK SMILES CC1=CCC[C@H](C)C(=O)C[C@H](C(C)C)C(=O)C1
REMARK SMILES IDX 8 1 9 2 6 3 7 4 5 5 4 6 3 7 2 8 1 9 10 11 11 12 15 13 16 14
REMARK SMILES IDX 17 15 12 17 13 18 14 19
REMARK H PARENT
REMARK Flexibility Score: 70.00
ROOT
ATOM      1  C   UNL     1       9.554  20.720  57.992  1.00  0.00     0.136 C 
ATOM      2  O   UNL     1       9.210  21.883  58.147  1.00  0.00    -0.299 OA
ENDROOT
BRANCH   1   3
ATOM      3  C   UNL     1       9.114  19.969  56.751  1.00  0.00     0.053 C 
ATOM      4  C   UNL     1       7.652  20.306  56.446  1.00  0.00     0.016 C 
BRANCH   3   5
ATOM      5  C   UNL     1      10.003  20.291  55.526  1.00  0.00     0.015 C 
BRANCH   5   6
ATOM      6  C   UNL     1      10.810  19.092  55.004  1.00  0.00     0.028 C 
BRANCH   6   7
ATOM      7  C   UNL     1      12.236  19.126  55.501  1.00  0.00    -0.028 C 
ATOM      8  C   UNL     1      12.722  18.378  56.518  1.00  0.00    -0.070 CG0
ATOM      9  C   UNL     1      14.170  18.552  56.898  1.00  0.00     0.039 C 
ATOM     10  G   UNL     1      11.873  17.382  57.288  1.00  0.00     0.000 G0
ENDBRANCH   6   7
ENDBRANCH   5   6
ENDBRANCH   3   5
ENDBRANCH   1   3
BRANCH   1  11
ATOM     11  C   UNL     1      10.369  20.046  59.071  1.00  0.00     0.087 C 
BRANCH  11  12
ATOM     12  C   UNL     1      10.225  18.504  59.080  1.00  0.00     0.066 C 
BRANCH  12  13
ATOM     13  C   UNL     1      11.540  17.815  58.726  1.00  0.00     0.140 C 
ATOM     14  O   UNL     1      12.336  17.563  59.618  1.00  0.00    -0.299 OA
BRANCH  13  15
ATOM     15  C   UNL     1      11.892  17.382  57.317  1.00  0.00     0.106 CG0
ATOM     16  G   UNL     1      12.716  18.393  56.539  1.00  0.00     0.000 G0
ENDBRANCH  13  15
ENDBRANCH  12  13
BRANCH  12  17
ATOM     17  C   UNL     1       9.624  17.992  60.427  1.00  0.00    -0.006 C 
ATOM     18  C   UNL     1       9.793  19.031  61.546  1.00  0.00     0.008 C 
ATOM     19  C   UNL     1       8.150  17.560  60.336  1.00  0.00     0.008 C 
ENDBRANCH  12  17
ENDBRANCH  11  12
ENDBRANCH   1  11
TORSDOF 1
ENDMDL
MODEL 6
REMARK VINA RESULT:    -3.929      1.857      4.247
REMARK INTER + INTRA:          -6.315
REMARK INTER:                  -6.299
REMARK INTRA:                  -0.016
REMARK UNBOUND:                -0.319
REMARK SMILES CC1=CCC[C@H](C)C(=O)C[C@H](C(C)C)C(=O)C1
REMARK SMILES IDX 8 1 9 2 6 3 7 4 5 5 4 6 3 7 2 8 1 9 10 11 11 12 15 13 16 14
REMARK SMILES IDX 17 15 12 17 13 18 14 19
REMARK H PARENT
REMARK Flexibility Score: 70.00
ROOT
ATOM      1  C   UNL     1      11.933  18.560  58.946  1.00  0.00     0.136 C 
ATOM      2  O   UNL     1      12.470  17.760  59.698  1.00  0.00    -0.299 OA
ENDROOT
BRANCH   1   3
ATOM      3  C   UNL     1      10.468  18.899  59.138  1.00  0.00     0.053 C 
ATOM      4  C   UNL     1       9.881  18.011  60.238  1.00  0.00     0.016 C 
BRANCH   3   5
ATOM      5  C   UNL     1      10.254  20.392  59.486  1.00  0.00     0.015 C 
BRANCH   5   6
ATOM      6  C   UNL     1       9.993  21.290  58.266  1.00  0.00     0.028 C 
BRANCH   6   7
ATOM      7  C   UNL     1       9.195  20.567  57.208  1.00  0.00    -0.028 C 
ATOM      8  C   UNL     1       9.689  20.127  56.029  1.00  0.00    -0.070 CG0
ATOM      9  C   UNL     1       8.744  19.439  55.076  1.00  0.00     0.039 C 
ATOM     10  G   UNL     1      11.143  20.299  55.627  1.00  0.00     0.000 G0
ENDBRANCH   6   7
ENDBRANCH   5   6
ENDBRANCH   3   5
ENDBRANCH   1   3
BRANCH   1  11
ATOM     11  C   UNL     1      12.734  19.153  57.811  1.00  0.00     0.087 C 
BRANCH  11  12
ATOM     12  C   UNL     1      12.698  18.300  56.518  1.00  0.00     0.066 C 
BRANCH  12  13
ATOM     13  C   UNL     1      11.927  19.001  55.404  1.00  0.00     0.140 C 
ATOM     14  O   UNL     1      11.891  18.489  54.295  1.00  0.00    -0.299 OA
BRANCH  13  15
ATOM     15  C   UNL     1      11.157  20.289  55.616  1.00  0.00     0.106 CG0
ATOM     16  G   UNL     1       9.710  20.090  56.032  1.00  0.00     0.000 G0
ENDBRANCH  13  15
ENDBRANCH  12  13
BRANCH  12  17
ATOM     17  C   UNL     1      14.132  17.868  56.076  1.00  0.00    -0.006 C 
ATOM     18  C   UNL     1      15.143  18.029  57.222  1.00  0.00     0.008 C 
ATOM     19  C   UNL     1      14.213  16.441  55.506  1.00  0.00     0.008 C 
ENDBRANCH  12  17
ENDBRANCH  11  12
ENDBRANCH   1  11
TORSDOF 1
ENDMDL
MODEL 7
REMARK VINA RESULT:    -3.916      1.993      4.796
REMARK INTER + INTRA:          -6.296
REMARK INTER:                  -6.584
REMARK INTRA:                   0.288
REMARK UNBOUND:                -0.319
REMARK SMILES CC1=CCC[C@H](C)C(=O)C[C@H](C(C)C)C(=O)C1
REMARK SMILES IDX 8 1 9 2 6 3 7 4 5 5 4 6 3 7 2 8 1 9 10 11 11 12 15 13 16 14
REMARK SMILES IDX 17 15 12 17 13 18 14 19
REMARK H PARENT
REMARK Flexibility Score: 70.00
ROOT
ATOM      1  C   UNL     1      13.449  18.048  59.124  1.00  0.00     0.136 C 
ATOM      2  O   UNL     1      14.188  17.893  60.085  1.00  0.00    -0.299 OA
ENDROOT
BRANCH   1   3
ATOM      3  C   UNL     1      13.976  18.731  57.877  1.00  0.00     0.053 C 
ATOM      4  C   UNL     1      15.421  19.177  58.116  1.00  0.00     0.016 C 
BRANCH   3   5
ATOM      5  C   UNL     1      13.898  17.815  56.631  1.00  0.00     0.015 C 
BRANCH   5   6
ATOM      6  C   UNL     1      12.502  17.741  55.993  1.00  0.00     0.028 C 
BRANCH   6   7
ATOM      7  C   UNL     1      11.962  19.117  55.683  1.00  0.00    -0.028 C 
ATOM      8  C   UNL     1      10.894  19.686  56.288  1.00  0.00    -0.070 CG0
ATOM      9  C   UNL     1      10.477  21.064  55.841  1.00  0.00     0.039 C 
ATOM     10  G   UNL     1      10.103  18.997  57.386  1.00  0.00     0.000 G0
ENDBRANCH   6   7
ENDBRANCH   5   6
ENDBRANCH   3   5
ENDBRANCH   1   3
BRANCH   1  11
ATOM     11  C   UNL     1      12.010  17.597  59.224  1.00  0.00     0.087 C 
BRANCH  11  12
ATOM     12  C   UNL     1      11.075  18.655  59.860  1.00  0.00     0.066 C 
BRANCH  12  13
ATOM     13  C   UNL     1      10.375  19.498  58.797  1.00  0.00     0.140 C 
ATOM     14  O   UNL     1      10.064  20.649  59.064  1.00  0.00    -0.299 OA
BRANCH  13  15
ATOM     15  C   UNL     1      10.087  18.990  57.398  1.00  0.00     0.106 CG0
ATOM     16  G   UNL     1      10.874  19.691  56.305  1.00  0.00     0.000 G0
ENDBRANCH  13  15
ENDBRANCH  12  13
BRANCH  12  17
ATOM     17  C   UNL     1      10.073  18.005  60.865  1.00  0.00    -0.006 C 
ATOM     18  C   UNL     1       9.849  18.904  62.091  1.00  0.00     0.008 C 
ATOM     19  C   UNL     1       8.718  17.621  60.246  1.00  0.00     0.008 C 
ENDBRANCH  12  17
ENDBRANCH  11  12
ENDBRANCH   1  11
TORSDOF 1
ENDMDL
MODEL 8
REMARK VINA RESULT:    -3.814      7.023      9.177
REMARK INTER + INTRA:          -6.140
REMARK INTER:                  -5.708
REMARK INTRA:                  -0.432
REMARK UNBOUND:                -0.319
REMARK SMILES CC1=CCC[C@H](C)C(=O)C[C@H](C(C)C)C(=O)C1
REMARK SMILES IDX 8 1 9 2 6 3 7 4 5 5 4 6 3 7 2 8 1 9 10 11 11 12 15 13 16 14
REMARK SMILES IDX 17 15 12 17 13 18 14 19
REMARK H PARENT
REMARK Flexibility Score: 70.00
ROOT
ATOM      1  C   UNL     1       8.479  22.760  55.279  1.00  0.00     0.136 C 
ATOM      2  O   UNL     1       9.604  22.928  54.829  1.00  0.00    -0.299 OA
ENDROOT
BRANCH   1   3
ATOM      3  C   UNL     1       8.204  23.065  56.738  1.00  0.00     0.053 C 
ATOM      4  C   UNL     1       9.178  22.274  57.615  1.00  0.00     0.016 C 
BRANCH   3   5
ATOM      5  C   UNL     1       8.313  24.578  57.049  1.00  0.00     0.015 C 
BRANCH   5   6
ATOM      6  C   UNL     1       7.162  25.421  56.478  1.00  0.00     0.028 C 
BRANCH   6   7
ATOM      7  C   UNL     1       5.847  25.083  57.140  1.00  0.00    -0.028 C 
ATOM      8  C   UNL     1       4.836  24.401  56.555  1.00  0.00    -0.070 CG0
ATOM      9  C   UNL     1       3.581  24.167  57.357  1.00  0.00     0.039 C 
ATOM     10  G   UNL     1       4.912  23.871  55.134  1.00  0.00     0.000 G0
ENDBRANCH   6   7
ENDBRANCH   5   6
ENDBRANCH   3   5
ENDBRANCH   1   3
BRANCH   1  11
ATOM     11  C   UNL     1       7.404  22.201  54.376  1.00  0.00     0.087 C 
BRANCH  11  12
ATOM     12  C   UNL     1       6.231  21.546  55.147  1.00  0.00     0.066 C 
BRANCH  12  13
ATOM     13  C   UNL     1       4.947  22.359  55.011  1.00  0.00     0.140 C 
ATOM     14  O   UNL     1       3.889  21.772  54.840  1.00  0.00    -0.299 OA
BRANCH  13  15
ATOM     15  C   UNL     1       4.909  23.870  55.126  1.00  0.00     0.106 CG0
ATOM     16  G   UNL     1       4.842  24.386  56.552  1.00  0.00     0.000 G0
ENDBRANCH  13  15
ENDBRANCH  12  13
BRANCH  12  17
ATOM     17  C   UNL     1       6.041  20.051  54.739  1.00  0.00    -0.006 C 
ATOM     18  C   UNL     1       6.349  19.834  53.249  1.00  0.00     0.008 C 
ATOM     19  C   UNL     1       6.851  19.057  55.589  1.00  0.00     0.008 C 
ENDBRANCH  12  17
ENDBRANCH  11  12
ENDBRANCH   1  11
TORSDOF 1
ENDMDL
MODEL 9
REMARK VINA RESULT:    -3.805      2.363      4.523
REMARK INTER + INTRA:          -6.127
REMARK INTER:                  -5.740
REMARK INTRA:                  -0.387
REMARK UNBOUND:                -0.319
REMARK SMILES CC1=CCC[C@H](C)C(=O)C[C@H](C(C)C)C(=O)C1
REMARK SMILES IDX 8 1 9 2 6 3 7 4 5 5 4 6 3 7 2 8 1 9 10 11 11 12 15 13 16 14
REMARK SMILES IDX 17 15 12 17 13 18 14 19
REMARK H PARENT
REMARK Flexibility Score: 70.00
ROOT
ATOM      1  C   UNL     1      11.030  19.819  59.025  1.00  0.00     0.136 C 
ATOM      2  O   UNL     1      10.566  20.743  59.678  1.00  0.00    -0.299 OA
ENDROOT
BRANCH   1   3
ATOM      3  C   UNL     1      10.482  18.419  59.215  1.00  0.00     0.053 C 
ATOM      4  C   UNL     1      10.345  18.127  60.712  1.00  0.00     0.016 C 
BRANCH   3   5
ATOM      5  C   UNL     1       9.120  18.222  58.506  1.00  0.00     0.015 C 
BRANCH   5   6
ATOM      6  C   UNL     1       9.155  17.207  57.353  1.00  0.00     0.028 C 
BRANCH   6   7
ATOM      7  C   UNL     1       8.878  17.869  56.024  1.00  0.00    -0.028 C 
ATOM      8  C   UNL     1       9.810  18.141  55.083  1.00  0.00    -0.070 CG0
ATOM      9  C   UNL     1       9.361  18.826  53.817  1.00  0.00     0.039 C 
ATOM     10  G   UNL     1      11.279  17.793  55.251  1.00  0.00     0.000 G0
ENDBRANCH   6   7
ENDBRANCH   5   6
ENDBRANCH   3   5
ENDBRANCH   1   3
BRANCH   1  11
ATOM     11  C   UNL     1      12.177  20.092  58.080  1.00  0.00     0.087 C 
BRANCH  11  12
ATOM     12  C   UNL     1      12.638  18.842  57.291  1.00  0.00     0.066 C 
BRANCH  12  13
ATOM     13  C   UNL     1      12.147  18.877  55.846  1.00  0.00     0.140 C 
ATOM     14  O   UNL     1      12.491  19.803  55.126  1.00  0.00    -0.299 OA
BRANCH  13  15
ATOM     15  C   UNL     1      11.286  17.788  55.239  1.00  0.00     0.106 CG0
ATOM     16  G   UNL     1       9.821  18.160  55.091  1.00  0.00     0.000 G0
ENDBRANCH  13  15
ENDBRANCH  12  13
BRANCH  12  17
ATOM     17  C   UNL     1      14.182  18.634  57.395  1.00  0.00    -0.006 C 
ATOM     18  C   UNL     1      14.631  18.508  58.859  1.00  0.00     0.008 C 
ATOM     19  C   UNL     1      14.715  17.442  56.582  1.00  0.00     0.008 C 
ENDBRANCH  12  17
ENDBRANCH  11  12
ENDBRANCH   1  11
TORSDOF 1
ENDMDL
