MODEL 1
REMARK VINA RESULT:    -4.064      0.000      0.000
REMARK INTER + INTRA:         -10.590
REMARK INTER:                  -7.865
REMARK INTRA:                  -2.725
REMARK UNBOUND:                -2.725
REMARK SMILES CCCCCCCCCCCCCCCCCC(=O)[O-]
REMARK SMILES IDX 10 1 11 2 12 3 13 4 14 5 15 6 16 7 17 8 18 9 19 10 20 11
REMARK SMILES IDX 9 12 8 13 7 14 6 15 5 16 4 17 3 18 2 19 1 20
REMARK H PARENT
REMARK Flexibility Score: inf
ROOT
ATOM      1  C   UNL     1      24.477  -4.148  -8.288  1.00  0.00     0.000 C 
ENDROOT
BRANCH   1   2
ATOM      2  C   UNL     1      23.998  -4.435  -9.726  1.00  0.00     0.000 C 
BRANCH   2   3
ATOM      3  C   UNL     1      25.057  -5.060 -10.654  1.00  0.00     0.000 C 
BRANCH   3   4
ATOM      4  C   UNL     1      25.892  -4.052 -11.469  1.00  0.00     0.000 C 
BRANCH   4   5
ATOM      5  C   UNL     1      27.244  -3.665 -10.842  1.00  0.00     0.000 C 
BRANCH   5   6
ATOM      6  C   UNL     1      27.793  -4.743  -9.892  1.00  0.00     0.000 C 
BRANCH   6   7
ATOM      7  C   UNL     1      28.329  -4.157  -8.572  1.00  0.00     0.006 C 
BRANCH   7   8
ATOM      8  C   UNL     1      28.757  -2.682  -8.659  1.00  0.00     0.053 C 
BRANCH   8   9
ATOM      9  C   UNL     1      28.522  -1.951  -7.373  1.00  0.00     0.041 C 
ATOM     10  O   UNL     1      28.490  -2.580  -6.283  1.00  0.00    -0.550 OA
ATOM     11  O   UNL     1      28.304  -0.578  -7.382  1.00  0.00    -0.550 OA
ENDBRANCH   8   9
ENDBRANCH   7   8
ENDBRANCH   6   7
ENDBRANCH   5   6
ENDBRANCH   4   5
ENDBRANCH   3   4
ENDBRANCH   2   3
ENDBRANCH   1   2
BRANCH   1  12
ATOM     12  C   UNL     1      24.909  -2.693  -8.025  1.00  0.00     0.000 C 
BRANCH  12  13
ATOM     13  C   UNL     1      24.409  -1.669  -9.062  1.00  0.00    -0.000 C 
BRANCH  13  14
ATOM     14  C   UNL     1      25.462  -0.610  -9.452  1.00  0.00    -0.000 C 
BRANCH  14  15
ATOM     15  C   UNL     1      25.519  -0.361 -10.969  1.00  0.00    -0.000 C 
BRANCH  15  16
ATOM     16  C   UNL     1      24.254  -0.873 -11.691  1.00  0.00    -0.000 C 
BRANCH  16  17
ATOM     17  C   UNL     1      24.090  -0.318 -13.117  1.00  0.00    -0.000 C 
BRANCH  17  18
ATOM     18  C   UNL     1      24.682   1.092 -13.279  1.00  0.00    -0.000 C 
BRANCH  18  19
ATOM     19  C   UNL     1      25.676   1.181 -14.448  1.00  0.00    -0.003 C 
ATOM     20  C   UNL     1      25.182   0.459 -15.703  1.00  0.00     0.004 C 
ENDBRANCH  18  19
ENDBRANCH  17  18
ENDBRANCH  16  17
ENDBRANCH  15  16
ENDBRANCH  14  15
ENDBRANCH  13  14
ENDBRANCH  12  13
ENDBRANCH   1  12
TORSDOF 16
ENDMDL
MODEL 2
REMARK VINA RESULT:    -4.023      3.002      6.344
REMARK INTER + INTRA:         -10.511
REMARK INTER:                  -8.354
REMARK INTRA:                  -2.157
REMARK UNBOUND:                -2.725
REMARK SMILES CCCCCCCCCCCCCCCCCC(=O)[O-]
REMARK SMILES IDX 10 1 11 2 12 3 13 4 14 5 15 6 16 7 17 8 18 9 19 10 20 11
REMARK SMILES IDX 9 12 8 13 7 14 6 15 5 16 4 17 3 18 2 19 1 20
REMARK H PARENT
REMARK Flexibility Score: inf
ROOT
ATOM      1  C   UNL     1      28.780  -1.738  -6.408  1.00  0.00     0.000 C 
ENDROOT
BRANCH   1   2
ATOM      2  C   UNL     1      28.484  -0.688  -7.499  1.00  0.00     0.000 C 
BRANCH   2   3
ATOM      3  C   UNL     1      26.989  -0.447  -7.784  1.00  0.00     0.000 C 
BRANCH   3   4
ATOM      4  C   UNL     1      26.350  -1.418  -8.798  1.00  0.00     0.000 C 
BRANCH   4   5
ATOM      5  C   UNL     1      24.811  -1.445  -8.797  1.00  0.00     0.000 C 
BRANCH   5   6
ATOM      6  C   UNL     1      24.217  -1.696 -10.193  1.00  0.00     0.000 C 
BRANCH   6   7
ATOM      7  C   UNL     1      25.192  -1.333 -11.329  1.00  0.00     0.006 C 
BRANCH   7   8
ATOM      8  C   UNL     1      25.104   0.128 -11.801  1.00  0.00     0.053 C 
BRANCH   8   9
ATOM      9  C   UNL     1      24.569   0.238 -13.196  1.00  0.00     0.041 C 
ATOM     10  O   UNL     1      24.098  -0.775 -13.775  1.00  0.00    -0.550 OA
ATOM     11  O   UNL     1      24.621   1.453 -13.868  1.00  0.00    -0.550 OA
ENDBRANCH   8   9
ENDBRANCH   7   8
ENDBRANCH   6   7
ENDBRANCH   5   6
ENDBRANCH   4   5
ENDBRANCH   3   4
ENDBRANCH   2   3
ENDBRANCH   1   2
BRANCH   1  12
ATOM     12  C   UNL     1      29.578  -2.965  -6.887  1.00  0.00     0.000 C 
BRANCH  12  13
ATOM     13  C   UNL     1      28.733  -4.069  -7.552  1.00  0.00    -0.000 C 
BRANCH  13  14
ATOM     14  C   UNL     1      27.703  -4.721  -6.605  1.00  0.00    -0.000 C 
BRANCH  14  15
ATOM     15  C   UNL     1      26.252  -4.493  -7.062  1.00  0.00    -0.000 C 
BRANCH  15  16
ATOM     16  C   UNL     1      25.778  -5.574  -8.058  1.00  0.00    -0.000 C 
BRANCH  16  17
ATOM     17  C   UNL     1      25.906  -5.152  -9.533  1.00  0.00    -0.000 C 
BRANCH  17  18
ATOM     18  C   UNL     1      24.580  -5.265 -10.302  1.00  0.00    -0.000 C 
BRANCH  18  19
ATOM     19  C   UNL     1      23.360  -5.299  -9.367  1.00  0.00    -0.003 C 
ATOM     20  C   UNL     1      22.401  -6.447  -9.686  1.00  0.00     0.004 C 
ENDBRANCH  18  19
ENDBRANCH  17  18
ENDBRANCH  16  17
ENDBRANCH  15  16
ENDBRANCH  14  15
ENDBRANCH  13  14
ENDBRANCH  12  13
ENDBRANCH   1  12
TORSDOF 16
ENDMDL
MODEL 3
REMARK VINA RESULT:    -3.941      3.091      6.648
REMARK INTER + INTRA:         -10.352
REMARK INTER:                  -8.470
REMARK INTRA:                  -1.882
REMARK UNBOUND:                -2.725
REMARK SMILES CCCCCCCCCCCCCCCCCC(=O)[O-]
REMARK SMILES IDX 10 1 11 2 12 3 13 4 14 5 15 6 16 7 17 8 18 9 19 10 20 11
REMARK SMILES IDX 9 12 8 13 7 14 6 15 5 16 4 17 3 18 2 19 1 20
REMARK H PARENT
REMARK Flexibility Score: inf
ROOT
ATOM      1  C   UNL     1      26.331  -1.250  -8.930  1.00  0.00     0.000 C 
ENDROOT
BRANCH   1   2
ATOM      2  C   UNL     1      24.910  -1.756  -8.613  1.00  0.00     0.000 C 
BRANCH   2   3
ATOM      3  C   UNL     1      23.953  -1.814  -9.819  1.00  0.00     0.000 C 
BRANCH   3   4
ATOM      4  C   UNL     1      24.628  -1.676 -11.199  1.00  0.00     0.000 C 
BRANCH   4   5
ATOM      5  C   UNL     1      24.053  -0.569 -12.101  1.00  0.00     0.000 C 
BRANCH   5   6
ATOM      6  C   UNL     1      25.089   0.510 -12.457  1.00  0.00     0.000 C 
BRANCH   6   7
ATOM      7  C   UNL     1      24.724   1.288 -13.735  1.00  0.00     0.006 C 
BRANCH   7   8
ATOM      8  C   UNL     1      25.765   1.183 -14.862  1.00  0.00     0.053 C 
BRANCH   8   9
ATOM      9  C   UNL     1      25.975  -0.233 -15.305  1.00  0.00     0.041 C 
ATOM     10  O   UNL     1      27.117  -0.756 -15.236  1.00  0.00    -0.550 OA
ATOM     11  O   UNL     1      24.913  -0.964 -15.826  1.00  0.00    -0.550 OA
ENDBRANCH   8   9
ENDBRANCH   7   8
ENDBRANCH   6   7
ENDBRANCH   5   6
ENDBRANCH   4   5
ENDBRANCH   3   4
ENDBRANCH   2   3
ENDBRANCH   1   2
BRANCH   1  12
ATOM     12  C   UNL     1      26.963  -0.362  -7.841  1.00  0.00     0.000 C 
BRANCH  12  13
ATOM     13  C   UNL     1      28.408  -0.735  -7.457  1.00  0.00    -0.000 C 
BRANCH  13  14
ATOM     14  C   UNL     1      28.502  -1.799  -6.343  1.00  0.00    -0.000 C 
BRANCH  14  15
ATOM     15  C   UNL     1      28.691  -3.223  -6.897  1.00  0.00    -0.000 C 
BRANCH  15  16
ATOM     16  C   UNL     1      27.407  -4.070  -6.774  1.00  0.00    -0.000 C 
BRANCH  16  17
ATOM     17  C   UNL     1      27.019  -4.795  -8.075  1.00  0.00    -0.000 C 
BRANCH  17  18
ATOM     18  C   UNL     1      25.656  -5.499  -7.982  1.00  0.00    -0.000 C 
BRANCH  18  19
ATOM     19  C   UNL     1      24.909  -5.512  -9.324  1.00  0.00    -0.003 C 
ATOM     20  C   UNL     1      23.391  -5.420  -9.159  1.00  0.00     0.004 C 
ENDBRANCH  18  19
ENDBRANCH  17  18
ENDBRANCH  16  17
ENDBRANCH  15  16
ENDBRANCH  14  15
ENDBRANCH  13  14
ENDBRANCH  12  13
ENDBRANCH   1  12
TORSDOF 16
ENDMDL
MODEL 4
REMARK VINA RESULT:    -3.919      2.706      4.355
REMARK INTER + INTRA:         -10.309
REMARK INTER:                  -8.654
REMARK INTRA:                  -1.655
REMARK UNBOUND:                -2.725
REMARK SMILES CCCCCCCCCCCCCCCCCC(=O)[O-]
REMARK SMILES IDX 10 1 11 2 12 3 13 4 14 5 15 6 16 7 17 8 18 9 19 10 20 11
REMARK SMILES IDX 9 12 8 13 7 14 6 15 5 16 4 17 3 18 2 19 1 20
REMARK H PARENT
REMARK Flexibility Score: inf
ROOT
ATOM      1  C   UNL     1      28.493  -0.689  -7.410  1.00  0.00     0.000 C 
ENDROOT
BRANCH   1   2
ATOM      2  C   UNL     1      28.589  -1.780  -6.324  1.00  0.00     0.000 C 
BRANCH   2   3
ATOM      3  C   UNL     1      29.131  -3.138  -6.809  1.00  0.00     0.000 C 
BRANCH   3   4
ATOM      4  C   UNL     1      28.130  -3.997  -7.607  1.00  0.00     0.000 C 
BRANCH   4   5
ATOM      5  C   UNL     1      26.966  -4.580  -6.784  1.00  0.00     0.000 C 
BRANCH   5   6
ATOM      6  C   UNL     1      25.587  -4.138  -7.302  1.00  0.00     0.000 C 
BRANCH   6   7
ATOM      7  C   UNL     1      25.354  -4.521  -8.775  1.00  0.00     0.006 C 
BRANCH   7   8
ATOM      8  C   UNL     1      23.875  -4.689  -9.162  1.00  0.00     0.053 C 
BRANCH   8   9
ATOM      9  C   UNL     1      23.500  -6.129  -9.338  1.00  0.00     0.041 C 
ATOM     10  O   UNL     1      24.373  -7.029  -9.236  1.00  0.00    -0.550 OA
ATOM     11  O   UNL     1      22.189  -6.473  -9.648  1.00  0.00    -0.550 OA
ENDBRANCH   8   9
ENDBRANCH   7   8
ENDBRANCH   6   7
ENDBRANCH   5   6
ENDBRANCH   4   5
ENDBRANCH   3   4
ENDBRANCH   2   3
ENDBRANCH   1   2
BRANCH   1  12
ATOM     12  C   UNL     1      27.059  -0.284  -7.801  1.00  0.00     0.000 C 
BRANCH  12  13
ATOM     13  C   UNL     1      26.460  -1.074  -8.980  1.00  0.00    -0.000 C 
BRANCH  13  14
ATOM     14  C   UNL     1      24.946  -0.849  -9.177  1.00  0.00    -0.000 C 
BRANCH  14  15
ATOM     15  C   UNL     1      24.446  -1.342 -10.546  1.00  0.00    -0.000 C 
BRANCH  15  16
ATOM     16  C   UNL     1      25.115  -0.590 -11.716  1.00  0.00    -0.000 C 
BRANCH  16  17
ATOM     17  C   UNL     1      24.115   0.127 -12.640  1.00  0.00    -0.000 C 
BRANCH  17  18
ATOM     18  C   UNL     1      24.793   1.129 -13.588  1.00  0.00    -0.000 C 
BRANCH  18  19
ATOM     19  C   UNL     1      25.726   0.444 -14.599  1.00  0.00    -0.003 C 
ATOM     20  C   UNL     1      25.514   0.935 -16.031  1.00  0.00     0.004 C 
ENDBRANCH  18  19
ENDBRANCH  17  18
ENDBRANCH  16  17
ENDBRANCH  15  16
ENDBRANCH  14  15
ENDBRANCH  13  14
ENDBRANCH  12  13
ENDBRANCH   1  12
TORSDOF 16
ENDMDL
MODEL 5
REMARK VINA RESULT:    -3.893      2.735      6.297
REMARK INTER + INTRA:         -10.260
REMARK INTER:                  -7.598
REMARK INTRA:                  -2.662
REMARK UNBOUND:                -2.725
REMARK SMILES CCCCCCCCCCCCCCCCCC(=O)[O-]
REMARK SMILES IDX 10 1 11 2 12 3 13 4 14 5 15 6 16 7 17 8 18 9 19 10 20 11
REMARK SMILES IDX 9 12 8 13 7 14 6 15 5 16 4 17 3 18 2 19 1 20
REMARK H PARENT
REMARK Flexibility Score: inf
ROOT
ATOM      1  C   UNL     1      24.254  -4.203  -8.304  1.00  0.00     0.000 C 
ENDROOT
BRANCH   1   2
ATOM      2  C   UNL     1      24.916  -2.875  -7.882  1.00  0.00     0.000 C 
BRANCH   2   3
ATOM      3  C   UNL     1      24.511  -1.648  -8.722  1.00  0.00     0.000 C 
BRANCH   3   4
ATOM      4  C   UNL     1      25.686  -0.811  -9.267  1.00  0.00     0.000 C 
BRANCH   4   5
ATOM      5  C   UNL     1      25.763  -0.714 -10.802  1.00  0.00     0.000 C 
BRANCH   5   6
ATOM      6  C   UNL     1      24.493  -1.232 -11.498  1.00  0.00     0.000 C 
BRANCH   6   7
ATOM      7  C   UNL     1      23.939  -0.243 -12.540  1.00  0.00     0.006 C 
BRANCH   7   8
ATOM      8  C   UNL     1      24.608  -0.333 -13.921  1.00  0.00     0.053 C 
BRANCH   8   9
ATOM      9  C   UNL     1      25.460   0.864 -14.214  1.00  0.00     0.041 C 
ATOM     10  O   UNL     1      25.281   1.938 -13.583  1.00  0.00    -0.550 OA
ATOM     11  O   UNL     1      26.429   0.803 -15.208  1.00  0.00    -0.550 OA
ENDBRANCH   8   9
ENDBRANCH   7   8
ENDBRANCH   6   7
ENDBRANCH   5   6
ENDBRANCH   4   5
ENDBRANCH   3   4
ENDBRANCH   2   3
ENDBRANCH   1   2
BRANCH   1  12
ATOM     12  C   UNL     1      24.394  -4.553  -9.798  1.00  0.00     0.000 C 
BRANCH  12  13
ATOM     13  C   UNL     1      25.749  -5.170 -10.195  1.00  0.00    -0.000 C 
BRANCH  13  14
ATOM     14  C   UNL     1      26.663  -4.211 -10.988  1.00  0.00    -0.000 C 
BRANCH  14  15
ATOM     15  C   UNL     1      27.891  -3.759 -10.179  1.00  0.00    -0.000 C 
BRANCH  15  16
ATOM     16  C   UNL     1      27.978  -4.465  -8.808  1.00  0.00    -0.000 C 
BRANCH  16  17
ATOM     17  C   UNL     1      29.008  -3.835  -7.854  1.00  0.00    -0.000 C 
BRANCH  17  18
ATOM     18  C   UNL     1      28.362  -3.214  -6.606  1.00  0.00    -0.000 C 
BRANCH  18  19
ATOM     19  C   UNL     1      28.280  -1.682  -6.687  1.00  0.00    -0.003 C 
ATOM     20  C   UNL     1      29.592  -1.041  -7.140  1.00  0.00     0.004 C 
ENDBRANCH  18  19
ENDBRANCH  17  18
ENDBRANCH  16  17
ENDBRANCH  15  16
ENDBRANCH  14  15
ENDBRANCH  13  14
ENDBRANCH  12  13
ENDBRANCH   1  12
TORSDOF 16
ENDMDL
MODEL 6
REMARK VINA RESULT:    -3.785      1.647      2.061
REMARK INTER + INTRA:         -10.050
REMARK INTER:                  -7.233
REMARK INTRA:                  -2.817
REMARK UNBOUND:                -2.725
REMARK SMILES CCCCCCCCCCCCCCCCCC(=O)[O-]
REMARK SMILES IDX 10 1 11 2 12 3 13 4 14 5 15 6 16 7 17 8 18 9 19 10 20 11
REMARK SMILES IDX 9 12 8 13 7 14 6 15 5 16 4 17 3 18 2 19 1 20
REMARK H PARENT
REMARK Flexibility Score: inf
ROOT
ATOM      1  C   UNL     1      24.759  -4.186  -8.396  1.00  0.00     0.000 C 
ENDROOT
BRANCH   1   2
ATOM      2  C   UNL     1      24.129  -4.266  -9.802  1.00  0.00     0.000 C 
BRANCH   2   3
ATOM      3  C   UNL     1      25.133  -4.426 -10.959  1.00  0.00     0.000 C 
BRANCH   3   4
ATOM      4  C   UNL     1      26.597  -4.654 -10.531  1.00  0.00     0.000 C 
BRANCH   4   5
ATOM      5  C   UNL     1      27.616  -3.669 -11.133  1.00  0.00     0.000 C 
BRANCH   5   6
ATOM      6  C   UNL     1      28.813  -3.406 -10.204  1.00  0.00     0.000 C 
BRANCH   6   7
ATOM      7  C   UNL     1      29.035  -4.537  -9.183  1.00  0.00     0.006 C 
BRANCH   7   8
ATOM      8  C   UNL     1      29.210  -4.059  -7.732  1.00  0.00     0.053 C 
BRANCH   8   9
ATOM      9  C   UNL     1      28.727  -5.075  -6.743  1.00  0.00     0.041 C 
ATOM     10  O   UNL     1      27.496  -5.306  -6.620  1.00  0.00    -0.550 OA
ATOM     11  O   UNL     1      29.637  -5.744  -5.932  1.00  0.00    -0.550 OA
ENDBRANCH   8   9
ENDBRANCH   7   8
ENDBRANCH   6   7
ENDBRANCH   5   6
ENDBRANCH   4   5
ENDBRANCH   3   4
ENDBRANCH   2   3
ENDBRANCH   1   2
BRANCH   1  12
ATOM     12  C   UNL     1      24.848  -2.767  -7.804  1.00  0.00     0.000 C 
BRANCH  12  13
ATOM     13  C   UNL     1      26.277  -2.203  -7.683  1.00  0.00    -0.000 C 
BRANCH  13  14
ATOM     14  C   UNL     1      26.542  -0.979  -8.586  1.00  0.00    -0.000 C 
BRANCH  14  15
ATOM     15  C   UNL     1      25.278  -0.499  -9.320  1.00  0.00    -0.000 C 
BRANCH  15  16
ATOM     16  C   UNL     1      25.417  -0.612 -10.853  1.00  0.00    -0.000 C 
BRANCH  16  17
ATOM     17  C   UNL     1      24.094  -0.937 -11.570  1.00  0.00    -0.000 C 
BRANCH  17  18
ATOM     18  C   UNL     1      24.126  -0.588 -13.067  1.00  0.00    -0.000 C 
BRANCH  18  19
ATOM     19  C   UNL     1      25.388   0.196 -13.460  1.00  0.00    -0.003 C 
ATOM     20  C   UNL     1      25.111   1.680 -13.704  1.00  0.00     0.004 C 
ENDBRANCH  18  19
ENDBRANCH  17  18
ENDBRANCH  16  17
ENDBRANCH  15  16
ENDBRANCH  14  15
ENDBRANCH  13  14
ENDBRANCH  12  13
ENDBRANCH   1  12
TORSDOF 16
ENDMDL
MODEL 7
REMARK VINA RESULT:    -3.733      2.319      4.021
REMARK INTER + INTRA:          -9.949
REMARK INTER:                  -7.989
REMARK INTRA:                  -1.960
REMARK UNBOUND:                -2.725
REMARK SMILES CCCCCCCCCCCCCCCCCC(=O)[O-]
REMARK SMILES IDX 10 1 11 2 12 3 13 4 14 5 15 6 16 7 17 8 18 9 19 10 20 11
REMARK SMILES IDX 9 12 8 13 7 14 6 15 5 16 4 17 3 18 2 19 1 20
REMARK H PARENT
REMARK Flexibility Score: inf
ROOT
ATOM      1  C   UNL     1      28.897  -2.549  -8.328  1.00  0.00     0.000 C 
ENDROOT
BRANCH   1   2
ATOM      2  C   UNL     1      28.975  -3.969  -7.731  1.00  0.00     0.000 C 
BRANCH   2   3
ATOM      3  C   UNL     1      27.991  -4.247  -6.578  1.00  0.00     0.000 C 
BRANCH   3   4
ATOM      4  C   UNL     1      26.551  -4.588  -7.013  1.00  0.00     0.000 C 
BRANCH   4   5
ATOM      5  C   UNL     1      26.330  -6.045  -7.458  1.00  0.00     0.000 C 
BRANCH   5   6
ATOM      6  C   UNL     1      25.206  -6.188  -8.498  1.00  0.00     0.000 C 
BRANCH   6   7
ATOM      7  C   UNL     1      24.389  -4.894  -8.673  1.00  0.00     0.006 C 
BRANCH   7   8
ATOM      8  C   UNL     1      24.323  -4.375 -10.119  1.00  0.00     0.053 C 
BRANCH   8   9
ATOM      9  C   UNL     1      25.566  -4.696 -10.890  1.00  0.00     0.041 C 
ATOM     10  O   UNL     1      26.624  -4.043 -10.688  1.00  0.00    -0.550 OA
ATOM     11  O   UNL     1      25.547  -5.694 -11.857  1.00  0.00    -0.550 OA
ENDBRANCH   8   9
ENDBRANCH   7   8
ENDBRANCH   6   7
ENDBRANCH   5   6
ENDBRANCH   4   5
ENDBRANCH   3   4
ENDBRANCH   2   3
ENDBRANCH   1   2
BRANCH   1  12
ATOM     12  C   UNL     1      28.632  -1.427  -7.306  1.00  0.00     0.000 C 
BRANCH  12  13
ATOM     13  C   UNL     1      27.337  -0.627  -7.543  1.00  0.00    -0.000 C 
BRANCH  13  14
ATOM     14  C   UNL     1      26.355  -1.305  -8.522  1.00  0.00    -0.000 C 
BRANCH  14  15
ATOM     15  C   UNL     1      25.589  -0.291  -9.390  1.00  0.00    -0.000 C 
BRANCH  15  16
ATOM     16  C   UNL     1      25.634  -0.656 -10.889  1.00  0.00    -0.000 C 
BRANCH  16  17
ATOM     17  C   UNL     1      24.261  -1.033 -11.474  1.00  0.00    -0.000 C 
BRANCH  17  18
ATOM     18  C   UNL     1      23.913  -0.234 -12.740  1.00  0.00    -0.000 C 
BRANCH  18  19
ATOM     19  C   UNL     1      25.163   0.220 -13.510  1.00  0.00    -0.003 C 
ATOM     20  C   UNL     1      25.263   1.740 -13.636  1.00  0.00     0.004 C 
ENDBRANCH  18  19
ENDBRANCH  17  18
ENDBRANCH  16  17
ENDBRANCH  15  16
ENDBRANCH  14  15
ENDBRANCH  13  14
ENDBRANCH  12  13
ENDBRANCH   1  12
TORSDOF 16
ENDMDL
MODEL 8
REMARK VINA RESULT:    -3.700      2.762      5.207
REMARK INTER + INTRA:          -9.887
REMARK INTER:                  -7.259
REMARK INTRA:                  -2.627
REMARK UNBOUND:                -2.725
REMARK SMILES CCCCCCCCCCCCCCCCCC(=O)[O-]
REMARK SMILES IDX 10 1 11 2 12 3 13 4 14 5 15 6 16 7 17 8 18 9 19 10 20 11
REMARK SMILES IDX 9 12 8 13 7 14 6 15 5 16 4 17 3 18 2 19 1 20
REMARK H PARENT
REMARK Flexibility Score: inf
ROOT
ATOM      1  C   UNL     1      24.188  -1.002 -11.206  1.00  0.00     0.000 C 
ENDROOT
BRANCH   1   2
ATOM      2  C   UNL     1      25.558  -0.585 -10.634  1.00  0.00     0.000 C 
BRANCH   2   3
ATOM      3  C   UNL     1      25.575  -0.309  -9.118  1.00  0.00     0.000 C 
BRANCH   3   4
ATOM      4  C   UNL     1      26.651  -1.078  -8.324  1.00  0.00     0.000 C 
BRANCH   4   5
ATOM      5  C   UNL     1      26.386  -2.586  -8.154  1.00  0.00     0.000 C 
BRANCH   5   6
ATOM      6  C   UNL     1      24.914  -2.901  -7.840  1.00  0.00     0.000 C 
BRANCH   6   7
ATOM      7  C   UNL     1      24.527  -4.350  -8.193  1.00  0.00     0.006 C 
BRANCH   7   8
ATOM      8  C   UNL     1      23.919  -4.522  -9.594  1.00  0.00     0.053 C 
BRANCH   8   9
ATOM      9  C   UNL     1      23.549  -5.946  -9.876  1.00  0.00     0.041 C 
ATOM     10  O   UNL     1      24.419  -6.758 -10.286  1.00  0.00    -0.550 OA
ATOM     11  O   UNL     1      22.234  -6.368  -9.718  1.00  0.00    -0.550 OA
ENDBRANCH   8   9
ENDBRANCH   7   8
ENDBRANCH   6   7
ENDBRANCH   5   6
ENDBRANCH   4   5
ENDBRANCH   3   4
ENDBRANCH   2   3
ENDBRANCH   1   2
BRANCH   1  12
ATOM     12  C   UNL     1      23.947  -0.601 -12.674  1.00  0.00     0.000 C 
BRANCH  12  13
ATOM     13  C   UNL     1      24.619   0.716 -13.105  1.00  0.00    -0.000 C 
BRANCH  13  14
ATOM     14  C   UNL     1      25.372   0.621 -14.450  1.00  0.00    -0.000 C 
BRANCH  14  15
ATOM     15  C   UNL     1      25.738  -0.827 -14.823  1.00  0.00    -0.000 C 
BRANCH  15  16
ATOM     16  C   UNL     1      27.259  -1.079 -14.752  1.00  0.00    -0.000 C 
BRANCH  16  17
ATOM     17  C   UNL     1      27.689  -1.917 -13.534  1.00  0.00    -0.000 C 
BRANCH  17  18
ATOM     18  C   UNL     1      26.673  -3.012 -13.176  1.00  0.00    -0.000 C 
BRANCH  18  19
ATOM     19  C   UNL     1      27.022  -3.732 -11.864  1.00  0.00    -0.003 C 
ATOM     20  C   UNL     1      28.247  -3.137 -11.169  1.00  0.00     0.004 C 
ENDBRANCH  18  19
ENDBRANCH  17  18
ENDBRANCH  16  17
ENDBRANCH  15  16
ENDBRANCH  14  15
ENDBRANCH  13  14
ENDBRANCH  12  13
ENDBRANCH   1  12
TORSDOF 16
ENDMDL
MODEL 9
REMARK VINA RESULT:    -3.691      2.818      6.193
REMARK INTER + INTRA:          -9.869
REMARK INTER:                  -7.121
REMARK INTRA:                  -2.748
REMARK UNBOUND:                -2.725
REMARK SMILES CCCCCCCCCCCCCCCCCC(=O)[O-]
REMARK SMILES IDX 10 1 11 2 12 3 13 4 14 5 15 6 16 7 17 8 18 9 19 10 20 11
REMARK SMILES IDX 9 12 8 13 7 14 6 15 5 16 4 17 3 18 2 19 1 20
REMARK H PARENT
REMARK Flexibility Score: inf
ROOT
ATOM      1  C   UNL     1      26.452  -2.176 -12.422  1.00  0.00     0.000 C 
ENDROOT
BRANCH   1   2
ATOM      2  C   UNL     1      25.138  -1.550 -11.910  1.00  0.00     0.000 C 
BRANCH   2   3
ATOM      3  C   UNL     1      25.311  -0.287 -11.044  1.00  0.00     0.000 C 
BRANCH   3   4
ATOM      4  C   UNL     1      25.286  -0.529  -9.521  1.00  0.00     0.000 C 
BRANCH   4   5
ATOM      5  C   UNL     1      24.311  -1.623  -9.048  1.00  0.00     0.000 C 
BRANCH   5   6
ATOM      6  C   UNL     1      24.945  -2.590  -8.035  1.00  0.00     0.000 C 
BRANCH   6   7
ATOM      7  C   UNL     1      24.990  -4.042  -8.545  1.00  0.00     0.006 C 
BRANCH   7   8
ATOM      8  C   UNL     1      23.842  -4.418  -9.496  1.00  0.00     0.053 C 
BRANCH   8   9
ATOM      9  C   UNL     1      23.485  -5.870  -9.403  1.00  0.00     0.041 C 
ATOM     10  O   UNL     1      24.384  -6.733  -9.225  1.00  0.00    -0.550 OA
ATOM     11  O   UNL     1      22.163  -6.273  -9.547  1.00  0.00    -0.550 OA
ENDBRANCH   8   9
ENDBRANCH   7   8
ENDBRANCH   6   7
ENDBRANCH   5   6
ENDBRANCH   4   5
ENDBRANCH   3   4
ENDBRANCH   2   3
ENDBRANCH   1   2
BRANCH   1  12
ATOM     12  C   UNL     1      26.989  -3.344 -11.573  1.00  0.00     0.000 C 
BRANCH  12  13
ATOM     13  C   UNL     1      27.914  -2.930 -10.412  1.00  0.00    -0.000 C 
BRANCH  13  14
ATOM     14  C   UNL     1      29.218  -3.752 -10.330  1.00  0.00    -0.000 C 
BRANCH  14  15
ATOM     15  C   UNL     1      29.669  -4.004  -8.881  1.00  0.00    -0.000 C 
BRANCH  15  16
ATOM     16  C   UNL     1      28.538  -4.594  -8.012  1.00  0.00    -0.000 C 
BRANCH  16  17
ATOM     17  C   UNL     1      28.298  -3.821  -6.703  1.00  0.00    -0.000 C 
BRANCH  17  18
ATOM     18  C   UNL     1      29.324  -2.700  -6.477  1.00  0.00    -0.000 C 
BRANCH  18  19
ATOM     19  C   UNL     1      28.661  -1.352  -6.155  1.00  0.00    -0.003 C 
ATOM     20  C   UNL     1      28.090  -0.660  -7.393  1.00  0.00     0.004 C 
ENDBRANCH  18  19
ENDBRANCH  17  18
ENDBRANCH  16  17
ENDBRANCH  15  16
ENDBRANCH  14  15
ENDBRANCH  13  14
ENDBRANCH  12  13
ENDBRANCH   1  12
TORSDOF 16
ENDMDL
