MODEL 1
REMARK VINA RESULT:    -4.069      0.000      0.000
REMARK INTER + INTRA:          -6.962
REMARK INTER:                  -5.496
REMARK INTRA:                  -1.466
REMARK UNBOUND:                -1.466
REMARK SMILES CC(=O)CCC=C(C)CCC=C(C)C
REMARK SMILES IDX 7 1 6 2 8 3 9 4 10 5 11 6 13 7 12 8 14 9 5 10 4 11 2 12 3 13
REMARK SMILES IDX 1 14
REMARK H PARENT
REMARK Flexibility Score: inf
ROOT
ATOM      1  C   UNL     1       1.151  15.911  22.011  1.00  0.00    -0.077 C 
ATOM      2  C   UNL     1       2.364  16.177  22.552  1.00  0.00    -0.028 C 
ATOM      3  C   UNL     1       0.133  17.024  21.978  1.00  0.00     0.039 C 
ENDROOT
BRANCH   1   4
ATOM      4  C   UNL     1       0.767  14.557  21.446  1.00  0.00     0.034 C 
BRANCH   4   5
ATOM      5  C   UNL     1       0.800  14.565  19.913  1.00  0.00     0.032 C 
BRANCH   5   6
ATOM      6  C   UNL     1       2.137  14.087  19.405  1.00  0.00    -0.028 C 
ATOM      7  C   UNL     1       2.898  16.388  18.771  1.00  0.00     0.039 C 
ATOM      8  C   UNL     1       3.077  14.892  18.858  1.00  0.00    -0.080 C 
ATOM      9  C   UNL     1       4.368  14.302  18.353  1.00  0.00     0.039 C 
ENDBRANCH   5   6
ENDBRANCH   4   5
ENDBRANCH   1   4
BRANCH   2  10
ATOM     10  C   UNL     1       3.516  15.206  22.657  1.00  0.00     0.035 C 
BRANCH  10  11
ATOM     11  C   UNL     1       3.551  14.580  24.054  1.00  0.00     0.079 C 
BRANCH  11  12
ATOM     12  C   UNL     1       3.141  13.134  24.005  1.00  0.00     0.130 C 
ATOM     13  O   UNL     1       2.593  12.626  24.973  1.00  0.00    -0.300 OA
ATOM     14  C   UNL     1       3.377  12.318  22.770  1.00  0.00     0.087 C 
ENDBRANCH  11  12
ENDBRANCH  10  11
ENDBRANCH   2  10
TORSDOF 6
ENDMDL
MODEL 2
REMARK VINA RESULT:    -4.016      5.293      7.428
REMARK INTER + INTRA:          -6.891
REMARK INTER:                  -5.354
REMARK INTRA:                  -1.537
REMARK UNBOUND:                -1.466
REMARK SMILES CC(=O)CCC=C(C)CCC=C(C)C
REMARK SMILES IDX 7 1 6 2 8 3 9 4 10 5 11 6 13 7 12 8 14 9 5 10 4 11 2 12 3 13
REMARK SMILES IDX 1 14
REMARK H PARENT
REMARK Flexibility Score: inf
ROOT
ATOM      1  C   UNL     1       1.212   8.253  18.996  1.00  0.00    -0.077 C 
ATOM      2  C   UNL     1       2.087   8.595  18.020  1.00  0.00    -0.028 C 
ATOM      3  C   UNL     1       1.737   7.471  20.174  1.00  0.00     0.039 C 
ENDROOT
BRANCH   1   4
ATOM      4  C   UNL     1      -0.262   8.610  18.958  1.00  0.00     0.034 C 
BRANCH   4   5
ATOM      5  C   UNL     1      -0.590   9.722  19.962  1.00  0.00     0.032 C 
BRANCH   5   6
ATOM      6  C   UNL     1      -0.428  11.080  19.327  1.00  0.00    -0.028 C 
ATOM      7  C   UNL     1       1.720  11.561  20.523  1.00  0.00     0.039 C 
ATOM      8  C   UNL     1       0.589  11.931  19.595  1.00  0.00    -0.080 C 
ATOM      9  C   UNL     1       0.635  13.279  18.925  1.00  0.00     0.039 C 
ENDBRANCH   5   6
ENDBRANCH   4   5
ENDBRANCH   1   4
BRANCH   2  10
ATOM     10  C   UNL     1       1.759   9.390  16.779  1.00  0.00     0.035 C 
BRANCH  10  11
ATOM     11  C   UNL     1       2.592  10.675  16.740  1.00  0.00     0.079 C 
BRANCH  11  12
ATOM     12  C   UNL     1       2.305  11.463  15.492  1.00  0.00     0.130 C 
ATOM     13  O   UNL     1       3.121  11.478  14.583  1.00  0.00    -0.300 OA
ATOM     14  C   UNL     1       1.014  12.210  15.346  1.00  0.00     0.087 C 
ENDBRANCH  11  12
ENDBRANCH  10  11
ENDBRANCH   2  10
TORSDOF 6
ENDMDL
MODEL 3
REMARK VINA RESULT:    -3.943      2.526      4.611
REMARK INTER + INTRA:          -6.792
REMARK INTER:                  -5.214
REMARK INTRA:                  -1.579
REMARK UNBOUND:                -1.466
REMARK SMILES CC(=O)CCC=C(C)CCC=C(C)C
REMARK SMILES IDX 7 1 6 2 8 3 9 4 10 5 11 6 13 7 12 8 14 9 5 10 4 11 2 12 3 13
REMARK SMILES IDX 1 14
REMARK H PARENT
REMARK Flexibility Score: inf
ROOT
ATOM      1  C   UNL     1       3.823  13.340  24.058  1.00  0.00    -0.077 C 
ATOM      2  C   UNL     1       3.900  14.547  23.447  1.00  0.00    -0.028 C 
ATOM      3  C   UNL     1       5.089  12.532  24.186  1.00  0.00     0.039 C 
ENDROOT
BRANCH   1   4
ATOM      4  C   UNL     1       2.532  12.765  24.610  1.00  0.00     0.034 C 
BRANCH   4   5
ATOM      5  C   UNL     1       1.922  11.743  23.642  1.00  0.00     0.032 C 
BRANCH   5   6
ATOM      6  C   UNL     1       0.721  12.324  22.939  1.00  0.00    -0.028 C 
ATOM      7  C   UNL     1       1.972  12.745  20.810  1.00  0.00     0.039 C 
ATOM      8  C   UNL     1       0.738  12.808  21.676  1.00  0.00    -0.080 C 
ATOM      9  C   UNL     1      -0.516  13.396  21.082  1.00  0.00     0.039 C 
ENDBRANCH   5   6
ENDBRANCH   4   5
ENDBRANCH   1   4
BRANCH   2  10
ATOM     10  C   UNL     1       2.753  15.507  23.241  1.00  0.00     0.035 C 
BRANCH  10  11
ATOM     11  C   UNL     1       2.911  16.240  21.906  1.00  0.00     0.079 C 
BRANCH  11  12
ATOM     12  C   UNL     1       1.573  16.470  21.258  1.00  0.00     0.130 C 
ATOM     13  O   UNL     1       1.455  16.339  20.048  1.00  0.00    -0.300 OA
ATOM     14  C   UNL     1       0.380  16.835  22.087  1.00  0.00     0.087 C 
ENDBRANCH  11  12
ENDBRANCH  10  11
ENDBRANCH   2  10
TORSDOF 6
ENDMDL
MODEL 4
REMARK VINA RESULT:    -3.903      1.531      2.528
REMARK INTER + INTRA:          -6.738
REMARK INTER:                  -5.061
REMARK INTRA:                  -1.677
REMARK UNBOUND:                -1.466
REMARK SMILES CC(=O)CCC=C(C)CCC=C(C)C
REMARK SMILES IDX 7 1 6 2 8 3 9 4 10 5 11 6 13 7 12 8 14 9 5 10 4 11 2 12 3 13
REMARK SMILES IDX 1 14
REMARK H PARENT
REMARK Flexibility Score: inf
ROOT
ATOM      1  C   UNL     1       1.539  16.313  21.658  1.00  0.00    -0.077 C 
ATOM      2  C   UNL     1       2.185  16.058  22.821  1.00  0.00    -0.028 C 
ATOM      3  C   UNL     1       0.220  17.040  21.727  1.00  0.00     0.039 C 
ENDROOT
BRANCH   1   4
ATOM      4  C   UNL     1       2.071  15.899  20.299  1.00  0.00     0.034 C 
BRANCH   4   5
ATOM      5  C   UNL     1       1.230  14.769  19.693  1.00  0.00     0.032 C 
BRANCH   5   6
ATOM      6  C   UNL     1       1.642  13.434  20.261  1.00  0.00    -0.028 C 
ATOM      7  C   UNL     1      -0.423  13.213  21.663  1.00  0.00     0.039 C 
ATOM      8  C   UNL     1       0.923  12.739  21.172  1.00  0.00    -0.080 C 
ATOM      9  C   UNL     1       1.445  11.426  21.696  1.00  0.00     0.039 C 
ENDBRANCH   5   6
ENDBRANCH   4   5
ENDBRANCH   1   4
BRANCH   2  10
ATOM     10  C   UNL     1       3.519  15.364  22.956  1.00  0.00     0.035 C 
BRANCH  10  11
ATOM     11  C   UNL     1       3.386  14.141  23.868  1.00  0.00     0.079 C 
BRANCH  11  12
ATOM     12  C   UNL     1       4.326  13.047  23.440  1.00  0.00     0.130 C 
ATOM     13  O   UNL     1       4.648  12.178  24.237  1.00  0.00    -0.300 OA
ATOM     14  C   UNL     1       4.849  13.001  22.036  1.00  0.00     0.087 C 
ENDBRANCH  11  12
ENDBRANCH  10  11
ENDBRANCH   2  10
TORSDOF 6
ENDMDL
MODEL 5
REMARK VINA RESULT:    -3.836      4.973      7.113
REMARK INTER + INTRA:          -6.647
REMARK INTER:                  -5.150
REMARK INTRA:                  -1.497
REMARK UNBOUND:                -1.466
REMARK SMILES CC(=O)CCC=C(C)CCC=C(C)C
REMARK SMILES IDX 7 1 6 2 8 3 9 4 10 5 11 6 13 7 12 8 14 9 5 10 4 11 2 12 3 13
REMARK SMILES IDX 1 14
REMARK H PARENT
REMARK Flexibility Score: inf
ROOT
ATOM      1  C   UNL     1       0.970   9.141  18.421  1.00  0.00    -0.077 C 
ATOM      2  C   UNL     1       1.391   8.958  17.146  1.00  0.00    -0.028 C 
ATOM      3  C   UNL     1      -0.135   8.253  18.935  1.00  0.00     0.039 C 
ENDROOT
BRANCH   1   4
ATOM      4  C   UNL     1       1.549  10.193  19.348  1.00  0.00     0.034 C 
BRANCH   4   5
ATOM      5  C   UNL     1       0.504  11.258  19.701  1.00  0.00     0.032 C 
BRANCH   5   6
ATOM      6  C   UNL     1      -0.005  11.940  18.457  1.00  0.00    -0.028 C 
ATOM      7  C   UNL     1       1.621  13.837  18.640  1.00  0.00     0.039 C 
ATOM      8  C   UNL     1       0.467  13.118  17.986  1.00  0.00    -0.080 C 
ATOM      9  C   UNL     1      -0.138  13.727  16.748  1.00  0.00     0.039 C 
ENDBRANCH   5   6
ENDBRANCH   4   5
ENDBRANCH   1   4
BRANCH   2  10
ATOM     10  C   UNL     1       2.493   9.729  16.461  1.00  0.00     0.035 C 
BRANCH  10  11
ATOM     11  C   UNL     1       1.897  10.722  15.459  1.00  0.00     0.079 C 
BRANCH  11  12
ATOM     12  C   UNL     1       2.794  11.918  15.290  1.00  0.00     0.130 C 
ATOM     13  O   UNL     1       2.599  12.696  14.368  1.00  0.00    -0.300 OA
ATOM     14  C   UNL     1       3.909  12.174  16.258  1.00  0.00     0.087 C 
ENDBRANCH  11  12
ENDBRANCH  10  11
ENDBRANCH   2  10
TORSDOF 6
ENDMDL
MODEL 6
REMARK VINA RESULT:    -3.815      2.424      4.406
REMARK INTER + INTRA:          -6.619
REMARK INTER:                  -4.849
REMARK INTRA:                  -1.770
REMARK UNBOUND:                -1.466
REMARK SMILES CC(=O)CCC=C(C)CCC=C(C)C
REMARK SMILES IDX 7 1 6 2 8 3 9 4 10 5 11 6 13 7 12 8 14 9 5 10 4 11 2 12 3 13
REMARK SMILES IDX 1 14
REMARK H PARENT
REMARK Flexibility Score: inf
ROOT
ATOM      1  C   UNL     1       3.401  14.037  23.130  1.00  0.00    -0.077 C 
ATOM      2  C   UNL     1       2.907  15.268  23.403  1.00  0.00    -0.028 C 
ATOM      3  C   UNL     1       3.518  13.054  24.268  1.00  0.00     0.039 C 
ENDROOT
BRANCH   1   4
ATOM      4  C   UNL     1       3.846  13.603  21.746  1.00  0.00     0.034 C 
BRANCH   4   5
ATOM      5  C   UNL     1       2.995  12.437  21.229  1.00  0.00     0.032 C 
BRANCH   5   6
ATOM      6  C   UNL     1       1.782  12.946  20.492  1.00  0.00    -0.028 C 
ATOM      7  C   UNL     1       0.230  12.493  22.406  1.00  0.00     0.039 C 
ATOM      8  C   UNL     1       0.527  12.947  20.997  1.00  0.00    -0.080 C 
ATOM      9  C   UNL     1      -0.619  13.452  20.159  1.00  0.00     0.039 C 
ENDBRANCH   5   6
ENDBRANCH   4   5
ENDBRANCH   1   4
BRANCH   2  10
ATOM     10  C   UNL     1       2.696  16.377  22.399  1.00  0.00     0.035 C 
BRANCH  10  11
ATOM     11  C   UNL     1       1.224  16.436  21.981  1.00  0.00     0.079 C 
BRANCH  11  12
ATOM     12  C   UNL     1       1.096  16.702  20.506  1.00  0.00     0.130 C 
ATOM     13  O   UNL     1       0.017  17.042  20.044  1.00  0.00    -0.300 OA
ATOM     14  C   UNL     1       2.286  16.578  19.605  1.00  0.00     0.087 C 
ENDBRANCH  11  12
ENDBRANCH  10  11
ENDBRANCH   2  10
TORSDOF 6
ENDMDL
MODEL 7
REMARK VINA RESULT:    -3.805      2.108      3.761
REMARK INTER + INTRA:          -6.606
REMARK INTER:                  -5.315
REMARK INTRA:                  -1.290
REMARK UNBOUND:                -1.466
REMARK SMILES CC(=O)CCC=C(C)CCC=C(C)C
REMARK SMILES IDX 7 1 6 2 8 3 9 4 10 5 11 6 13 7 12 8 14 9 5 10 4 11 2 12 3 13
REMARK SMILES IDX 1 14
REMARK H PARENT
REMARK Flexibility Score: inf
ROOT
ATOM      1  C   UNL     1       2.688  13.167  23.862  1.00  0.00    -0.077 C 
ATOM      2  C   UNL     1       3.485  14.261  23.934  1.00  0.00    -0.028 C 
ATOM      3  C   UNL     1       2.694  12.211  25.028  1.00  0.00     0.039 C 
ENDROOT
BRANCH   1   4
ATOM      4  C   UNL     1       1.801  12.858  22.671  1.00  0.00     0.034 C 
BRANCH   4   5
ATOM      5  C   UNL     1       2.517  11.945  21.668  1.00  0.00     0.032 C 
BRANCH   5   6
ATOM      6  C   UNL     1       2.885  12.709  20.421  1.00  0.00    -0.028 C 
ATOM      7  C   UNL     1       5.334  12.705  20.951  1.00  0.00     0.039 C 
ATOM      8  C   UNL     1       4.145  13.085  20.102  1.00  0.00    -0.080 C 
ATOM      9  C   UNL     1       4.396  13.874  18.843  1.00  0.00     0.039 C 
ENDBRANCH   5   6
ENDBRANCH   4   5
ENDBRANCH   1   4
BRANCH   2  10
ATOM     10  C   UNL     1       3.602  15.338  22.883  1.00  0.00     0.035 C 
BRANCH  10  11
ATOM     11  C   UNL     1       2.450  16.337  23.023  1.00  0.00     0.079 C 
BRANCH  11  12
ATOM     12  C   UNL     1       1.674  16.446  21.738  1.00  0.00     0.130 C 
ATOM     13  O   UNL     1       2.224  16.199  20.675  1.00  0.00    -0.300 OA
ATOM     14  C   UNL     1       0.225  16.829  21.755  1.00  0.00     0.087 C 
ENDBRANCH  11  12
ENDBRANCH  10  11
ENDBRANCH   2  10
TORSDOF 6
ENDMDL
MODEL 8
REMARK VINA RESULT:    -3.778      2.200      4.522
REMARK INTER + INTRA:          -6.569
REMARK INTER:                  -5.175
REMARK INTRA:                  -1.394
REMARK UNBOUND:                -1.466
REMARK SMILES CC(=O)CCC=C(C)CCC=C(C)C
REMARK SMILES IDX 7 1 6 2 8 3 9 4 10 5 11 6 13 7 12 8 14 9 5 10 4 11 2 12 3 13
REMARK SMILES IDX 1 14
REMARK H PARENT
REMARK Flexibility Score: inf
ROOT
ATOM      1  C   UNL     1       1.303  15.736  21.737  1.00  0.00    -0.077 C 
ATOM      2  C   UNL     1       0.934  14.602  21.094  1.00  0.00    -0.028 C 
ATOM      3  C   UNL     1       0.258  16.802  21.946  1.00  0.00     0.039 C 
ENDROOT
BRANCH   1   4
ATOM      4  C   UNL     1       2.710  15.985  22.248  1.00  0.00     0.034 C 
BRANCH   4   5
ATOM      5  C   UNL     1       2.877  15.474  23.685  1.00  0.00     0.032 C 
BRANCH   5   6
ATOM      6  C   UNL     1       3.985  14.453  23.763  1.00  0.00    -0.028 C 
ATOM      7  C   UNL     1       2.440  12.591  24.411  1.00  0.00     0.039 C 
ATOM      8  C   UNL     1       3.806  13.161  24.120  1.00  0.00    -0.080 C 
ATOM      9  C   UNL     1       4.991  12.233  24.195  1.00  0.00     0.039 C 
ENDBRANCH   5   6
ENDBRANCH   4   5
ENDBRANCH   1   4
BRANCH   2  10
ATOM     10  C   UNL     1       1.827  13.418  20.809  1.00  0.00     0.035 C 
BRANCH  10  11
ATOM     11  C   UNL     1       2.335  13.477  19.366  1.00  0.00     0.079 C 
BRANCH  11  12
ATOM     12  C   UNL     1       3.801  13.816  19.326  1.00  0.00     0.130 C 
ATOM     13  O   UNL     1       4.242  14.490  18.407  1.00  0.00    -0.300 OA
ATOM     14  C   UNL     1       4.717  13.356  20.419  1.00  0.00     0.087 C 
ENDBRANCH  11  12
ENDBRANCH  10  11
ENDBRANCH   2  10
TORSDOF 6
ENDMDL
MODEL 9
REMARK VINA RESULT:    -3.719      2.563      4.452
REMARK INTER + INTRA:          -6.489
REMARK INTER:                  -4.836
REMARK INTRA:                  -1.653
REMARK UNBOUND:                -1.466
REMARK SMILES CC(=O)CCC=C(C)CCC=C(C)C
REMARK SMILES IDX 7 1 6 2 8 3 9 4 10 5 11 6 13 7 12 8 14 9 5 10 4 11 2 12 3 13
REMARK SMILES IDX 1 14
REMARK H PARENT
REMARK Flexibility Score: inf
ROOT
ATOM      1  C   UNL     1       1.612  16.590  21.336  1.00  0.00    -0.077 C 
ATOM      2  C   UNL     1       1.652  16.561  19.982  1.00  0.00    -0.028 C 
ATOM      3  C   UNL     1       0.276  16.817  21.999  1.00  0.00     0.039 C 
ENDROOT
BRANCH   1   4
ATOM      4  C   UNL     1       2.838  16.413  22.212  1.00  0.00     0.034 C 
BRANCH   4   5
ATOM      5  C   UNL     1       2.686  15.201  23.140  1.00  0.00     0.032 C 
BRANCH   5   6
ATOM      6  C   UNL     1       3.133  13.938  22.447  1.00  0.00    -0.028 C 
ATOM      7  C   UNL     1       0.796  13.087  22.146  1.00  0.00     0.039 C 
ATOM      8  C   UNL     1       2.295  12.964  22.024  1.00  0.00    -0.080 C 
ATOM      9  C   UNL     1       2.853  11.727  21.370  1.00  0.00     0.039 C 
ENDBRANCH   5   6
ENDBRANCH   4   5
ENDBRANCH   1   4
BRANCH   2  10
ATOM     10  C   UNL     1       2.883  16.327  19.141  1.00  0.00     0.035 C 
BRANCH  10  11
ATOM     11  C   UNL     1       3.060  14.831  18.869  1.00  0.00     0.079 C 
BRANCH  11  12
ATOM     12  C   UNL     1       1.975  14.318  17.961  1.00  0.00     0.130 C 
ATOM     13  O   UNL     1       1.837  14.804  16.848  1.00  0.00    -0.300 OA
ATOM     14  C   UNL     1       1.080  13.200  18.401  1.00  0.00     0.087 C 
ENDBRANCH  11  12
ENDBRANCH  10  11
ENDBRANCH   2  10
TORSDOF 6
ENDMDL
