MODEL 1
REMARK VINA RESULT:    -5.660      0.000      0.000
REMARK INTER + INTRA:          -6.930
REMARK INTER:                  -6.653
REMARK INTRA:                  -0.277
REMARK UNBOUND:                -0.277
REMARK SMILES O=c1c(O)c(-c2ccc(O)c(O)c2)oc2cc(O)ccc12
REMARK SMILES IDX 5 1 3 2 2 3 1 4 21 5 15 6 14 7 16 8 17 9 19 10 20 11 6 12
REMARK SMILES IDX 7 13 8 14 9 15 13 16 11 17 10 18 12 20 4 22 18 24
REMARK H PARENT 10 19 12 21 4 23 18 25
REMARK Flexibility Score: inf
ROOT
ATOM      1  C   UNL     1     -33.063  -3.720 -14.069  1.00  0.00     0.180 A 
ATOM      2  C   UNL     1     -32.849  -3.613 -12.679  1.00  0.00     0.208 A 
ATOM      3  C   UNL     1     -33.651  -4.373 -11.812  1.00  0.00     0.235 A 
ATOM      4  O   UNL     1     -33.472  -4.302 -10.565  1.00  0.00    -0.285 OA
ATOM      5  C   UNL     1     -34.652  -5.199 -12.343  1.00  0.00     0.069 A 
ATOM      6  C   UNL     1     -34.818  -5.232 -13.745  1.00  0.00     0.142 A 
ATOM      7  O   UNL     1     -34.033  -4.506 -14.532  1.00  0.00    -0.452 OA
ATOM      8  C   UNL     1     -35.813  -6.036 -14.313  1.00  0.00     0.094 A 
ATOM      9  C   UNL     1     -36.645  -6.812 -13.495  1.00  0.00     0.119 A 
ATOM     10  C   UNL     1     -36.482  -6.782 -12.107  1.00  0.00     0.047 A 
ATOM     11  C   UNL     1     -35.492  -5.981 -11.529  1.00  0.00     0.020 A 
ENDROOT
BRANCH   1  12
ATOM     12  C   UNL     1     -32.247  -2.967 -15.049  1.00  0.00     0.025 A 
ATOM     13  C   UNL     1     -32.815  -1.873 -15.723  1.00  0.00     0.016 A 
ATOM     14  C   UNL     1     -32.070  -1.161 -16.666  1.00  0.00     0.051 A 
ATOM     15  C   UNL     1     -30.754  -1.541 -16.963  1.00  0.00     0.157 A 
ATOM     16  C   UNL     1     -30.933  -3.359 -15.364  1.00  0.00     0.062 A 
ATOM     17  C   UNL     1     -30.186  -2.645 -16.313  1.00  0.00     0.158 A 
BRANCH  15  18
ATOM     18  O   UNL     1     -30.009  -0.832 -17.902  1.00  0.00    -0.504 OA
ATOM     19  H   UNL     1     -29.035  -0.605 -17.744  1.00  0.00     0.293 HD
ENDBRANCH  15  18
BRANCH  17  20
ATOM     20  O   UNL     1     -28.883  -3.030 -16.619  1.00  0.00    -0.504 OA
ATOM     21  H   UNL     1     -28.088  -2.666 -16.109  1.00  0.00     0.293 HD
ENDBRANCH  17  20
ENDBRANCH   1  12
BRANCH   2  22
ATOM     22  O   UNL     1     -31.877  -2.745 -12.177  1.00  0.00    -0.502 OA
ATOM     23  H   UNL     1     -31.786  -2.547 -11.187  1.00  0.00     0.293 HD
ENDBRANCH   2  22
BRANCH   9  24
ATOM     24  O   UNL     1     -37.637  -7.616 -14.053  1.00  0.00    -0.508 OA
ATOM     25  H   UNL     1     -37.461  -8.183 -14.874  1.00  0.00     0.293 HD
ENDBRANCH   9  24
TORSDOF 5
ENDMDL
MODEL 2
REMARK VINA RESULT:    -5.509      4.482      8.217
REMARK INTER + INTRA:          -6.753
REMARK INTER:                  -6.432
REMARK INTRA:                  -0.321
REMARK UNBOUND:                -0.277
REMARK SMILES O=c1c(O)c(-c2ccc(O)c(O)c2)oc2cc(O)ccc12
REMARK SMILES IDX 5 1 3 2 2 3 1 4 21 5 15 6 14 7 16 8 17 9 19 10 20 11 6 12
REMARK SMILES IDX 7 13 8 14 9 15 13 16 11 17 10 18 12 20 4 22 18 24
REMARK H PARENT 10 19 12 21 4 23 18 25
REMARK Flexibility Score: inf
ROOT
ATOM      1  C   UNL     1     -34.911  -7.725 -10.214  1.00  0.00     0.180 A 
ATOM      2  C   UNL     1     -34.613  -6.375 -10.494  1.00  0.00     0.208 A 
ATOM      3  C   UNL     1     -34.853  -5.884 -11.787  1.00  0.00     0.235 A 
ATOM      4  O   UNL     1     -34.604  -4.677 -12.059  1.00  0.00    -0.285 OA
ATOM      5  C   UNL     1     -35.361  -6.747 -12.769  1.00  0.00     0.069 A 
ATOM      6  C   UNL     1     -35.611  -8.091 -12.415  1.00  0.00     0.142 A 
ATOM      7  O   UNL     1     -35.379  -8.513 -11.178  1.00  0.00    -0.452 OA
ATOM      8  C   UNL     1     -36.109  -8.985 -13.370  1.00  0.00     0.094 A 
ATOM      9  C   UNL     1     -36.364  -8.551 -14.678  1.00  0.00     0.119 A 
ATOM     10  C   UNL     1     -36.118  -7.220 -15.031  1.00  0.00     0.047 A 
ATOM     11  C   UNL     1     -35.619  -6.319 -14.085  1.00  0.00     0.020 A 
ENDROOT
BRANCH   1  12
ATOM     12  C   UNL     1     -34.703  -8.312  -8.870  1.00  0.00     0.025 A 
ATOM     13  C   UNL     1     -33.537  -9.051  -8.613  1.00  0.00     0.016 A 
ATOM     14  C   UNL     1     -33.330  -9.632  -7.359  1.00  0.00     0.051 A 
ATOM     15  C   UNL     1     -34.293  -9.497  -6.350  1.00  0.00     0.157 A 
ATOM     16  C   UNL     1     -35.677  -8.197  -7.861  1.00  0.00     0.062 A 
ATOM     17  C   UNL     1     -35.470  -8.782  -6.603  1.00  0.00     0.158 A 
BRANCH  15  18
ATOM     18  O   UNL     1     -34.089 -10.073  -5.098  1.00  0.00    -0.504 OA
ATOM     19  H   UNL     1     -33.259 -10.616  -4.893  1.00  0.00     0.293 HD
ENDBRANCH  15  18
BRANCH  17  20
ATOM     20  O   UNL     1     -36.433  -8.661  -5.603  1.00  0.00    -0.504 OA
ATOM     21  H   UNL     1     -36.939  -9.464  -5.253  1.00  0.00     0.293 HD
ENDBRANCH  17  20
ENDBRANCH   1  12
BRANCH   2  22
ATOM     22  O   UNL     1     -34.061  -5.553  -9.508  1.00  0.00    -0.502 OA
ATOM     23  H   UNL     1     -33.999  -4.547  -9.614  1.00  0.00     0.293 HD
ENDBRANCH   2  22
BRANCH   9  24
ATOM     24  O   UNL     1     -36.860  -9.434 -15.634  1.00  0.00    -0.508 OA
ATOM     25  H   UNL     1     -36.455 -10.353 -15.767  1.00  0.00     0.293 HD
ENDBRANCH   9  24
TORSDOF 5
ENDMDL
MODEL 3
REMARK VINA RESULT:    -5.411      1.511      3.244
REMARK INTER + INTRA:          -6.637
REMARK INTER:                  -6.654
REMARK INTRA:                   0.017
REMARK UNBOUND:                -0.277
REMARK SMILES O=c1c(O)c(-c2ccc(O)c(O)c2)oc2cc(O)ccc12
REMARK SMILES IDX 5 1 3 2 2 3 1 4 21 5 15 6 14 7 16 8 17 9 19 10 20 11 6 12
REMARK SMILES IDX 7 13 8 14 9 15 13 16 11 17 10 18 12 20 4 22 18 24
REMARK H PARENT 10 19 12 21 4 23 18 25
REMARK Flexibility Score: inf
ROOT
ATOM      1  C   UNL     1     -33.468  -4.300 -13.819  1.00  0.00     0.180 A 
ATOM      2  C   UNL     1     -34.509  -5.003 -14.460  1.00  0.00     0.208 A 
ATOM      3  C   UNL     1     -35.353  -5.815 -13.685  1.00  0.00     0.235 A 
ATOM      4  O   UNL     1     -36.298  -6.446 -14.234  1.00  0.00    -0.285 OA
ATOM      5  C   UNL     1     -35.130  -5.923 -12.305  1.00  0.00     0.069 A 
ATOM      6  C   UNL     1     -34.052  -5.205 -11.742  1.00  0.00     0.142 A 
ATOM      7  O   UNL     1     -33.283  -4.440 -12.508  1.00  0.00    -0.452 OA
ATOM      8  C   UNL     1     -33.791  -5.295 -10.370  1.00  0.00     0.094 A 
ATOM      9  C   UNL     1     -34.599  -6.094  -9.549  1.00  0.00     0.119 A 
ATOM     10  C   UNL     1     -35.668  -6.805 -10.103  1.00  0.00     0.047 A 
ATOM     11  C   UNL     1     -35.936  -6.723 -11.473  1.00  0.00     0.020 A 
ENDROOT
BRANCH   1  12
ATOM     12  C   UNL     1     -32.547  -3.409 -14.563  1.00  0.00     0.025 A 
ATOM     13  C   UNL     1     -31.168  -3.477 -14.310  1.00  0.00     0.016 A 
ATOM     14  C   UNL     1     -30.283  -2.632 -14.985  1.00  0.00     0.051 A 
ATOM     15  C   UNL     1     -30.766  -1.696 -15.909  1.00  0.00     0.157 A 
ATOM     16  C   UNL     1     -33.030  -2.453 -15.475  1.00  0.00     0.062 A 
ATOM     17  C   UNL     1     -32.142  -1.604 -16.151  1.00  0.00     0.158 A 
BRANCH  15  18
ATOM     18  O   UNL     1     -29.886  -0.853 -16.585  1.00  0.00    -0.504 OA
ATOM     19  H   UNL     1     -29.266  -1.201 -17.305  1.00  0.00     0.293 HD
ENDBRANCH  15  18
BRANCH  17  20
ATOM     20  O   UNL     1     -32.622  -0.663 -17.060  1.00  0.00    -0.504 OA
ATOM     21  H   UNL     1     -32.138  -0.468 -17.928  1.00  0.00     0.293 HD
ENDBRANCH  17  20
ENDBRANCH   1  12
BRANCH   2  22
ATOM     22  O   UNL     1     -34.675  -4.914 -15.844  1.00  0.00    -0.502 OA
ATOM     23  H   UNL     1     -35.376  -5.452 -16.341  1.00  0.00     0.293 HD
ENDBRANCH   2  22
BRANCH   9  24
ATOM     24  O   UNL     1     -34.347  -6.188  -8.182  1.00  0.00    -0.508 OA
ATOM     25  H   UNL     1     -34.454  -7.063  -7.683  1.00  0.00     0.293 HD
ENDBRANCH   9  24
TORSDOF 5
ENDMDL
MODEL 4
REMARK VINA RESULT:    -5.253      4.122      8.564
REMARK INTER + INTRA:          -6.452
REMARK INTER:                  -6.154
REMARK INTRA:                  -0.298
REMARK UNBOUND:                -0.277
REMARK SMILES O=c1c(O)c(-c2ccc(O)c(O)c2)oc2cc(O)ccc12
REMARK SMILES IDX 5 1 3 2 2 3 1 4 21 5 15 6 14 7 16 8 17 9 19 10 20 11 6 12
REMARK SMILES IDX 7 13 8 14 9 15 13 16 11 17 10 18 12 20 4 22 18 24
REMARK H PARENT 10 19 12 21 4 23 18 25
REMARK Flexibility Score: inf
ROOT
ATOM      1  C   UNL     1     -34.882  -8.111 -10.140  1.00  0.00     0.180 A 
ATOM      2  C   UNL     1     -34.986  -9.237 -10.982  1.00  0.00     0.208 A 
ATOM      3  C   UNL     1     -35.168  -9.037 -12.360  1.00  0.00     0.235 A 
ATOM      4  O   UNL     1     -35.254 -10.029 -13.134  1.00  0.00    -0.285 OA
ATOM      5  C   UNL     1     -35.263  -7.730 -12.861  1.00  0.00     0.069 A 
ATOM      6  C   UNL     1     -35.172  -6.656 -11.949  1.00  0.00     0.142 A 
ATOM      7  O   UNL     1     -34.990  -6.888 -10.654  1.00  0.00    -0.452 OA
ATOM      8  C   UNL     1     -35.271  -5.338 -12.408  1.00  0.00     0.094 A 
ATOM      9  C   UNL     1     -35.458  -5.079 -13.774  1.00  0.00     0.119 A 
ATOM     10  C   UNL     1     -35.547  -6.141 -14.679  1.00  0.00     0.047 A 
ATOM     11  C   UNL     1     -35.450  -7.462 -14.229  1.00  0.00     0.020 A 
ENDROOT
BRANCH   1  12
ATOM     12  C   UNL     1     -34.670  -8.238  -8.680  1.00  0.00     0.025 A 
ATOM     13  C   UNL     1     -33.367  -8.165  -8.163  1.00  0.00     0.016 A 
ATOM     14  C   UNL     1     -33.142  -8.302  -6.791  1.00  0.00     0.051 A 
ATOM     15  C   UNL     1     -34.214  -8.532  -5.918  1.00  0.00     0.157 A 
ATOM     16  C   UNL     1     -35.742  -8.490  -7.803  1.00  0.00     0.062 A 
ATOM     17  C   UNL     1     -35.515  -8.630  -6.426  1.00  0.00     0.158 A 
BRANCH  15  18
ATOM     18  O   UNL     1     -33.993  -8.668  -4.549  1.00  0.00    -0.504 OA
ATOM     19  H   UNL     1     -33.073  -8.871  -4.178  1.00  0.00     0.293 HD
ENDBRANCH  15  18
BRANCH  17  20
ATOM     20  O   UNL     1     -36.579  -8.873  -5.559  1.00  0.00    -0.504 OA
ATOM     21  H   UNL     1     -36.762  -9.797  -5.188  1.00  0.00     0.293 HD
ENDBRANCH  17  20
ENDBRANCH   1  12
BRANCH   2  22
ATOM     22  O   UNL     1     -34.938 -10.527 -10.447  1.00  0.00    -0.502 OA
ATOM     23  H   UNL     1     -35.263 -11.339 -10.960  1.00  0.00     0.293 HD
ENDBRANCH   2  22
BRANCH   9  24
ATOM     24  O   UNL     1     -35.558  -3.770 -14.240  1.00  0.00    -0.508 OA
ATOM     25  H   UNL     1     -36.004  -3.554 -15.123  1.00  0.00     0.293 HD
ENDBRANCH   9  24
TORSDOF 5
ENDMDL
MODEL 5
REMARK VINA RESULT:    -5.196      2.816      7.778
REMARK INTER + INTRA:          -6.385
REMARK INTER:                  -6.091
REMARK INTRA:                  -0.294
REMARK UNBOUND:                -0.277
REMARK SMILES O=c1c(O)c(-c2ccc(O)c(O)c2)oc2cc(O)ccc12
REMARK SMILES IDX 5 1 3 2 2 3 1 4 21 5 15 6 14 7 16 8 17 9 19 10 20 11 6 12
REMARK SMILES IDX 7 13 8 14 9 15 13 16 11 17 10 18 12 20 4 22 18 24
REMARK H PARENT 10 19 12 21 4 23 18 25
REMARK Flexibility Score: inf
ROOT
ATOM      1  C   UNL     1     -34.866  -6.659 -12.072  1.00  0.00     0.180 A 
ATOM      2  C   UNL     1     -35.738  -6.806 -13.170  1.00  0.00     0.208 A 
ATOM      3  C   UNL     1     -35.582  -5.955 -14.276  1.00  0.00     0.235 A 
ATOM      4  O   UNL     1     -36.344  -6.074 -15.275  1.00  0.00    -0.285 OA
ATOM      5  C   UNL     1     -34.581  -4.972 -14.255  1.00  0.00     0.069 A 
ATOM      6  C   UNL     1     -33.763  -4.874 -13.108  1.00  0.00     0.142 A 
ATOM      7  O   UNL     1     -33.938  -5.705 -12.086  1.00  0.00    -0.452 OA
ATOM      8  C   UNL     1     -32.761  -3.901 -13.044  1.00  0.00     0.094 A 
ATOM      9  C   UNL     1     -32.562  -3.021 -14.118  1.00  0.00     0.119 A 
ATOM     10  C   UNL     1     -33.370  -3.117 -15.256  1.00  0.00     0.047 A 
ATOM     11  C   UNL     1     -34.375  -4.086 -15.328  1.00  0.00     0.020 A 
ENDROOT
BRANCH   1  12
ATOM     12  C   UNL     1     -34.954  -7.529 -10.877  1.00  0.00     0.025 A 
ATOM     13  C   UNL     1     -34.386  -8.813 -10.915  1.00  0.00     0.016 A 
ATOM     14  C   UNL     1     -34.475  -9.658  -9.806  1.00  0.00     0.051 A 
ATOM     15  C   UNL     1     -35.147  -9.239  -8.650  1.00  0.00     0.157 A 
ATOM     16  C   UNL     1     -35.646  -7.120  -9.722  1.00  0.00     0.062 A 
ATOM     17  C   UNL     1     -35.738  -7.970  -8.609  1.00  0.00     0.158 A 
BRANCH  15  18
ATOM     18  O   UNL     1     -35.237 -10.079  -7.542  1.00  0.00    -0.504 OA
ATOM     19  H   UNL     1     -34.796 -10.991  -7.530  1.00  0.00     0.293 HD
ENDBRANCH  15  18
BRANCH  17  20
ATOM     20  O   UNL     1     -36.418  -7.560  -7.465  1.00  0.00    -0.504 OA
ATOM     21  H   UNL     1     -36.993  -6.727  -7.458  1.00  0.00     0.293 HD
ENDBRANCH  17  20
ENDBRANCH   1  12
BRANCH   2  22
ATOM     22  O   UNL     1     -36.757  -7.761 -13.142  1.00  0.00    -0.502 OA
ATOM     23  H   UNL     1     -36.574  -8.744 -12.975  1.00  0.00     0.293 HD
ENDBRANCH   2  22
BRANCH   9  24
ATOM     24  O   UNL     1     -31.566  -2.049 -14.063  1.00  0.00    -0.508 OA
ATOM     25  H   UNL     1     -31.182  -1.635 -14.905  1.00  0.00     0.293 HD
ENDBRANCH   9  24
TORSDOF 5
ENDMDL
MODEL 6
REMARK VINA RESULT:    -5.195      3.865      6.064
REMARK INTER + INTRA:          -6.384
REMARK INTER:                  -6.119
REMARK INTRA:                  -0.265
REMARK UNBOUND:                -0.277
REMARK SMILES O=c1c(O)c(-c2ccc(O)c(O)c2)oc2cc(O)ccc12
REMARK SMILES IDX 5 1 3 2 2 3 1 4 21 5 15 6 14 7 16 8 17 9 19 10 20 11 6 12
REMARK SMILES IDX 7 13 8 14 9 15 13 16 11 17 10 18 12 20 4 22 18 24
REMARK H PARENT 10 19 12 21 4 23 18 25
REMARK Flexibility Score: inf
ROOT
ATOM      1  C   UNL     1     -34.833  -7.671 -11.077  1.00  0.00     0.180 A 
ATOM      2  C   UNL     1     -34.613  -8.998 -11.499  1.00  0.00     0.208 A 
ATOM      3  C   UNL     1     -34.831 -10.042 -10.586  1.00  0.00     0.235 A 
ATOM      4  O   UNL     1     -34.652 -11.239 -10.942  1.00  0.00    -0.285 OA
ATOM      5  C   UNL     1     -35.241  -9.741  -9.278  1.00  0.00     0.069 A 
ATOM      6  C   UNL     1     -35.416  -8.385  -8.927  1.00  0.00     0.142 A 
ATOM      7  O   UNL     1     -35.208  -7.427  -9.823  1.00  0.00    -0.452 OA
ATOM      8  C   UNL     1     -35.814  -8.043  -7.630  1.00  0.00     0.094 A 
ATOM      9  C   UNL     1     -36.043  -9.045  -6.675  1.00  0.00     0.119 A 
ATOM     10  C   UNL     1     -35.871 -10.389  -7.021  1.00  0.00     0.047 A 
ATOM     11  C   UNL     1     -35.472 -10.740  -8.314  1.00  0.00     0.020 A 
ENDROOT
BRANCH   1  12
ATOM     12  C   UNL     1     -34.643  -6.516 -11.986  1.00  0.00     0.025 A 
ATOM     13  C   UNL     1     -35.763  -5.915 -12.580  1.00  0.00     0.016 A 
ATOM     14  C   UNL     1     -35.606  -4.838 -13.456  1.00  0.00     0.051 A 
ATOM     15  C   UNL     1     -34.326  -4.357 -13.763  1.00  0.00     0.157 A 
ATOM     16  C   UNL     1     -33.358  -6.045 -12.312  1.00  0.00     0.062 A 
ATOM     17  C   UNL     1     -33.200  -4.965 -13.194  1.00  0.00     0.158 A 
BRANCH  15  18
ATOM     18  O   UNL     1     -34.166  -3.282 -14.635  1.00  0.00    -0.504 OA
ATOM     19  H   UNL     1     -34.958  -2.744 -14.965  1.00  0.00     0.293 HD
ENDBRANCH  15  18
BRANCH  17  20
ATOM     20  O   UNL     1     -31.927  -4.495 -13.511  1.00  0.00    -0.504 OA
ATOM     21  H   UNL     1     -31.106  -5.079 -13.413  1.00  0.00     0.293 HD
ENDBRANCH  17  20
ENDBRANCH   1  12
BRANCH   2  22
ATOM     22  O   UNL     1     -34.158  -9.264 -12.792  1.00  0.00    -0.502 OA
ATOM     23  H   UNL     1     -33.648  -8.579 -13.339  1.00  0.00     0.293 HD
ENDBRANCH   2  22
BRANCH   9  24
ATOM     24  O   UNL     1     -36.440  -8.713  -5.382  1.00  0.00    -0.508 OA
ATOM     25  H   UNL     1     -36.109  -7.871  -4.925  1.00  0.00     0.293 HD
ENDBRANCH   9  24
TORSDOF 5
ENDMDL
MODEL 7
REMARK VINA RESULT:    -5.189      3.422      7.653
REMARK INTER + INTRA:          -6.376
REMARK INTER:                  -6.226
REMARK INTRA:                  -0.150
REMARK UNBOUND:                -0.277
REMARK SMILES O=c1c(O)c(-c2ccc(O)c(O)c2)oc2cc(O)ccc12
REMARK SMILES IDX 5 1 3 2 2 3 1 4 21 5 15 6 14 7 16 8 17 9 19 10 20 11 6 12
REMARK SMILES IDX 7 13 8 14 9 15 13 16 11 17 10 18 12 20 4 22 18 24
REMARK H PARENT 10 19 12 21 4 23 18 25
REMARK Flexibility Score: inf
ROOT
ATOM      1  C   UNL     1     -34.869  -6.700 -10.736  1.00  0.00     0.180 A 
ATOM      2  C   UNL     1     -34.052  -5.593 -10.423  1.00  0.00     0.208 A 
ATOM      3  C   UNL     1     -33.751  -4.667 -11.434  1.00  0.00     0.235 A 
ATOM      4  O   UNL     1     -33.031  -3.664 -11.176  1.00  0.00    -0.285 OA
ATOM      5  C   UNL     1     -34.249  -4.874 -12.730  1.00  0.00     0.069 A 
ATOM      6  C   UNL     1     -35.040  -6.019 -12.968  1.00  0.00     0.142 A 
ATOM      7  O   UNL     1     -35.310  -6.866 -11.981  1.00  0.00    -0.452 OA
ATOM      8  C   UNL     1     -35.547  -6.265 -14.249  1.00  0.00     0.094 A 
ATOM      9  C   UNL     1     -35.274  -5.377 -15.298  1.00  0.00     0.119 A 
ATOM     10  C   UNL     1     -34.492  -4.241 -15.065  1.00  0.00     0.047 A 
ATOM     11  C   UNL     1     -33.980  -3.987 -13.789  1.00  0.00     0.020 A 
ENDROOT
BRANCH   1  12
ATOM     12  C   UNL     1     -35.247  -7.710  -9.721  1.00  0.00     0.025 A 
ATOM     13  C   UNL     1     -36.028  -7.322  -8.621  1.00  0.00     0.016 A 
ATOM     14  C   UNL     1     -36.380  -8.254  -7.641  1.00  0.00     0.051 A 
ATOM     15  C   UNL     1     -35.941  -9.581  -7.737  1.00  0.00     0.157 A 
ATOM     16  C   UNL     1     -34.791  -9.038  -9.804  1.00  0.00     0.062 A 
ATOM     17  C   UNL     1     -35.142  -9.973  -8.818  1.00  0.00     0.158 A 
BRANCH  15  18
ATOM     18  O   UNL     1     -36.291 -10.513  -6.762  1.00  0.00    -0.504 OA
ATOM     19  H   UNL     1     -36.776 -10.239  -5.916  1.00  0.00     0.293 HD
ENDBRANCH  15  18
BRANCH  17  20
ATOM     20  O   UNL     1     -34.695 -11.290  -8.906  1.00  0.00    -0.504 OA
ATOM     21  H   UNL     1     -33.765 -11.556  -8.607  1.00  0.00     0.293 HD
ENDBRANCH  17  20
ENDBRANCH   1  12
BRANCH   2  22
ATOM     22  O   UNL     1     -33.530  -5.440  -9.136  1.00  0.00    -0.502 OA
ATOM     23  H   UNL     1     -32.564  -5.649  -8.915  1.00  0.00     0.293 HD
ENDBRANCH   2  22
BRANCH   9  24
ATOM     24  O   UNL     1     -35.775  -5.614 -16.576  1.00  0.00    -0.508 OA
ATOM     25  H   UNL     1     -35.681  -6.519 -17.023  1.00  0.00     0.293 HD
ENDBRANCH   9  24
TORSDOF 5
ENDMDL
MODEL 8
REMARK VINA RESULT:    -5.183      3.819      5.685
REMARK INTER + INTRA:          -6.369
REMARK INTER:                  -6.578
REMARK INTRA:                   0.209
REMARK UNBOUND:                -0.277
REMARK SMILES O=c1c(O)c(-c2ccc(O)c(O)c2)oc2cc(O)ccc12
REMARK SMILES IDX 5 1 3 2 2 3 1 4 21 5 15 6 14 7 16 8 17 9 19 10 20 11 6 12
REMARK SMILES IDX 7 13 8 14 9 15 13 16 11 17 10 18 12 20 4 22 18 24
REMARK H PARENT 10 19 12 21 4 23 18 25
REMARK Flexibility Score: inf
ROOT
ATOM      1  C   UNL     1     -34.802  -6.075 -10.983  1.00  0.00     0.180 A 
ATOM      2  C   UNL     1     -33.851  -5.244 -10.356  1.00  0.00     0.208 A 
ATOM      3  C   UNL     1     -33.628  -5.393  -8.977  1.00  0.00     0.235 A 
ATOM      4  O   UNL     1     -32.775  -4.668  -8.396  1.00  0.00    -0.285 OA
ATOM      5  C   UNL     1     -34.366  -6.344  -8.258  1.00  0.00     0.069 A 
ATOM      6  C   UNL     1     -35.317  -7.122  -8.955  1.00  0.00     0.142 A 
ATOM      7  O   UNL     1     -35.491  -6.956 -10.261  1.00  0.00    -0.452 OA
ATOM      8  C   UNL     1     -36.080  -8.074  -8.271  1.00  0.00     0.094 A 
ATOM      9  C   UNL     1     -35.903  -8.262  -6.893  1.00  0.00     0.119 A 
ATOM     10  C   UNL     1     -34.961  -7.495  -6.200  1.00  0.00     0.047 A 
ATOM     11  C   UNL     1     -34.195  -6.540  -6.875  1.00  0.00     0.020 A 
ENDROOT
BRANCH   1  12
ATOM     12  C   UNL     1     -35.081  -5.993 -12.436  1.00  0.00     0.025 A 
ATOM     13  C   UNL     1     -35.123  -4.736 -13.059  1.00  0.00     0.016 A 
ATOM     14  C   UNL     1     -35.404  -4.633 -14.424  1.00  0.00     0.051 A 
ATOM     15  C   UNL     1     -35.664  -5.783 -15.181  1.00  0.00     0.157 A 
ATOM     16  C   UNL     1     -35.363  -7.144 -13.194  1.00  0.00     0.062 A 
ATOM     17  C   UNL     1     -35.647  -7.040 -14.564  1.00  0.00     0.158 A 
BRANCH  15  18
ATOM     18  O   UNL     1     -35.943  -5.685 -16.542  1.00  0.00    -0.504 OA
ATOM     19  H   UNL     1     -36.461  -4.901 -16.922  1.00  0.00     0.293 HD
ENDBRANCH  15  18
BRANCH  17  20
ATOM     20  O   UNL     1     -35.919  -8.182 -15.315  1.00  0.00    -0.504 OA
ATOM     21  H   UNL     1     -36.369  -8.128 -16.220  1.00  0.00     0.293 HD
ENDBRANCH  17  20
ENDBRANCH   1  12
BRANCH   2  22
ATOM     22  O   UNL     1     -33.167  -4.272 -11.089  1.00  0.00    -0.502 OA
ATOM     23  H   UNL     1     -32.589  -4.504 -11.889  1.00  0.00     0.293 HD
ENDBRANCH   2  22
BRANCH   9  24
ATOM     24  O   UNL     1     -36.658  -9.209  -6.204  1.00  0.00    -0.508 OA
ATOM     25  H   UNL     1     -36.220  -9.956  -5.678  1.00  0.00     0.293 HD
ENDBRANCH   9  24
TORSDOF 5
ENDMDL
MODEL 9
REMARK VINA RESULT:    -5.176      1.319      6.569
REMARK INTER + INTRA:          -6.361
REMARK INTER:                  -6.835
REMARK INTRA:                   0.474
REMARK UNBOUND:                -0.277
REMARK SMILES O=c1c(O)c(-c2ccc(O)c(O)c2)oc2cc(O)ccc12
REMARK SMILES IDX 5 1 3 2 2 3 1 4 21 5 15 6 14 7 16 8 17 9 19 10 20 11 6 12
REMARK SMILES IDX 7 13 8 14 9 15 13 16 11 17 10 18 12 20 4 22 18 24
REMARK H PARENT 10 19 12 21 4 23 18 25
REMARK Flexibility Score: inf
ROOT
ATOM      1  C   UNL     1     -33.417  -3.772 -13.959  1.00  0.00     0.180 A 
ATOM      2  C   UNL     1     -32.889  -3.223 -12.772  1.00  0.00     0.208 A 
ATOM      3  C   UNL     1     -31.869  -2.263 -12.867  1.00  0.00     0.235 A 
ATOM      4  O   UNL     1     -31.388  -1.750 -11.819  1.00  0.00    -0.285 OA
ATOM      5  C   UNL     1     -31.387  -1.890 -14.130  1.00  0.00     0.069 A 
ATOM      6  C   UNL     1     -31.952  -2.503 -15.270  1.00  0.00     0.142 A 
ATOM      7  O   UNL     1     -32.922  -3.400 -15.138  1.00  0.00    -0.452 OA
ATOM      8  C   UNL     1     -31.492  -2.165 -16.547  1.00  0.00     0.094 A 
ATOM      9  C   UNL     1     -30.472  -1.216 -16.701  1.00  0.00     0.119 A 
ATOM     10  C   UNL     1     -29.912  -0.606 -15.575  1.00  0.00     0.047 A 
ATOM     11  C   UNL     1     -30.364  -0.938 -14.294  1.00  0.00     0.020 A 
ENDROOT
BRANCH   1  12
ATOM     12  C   UNL     1     -34.507  -4.775 -13.944  1.00  0.00     0.025 A 
ATOM     13  C   UNL     1     -35.006  -5.268 -15.159  1.00  0.00     0.016 A 
ATOM     14  C   UNL     1     -36.047  -6.200 -15.170  1.00  0.00     0.051 A 
ATOM     15  C   UNL     1     -36.616  -6.638 -13.966  1.00  0.00     0.157 A 
ATOM     16  C   UNL     1     -35.094  -5.201 -12.738  1.00  0.00     0.062 A 
ATOM     17  C   UNL     1     -36.141  -6.134 -12.748  1.00  0.00     0.158 A 
BRANCH  15  18
ATOM     18  O   UNL     1     -37.654  -7.568 -13.972  1.00  0.00    -0.504 OA
ATOM     19  H   UNL     1     -37.841  -8.159 -13.172  1.00  0.00     0.293 HD
ENDBRANCH  15  18
BRANCH  17  20
ATOM     20  O   UNL     1     -36.717  -6.560 -11.553  1.00  0.00    -0.504 OA
ATOM     21  H   UNL     1     -36.579  -7.500 -11.203  1.00  0.00     0.293 HD
ENDBRANCH  17  20
ENDBRANCH   1  12
BRANCH   2  22
ATOM     22  O   UNL     1     -33.354  -3.650 -11.526  1.00  0.00    -0.502 OA
ATOM     23  H   UNL     1     -33.081  -4.538 -11.121  1.00  0.00     0.293 HD
ENDBRANCH   2  22
BRANCH   9  24
ATOM     24  O   UNL     1     -30.008  -0.873 -17.970  1.00  0.00    -0.508 OA
ATOM     25  H   UNL     1     -30.034  -1.532 -18.739  1.00  0.00     0.293 HD
ENDBRANCH   9  24
TORSDOF 5
ENDMDL
