MODEL 1
REMARK VINA RESULT:    -2.629      0.000      0.000
REMARK INTER + INTRA:          -4.512
REMARK INTER:                  -3.551
REMARK INTRA:                  -0.960
REMARK UNBOUND:                -0.960
REMARK SMILES O=C[C@@H](O)[C@H](O)[C@@H](O)CO
REMARK SMILES IDX 7 1 9 2 10 3 5 5 3 6 2 7 1 8 4 9 6 11 8 13
REMARK H PARENT 10 4 4 10 6 12 8 14
REMARK Flexibility Score: inf
ROOT
ATOM      1  C   UNL     1      38.109  13.586  39.670  1.00  0.00     0.171 C 
ENDROOT
BRANCH   1   2
ATOM      2  C   UNL     1      38.110  15.114  39.883  1.00  0.00     0.190 C 
BRANCH   2   3
ATOM      3  O   UNL     1      37.931  15.777  38.663  1.00  0.00    -0.394 OA
ATOM      4  H   UNL     1      38.557  15.349  38.022  1.00  0.00     0.210 HD
ENDBRANCH   2   3
ENDBRANCH   1   2
BRANCH   1   5
ATOM      5  C   UNL     1      36.703  12.994  39.364  1.00  0.00     0.181 C 
BRANCH   5   6
ATOM      6  C   UNL     1      36.496  12.514  37.901  1.00  0.00     0.209 C 
BRANCH   6   7
ATOM      7  C   UNL     1      35.255  11.673  37.754  1.00  0.00     0.258 C 
ATOM      8  O   UNL     1      34.177  12.059  38.181  1.00  0.00    -0.300 OA
ENDBRANCH   6   7
BRANCH   6   9
ATOM      9  O   UNL     1      36.462  13.601  37.011  1.00  0.00    -0.383 OA
ATOM     10  H   UNL     1      36.080  14.371  37.510  1.00  0.00     0.211 HD
ENDBRANCH   6   9
ENDBRANCH   5   6
BRANCH   5  11
ATOM     11  O   UNL     1      35.736  13.969  39.667  1.00  0.00    -0.387 OA
ATOM     12  H   UNL     1      34.846  13.548  39.537  1.00  0.00     0.211 HD
ENDBRANCH   5  11
ENDBRANCH   1   5
BRANCH   1  13
ATOM     13  O   UNL     1      38.995  13.260  38.626  1.00  0.00    -0.388 OA
ATOM     14  H   UNL     1      39.372  12.362  38.823  1.00  0.00     0.211 HD
ENDBRANCH   1  13
TORSDOF 8
ENDMDL
MODEL 2
REMARK VINA RESULT:    -2.598      1.570      1.724
REMARK INTER + INTRA:          -4.469
REMARK INTER:                  -3.531
REMARK INTRA:                  -0.938
REMARK UNBOUND:                -0.960
REMARK SMILES O=C[C@@H](O)[C@H](O)[C@@H](O)CO
REMARK SMILES IDX 7 1 9 2 10 3 5 5 3 6 2 7 1 8 4 9 6 11 8 13
REMARK H PARENT 10 4 4 10 6 12 8 14
REMARK Flexibility Score: inf
ROOT
ATOM      1  C   UNL     1      36.544  14.946  39.297  1.00  0.00     0.171 C 
ENDROOT
BRANCH   1   2
ATOM      2  C   UNL     1      35.755  16.212  38.903  1.00  0.00     0.190 C 
BRANCH   2   3
ATOM      3  O   UNL     1      35.419  16.174  37.543  1.00  0.00    -0.394 OA
ATOM      4  H   UNL     1      34.543  16.634  37.463  1.00  0.00     0.210 HD
ENDBRANCH   2   3
ENDBRANCH   1   2
BRANCH   1   5
ATOM      5  C   UNL     1      35.763  13.619  39.069  1.00  0.00     0.181 C 
BRANCH   5   6
ATOM      6  C   UNL     1      36.262  12.759  37.876  1.00  0.00     0.209 C 
BRANCH   6   7
ATOM      7  C   UNL     1      35.400  11.544  37.658  1.00  0.00     0.258 C 
ATOM      8  O   UNL     1      34.777  11.038  38.579  1.00  0.00    -0.300 OA
ENDBRANCH   6   7
BRANCH   6   9
ATOM      9  O   UNL     1      36.343  13.523  36.699  1.00  0.00    -0.383 OA
ATOM     10  H   UNL     1      36.452  14.470  36.977  1.00  0.00     0.211 HD
ENDBRANCH   6   9
ENDBRANCH   5   6
BRANCH   5  11
ATOM     11  O   UNL     1      34.407  13.933  38.871  1.00  0.00    -0.387 OA
ATOM     12  H   UNL     1      33.878  13.154  39.187  1.00  0.00     0.211 HD
ENDBRANCH   5  11
ENDBRANCH   1   5
BRANCH   1  13
ATOM     13  O   UNL     1      37.754  14.909  38.579  1.00  0.00    -0.388 OA
ATOM     14  H   UNL     1      37.528  14.867  37.612  1.00  0.00     0.211 HD
ENDBRANCH   1  13
TORSDOF 8
ENDMDL
MODEL 3
REMARK VINA RESULT:    -2.576      1.586      3.977
REMARK INTER + INTRA:          -4.440
REMARK INTER:                  -3.529
REMARK INTRA:                  -0.910
REMARK UNBOUND:                -0.960
REMARK SMILES O=C[C@@H](O)[C@H](O)[C@@H](O)CO
REMARK SMILES IDX 7 1 9 2 10 3 5 5 3 6 2 7 1 8 4 9 6 11 8 13
REMARK H PARENT 10 4 4 10 6 12 8 14
REMARK Flexibility Score: inf
ROOT
ATOM      1  C   UNL     1      34.641  11.918  38.023  1.00  0.00     0.171 C 
ENDROOT
BRANCH   1   2
ATOM      2  C   UNL     1      33.715  10.839  38.621  1.00  0.00     0.190 C 
BRANCH   2   3
ATOM      3  O   UNL     1      34.465   9.738  39.054  1.00  0.00    -0.394 OA
ATOM      4  H   UNL     1      35.145  10.098  39.681  1.00  0.00     0.210 HD
ENDBRANCH   2   3
ENDBRANCH   1   2
BRANCH   1   5
ATOM      5  C   UNL     1      35.190  12.928  39.072  1.00  0.00     0.181 C 
BRANCH   5   6
ATOM      6  C   UNL     1      36.200  13.969  38.517  1.00  0.00     0.209 C 
BRANCH   6   7
ATOM      7  C   UNL     1      37.605  13.700  38.990  1.00  0.00     0.258 C 
ATOM      8  O   UNL     1      38.206  12.695  38.642  1.00  0.00    -0.300 OA
ENDBRANCH   6   7
BRANCH   6   9
ATOM      9  O   UNL     1      36.155  14.019  37.113  1.00  0.00    -0.383 OA
ATOM     10  H   UNL     1      35.670  13.207  36.810  1.00  0.00     0.211 HD
ENDBRANCH   6   9
ENDBRANCH   5   6
BRANCH   5  11
ATOM     11  O   UNL     1      35.805  12.201  40.107  1.00  0.00    -0.387 OA
ATOM     12  H   UNL     1      36.346  12.845  40.635  1.00  0.00     0.211 HD
ENDBRANCH   5  11
ENDBRANCH   1   5
BRANCH   1  13
ATOM     13  O   UNL     1      35.715  11.296  37.361  1.00  0.00    -0.388 OA
ATOM     14  H   UNL     1      36.520  11.397  37.935  1.00  0.00     0.211 HD
ENDBRANCH   1  13
TORSDOF 8
ENDMDL
MODEL 4
REMARK VINA RESULT:    -2.535      1.324      1.705
REMARK INTER + INTRA:          -4.384
REMARK INTER:                  -3.684
REMARK INTRA:                  -0.700
REMARK UNBOUND:                -0.960
REMARK SMILES O=C[C@@H](O)[C@H](O)[C@@H](O)CO
REMARK SMILES IDX 7 1 9 2 10 3 5 5 3 6 2 7 1 8 4 9 6 11 8 13
REMARK H PARENT 10 4 4 10 6 12 8 14
REMARK Flexibility Score: inf
ROOT
ATOM      1  C   UNL     1      37.578  12.788  38.796  1.00  0.00     0.171 C 
ENDROOT
BRANCH   1   2
ATOM      2  C   UNL     1      38.478  13.883  39.405  1.00  0.00     0.190 C 
BRANCH   2   3
ATOM      3  O   UNL     1      38.291  15.098  38.733  1.00  0.00    -0.394 OA
ATOM      4  H   UNL     1      38.483  14.916  37.776  1.00  0.00     0.210 HD
ENDBRANCH   2   3
ENDBRANCH   1   2
BRANCH   1   5
ATOM      5  C   UNL     1      36.069  13.164  38.753  1.00  0.00     0.181 C 
BRANCH   5   6
ATOM      6  C   UNL     1      35.095  11.962  38.623  1.00  0.00     0.209 C 
BRANCH   6   7
ATOM      7  C   UNL     1      33.654  12.401  38.624  1.00  0.00     0.258 C 
ATOM      8  O   UNL     1      33.334  13.516  39.008  1.00  0.00    -0.300 OA
ENDBRANCH   6   7
BRANCH   6   9
ATOM      9  O   UNL     1      35.377  11.203  37.475  1.00  0.00    -0.383 OA
ATOM     10  H   UNL     1      36.052  11.711  36.952  1.00  0.00     0.211 HD
ENDBRANCH   6   9
ENDBRANCH   5   6
BRANCH   5  11
ATOM     11  O   UNL     1      35.862  14.040  37.672  1.00  0.00    -0.387 OA
ATOM     12  H   UNL     1      34.883  14.075  37.508  1.00  0.00     0.211 HD
ENDBRANCH   5  11
ENDBRANCH   1   5
BRANCH   1  13
ATOM     13  O   UNL     1      38.026  12.487  37.496  1.00  0.00    -0.388 OA
ATOM     14  H   UNL     1      38.932  12.880  37.392  1.00  0.00     0.211 HD
ENDBRANCH   1  13
TORSDOF 8
ENDMDL
MODEL 5
REMARK VINA RESULT:    -2.501      1.551      3.915
REMARK INTER + INTRA:          -4.339
REMARK INTER:                  -3.372
REMARK INTRA:                  -0.967
REMARK UNBOUND:                -0.960
REMARK SMILES O=C[C@@H](O)[C@H](O)[C@@H](O)CO
REMARK SMILES IDX 7 1 9 2 10 3 5 5 3 6 2 7 1 8 4 9 6 11 8 13
REMARK H PARENT 10 4 4 10 6 12 8 14
REMARK Flexibility Score: inf
ROOT
ATOM      1  C   UNL     1      34.683  12.476  39.452  1.00  0.00     0.171 C 
ENDROOT
BRANCH   1   2
ATOM      2  C   UNL     1      34.951  11.074  38.867  1.00  0.00     0.190 C 
BRANCH   2   3
ATOM      3  O   UNL     1      35.376  11.174  37.536  1.00  0.00    -0.394 OA
ATOM      4  H   UNL     1      34.560  11.079  36.979  1.00  0.00     0.210 HD
ENDBRANCH   2   3
ENDBRANCH   1   2
BRANCH   1   5
ATOM      5  C   UNL     1      35.955  13.364  39.571  1.00  0.00     0.181 C 
BRANCH   5   6
ATOM      6  C   UNL     1      36.075  14.487  38.506  1.00  0.00     0.209 C 
BRANCH   6   7
ATOM      7  C   UNL     1      37.110  15.514  38.884  1.00  0.00     0.258 C 
ATOM      8  O   UNL     1      38.253  15.185  39.163  1.00  0.00    -0.300 OA
ENDBRANCH   6   7
BRANCH   6   9
ATOM      9  O   UNL     1      36.351  13.954  37.236  1.00  0.00    -0.383 OA
ATOM     10  H   UNL     1      36.319  14.711  36.592  1.00  0.00     0.211 HD
ENDBRANCH   6   9
ENDBRANCH   5   6
BRANCH   5  11
ATOM     11  O   UNL     1      37.085  12.531  39.486  1.00  0.00    -0.387 OA
ATOM     12  H   UNL     1      37.637  12.863  38.730  1.00  0.00     0.211 HD
ENDBRANCH   5  11
ENDBRANCH   1   5
BRANCH   1  13
ATOM     13  O   UNL     1      33.721  13.134  38.663  1.00  0.00    -0.388 OA
ATOM     14  H   UNL     1      32.825  12.889  39.017  1.00  0.00     0.211 HD
ENDBRANCH   1  13
TORSDOF 8
ENDMDL
MODEL 6
REMARK VINA RESULT:    -2.440      1.833      2.264
REMARK INTER + INTRA:          -4.256
REMARK INTER:                  -3.288
REMARK INTRA:                  -0.967
REMARK UNBOUND:                -0.960
REMARK SMILES O=C[C@@H](O)[C@H](O)[C@@H](O)CO
REMARK SMILES IDX 7 1 9 2 10 3 5 5 3 6 2 7 1 8 4 9 6 11 8 13
REMARK H PARENT 10 4 4 10 6 12 8 14
REMARK Flexibility Score: inf
ROOT
ATOM      1  C   UNL     1      36.290  13.453  39.432  1.00  0.00     0.171 C 
ENDROOT
BRANCH   1   2
ATOM      2  C   UNL     1      36.341  14.494  38.295  1.00  0.00     0.190 C 
BRANCH   2   3
ATOM      3  O   UNL     1      36.309  13.857  37.048  1.00  0.00    -0.394 OA
ATOM      4  H   UNL     1      35.717  14.408  36.472  1.00  0.00     0.210 HD
ENDBRANCH   2   3
ENDBRANCH   1   2
BRANCH   1   5
ATOM      5  C   UNL     1      34.964  12.640  39.484  1.00  0.00     0.181 C 
BRANCH   5   6
ATOM      6  C   UNL     1      35.056  11.195  38.924  1.00  0.00     0.209 C 
BRANCH   6   7
ATOM      7  C   UNL     1      33.792  10.414  39.169  1.00  0.00     0.258 C 
ATOM      8  O   UNL     1      32.771  10.651  38.541  1.00  0.00    -0.300 OA
ENDBRANCH   6   7
BRANCH   6   9
ATOM      9  O   UNL     1      35.372  11.201  37.555  1.00  0.00    -0.383 OA
ATOM     10  H   UNL     1      34.945  10.398  37.156  1.00  0.00     0.211 HD
ENDBRANCH   6   9
ENDBRANCH   5   6
BRANCH   5  11
ATOM     11  O   UNL     1      33.983  13.348  38.766  1.00  0.00    -0.387 OA
ATOM     12  H   UNL     1      33.511  12.690  38.192  1.00  0.00     0.211 HD
ENDBRANCH   5  11
ENDBRANCH   1   5
BRANCH   1  13
ATOM     13  O   UNL     1      37.378  12.570  39.304  1.00  0.00    -0.388 OA
ATOM     14  H   UNL     1      37.281  11.871  40.004  1.00  0.00     0.211 HD
ENDBRANCH   1  13
TORSDOF 8
ENDMDL
MODEL 7
REMARK VINA RESULT:    -2.393      1.765      2.814
REMARK INTER + INTRA:          -4.193
REMARK INTER:                  -3.483
REMARK INTRA:                  -0.710
REMARK UNBOUND:                -0.960
REMARK SMILES O=C[C@@H](O)[C@H](O)[C@@H](O)CO
REMARK SMILES IDX 7 1 9 2 10 3 5 5 3 6 2 7 1 8 4 9 6 11 8 13
REMARK H PARENT 10 4 4 10 6 12 8 14
REMARK Flexibility Score: inf
ROOT
ATOM      1  C   UNL     1      37.789  12.920  39.275  1.00  0.00     0.171 C 
ENDROOT
BRANCH   1   2
ATOM      2  C   UNL     1      39.042  12.547  40.094  1.00  0.00     0.190 C 
BRANCH   2   3
ATOM      3  O   UNL     1      40.046  13.507  39.914  1.00  0.00    -0.394 OA
ATOM      4  H   UNL     1      39.594  14.390  39.965  1.00  0.00     0.210 HD
ENDBRANCH   2   3
ENDBRANCH   1   2
BRANCH   1   5
ATOM      5  C   UNL     1      37.279  14.368  39.528  1.00  0.00     0.181 C 
BRANCH   5   6
ATOM      6  C   UNL     1      35.761  14.583  39.281  1.00  0.00     0.209 C 
BRANCH   6   7
ATOM      7  C   UNL     1      35.468  15.954  38.729  1.00  0.00     0.258 C 
ATOM      8  O   UNL     1      35.392  16.146  37.525  1.00  0.00    -0.300 OA
ENDBRANCH   6   7
BRANCH   6   9
ATOM      9  O   UNL     1      35.240  13.591  38.435  1.00  0.00    -0.383 OA
ATOM     10  H   UNL     1      35.374  12.720  38.894  1.00  0.00     0.211 HD
ENDBRANCH   6   9
ENDBRANCH   5   6
BRANCH   5  11
ATOM     11  O   UNL     1      38.006  15.244  38.701  1.00  0.00    -0.387 OA
ATOM     12  H   UNL     1      38.181  14.763  37.850  1.00  0.00     0.211 HD
ENDBRANCH   5  11
ENDBRANCH   1   5
BRANCH   1  13
ATOM     13  O   UNL     1      38.059  12.748  37.905  1.00  0.00    -0.388 OA
ATOM     14  H   UNL     1      38.527  13.565  37.587  1.00  0.00     0.211 HD
ENDBRANCH   1  13
TORSDOF 8
ENDMDL
MODEL 8
REMARK VINA RESULT:    -2.360      1.229      3.963
REMARK INTER + INTRA:          -4.148
REMARK INTER:                  -3.486
REMARK INTRA:                  -0.661
REMARK UNBOUND:                -0.960
REMARK SMILES O=C[C@@H](O)[C@H](O)[C@@H](O)CO
REMARK SMILES IDX 7 1 9 2 10 3 5 5 3 6 2 7 1 8 4 9 6 11 8 13
REMARK H PARENT 10 4 4 10 6 12 8 14
REMARK Flexibility Score: inf
ROOT
ATOM      1  C   UNL     1      35.324  13.211  38.863  1.00  0.00     0.171 C 
ENDROOT
BRANCH   1   2
ATOM      2  C   UNL     1      34.498  12.107  38.170  1.00  0.00     0.190 C 
BRANCH   2   3
ATOM      3  O   UNL     1      35.157  10.874  38.263  1.00  0.00    -0.394 OA
ATOM      4  H   UNL     1      34.596  10.225  37.763  1.00  0.00     0.210 HD
ENDBRANCH   2   3
ENDBRANCH   1   2
BRANCH   1   5
ATOM      5  C   UNL     1      36.853  12.924  38.902  1.00  0.00     0.181 C 
BRANCH   5   6
ATOM      6  C   UNL     1      37.713  14.033  39.565  1.00  0.00     0.209 C 
BRANCH   6   7
ATOM      7  C   UNL     1      39.006  13.491  40.115  1.00  0.00     0.258 C 
ATOM      8  O   UNL     1      39.280  12.303  40.029  1.00  0.00    -0.300 OA
ENDBRANCH   6   7
BRANCH   6   9
ATOM      9  O   UNL     1      37.964  15.084  38.666  1.00  0.00    -0.383 OA
ATOM     10  H   UNL     1      37.491  14.861  37.821  1.00  0.00     0.211 HD
ENDBRANCH   6   9
ENDBRANCH   5   6
BRANCH   5  11
ATOM     11  O   UNL     1      37.299  12.723  37.584  1.00  0.00    -0.387 OA
ATOM     12  H   UNL     1      38.290  12.667  37.617  1.00  0.00     0.211 HD
ENDBRANCH   5  11
ENDBRANCH   1   5
BRANCH   1  13
ATOM     13  O   UNL     1      35.092  14.440  38.218  1.00  0.00    -0.388 OA
ATOM     14  H   UNL     1      35.925  14.686  37.734  1.00  0.00     0.211 HD
ENDBRANCH   1  13
TORSDOF 8
ENDMDL
MODEL 9
REMARK VINA RESULT:    -2.229      1.965      4.702
REMARK INTER + INTRA:          -3.971
REMARK INTER:                  -3.278
REMARK INTRA:                  -0.693
REMARK UNBOUND:                -0.960
REMARK SMILES O=C[C@@H](O)[C@H](O)[C@@H](O)CO
REMARK SMILES IDX 7 1 9 2 10 3 5 5 3 6 2 7 1 8 4 9 6 11 8 13
REMARK H PARENT 10 4 4 10 6 12 8 14
REMARK Flexibility Score: inf
ROOT
ATOM      1  C   UNL     1      33.662  11.222  39.217  1.00  0.00     0.171 C 
ENDROOT
BRANCH   1   2
ATOM      2  C   UNL     1      33.404   9.713  39.409  1.00  0.00     0.190 C 
BRANCH   2   3
ATOM      3  O   UNL     1      34.616   9.014  39.464  1.00  0.00    -0.394 OA
ATOM      4  H   UNL     1      34.412   8.144  39.897  1.00  0.00     0.210 HD
ENDBRANCH   2   3
ENDBRANCH   1   2
BRANCH   1   5
ATOM      5  C   UNL     1      35.143  11.571  38.888  1.00  0.00     0.181 C 
BRANCH   5   6
ATOM      6  C   UNL     1      35.532  13.058  39.105  1.00  0.00     0.209 C 
BRANCH   6   7
ATOM      7  C   UNL     1      36.807  13.419  38.389  1.00  0.00     0.258 C 
ATOM      8  O   UNL     1      37.804  12.719  38.484  1.00  0.00    -0.300 OA
ENDBRANCH   6   7
BRANCH   6   9
ATOM      9  O   UNL     1      34.490  13.917  38.716  1.00  0.00    -0.383 OA
ATOM     10  H   UNL     1      34.274  13.699  37.771  1.00  0.00     0.211 HD
ENDBRANCH   6   9
ENDBRANCH   5   6
BRANCH   5  11
ATOM     11  O   UNL     1      35.392  11.224  37.548  1.00  0.00    -0.387 OA
ATOM     12  H   UNL     1      34.885  10.389  37.364  1.00  0.00     0.211 HD
ENDBRANCH   5  11
ENDBRANCH   1   5
BRANCH   1  13
ATOM     13  O   UNL     1      32.825  11.713  38.198  1.00  0.00    -0.388 OA
ATOM     14  H   UNL     1      32.128  11.026  38.027  1.00  0.00     0.211 HD
ENDBRANCH   1  13
TORSDOF 8
ENDMDL
