MODEL 1
REMARK VINA RESULT:    -4.820      0.000      0.000
REMARK INTER + INTRA:         -11.198
REMARK INTER:                  -8.765
REMARK INTRA:                  -2.432
REMARK UNBOUND:                -2.432
REMARK SMILES CCCCCCCCCCCCCC[C@@H](C)C(=O)[O-]
REMARK SMILES IDX 9 1 10 2 11 3 12 4 13 5 14 6 15 7 16 8 17 9 18 10 19 11 8 12
REMARK SMILES IDX 7 13 6 14 5 15 4 16 3 17 2 18 1 19
REMARK H PARENT
REMARK Flexibility Score: inf
ROOT
ATOM      1  C   UNL     1     179.063 183.178 181.583  1.00  0.00     0.000 C 
ENDROOT
BRANCH   1   2
ATOM      2  C   UNL     1     179.864 183.546 182.845  1.00  0.00     0.000 C 
BRANCH   2   3
ATOM      3  C   UNL     1     181.380 183.705 182.629  1.00  0.00     0.000 C 
BRANCH   3   4
ATOM      4  C   UNL     1     181.730 184.291 181.253  1.00  0.00     0.000 C 
BRANCH   4   5
ATOM      5  C   UNL     1     183.211 184.057 180.918  1.00  0.00     0.001 C 
BRANCH   5   6
ATOM      6  C   UNL     1     183.908 183.110 181.912  1.00  0.00     0.009 C 
BRANCH   6   7
ATOM      7  C   UNL     1     185.336 182.692 181.497  1.00  0.00     0.032 C 
ATOM      8  C   UNL     1     186.369 183.655 182.090  1.00  0.00     0.014 C 
BRANCH   7   9
ATOM      9  C   UNL     1     185.646 181.285 181.933  1.00  0.00     0.044 C 
ATOM     10  O   UNL     1     186.795 180.804 181.744  1.00  0.00    -0.550 OA
ATOM     11  O   UNL     1     184.670 180.508 182.547  1.00  0.00    -0.550 OA
ENDBRANCH   7   9
ENDBRANCH   6   7
ENDBRANCH   5   6
ENDBRANCH   4   5
ENDBRANCH   3   4
ENDBRANCH   2   3
ENDBRANCH   1   2
BRANCH   1  12
ATOM     12  C   UNL     1     177.707 182.531 181.903  1.00  0.00     0.000 C 
BRANCH  12  13
ATOM     13  C   UNL     1     177.706 181.041 181.527  1.00  0.00    -0.000 C 
BRANCH  13  14
ATOM     14  C   UNL     1     178.852 180.262 182.203  1.00  0.00    -0.000 C 
BRANCH  14  15
ATOM     15  C   UNL     1     179.889 179.686 181.218  1.00  0.00    -0.000 C 
BRANCH  15  16
ATOM     16  C   UNL     1     181.332 180.167 181.469  1.00  0.00    -0.000 C 
BRANCH  16  17
ATOM     17  C   UNL     1     182.045 180.584 180.174  1.00  0.00    -0.000 C 
BRANCH  17  18
ATOM     18  C   UNL     1     181.068 181.240 179.193  1.00  0.00    -0.003 C 
ATOM     19  C   UNL     1     181.810 181.970 178.079  1.00  0.00     0.004 C 
ENDBRANCH  17  18
ENDBRANCH  16  17
ENDBRANCH  15  16
ENDBRANCH  14  15
ENDBRANCH  13  14
ENDBRANCH  12  13
ENDBRANCH   1  12
TORSDOF 14
ENDMDL
MODEL 2
REMARK VINA RESULT:    -4.796      1.370      4.241
REMARK INTER + INTRA:         -11.153
REMARK INTER:                  -8.929
REMARK INTRA:                  -2.225
REMARK UNBOUND:                -2.432
REMARK SMILES CCCCCCCCCCCCCC[C@@H](C)C(=O)[O-]
REMARK SMILES IDX 9 1 10 2 11 3 12 4 13 5 14 6 15 7 16 8 17 9 18 10 19 11 8 12
REMARK SMILES IDX 7 13 6 14 5 15 4 16 3 17 2 18 1 19
REMARK H PARENT
REMARK Flexibility Score: inf
ROOT
ATOM      1  C   UNL     1     182.986 183.127 179.873  1.00  0.00     0.000 C 
ENDROOT
BRANCH   1   2
ATOM      2  C   UNL     1     181.572 182.749 179.397  1.00  0.00     0.000 C 
BRANCH   2   3
ATOM      3  C   UNL     1     181.399 181.278 178.976  1.00  0.00     0.000 C 
BRANCH   3   4
ATOM      4  C   UNL     1     181.140 180.342 180.166  1.00  0.00     0.000 C 
BRANCH   4   5
ATOM      5  C   UNL     1     182.431 179.627 180.592  1.00  0.00     0.001 C 
BRANCH   5   6
ATOM      6  C   UNL     1     182.581 179.524 182.121  1.00  0.00     0.009 C 
BRANCH   6   7
ATOM      7  C   UNL     1     183.319 180.717 182.768  1.00  0.00     0.032 C 
ATOM      8  C   UNL     1     182.894 180.880 184.231  1.00  0.00     0.014 C 
BRANCH   7   9
ATOM      9  C   UNL     1     184.813 180.546 182.691  1.00  0.00     0.044 C 
ATOM     10  O   UNL     1     185.433 179.978 183.629  1.00  0.00    -0.550 OA
ATOM     11  O   UNL     1     185.518 181.013 181.588  1.00  0.00    -0.550 OA
ENDBRANCH   7   9
ENDBRANCH   6   7
ENDBRANCH   5   6
ENDBRANCH   4   5
ENDBRANCH   3   4
ENDBRANCH   2   3
ENDBRANCH   1   2
BRANCH   1  12
ATOM     12  C   UNL     1     182.987 183.855 181.226  1.00  0.00     0.000 C 
BRANCH  12  13
ATOM     13  C   UNL     1     181.581 184.365 181.578  1.00  0.00    -0.000 C 
BRANCH  13  14
ATOM     14  C   UNL     1     181.038 183.743 182.880  1.00  0.00    -0.000 C 
BRANCH  14  15
ATOM     15  C   UNL     1     179.514 183.510 182.878  1.00  0.00    -0.000 C 
BRANCH  15  16
ATOM     16  C   UNL     1     178.965 182.943 181.553  1.00  0.00    -0.000 C 
BRANCH  16  17
ATOM     17  C   UNL     1     177.713 182.076 181.761  1.00  0.00    -0.000 C 
BRANCH  17  18
ATOM     18  C   UNL     1     178.091 180.658 182.200  1.00  0.00    -0.003 C 
ATOM     19  C   UNL     1     176.868 179.749 182.243  1.00  0.00     0.004 C 
ENDBRANCH  17  18
ENDBRANCH  16  17
ENDBRANCH  15  16
ENDBRANCH  14  15
ENDBRANCH  13  14
ENDBRANCH  12  13
ENDBRANCH   1  12
TORSDOF 14
ENDMDL
MODEL 3
REMARK VINA RESULT:    -4.762      2.586      6.177
REMARK INTER + INTRA:         -11.092
REMARK INTER:                  -8.729
REMARK INTRA:                  -2.362
REMARK UNBOUND:                -2.432
REMARK SMILES CCCCCCCCCCCCCC[C@@H](C)C(=O)[O-]
REMARK SMILES IDX 9 1 10 2 11 3 12 4 13 5 14 6 15 7 16 8 17 9 18 10 19 11 8 12
REMARK SMILES IDX 7 13 6 14 5 15 4 16 3 17 2 18 1 19
REMARK H PARENT
REMARK Flexibility Score: inf
ROOT
ATOM      1  C   UNL     1     184.151 180.662 182.612  1.00  0.00     0.000 C 
ENDROOT
BRANCH   1   2
ATOM      2  C   UNL     1     182.783 179.975 182.448  1.00  0.00     0.000 C 
BRANCH   2   3
ATOM      3  C   UNL     1     182.417 179.590 181.003  1.00  0.00     0.000 C 
BRANCH   3   4
ATOM      4  C   UNL     1     180.901 179.524 180.767  1.00  0.00     0.000 C 
BRANCH   4   5
ATOM      5  C   UNL     1     180.162 180.524 181.667  1.00  0.00     0.001 C 
BRANCH   5   6
ATOM      6  C   UNL     1     179.371 181.578 180.869  1.00  0.00     0.009 C 
BRANCH   6   7
ATOM      7  C   UNL     1     178.012 181.961 181.495  1.00  0.00     0.032 C 
ATOM      8  C   UNL     1     177.362 180.740 182.153  1.00  0.00     0.014 C 
BRANCH   7   9
ATOM      9  C   UNL     1     178.165 183.061 182.512  1.00  0.00     0.044 C 
ATOM     10  O   UNL     1     177.191 183.390 183.239  1.00  0.00    -0.550 OA
ATOM     11  O   UNL     1     179.380 183.722 182.655  1.00  0.00    -0.550 OA
ENDBRANCH   7   9
ENDBRANCH   6   7
ENDBRANCH   5   6
ENDBRANCH   4   5
ENDBRANCH   3   4
ENDBRANCH   2   3
ENDBRANCH   1   2
BRANCH   1  12
ATOM     12  C   UNL     1     184.882 180.865 181.276  1.00  0.00     0.000 C 
BRANCH  12  13
ATOM     13  C   UNL     1     185.817 182.082 181.339  1.00  0.00    -0.000 C 
BRANCH  13  14
ATOM     14  C   UNL     1     185.154 183.299 182.015  1.00  0.00    -0.000 C 
BRANCH  14  15
ATOM     15  C   UNL     1     184.181 184.074 181.103  1.00  0.00    -0.000 C 
BRANCH  15  16
ATOM     16  C   UNL     1     182.692 183.790 181.386  1.00  0.00    -0.000 C 
BRANCH  16  17
ATOM     17  C   UNL     1     181.903 183.470 180.107  1.00  0.00    -0.000 C 
BRANCH  17  18
ATOM     18  C   UNL     1     182.784 182.750 179.082  1.00  0.00    -0.003 C 
ATOM     19  C   UNL     1     181.943 181.942 178.101  1.00  0.00     0.004 C 
ENDBRANCH  17  18
ENDBRANCH  16  17
ENDBRANCH  15  16
ENDBRANCH  14  15
ENDBRANCH  13  14
ENDBRANCH  12  13
ENDBRANCH   1  12
TORSDOF 14
ENDMDL
MODEL 4
REMARK VINA RESULT:    -4.751      2.774      4.970
REMARK INTER + INTRA:         -11.071
REMARK INTER:                  -8.138
REMARK INTRA:                  -2.933
REMARK UNBOUND:                -2.432
REMARK SMILES CCCCCCCCCCCCCC[C@@H](C)C(=O)[O-]
REMARK SMILES IDX 9 1 10 2 11 3 12 4 13 5 14 6 15 7 16 8 17 9 18 10 19 11 8 12
REMARK SMILES IDX 7 13 6 14 5 15 4 16 3 17 2 18 1 19
REMARK H PARENT
REMARK Flexibility Score: inf
ROOT
ATOM      1  C   UNL     1     180.798 181.077 179.437  1.00  0.00     0.000 C 
ENDROOT
BRANCH   1   2
ATOM      2  C   UNL     1     182.149 181.251 178.719  1.00  0.00     0.000 C 
BRANCH   2   3
ATOM      3  C   UNL     1     182.827 182.617 178.931  1.00  0.00     0.000 C 
BRANCH   3   4
ATOM      4  C   UNL     1     181.933 183.619 179.676  1.00  0.00     0.000 C 
BRANCH   4   5
ATOM      5  C   UNL     1     182.639 184.159 180.928  1.00  0.00     0.001 C 
BRANCH   5   6
ATOM      6  C   UNL     1     181.668 184.437 182.090  1.00  0.00     0.009 C 
BRANCH   6   7
ATOM      7  C   UNL     1     180.902 183.192 182.590  1.00  0.00     0.032 C 
ATOM      8  C   UNL     1     181.310 182.854 184.028  1.00  0.00     0.014 C 
BRANCH   7   9
ATOM      9  C   UNL     1     179.412 183.397 182.522  1.00  0.00     0.044 C 
ATOM     10  O   UNL     1     178.773 183.043 181.495  1.00  0.00    -0.550 OA
ATOM     11  O   UNL     1     178.733 183.977 183.587  1.00  0.00    -0.550 OA
ENDBRANCH   7   9
ENDBRANCH   6   7
ENDBRANCH   5   6
ENDBRANCH   4   5
ENDBRANCH   3   4
ENDBRANCH   2   3
ENDBRANCH   1   2
BRANCH   1  12
ATOM     12  C   UNL     1     180.885 180.156 180.663  1.00  0.00     0.000 C 
BRANCH  12  13
ATOM     13  C   UNL     1     182.316 179.629 180.855  1.00  0.00    -0.000 C 
BRANCH  13  14
ATOM     14  C   UNL     1     182.875 179.942 182.258  1.00  0.00    -0.000 C 
BRANCH  14  15
ATOM     15  C   UNL     1     184.025 180.969 182.263  1.00  0.00    -0.000 C 
BRANCH  15  16
ATOM     16  C   UNL     1     184.999 180.831 181.075  1.00  0.00    -0.000 C 
BRANCH  16  17
ATOM     17  C   UNL     1     185.968 182.018 180.971  1.00  0.00    -0.000 C 
BRANCH  17  18
ATOM     18  C   UNL     1     186.025 182.800 182.287  1.00  0.00    -0.003 C 
ATOM     19  C   UNL     1     186.640 184.180 182.083  1.00  0.00     0.004 C 
ENDBRANCH  17  18
ENDBRANCH  16  17
ENDBRANCH  15  16
ENDBRANCH  14  15
ENDBRANCH  13  14
ENDBRANCH  12  13
ENDBRANCH   1  12
TORSDOF 14
ENDMDL
MODEL 5
REMARK VINA RESULT:    -4.710      3.030      6.065
REMARK INTER + INTRA:         -10.996
REMARK INTER:                  -8.410
REMARK INTRA:                  -2.587
REMARK UNBOUND:                -2.432
REMARK SMILES CCCCCCCCCCCCCC[C@@H](C)C(=O)[O-]
REMARK SMILES IDX 9 1 10 2 11 3 12 4 13 5 14 6 15 7 16 8 17 9 18 10 19 11 8 12
REMARK SMILES IDX 7 13 6 14 5 15 4 16 3 17 2 18 1 19
REMARK H PARENT
REMARK Flexibility Score: inf
ROOT
ATOM      1  C   UNL     1     183.896 180.565 183.585  1.00  0.00     0.000 C 
ENDROOT
BRANCH   1   2
ATOM      2  C   UNL     1     182.449 180.562 183.060  1.00  0.00     0.000 C 
BRANCH   2   3
ATOM      3  C   UNL     1     182.237 179.794 181.743  1.00  0.00     0.000 C 
BRANCH   3   4
ATOM      4  C   UNL     1     180.791 179.873 181.230  1.00  0.00     0.000 C 
BRANCH   4   5
ATOM      5  C   UNL     1     180.666 180.905 180.099  1.00  0.00     0.001 C 
BRANCH   5   6
ATOM      6  C   UNL     1     180.073 182.245 180.574  1.00  0.00     0.009 C 
BRANCH   6   7
ATOM      7  C   UNL     1     179.461 182.201 181.992  1.00  0.00     0.032 C 
ATOM      8  C   UNL     1     179.952 183.390 182.824  1.00  0.00     0.014 C 
BRANCH   7   9
ATOM      9  C   UNL     1     177.956 182.205 181.942  1.00  0.00     0.044 C 
ATOM     10  O   UNL     1     177.317 183.242 182.262  1.00  0.00    -0.550 OA
ATOM     11  O   UNL     1     177.264 181.067 181.544  1.00  0.00    -0.550 OA
ENDBRANCH   7   9
ENDBRANCH   6   7
ENDBRANCH   5   6
ENDBRANCH   4   5
ENDBRANCH   3   4
ENDBRANCH   2   3
ENDBRANCH   1   2
BRANCH   1  12
ATOM     12  C   UNL     1     184.921 180.163 182.515  1.00  0.00     0.000 C 
BRANCH  12  13
ATOM     13  C   UNL     1     186.098 181.150 182.480  1.00  0.00    -0.000 C 
BRANCH  13  14
ATOM     14  C   UNL     1     185.930 182.228 181.391  1.00  0.00    -0.000 C 
BRANCH  14  15
ATOM     15  C   UNL     1     185.009 181.810 180.227  1.00  0.00    -0.000 C 
BRANCH  15  16
ATOM     16  C   UNL     1     183.761 182.700 180.061  1.00  0.00    -0.000 C 
BRANCH  16  17
ATOM     17  C   UNL     1     183.496 183.576 181.295  1.00  0.00    -0.000 C 
BRANCH  17  18
ATOM     18  C   UNL     1     183.459 185.061 180.919  1.00  0.00    -0.003 C 
ATOM     19  C   UNL     1     182.065 185.646 181.119  1.00  0.00     0.004 C 
ENDBRANCH  17  18
ENDBRANCH  16  17
ENDBRANCH  15  16
ENDBRANCH  14  15
ENDBRANCH  13  14
ENDBRANCH  12  13
ENDBRANCH   1  12
TORSDOF 14
ENDMDL
MODEL 6
REMARK VINA RESULT:    -4.663      1.382      3.481
REMARK INTER + INTRA:         -10.911
REMARK INTER:                  -8.895
REMARK INTRA:                  -2.015
REMARK UNBOUND:                -2.432
REMARK SMILES CCCCCCCCCCCCCC[C@@H](C)C(=O)[O-]
REMARK SMILES IDX 9 1 10 2 11 3 12 4 13 5 14 6 15 7 16 8 17 9 18 10 19 11 8 12
REMARK SMILES IDX 7 13 6 14 5 15 4 16 3 17 2 18 1 19
REMARK H PARENT
REMARK Flexibility Score: inf
ROOT
ATOM      1  C   UNL     1     180.074 181.308 179.980  1.00  0.00     0.000 C 
ENDROOT
BRANCH   1   2
ATOM      2  C   UNL     1     181.337 181.054 179.136  1.00  0.00     0.000 C 
BRANCH   2   3
ATOM      3  C   UNL     1     182.098 182.322 178.709  1.00  0.00     0.000 C 
BRANCH   3   4
ATOM      4  C   UNL     1     183.491 182.428 179.347  1.00  0.00     0.000 C 
BRANCH   4   5
ATOM      5  C   UNL     1     183.428 183.192 180.678  1.00  0.00     0.001 C 
BRANCH   5   6
ATOM      6  C   UNL     1     184.492 182.725 181.687  1.00  0.00     0.009 C 
BRANCH   6   7
ATOM      7  C   UNL     1     184.950 181.262 181.495  1.00  0.00     0.032 C 
ATOM      8  C   UNL     1     186.472 181.155 181.632  1.00  0.00     0.014 C 
BRANCH   7   9
ATOM      9  C   UNL     1     184.287 180.343 182.487  1.00  0.00     0.044 C 
ATOM     10  O   UNL     1     184.807 180.155 183.619  1.00  0.00    -0.550 OA
ATOM     11  O   UNL     1     183.100 179.697 182.162  1.00  0.00    -0.550 OA
ENDBRANCH   7   9
ENDBRANCH   6   7
ENDBRANCH   5   6
ENDBRANCH   4   5
ENDBRANCH   3   4
ENDBRANCH   2   3
ENDBRANCH   1   2
BRANCH   1  12
ATOM     12  C   UNL     1     180.017 180.441 181.246  1.00  0.00     0.000 C 
BRANCH  12  13
ATOM     13  C   UNL     1     178.767 180.765 182.080  1.00  0.00    -0.000 C 
BRANCH  13  14
ATOM     14  C   UNL     1     178.123 182.107 181.678  1.00  0.00    -0.000 C 
BRANCH  14  15
ATOM     15  C   UNL     1     178.438 183.270 182.641  1.00  0.00    -0.000 C 
BRANCH  15  16
ATOM     16  C   UNL     1     179.916 183.713 182.632  1.00  0.00    -0.000 C 
BRANCH  16  17
ATOM     17  C   UNL     1     180.606 183.478 183.984  1.00  0.00    -0.000 C 
BRANCH  17  18
ATOM     18  C   UNL     1     181.678 182.389 183.873  1.00  0.00    -0.003 C 
ATOM     19  C   UNL     1     182.046 181.834 185.245  1.00  0.00     0.004 C 
ENDBRANCH  17  18
ENDBRANCH  16  17
ENDBRANCH  15  16
ENDBRANCH  14  15
ENDBRANCH  13  14
ENDBRANCH  12  13
ENDBRANCH   1  12
TORSDOF 14
ENDMDL
MODEL 7
REMARK VINA RESULT:    -4.646      2.553      5.601
REMARK INTER + INTRA:         -10.880
REMARK INTER:                  -8.385
REMARK INTRA:                  -2.495
REMARK UNBOUND:                -2.432
REMARK SMILES CCCCCCCCCCCCCC[C@@H](C)C(=O)[O-]
REMARK SMILES IDX 9 1 10 2 11 3 12 4 13 5 14 6 15 7 16 8 17 9 18 10 19 11 8 12
REMARK SMILES IDX 7 13 6 14 5 15 4 16 3 17 2 18 1 19
REMARK H PARENT
REMARK Flexibility Score: inf
ROOT
ATOM      1  C   UNL     1     182.922 180.414 182.500  1.00  0.00     0.000 C 
ENDROOT
BRANCH   1   2
ATOM      2  C   UNL     1     181.677 181.270 182.796  1.00  0.00     0.000 C 
BRANCH   2   3
ATOM      3  C   UNL     1     181.893 182.396 183.823  1.00  0.00     0.000 C 
BRANCH   3   4
ATOM      4  C   UNL     1     180.771 183.445 183.805  1.00  0.00     0.000 C 
BRANCH   4   5
ATOM      5  C   UNL     1     179.968 183.367 182.498  1.00  0.00     0.001 C 
BRANCH   5   6
ATOM      6  C   UNL     1     178.479 183.046 182.728  1.00  0.00     0.009 C 
BRANCH   6   7
ATOM      7  C   UNL     1     177.854 182.128 181.655  1.00  0.00     0.032 C 
ATOM      8  C   UNL     1     178.611 182.262 180.330  1.00  0.00     0.014 C 
BRANCH   7   9
ATOM      9  C   UNL     1     177.853 180.688 182.095  1.00  0.00     0.044 C 
ATOM     10  O   UNL     1     178.914 180.011 182.040  1.00  0.00    -0.550 OA
ATOM     11  O   UNL     1     176.685 180.098 182.564  1.00  0.00    -0.550 OA
ENDBRANCH   7   9
ENDBRANCH   6   7
ENDBRANCH   5   6
ENDBRANCH   4   5
ENDBRANCH   3   4
ENDBRANCH   2   3
ENDBRANCH   1   2
BRANCH   1  12
ATOM     12  C   UNL     1     183.131 180.162 180.999  1.00  0.00     0.000 C 
BRANCH  12  13
ATOM     13  C   UNL     1     181.867 180.514 180.200  1.00  0.00    -0.000 C 
BRANCH  13  14
ATOM     14  C   UNL     1     182.116 181.627 179.162  1.00  0.00    -0.000 C 
BRANCH  14  15
ATOM     15  C   UNL     1     183.244 182.606 179.547  1.00  0.00    -0.000 C 
BRANCH  15  16
ATOM     16  C   UNL     1     182.766 183.831 180.353  1.00  0.00    -0.000 C 
BRANCH  16  17
ATOM     17  C   UNL     1     183.872 184.411 181.248  1.00  0.00    -0.000 C 
BRANCH  17  18
ATOM     18  C   UNL     1     184.836 183.315 181.713  1.00  0.00    -0.003 C 
ATOM     19  C   UNL     1     186.167 183.905 182.164  1.00  0.00     0.004 C 
ENDBRANCH  17  18
ENDBRANCH  16  17
ENDBRANCH  15  16
ENDBRANCH  14  15
ENDBRANCH  13  14
ENDBRANCH  12  13
ENDBRANCH   1  12
TORSDOF 14
ENDMDL
MODEL 8
REMARK VINA RESULT:    -4.641      1.011      3.385
REMARK INTER + INTRA:         -10.871
REMARK INTER:                  -8.554
REMARK INTRA:                  -2.316
REMARK UNBOUND:                -2.432
REMARK SMILES CCCCCCCCCCCCCC[C@@H](C)C(=O)[O-]
REMARK SMILES IDX 9 1 10 2 11 3 12 4 13 5 14 6 15 7 16 8 17 9 18 10 19 11 8 12
REMARK SMILES IDX 7 13 6 14 5 15 4 16 3 17 2 18 1 19
REMARK H PARENT
REMARK Flexibility Score: inf
ROOT
ATOM      1  C   UNL     1     181.283 180.890 179.667  1.00  0.00     0.000 C 
ENDROOT
BRANCH   1   2
ATOM      2  C   UNL     1     181.999 181.731 178.594  1.00  0.00     0.000 C 
BRANCH   2   3
ATOM      3  C   UNL     1     183.039 182.728 179.137  1.00  0.00     0.000 C 
BRANCH   3   4
ATOM      4  C   UNL     1     182.423 183.797 180.051  1.00  0.00     0.000 C 
BRANCH   4   5
ATOM      5  C   UNL     1     183.476 184.372 181.010  1.00  0.00     0.001 C 
BRANCH   5   6
ATOM      6  C   UNL     1     184.165 183.289 181.861  1.00  0.00     0.009 C 
BRANCH   6   7
ATOM      7  C   UNL     1     185.605 182.950 181.413  1.00  0.00     0.032 C 
ATOM      8  C   UNL     1     186.622 183.761 182.221  1.00  0.00     0.014 C 
BRANCH   7   9
ATOM      9  C   UNL     1     185.895 181.480 181.562  1.00  0.00     0.044 C 
ATOM     10  O   UNL     1     185.606 180.681 180.632  1.00  0.00    -0.550 OA
ATOM     11  O   UNL     1     186.482 180.994 182.725  1.00  0.00    -0.550 OA
ENDBRANCH   7   9
ENDBRANCH   6   7
ENDBRANCH   5   6
ENDBRANCH   4   5
ENDBRANCH   3   4
ENDBRANCH   2   3
ENDBRANCH   1   2
BRANCH   1  12
ATOM     12  C   UNL     1     182.244 180.000 180.469  1.00  0.00     0.000 C 
BRANCH  12  13
ATOM     13  C   UNL     1     182.201 180.350 181.964  1.00  0.00    -0.000 C 
BRANCH  13  14
ATOM     14  C   UNL     1     180.886 181.044 182.369  1.00  0.00    -0.000 C 
BRANCH  14  15
ATOM     15  C   UNL     1     181.080 182.317 183.219  1.00  0.00    -0.000 C 
BRANCH  15  16
ATOM     16  C   UNL     1     180.099 183.457 182.880  1.00  0.00    -0.000 C 
BRANCH  16  17
ATOM     17  C   UNL     1     179.198 183.118 181.683  1.00  0.00    -0.000 C 
BRANCH  17  18
ATOM     18  C   UNL     1     177.787 182.739 182.145  1.00  0.00    -0.003 C 
ATOM     19  C   UNL     1     177.442 181.308 181.749  1.00  0.00     0.004 C 
ENDBRANCH  17  18
ENDBRANCH  16  17
ENDBRANCH  15  16
ENDBRANCH  14  15
ENDBRANCH  13  14
ENDBRANCH  12  13
ENDBRANCH   1  12
TORSDOF 14
ENDMDL
MODEL 9
REMARK VINA RESULT:    -4.625      2.543      5.665
REMARK INTER + INTRA:         -10.843
REMARK INTER:                  -8.703
REMARK INTRA:                  -2.139
REMARK UNBOUND:                -2.432
REMARK SMILES CCCCCCCCCCCCCC[C@@H](C)C(=O)[O-]
REMARK SMILES IDX 9 1 10 2 11 3 12 4 13 5 14 6 15 7 16 8 17 9 18 10 19 11 8 12
REMARK SMILES IDX 7 13 6 14 5 15 4 16 3 17 2 18 1 19
REMARK H PARENT
REMARK Flexibility Score: inf
ROOT
ATOM      1  C   UNL     1     185.473 183.885 181.979  1.00  0.00     0.000 C 
ENDROOT
BRANCH   1   2
ATOM      2  C   UNL     1     186.250 182.557 182.045  1.00  0.00     0.000 C 
BRANCH   2   3
ATOM      3  C   UNL     1     185.459 181.318 181.589  1.00  0.00     0.000 C 
BRANCH   3   4
ATOM      4  C   UNL     1     184.886 180.509 182.762  1.00  0.00     0.000 C 
BRANCH   4   5
ATOM      5  C   UNL     1     183.483 179.979 182.429  1.00  0.00     0.001 C 
BRANCH   5   6
ATOM      6  C   UNL     1     182.953 180.495 181.079  1.00  0.00     0.009 C 
BRANCH   6   7
ATOM      7  C   UNL     1     181.766 179.685 180.512  1.00  0.00     0.032 C 
ATOM      8  C   UNL     1     181.581 178.383 181.298  1.00  0.00     0.014 C 
BRANCH   7   9
ATOM      9  C   UNL     1     180.489 180.483 180.547  1.00  0.00     0.044 C 
ATOM     10  O   UNL     1     179.752 180.449 181.568  1.00  0.00    -0.550 OA
ATOM     11  O   UNL     1     180.117 181.262 179.457  1.00  0.00    -0.550 OA
ENDBRANCH   7   9
ENDBRANCH   6   7
ENDBRANCH   5   6
ENDBRANCH   4   5
ENDBRANCH   3   4
ENDBRANCH   2   3
ENDBRANCH   1   2
BRANCH   1  12
ATOM     12  C   UNL     1     184.149 183.765 181.210  1.00  0.00     0.000 C 
BRANCH  12  13
ATOM     13  C   UNL     1     183.504 185.145 181.004  1.00  0.00    -0.000 C 
BRANCH  13  14
ATOM     14  C   UNL     1     181.965 185.093 181.081  1.00  0.00    -0.000 C 
BRANCH  14  15
ATOM     15  C   UNL     1     181.403 183.733 181.540  1.00  0.00    -0.000 C 
BRANCH  15  16
ATOM     16  C   UNL     1     180.186 183.839 182.481  1.00  0.00    -0.000 C 
BRANCH  16  17
ATOM     17  C   UNL     1     180.512 183.391 183.914  1.00  0.00    -0.000 C 
BRANCH  17  18
ATOM     18  C   UNL     1     181.871 182.688 183.976  1.00  0.00    -0.003 C 
ATOM     19  C   UNL     1     182.009 181.863 185.251  1.00  0.00     0.004 C 
ENDBRANCH  17  18
ENDBRANCH  16  17
ENDBRANCH  15  16
ENDBRANCH  14  15
ENDBRANCH  13  14
ENDBRANCH  12  13
ENDBRANCH   1  12
TORSDOF 14
ENDMDL
