MODEL 1
REMARK VINA RESULT:    -1.929      0.000      0.000
REMARK INTER + INTRA:          -2.300
REMARK INTER:                  -2.098
REMARK INTRA:                  -0.202
REMARK UNBOUND:                -0.202
REMARK SMILES CC(C)(C)[C@H]1C=C[C@@H](O)CC1
REMARK SMILES IDX 5 1 11 2 10 3 8 4 7 5 6 6 2 7 1 8 3 9 4 10 9 11
REMARK H PARENT 9 12
REMARK Flexibility Score: inf
ROOT
ATOM      1  C   UNL     1     -41.606  23.746   6.573  1.00  0.00     0.017 C 
ATOM      2  C   UNL     1     -40.648  23.457   5.376  1.00  0.00     0.011 C 
ATOM      3  C   UNL     1     -40.863  24.371   4.139  1.00  0.00     0.037 C 
ATOM      4  C   UNL     1     -42.117  25.261   4.243  1.00  0.00     0.137 C 
ATOM      5  C   UNL     1     -42.125  25.949   5.580  1.00  0.00     0.000 C 
ATOM      6  C   UNL     1     -41.860  25.241   6.684  1.00  0.00    -0.025 C 
ENDROOT
BRANCH   1   7
ATOM      7  C   UNL     1     -41.169  23.077   7.931  1.00  0.00    -0.032 C 
ATOM      8  C   UNL     1     -39.737  23.525   8.311  1.00  0.00     0.011 C 
ATOM      9  C   UNL     1     -41.145  21.538   7.768  1.00  0.00     0.011 C 
ATOM     10  C   UNL     1     -42.120  23.435   9.099  1.00  0.00     0.011 C 
ENDBRANCH   1   7
BRANCH   4  11
ATOM     11  O   UNL     1     -42.120  26.223   3.221  1.00  0.00    -0.389 OA
ATOM     12  H   UNL     1     -41.564  26.980   3.543  1.00  0.00     0.211 HD
ENDBRANCH   4  11
TORSDOF 2
ENDMDL
MODEL 2
REMARK VINA RESULT:    -1.754     18.551     19.805
REMARK INTER + INTRA:          -2.110
REMARK INTER:                  -1.905
REMARK INTRA:                  -0.204
REMARK UNBOUND:                -0.202
REMARK SMILES CC(C)(C)[C@H]1C=C[C@@H](O)CC1
REMARK SMILES IDX 5 1 11 2 10 3 8 4 7 5 6 6 2 7 1 8 3 9 4 10 9 11
REMARK H PARENT 9 12
REMARK Flexibility Score: inf
ROOT
ATOM      1  C   UNL     1     -23.591  31.449   8.023  1.00  0.00     0.017 C 
ATOM      2  C   UNL     1     -22.115  31.795   8.394  1.00  0.00     0.011 C 
ATOM      3  C   UNL     1     -21.876  33.279   8.783  1.00  0.00     0.037 C 
ATOM      4  C   UNL     1     -23.098  34.184   8.534  1.00  0.00     0.137 C 
ATOM      5  C   UNL     1     -24.320  33.538   9.125  1.00  0.00     0.000 C 
ATOM      6  C   UNL     1     -24.546  32.237   8.905  1.00  0.00    -0.025 C 
ENDROOT
BRANCH   1   7
ATOM      7  C   UNL     1     -23.903  29.906   7.973  1.00  0.00    -0.032 C 
ATOM      8  C   UNL     1     -24.876  29.521   9.113  1.00  0.00     0.011 C 
ATOM      9  C   UNL     1     -22.598  29.103   8.187  1.00  0.00     0.011 C 
ATOM     10  C   UNL     1     -24.533  29.474   6.626  1.00  0.00     0.011 C 
ENDBRANCH   1   7
BRANCH   4  11
ATOM     11  O   UNL     1     -22.903  35.442   9.124  1.00  0.00    -0.389 OA
ATOM     12  H   UNL     1     -22.781  35.283  10.097  1.00  0.00     0.211 HD
ENDBRANCH   4  11
TORSDOF 2
ENDMDL
MODEL 3
REMARK VINA RESULT:    -1.452      0.723      2.020
REMARK INTER + INTRA:          -1.781
REMARK INTER:                  -1.576
REMARK INTRA:                  -0.205
REMARK UNBOUND:                -0.202
REMARK SMILES CC(C)(C)[C@H]1C=C[C@@H](O)CC1
REMARK SMILES IDX 5 1 11 2 10 3 8 4 7 5 6 6 2 7 1 8 3 9 4 10 9 11
REMARK H PARENT 9 12
REMARK Flexibility Score: inf
ROOT
ATOM      1  C   UNL     1     -40.923  23.756   6.975  1.00  0.00     0.017 C 
ATOM      2  C   UNL     1     -41.706  25.083   7.218  1.00  0.00     0.011 C 
ATOM      3  C   UNL     1     -42.125  25.835   5.925  1.00  0.00     0.037 C 
ATOM      4  C   UNL     1     -41.513  25.238   4.643  1.00  0.00     0.137 C 
ATOM      5  C   UNL     1     -41.728  23.750   4.638  1.00  0.00     0.000 C 
ATOM      6  C   UNL     1     -41.472  23.047   5.748  1.00  0.00    -0.025 C 
ENDROOT
BRANCH   1   7
ATOM      7  C   UNL     1     -40.808  22.828   8.243  1.00  0.00    -0.032 C 
ATOM      8  C   UNL     1     -40.726  21.344   7.813  1.00  0.00     0.011 C 
ATOM      9  C   UNL     1     -42.071  22.987   9.121  1.00  0.00     0.011 C 
ATOM     10  C   UNL     1     -39.563  23.157   9.103  1.00  0.00     0.011 C 
ENDBRANCH   1   7
BRANCH   4  11
ATOM     11  O   UNL     1     -42.114  25.802   3.507  1.00  0.00    -0.389 OA
ATOM     12  H   UNL     1     -43.090  25.835   3.690  1.00  0.00     0.211 HD
ENDBRANCH   4  11
TORSDOF 2
ENDMDL
MODEL 4
REMARK VINA RESULT:    -1.441     17.477     18.742
REMARK INTER + INTRA:          -1.769
REMARK INTER:                  -1.563
REMARK INTRA:                  -0.205
REMARK UNBOUND:                -0.202
REMARK SMILES CC(C)(C)[C@H]1C=C[C@@H](O)CC1
REMARK SMILES IDX 5 1 11 2 10 3 8 4 7 5 6 6 2 7 1 8 3 9 4 10 9 11
REMARK H PARENT 9 12
REMARK Flexibility Score: inf
ROOT
ATOM      1  C   UNL     1     -23.972  31.468   7.197  1.00  0.00     0.017 C 
ATOM      2  C   UNL     1     -25.421  31.634   6.643  1.00  0.00     0.011 C 
ATOM      3  C   UNL     1     -25.988  30.377   5.927  1.00  0.00     0.037 C 
ATOM      4  C   UNL     1     -24.942  29.266   5.717  1.00  0.00     0.137 C 
ATOM      5  C   UNL     1     -24.219  29.016   7.011  1.00  0.00     0.000 C 
ATOM      6  C   UNL     1     -23.778  30.057   7.727  1.00  0.00    -0.025 C 
ENDROOT
BRANCH   1   7
ATOM      7  C   UNL     1     -23.533  32.590   8.212  1.00  0.00    -0.032 C 
ATOM      8  C   UNL     1     -22.397  32.070   9.125  1.00  0.00     0.011 C 
ATOM      9  C   UNL     1     -24.725  32.964   9.124  1.00  0.00     0.011 C 
ATOM     10  C   UNL     1     -23.038  33.871   7.497  1.00  0.00     0.011 C 
ENDBRANCH   1   7
BRANCH   4  11
ATOM     11  O   UNL     1     -25.566  28.082   5.293  1.00  0.00    -0.389 OA
ATOM     12  H   UNL     1     -24.958  27.664   4.629  1.00  0.00     0.211 HD
ENDBRANCH   4  11
TORSDOF 2
ENDMDL
