MODEL 1
REMARK VINA RESULT:    -4.331      0.000      0.000
REMARK INTER + INTRA:         -10.307
REMARK INTER:                  -8.129
REMARK INTRA:                  -2.177
REMARK UNBOUND:                -2.177
REMARK SMILES O=C([O-])CCCCCCCCCCCCCCC(=O)[O-]
REMARK SMILES IDX 10 1 9 2 8 3 7 4 6 5 5 6 4 7 2 8 1 9 3 10 11 11 12 12 13 13
REMARK SMILES IDX 14 14 15 15 16 16 17 17 18 18 19 19 20 20
REMARK H PARENT
REMARK Flexibility Score: inf
ROOT
ATOM      1  C   UNL     1      16.417   0.422   0.392  1.00  0.00     0.000 C 
ENDROOT
BRANCH   1   2
ATOM      2  C   UNL     1      15.636  -0.796  -0.134  1.00  0.00     0.000 C 
BRANCH   2   3
ATOM      3  C   UNL     1      14.554  -0.408  -1.153  1.00  0.00     0.000 C 
BRANCH   3   4
ATOM      4  C   UNL     1      13.133  -0.670  -0.626  1.00  0.00     0.000 C 
BRANCH   4   5
ATOM      5  C   UNL     1      12.814   0.124   0.652  1.00  0.00     0.000 C 
BRANCH   5   6
ATOM      6  C   UNL     1      11.325   0.505   0.787  1.00  0.00     0.006 C 
BRANCH   6   7
ATOM      7  C   UNL     1      10.770   0.199   2.184  1.00  0.00     0.053 C 
BRANCH   7   8
ATOM      8  C   UNL     1       9.875  -0.998   2.143  1.00  0.00     0.041 C 
ATOM      9  O   UNL     1      10.279  -2.073   1.627  1.00  0.00    -0.550 OA
ATOM     10  O   UNL     1       8.576  -0.912   2.627  1.00  0.00    -0.550 OA
ENDBRANCH   7   8
ENDBRANCH   6   7
ENDBRANCH   5   6
ENDBRANCH   4   5
ENDBRANCH   3   4
ENDBRANCH   2   3
ENDBRANCH   1   2
BRANCH   1  11
ATOM     11  C   UNL     1      16.290   0.577   1.922  1.00  0.00     0.000 C 
BRANCH  11  12
ATOM     12  C   UNL     1      16.723  -0.675   2.710  1.00  0.00     0.000 C 
BRANCH  12  13
ATOM     13  C   UNL     1      15.849  -0.999   3.936  1.00  0.00     0.000 C 
BRANCH  13  14
ATOM     14  C   UNL     1      14.349  -1.049   3.598  1.00  0.00     0.000 C 
BRANCH  14  15
ATOM     15  C   UNL     1      13.816  -2.489   3.517  1.00  0.00     0.000 C 
BRANCH  15  16
ATOM     16  C   UNL     1      13.798  -3.029   2.078  1.00  0.00     0.006 C 
BRANCH  16  17
ATOM     17  C   UNL     1      14.970  -3.982   1.833  1.00  0.00     0.053 C 
BRANCH  17  18
ATOM     18  C   UNL     1      14.469  -5.324   1.400  1.00  0.00     0.041 C 
ATOM     19  O   UNL     1      13.256  -5.481   1.103  1.00  0.00    -0.550 OA
ATOM     20  O   UNL     1      15.331  -6.413   1.379  1.00  0.00    -0.550 OA
ENDBRANCH  17  18
ENDBRANCH  16  17
ENDBRANCH  15  16
ENDBRANCH  14  15
ENDBRANCH  13  14
ENDBRANCH  12  13
ENDBRANCH  11  12
ENDBRANCH   1  11
TORSDOF 15
ENDMDL
MODEL 2
REMARK VINA RESULT:    -4.324      2.952      4.743
REMARK INTER + INTRA:         -10.293
REMARK INTER:                  -7.835
REMARK INTRA:                  -2.457
REMARK UNBOUND:                -2.177
REMARK SMILES O=C([O-])CCCCCCCCCCCCCCC(=O)[O-]
REMARK SMILES IDX 10 1 9 2 8 3 7 4 6 5 5 6 4 7 2 8 1 9 3 10 11 11 12 12 13 13
REMARK SMILES IDX 14 14 15 15 16 16 17 17 18 18 19 19 20 20
REMARK H PARENT
REMARK Flexibility Score: inf
ROOT
ATOM      1  C   UNL     1      12.759  -0.851   4.537  1.00  0.00     0.000 C 
ENDROOT
BRANCH   1   2
ATOM      2  C   UNL     1      12.639   0.265   3.483  1.00  0.00     0.000 C 
BRANCH   2   3
ATOM      3  C   UNL     1      11.190   0.728   3.276  1.00  0.00     0.000 C 
BRANCH   3   4
ATOM      4  C   UNL     1      10.582   0.183   1.972  1.00  0.00     0.000 C 
BRANCH   4   5
ATOM      5  C   UNL     1      11.606   0.088   0.828  1.00  0.00     0.000 C 
BRANCH   5   6
ATOM      6  C   UNL     1      11.619  -1.284   0.123  1.00  0.00     0.006 C 
BRANCH   6   7
ATOM      7  C   UNL     1      10.615  -2.264   0.741  1.00  0.00     0.053 C 
BRANCH   7   8
ATOM      8  C   UNL     1      10.589  -3.546  -0.031  1.00  0.00     0.041 C 
ATOM      9  O   UNL     1      11.667  -4.096  -0.378  1.00  0.00    -0.550 OA
ATOM     10  O   UNL     1       9.375  -4.104  -0.412  1.00  0.00    -0.550 OA
ENDBRANCH   7   8
ENDBRANCH   6   7
ENDBRANCH   5   6
ENDBRANCH   4   5
ENDBRANCH   3   4
ENDBRANCH   2   3
ENDBRANCH   1   2
BRANCH   1  11
ATOM     11  C   UNL     1      13.775  -1.936   4.121  1.00  0.00     0.000 C 
BRANCH  11  12
ATOM     12  C   UNL     1      13.228  -2.929   3.078  1.00  0.00     0.000 C 
BRANCH  12  13
ATOM     13  C   UNL     1      14.188  -3.233   1.913  1.00  0.00     0.000 C 
BRANCH  13  14
ATOM     14  C   UNL     1      15.471  -2.386   1.965  1.00  0.00     0.000 C 
BRANCH  14  15
ATOM     15  C   UNL     1      15.654  -1.523   0.706  1.00  0.00     0.000 C 
BRANCH  15  16
ATOM     16  C   UNL     1      15.348  -0.038   0.961  1.00  0.00     0.006 C 
BRANCH  16  17
ATOM     17  C   UNL     1      16.635   0.786   1.024  1.00  0.00     0.053 C 
BRANCH  17  18
ATOM     18  C   UNL     1      16.830   1.345   2.398  1.00  0.00     0.041 C 
ATOM     19  O   UNL     1      17.629   2.300   2.585  1.00  0.00    -0.550 OA
ATOM     20  O   UNL     1      16.172   0.775   3.480  1.00  0.00    -0.550 OA
ENDBRANCH  17  18
ENDBRANCH  16  17
ENDBRANCH  15  16
ENDBRANCH  14  15
ENDBRANCH  13  14
ENDBRANCH  12  13
ENDBRANCH  11  12
ENDBRANCH   1  11
TORSDOF 15
ENDMDL
MODEL 3
REMARK VINA RESULT:    -4.291      2.712      5.515
REMARK INTER + INTRA:         -10.232
REMARK INTER:                  -8.354
REMARK INTRA:                  -1.878
REMARK UNBOUND:                -2.177
REMARK SMILES O=C([O-])CCCCCCCCCCCCCCC(=O)[O-]
REMARK SMILES IDX 10 1 9 2 8 3 7 4 6 5 5 6 4 7 2 8 1 9 3 10 11 11 12 12 13 13
REMARK SMILES IDX 14 14 15 15 16 16 17 17 18 18 19 19 20 20
REMARK H PARENT
REMARK Flexibility Score: inf
ROOT
ATOM      1  C   UNL     1      12.696  -0.313   4.346  1.00  0.00     0.000 C 
ENDROOT
BRANCH   1   2
ATOM      2  C   UNL     1      14.221  -0.129   4.242  1.00  0.00     0.000 C 
BRANCH   2   3
ATOM      3  C   UNL     1      14.995  -1.406   4.599  1.00  0.00     0.000 C 
BRANCH   3   4
ATOM      4  C   UNL     1      15.766  -1.979   3.396  1.00  0.00     0.000 C 
BRANCH   4   5
ATOM      5  C   UNL     1      14.871  -2.793   2.446  1.00  0.00     0.000 C 
BRANCH   5   6
ATOM      6  C   UNL     1      14.877  -2.271   0.994  1.00  0.00     0.006 C 
BRANCH   6   7
ATOM      7  C   UNL     1      15.104  -0.756   0.922  1.00  0.00     0.053 C 
BRANCH   7   8
ATOM      8  C   UNL     1      15.953  -0.408  -0.260  1.00  0.00     0.041 C 
ATOM      9  O   UNL     1      17.172  -0.137  -0.105  1.00  0.00    -0.550 OA
ATOM     10  O   UNL     1      15.385  -0.334  -1.526  1.00  0.00    -0.550 OA
ENDBRANCH   7   8
ENDBRANCH   6   7
ENDBRANCH   5   6
ENDBRANCH   4   5
ENDBRANCH   3   4
ENDBRANCH   2   3
ENDBRANCH   1   2
BRANCH   1  11
ATOM     11  C   UNL     1      11.926   0.801   3.606  1.00  0.00     0.000 C 
BRANCH  11  12
ATOM     12  C   UNL     1      10.410   0.545   3.503  1.00  0.00     0.000 C 
BRANCH  12  13
ATOM     13  C   UNL     1       9.921   0.125   2.106  1.00  0.00     0.000 C 
BRANCH  13  14
ATOM     14  C   UNL     1      10.925   0.477   0.995  1.00  0.00     0.000 C 
BRANCH  14  15
ATOM     15  C   UNL     1      11.543  -0.772   0.346  1.00  0.00     0.000 C 
BRANCH  15  16
ATOM     16  C   UNL     1      11.138  -2.069   1.066  1.00  0.00     0.006 C 
BRANCH  16  17
ATOM     17  C   UNL     1      10.875  -3.195   0.065  1.00  0.00     0.053 C 
BRANCH  17  18
ATOM     18  C   UNL     1       9.467  -3.686   0.190  1.00  0.00     0.041 C 
ATOM     19  O   UNL     1       9.019  -4.540  -0.620  1.00  0.00    -0.550 OA
ATOM     20  O   UNL     1       8.632  -3.159   1.167  1.00  0.00    -0.550 OA
ENDBRANCH  17  18
ENDBRANCH  16  17
ENDBRANCH  15  16
ENDBRANCH  14  15
ENDBRANCH  13  14
ENDBRANCH  12  13
ENDBRANCH  11  12
ENDBRANCH   1  11
TORSDOF 15
ENDMDL
MODEL 4
REMARK VINA RESULT:    -4.214      2.941      5.953
REMARK INTER + INTRA:         -10.087
REMARK INTER:                  -8.186
REMARK INTRA:                  -1.900
REMARK UNBOUND:                -2.177
REMARK SMILES O=C([O-])CCCCCCCCCCCCCCC(=O)[O-]
REMARK SMILES IDX 10 1 9 2 8 3 7 4 6 5 5 6 4 7 2 8 1 9 3 10 11 11 12 12 13 13
REMARK SMILES IDX 14 14 15 15 16 16 17 17 18 18 19 19 20 20
REMARK H PARENT
REMARK Flexibility Score: inf
ROOT
ATOM      1  C   UNL     1      10.207   0.126   2.167  1.00  0.00     0.000 C 
ENDROOT
BRANCH   1   2
ATOM      2  C   UNL     1      10.808   0.645   3.487  1.00  0.00     0.000 C 
BRANCH   2   3
ATOM      3  C   UNL     1      12.252   0.171   3.704  1.00  0.00     0.000 C 
BRANCH   3   4
ATOM      4  C   UNL     1      12.361  -1.362   3.778  1.00  0.00     0.000 C 
BRANCH   4   5
ATOM      5  C   UNL     1      13.790  -1.846   4.075  1.00  0.00     0.000 C 
BRANCH   5   6
ATOM      6  C   UNL     1      14.886  -0.891   3.556  1.00  0.00     0.006 C 
BRANCH   6   7
ATOM      7  C   UNL     1      16.241  -1.592   3.400  1.00  0.00     0.053 C 
BRANCH   7   8
ATOM      8  C   UNL     1      16.087  -2.868   2.635  1.00  0.00     0.041 C 
ATOM      9  O   UNL     1      16.534  -3.946   3.106  1.00  0.00    -0.550 OA
ATOM     10  O   UNL     1      15.495  -2.858   1.378  1.00  0.00    -0.550 OA
ENDBRANCH   7   8
ENDBRANCH   6   7
ENDBRANCH   5   6
ENDBRANCH   4   5
ENDBRANCH   3   4
ENDBRANCH   2   3
ENDBRANCH   1   2
BRANCH   1  11
ATOM     11  C   UNL     1      11.002   0.614   0.937  1.00  0.00     0.000 C 
BRANCH  11  12
ATOM     12  C   UNL     1      11.689  -0.521   0.153  1.00  0.00     0.000 C 
BRANCH  12  13
ATOM     13  C   UNL     1      13.227  -0.492   0.196  1.00  0.00     0.000 C 
BRANCH  13  14
ATOM     14  C   UNL     1      13.860  -0.466  -1.207  1.00  0.00     0.000 C 
BRANCH  14  15
ATOM     15  C   UNL     1      15.394  -0.393  -1.156  1.00  0.00     0.000 C 
BRANCH  15  16
ATOM     16  C   UNL     1      15.904   0.451   0.023  1.00  0.00     0.006 C 
BRANCH  16  17
ATOM     17  C   UNL     1      17.359   0.111   0.356  1.00  0.00     0.053 C 
BRANCH  17  18
ATOM     18  C   UNL     1      17.834   0.929   1.515  1.00  0.00     0.041 C 
ATOM     19  O   UNL     1      17.091   1.816   2.011  1.00  0.00    -0.550 OA
ATOM     20  O   UNL     1      19.118   0.749   2.013  1.00  0.00    -0.550 OA
ENDBRANCH  17  18
ENDBRANCH  16  17
ENDBRANCH  15  16
ENDBRANCH  14  15
ENDBRANCH  13  14
ENDBRANCH  12  13
ENDBRANCH  11  12
ENDBRANCH   1  11
TORSDOF 15
ENDMDL
MODEL 5
REMARK VINA RESULT:    -4.160      3.184      4.865
REMARK INTER + INTRA:          -9.985
REMARK INTER:                  -7.702
REMARK INTRA:                  -2.284
REMARK UNBOUND:                -2.177
REMARK SMILES O=C([O-])CCCCCCCCCCCCCCC(=O)[O-]
REMARK SMILES IDX 10 1 9 2 8 3 7 4 6 5 5 6 4 7 2 8 1 9 3 10 11 11 12 12 13 13
REMARK SMILES IDX 14 14 15 15 16 16 17 17 18 18 19 19 20 20
REMARK H PARENT
REMARK Flexibility Score: inf
ROOT
ATOM      1  C   UNL     1      12.222   0.265   0.696  1.00  0.00     0.000 C 
ENDROOT
BRANCH   1   2
ATOM      2  C   UNL     1      12.997  -0.902   0.057  1.00  0.00     0.000 C 
BRANCH   2   3
ATOM      3  C   UNL     1      13.754  -0.483  -1.211  1.00  0.00     0.000 C 
BRANCH   3   4
ATOM      4  C   UNL     1      15.228  -0.146  -0.928  1.00  0.00     0.000 C 
BRANCH   4   5
ATOM      5  C   UNL     1      15.850  -1.045   0.154  1.00  0.00     0.000 C 
BRANCH   5   6
ATOM      6  C   UNL     1      16.752  -0.282   1.147  1.00  0.00     0.006 C 
BRANCH   6   7
ATOM      7  C   UNL     1      15.940   0.535   2.160  1.00  0.00     0.053 C 
BRANCH   7   8
ATOM      8  C   UNL     1      16.814   1.533   2.851  1.00  0.00     0.041 C 
ATOM      9  O   UNL     1      17.295   2.504   2.210  1.00  0.00    -0.550 OA
ATOM     10  O   UNL     1      17.140   1.362   4.191  1.00  0.00    -0.550 OA
ENDBRANCH   7   8
ENDBRANCH   6   7
ENDBRANCH   5   6
ENDBRANCH   4   5
ENDBRANCH   3   4
ENDBRANCH   2   3
ENDBRANCH   1   2
BRANCH   1  11
ATOM     11  C   UNL     1      10.859  -0.185   1.264  1.00  0.00     0.000 C 
BRANCH  11  12
ATOM     12  C   UNL     1      10.927  -0.673   2.724  1.00  0.00     0.000 C 
BRANCH  12  13
ATOM     13  C   UNL     1      11.841   0.159   3.640  1.00  0.00     0.000 C 
BRANCH  13  14
ATOM     14  C   UNL     1      13.011  -0.659   4.215  1.00  0.00     0.000 C 
BRANCH  14  15
ATOM     15  C   UNL     1      13.029  -2.103   3.687  1.00  0.00     0.000 C 
BRANCH  15  16
ATOM     16  C   UNL     1      14.438  -2.560   3.276  1.00  0.00     0.006 C 
BRANCH  16  17
ATOM     17  C   UNL     1      15.426  -2.410   4.434  1.00  0.00     0.053 C 
BRANCH  17  18
ATOM     18  C   UNL     1      16.804  -2.797   3.999  1.00  0.00     0.041 C 
ATOM     19  O   UNL     1      17.744  -1.962   4.055  1.00  0.00    -0.550 OA
ATOM     20  O   UNL     1      17.039  -4.064   3.480  1.00  0.00    -0.550 OA
ENDBRANCH  17  18
ENDBRANCH  16  17
ENDBRANCH  15  16
ENDBRANCH  14  15
ENDBRANCH  13  14
ENDBRANCH  12  13
ENDBRANCH  11  12
ENDBRANCH   1  11
TORSDOF 15
ENDMDL
MODEL 6
REMARK VINA RESULT:    -4.077      1.241      5.120
REMARK INTER + INTRA:          -9.829
REMARK INTER:                  -8.076
REMARK INTRA:                  -1.753
REMARK UNBOUND:                -2.177
REMARK SMILES O=C([O-])CCCCCCCCCCCCCCC(=O)[O-]
REMARK SMILES IDX 10 1 9 2 8 3 7 4 6 5 5 6 4 7 2 8 1 9 3 10 11 11 12 12 13 13
REMARK SMILES IDX 14 14 15 15 16 16 17 17 18 18 19 19 20 20
REMARK H PARENT
REMARK Flexibility Score: inf
ROOT
ATOM      1  C   UNL     1      17.349   0.273   0.981  1.00  0.00     0.000 C 
ENDROOT
BRANCH   1   2
ATOM      2  C   UNL     1      17.409   1.216   2.197  1.00  0.00     0.000 C 
BRANCH   2   3
ATOM      3  C   UNL     1      17.708   0.473   3.506  1.00  0.00     0.000 C 
BRANCH   3   4
ATOM      4  C   UNL     1      18.130  -0.988   3.268  1.00  0.00     0.000 C 
BRANCH   4   5
ATOM      5  C   UNL     1      17.248  -1.995   4.026  1.00  0.00     0.000 C 
BRANCH   5   6
ATOM      6  C   UNL     1      15.745  -1.869   3.699  1.00  0.00     0.006 C 
BRANCH   6   7
ATOM      7  C   UNL     1      15.352  -2.670   2.452  1.00  0.00     0.053 C 
BRANCH   7   8
ATOM      8  C   UNL     1      13.900  -3.029   2.495  1.00  0.00     0.041 C 
ATOM      9  O   UNL     1      13.124  -2.431   3.286  1.00  0.00    -0.550 OA
ATOM     10  O   UNL     1      13.415  -4.058   1.698  1.00  0.00    -0.550 OA
ENDBRANCH   7   8
ENDBRANCH   6   7
ENDBRANCH   5   6
ENDBRANCH   4   5
ENDBRANCH   3   4
ENDBRANCH   2   3
ENDBRANCH   1   2
BRANCH   1  11
ATOM     11  C   UNL     1      16.133   0.569   0.077  1.00  0.00     0.000 C 
BRANCH  11  12
ATOM     12  C   UNL     1      15.557  -0.681  -0.616  1.00  0.00     0.000 C 
BRANCH  12  13
ATOM     13  C   UNL     1      14.161  -0.488  -1.235  1.00  0.00     0.000 C 
BRANCH  13  14
ATOM     14  C   UNL     1      13.027  -0.916  -0.287  1.00  0.00     0.000 C 
BRANCH  14  15
ATOM     15  C   UNL     1      12.725   0.146   0.782  1.00  0.00     0.000 C 
BRANCH  15  16
ATOM     16  C   UNL     1      11.230   0.499   0.853  1.00  0.00     0.006 C 
BRANCH  16  17
ATOM     17  C   UNL     1      10.645   0.139   2.221  1.00  0.00     0.053 C 
BRANCH  17  18
ATOM     18  C   UNL     1       9.773  -1.072   2.112  1.00  0.00     0.041 C 
ATOM     19  O   UNL     1      10.206  -2.117   1.560  1.00  0.00    -0.550 OA
ATOM     20  O   UNL     1       8.462  -1.029   2.573  1.00  0.00    -0.550 OA
ENDBRANCH  17  18
ENDBRANCH  16  17
ENDBRANCH  15  16
ENDBRANCH  14  15
ENDBRANCH  13  14
ENDBRANCH  12  13
ENDBRANCH  11  12
ENDBRANCH   1  11
TORSDOF 15
ENDMDL
MODEL 7
REMARK VINA RESULT:    -4.061      2.643      4.437
REMARK INTER + INTRA:          -9.799
REMARK INTER:                  -7.914
REMARK INTRA:                  -1.886
REMARK UNBOUND:                -2.177
REMARK SMILES O=C([O-])CCCCCCCCCCCCCCC(=O)[O-]
REMARK SMILES IDX 10 1 9 2 8 3 7 4 6 5 5 6 4 7 2 8 1 9 3 10 11 11 12 12 13 13
REMARK SMILES IDX 14 14 15 15 16 16 17 17 18 18 19 19 20 20
REMARK H PARENT
REMARK Flexibility Score: inf
ROOT
ATOM      1  C   UNL     1      11.645  -0.630   3.290  1.00  0.00     0.000 C 
ENDROOT
BRANCH   1   2
ATOM      2  C   UNL     1      11.789   0.649   2.445  1.00  0.00     0.000 C 
BRANCH   2   3
ATOM      3  C   UNL     1      11.400   0.433   0.976  1.00  0.00     0.000 C 
BRANCH   3   4
ATOM      4  C   UNL     1      11.715  -0.992   0.490  1.00  0.00     0.000 C 
BRANCH   4   5
ATOM      5  C   UNL     1      13.004  -1.068  -0.346  1.00  0.00     0.000 C 
BRANCH   5   6
ATOM      6  C   UNL     1      14.126  -0.140   0.164  1.00  0.00     0.006 C 
BRANCH   6   7
ATOM      7  C   UNL     1      15.522  -0.663  -0.195  1.00  0.00     0.053 C 
BRANCH   7   8
ATOM      8  C   UNL     1      16.565   0.004   0.645  1.00  0.00     0.041 C 
ATOM      9  O   UNL     1      17.739   0.136   0.209  1.00  0.00    -0.550 OA
ATOM     10  O   UNL     1      16.253   0.434   1.928  1.00  0.00    -0.550 OA
ENDBRANCH   7   8
ENDBRANCH   6   7
ENDBRANCH   5   6
ENDBRANCH   4   5
ENDBRANCH   3   4
ENDBRANCH   2   3
ENDBRANCH   1   2
BRANCH   1  11
ATOM     11  C   UNL     1      12.991  -1.077   3.900  1.00  0.00     0.000 C 
BRANCH  11  12
ATOM     12  C   UNL     1      13.425  -2.493   3.475  1.00  0.00     0.000 C 
BRANCH  12  13
ATOM     13  C   UNL     1      14.884  -2.604   3.000  1.00  0.00     0.000 C 
BRANCH  13  14
ATOM     14  C   UNL     1      15.050  -3.565   1.810  1.00  0.00     0.000 C 
BRANCH  14  15
ATOM     15  C   UNL     1      13.790  -4.409   1.559  1.00  0.00     0.000 C 
BRANCH  15  16
ATOM     16  C   UNL     1      14.123  -5.851   1.142  1.00  0.00     0.006 C 
BRANCH  16  17
ATOM     17  C   UNL     1      12.854  -6.701   1.038  1.00  0.00     0.053 C 
BRANCH  17  18
ATOM     18  C   UNL     1      12.522  -6.969  -0.395  1.00  0.00     0.041 C 
ATOM     19  O   UNL     1      11.969  -6.079  -1.095  1.00  0.00    -0.550 OA
ATOM     20  O   UNL     1      12.772  -8.220  -0.945  1.00  0.00    -0.550 OA
ENDBRANCH  17  18
ENDBRANCH  16  17
ENDBRANCH  15  16
ENDBRANCH  14  15
ENDBRANCH  13  14
ENDBRANCH  12  13
ENDBRANCH  11  12
ENDBRANCH   1  11
TORSDOF 15
ENDMDL
MODEL 8
REMARK VINA RESULT:    -3.953      1.796      3.537
REMARK INTER + INTRA:          -9.597
REMARK INTER:                  -7.676
REMARK INTRA:                  -1.921
REMARK UNBOUND:                -2.177
REMARK SMILES O=C([O-])CCCCCCCCCCCCCCC(=O)[O-]
REMARK SMILES IDX 10 1 9 2 8 3 7 4 6 5 5 6 4 7 2 8 1 9 3 10 11 11 12 12 13 13
REMARK SMILES IDX 14 14 15 15 16 16 17 17 18 18 19 19 20 20
REMARK H PARENT
REMARK Flexibility Score: inf
ROOT
ATOM      1  C   UNL     1      16.926  -0.181   3.377  1.00  0.00     0.000 C 
ENDROOT
BRANCH   1   2
ATOM      2  C   UNL     1      16.659  -1.697   3.438  1.00  0.00     0.000 C 
BRANCH   2   3
ATOM      3  C   UNL     1      15.543  -2.060   4.428  1.00  0.00     0.000 C 
BRANCH   3   4
ATOM      4  C   UNL     1      14.167  -2.160   3.748  1.00  0.00     0.000 C 
BRANCH   4   5
ATOM      5  C   UNL     1      13.482  -0.792   3.582  1.00  0.00     0.000 C 
BRANCH   5   6
ATOM      6  C   UNL     1      11.953  -0.840   3.778  1.00  0.00     0.006 C 
BRANCH   6   7
ATOM      7  C   UNL     1      11.276   0.481   3.390  1.00  0.00     0.053 C 
BRANCH   7   8
ATOM      8  C   UNL     1      10.201   0.241   2.377  1.00  0.00     0.041 C 
ATOM      9  O   UNL     1      10.261   0.793   1.247  1.00  0.00    -0.550 OA
ATOM     10  O   UNL     1       9.107  -0.553   2.699  1.00  0.00    -0.550 OA
ENDBRANCH   7   8
ENDBRANCH   6   7
ENDBRANCH   5   6
ENDBRANCH   4   5
ENDBRANCH   3   4
ENDBRANCH   2   3
ENDBRANCH   1   2
BRANCH   1  11
ATOM     11  C   UNL     1      16.457   0.437   2.043  1.00  0.00     0.000 C 
BRANCH  11  12
ATOM     12  C   UNL     1      16.628  -0.499   0.831  1.00  0.00     0.000 C 
BRANCH  12  13
ATOM     13  C   UNL     1      15.332  -1.176   0.353  1.00  0.00     0.000 C 
BRANCH  13  14
ATOM     14  C   UNL     1      14.402  -0.211  -0.404  1.00  0.00     0.000 C 
BRANCH  14  15
ATOM     15  C   UNL     1      12.924  -0.620  -0.300  1.00  0.00     0.000 C 
BRANCH  15  16
ATOM     16  C   UNL     1      12.747  -2.065   0.196  1.00  0.00     0.006 C 
BRANCH  16  17
ATOM     17  C   UNL     1      11.266  -2.431   0.308  1.00  0.00     0.053 C 
BRANCH  17  18
ATOM     18  C   UNL     1      11.045  -3.847  -0.122  1.00  0.00     0.041 C 
ATOM     19  O   UNL     1      11.988  -4.680  -0.070  1.00  0.00    -0.550 OA
ATOM     20  O   UNL     1       9.812  -4.233  -0.634  1.00  0.00    -0.550 OA
ENDBRANCH  17  18
ENDBRANCH  16  17
ENDBRANCH  15  16
ENDBRANCH  14  15
ENDBRANCH  13  14
ENDBRANCH  12  13
ENDBRANCH  11  12
ENDBRANCH   1  11
TORSDOF 15
ENDMDL
MODEL 9
REMARK VINA RESULT:    -3.934      3.376      5.131
REMARK INTER + INTRA:          -9.561
REMARK INTER:                  -7.604
REMARK INTRA:                  -1.956
REMARK UNBOUND:                -2.177
REMARK SMILES O=C([O-])CCCCCCCCCCCCCCC(=O)[O-]
REMARK SMILES IDX 10 1 9 2 8 3 7 4 6 5 5 6 4 7 2 8 1 9 3 10 11 11 12 12 13 13
REMARK SMILES IDX 14 14 15 15 16 16 17 17 18 18 19 19 20 20
REMARK H PARENT
REMARK Flexibility Score: inf
ROOT
ATOM      1  C   UNL     1       9.527  -0.507   2.364  1.00  0.00     0.000 C 
ENDROOT
BRANCH   1   2
ATOM      2  C   UNL     1      10.518  -1.619   1.975  1.00  0.00     0.000 C 
BRANCH   2   3
ATOM      3  C   UNL     1      10.967  -1.523   0.510  1.00  0.00     0.000 C 
BRANCH   3   4
ATOM      4  C   UNL     1      12.427  -1.968   0.315  1.00  0.00     0.000 C 
BRANCH   4   5
ATOM      5  C   UNL     1      13.269  -0.935  -0.452  1.00  0.00     0.000 C 
BRANCH   5   6
ATOM      6  C   UNL     1      14.343  -0.247   0.417  1.00  0.00     0.006 C 
BRANCH   6   7
ATOM      7  C   UNL     1      15.586   0.141  -0.394  1.00  0.00     0.053 C 
BRANCH   7   8
ATOM      8  C   UNL     1      16.726   0.470   0.517  1.00  0.00     0.041 C 
ATOM      9  O   UNL     1      17.892   0.092   0.233  1.00  0.00    -0.550 OA
ATOM     10  O   UNL     1      16.491   1.150   1.706  1.00  0.00    -0.550 OA
ENDBRANCH   7   8
ENDBRANCH   6   7
ENDBRANCH   5   6
ENDBRANCH   4   5
ENDBRANCH   3   4
ENDBRANCH   2   3
ENDBRANCH   1   2
BRANCH   1  11
ATOM     11  C   UNL     1      10.195   0.595   3.215  1.00  0.00     0.000 C 
BRANCH  11  12
ATOM     12  C   UNL     1      11.727   0.655   3.059  1.00  0.00     0.000 C 
BRANCH  12  13
ATOM     13  C   UNL     1      12.519   0.155   4.280  1.00  0.00     0.000 C 
BRANCH  13  14
ATOM     14  C   UNL     1      13.831  -0.546   3.889  1.00  0.00     0.000 C 
BRANCH  14  15
ATOM     15  C   UNL     1      13.682  -2.075   3.823  1.00  0.00     0.000 C 
BRANCH  15  16
ATOM     16  C   UNL     1      15.035  -2.801   3.879  1.00  0.00     0.006 C 
BRANCH  16  17
ATOM     17  C   UNL     1      16.081  -2.083   3.023  1.00  0.00     0.053 C 
BRANCH  17  18
ATOM     18  C   UNL     1      17.312  -1.805   3.828  1.00  0.00     0.041 C 
ATOM     19  O   UNL     1      17.524  -0.650   4.283  1.00  0.00    -0.550 OA
ATOM     20  O   UNL     1      18.252  -2.808   4.028  1.00  0.00    -0.550 OA
ENDBRANCH  17  18
ENDBRANCH  16  17
ENDBRANCH  15  16
ENDBRANCH  14  15
ENDBRANCH  13  14
ENDBRANCH  12  13
ENDBRANCH  11  12
ENDBRANCH   1  11
TORSDOF 15
ENDMDL
