MODEL 1
REMARK VINA RESULT:    -1.393      0.000      0.000
REMARK INTER + INTRA:          -1.788
REMARK INTER:                  -1.556
REMARK INTRA:                  -0.232
REMARK UNBOUND:                -0.232
REMARK SMILES CC1(C)CC[C@@]2(C(=O)[O-])[C@H](O)C[C@]3(C)C(=CC[C@H]4[C@]5(C)CC[C@H](O)C(C)(C)[C@H]5CC[C@@]43C)[C@H]2C1
REMARK SMILES IDX 6 1 5 2 33 3 10 4 4 5 34 6 15 7 12 8 2 9 16 10 13 11 1 12
REMARK SMILES IDX 3 13 17 14 31 15 14 16 18 17 30 18 32 19 19 20 29 21 21 22
REMARK SMILES IDX 20 23 28 24 22 25 25 26 23 27 26 28 27 29 7 30 8 31 9 32
REMARK SMILES IDX 11 33 24 35
REMARK H PARENT 11 34 24 36
REMARK Flexibility Score: inf
ROOT
ATOM      1  C   UNL     1      98.548 112.037 108.829  1.00  0.00     0.042 C 
ATOM      2  C   UNL     1      99.354 113.377 108.977  1.00  0.00     0.017 C 
ATOM      3  C   UNL     1      97.780 111.874 107.421  1.00  0.00     0.030 C 
ATOM      4  C   UNL     1      97.528 111.968 110.019  1.00  0.00     0.127 C 
ATOM      5  C   UNL     1      99.503 114.226 107.725  1.00  0.00     0.007 C 
ATOM      6  C   UNL     1      97.599 113.156 106.509  1.00  0.00     0.015 C 
ATOM      7  C   UNL     1      96.472 111.056 107.452  1.00  0.00    -0.063 C 
ATOM      8  C   UNL     1      96.723 110.672 109.998  1.00  0.00     0.044 C 
ATOM      9  C   UNL     1      98.132 114.497 107.044  1.00  0.00    -0.035 C 
ATOM     10  C   UNL     1      95.822 110.797 106.276  1.00  0.00    -0.027 C 
ATOM     11  C   UNL     1      95.852 110.443 108.722  1.00  0.00    -0.003 C 
ATOM     12  C   UNL     1      98.351 115.476 105.875  1.00  0.00     0.011 C 
ATOM     13  C   UNL     1      97.110 115.168 108.004  1.00  0.00     0.011 C 
ATOM     14  C   UNL     1      94.321 110.618 106.290  1.00  0.00     0.032 C 
ATOM     15  C   UNL     1      94.310 110.982 108.870  1.00  0.00    -0.020 C 
ATOM     16  C   UNL     1      95.939 108.884 108.497  1.00  0.00     0.017 C 
ATOM     17  C   UNL     1      93.781 111.483 107.447  1.00  0.00     0.006 C 
ATOM     18  C   UNL     1      94.144 112.231 109.811  1.00  0.00     0.008 C 
ATOM     19  C   UNL     1      93.467 109.831 109.508  1.00  0.00     0.012 C 
ATOM     20  C   UNL     1      92.281 112.012 107.383  1.00  0.00    -0.025 C 
ATOM     21  C   UNL     1      92.705 112.831 109.832  1.00  0.00     0.005 C 
ATOM     22  C   UNL     1      91.987 112.584 105.958  1.00  0.00     0.010 C 
ATOM     23  C   UNL     1      91.257 110.861 107.651  1.00  0.00     0.012 C 
ATOM     24  C   UNL     1      92.204 113.218 108.415  1.00  0.00     0.003 C 
ATOM     25  C   UNL     1      90.707 113.437 105.875  1.00  0.00     0.033 C 
ATOM     26  C   UNL     1      90.898 114.102 108.361  1.00  0.00    -0.006 C 
ATOM     27  C   UNL     1      90.685 114.592 106.893  1.00  0.00     0.120 C 
ATOM     28  C   UNL     1      91.060 115.359 109.267  1.00  0.00     0.014 C 
ATOM     29  C   UNL     1      89.633 113.364 108.867  1.00  0.00     0.014 C 
ENDROOT
BRANCH   1  30
ATOM     30  C   UNL     1      99.572 110.885 108.972  1.00  0.00     0.051 C 
ATOM     31  O   UNL     1      99.322 109.731 108.518  1.00  0.00    -0.549 OA
ATOM     32  O   UNL     1     100.695 111.016 109.806  1.00  0.00    -0.549 OA
ENDBRANCH   1  30
BRANCH   4  33
ATOM     33  O   UNL     1      98.197 112.083 111.249  1.00  0.00    -0.392 OA
ATOM     34  H   UNL     1      97.560 112.458 111.925  1.00  0.00     0.210 HD
ENDBRANCH   4  33
BRANCH  27  35
ATOM     35  O   UNL     1      91.687 115.526 106.546  1.00  0.00    -0.393 OA
ATOM     36  H   UNL     1      92.358 115.026 106.004  1.00  0.00     0.210 HD
ENDBRANCH  27  35
TORSDOF 3
ENDMDL
MODEL 2
REMARK VINA RESULT:    -0.159      1.846      7.028
REMARK INTER + INTRA:          -0.409
REMARK INTER:                  -0.626
REMARK INTRA:                   0.217
REMARK UNBOUND:                -0.232
REMARK SMILES CC1(C)CC[C@@]2(C(=O)[O-])[C@H](O)C[C@]3(C)C(=CC[C@H]4[C@]5(C)CC[C@H](O)C(C)(C)[C@H]5CC[C@@]43C)[C@H]2C1
REMARK SMILES IDX 6 1 5 2 33 3 10 4 4 5 34 6 15 7 12 8 2 9 16 10 13 11 1 12
REMARK SMILES IDX 3 13 17 14 31 15 14 16 18 17 30 18 32 19 19 20 29 21 21 22
REMARK SMILES IDX 20 23 28 24 22 25 25 26 23 27 26 28 27 29 7 30 8 31 9 32
REMARK SMILES IDX 11 33 24 35
REMARK H PARENT 11 34 24 36
REMARK Flexibility Score: inf
ROOT
ATOM      1  C   UNL     1      92.004 112.853 108.317  1.00  0.00     0.042 C 
ATOM      2  C   UNL     1      91.659 114.324 108.744  1.00  0.00     0.017 C 
ATOM      3  C   UNL     1      92.868 112.030 109.402  1.00  0.00     0.030 C 
ATOM      4  C   UNL     1      92.771 112.927 106.951  1.00  0.00     0.127 C 
ATOM      5  C   UNL     1      91.967 114.708 110.182  1.00  0.00     0.007 C 
ATOM      6  C   UNL     1      93.576 112.836 110.567  1.00  0.00     0.015 C 
ATOM      7  C   UNL     1      93.826 110.961 108.837  1.00  0.00    -0.063 C 
ATOM      8  C   UNL     1      93.112 111.538 106.419  1.00  0.00     0.044 C 
ATOM      9  C   UNL     1      93.433 114.367 110.570  1.00  0.00    -0.035 C 
ATOM     10  C   UNL     1      94.516 110.161 109.707  1.00  0.00    -0.027 C 
ATOM     11  C   UNL     1      94.032 110.674 107.338  1.00  0.00    -0.003 C 
ATOM     12  C   UNL     1      93.706 114.916 111.984  1.00  0.00     0.011 C 
ATOM     13  C   UNL     1      94.472 115.034 109.624  1.00  0.00     0.011 C 
ATOM     14  C   UNL     1      95.862 109.614 109.291  1.00  0.00     0.032 C 
ATOM     15  C   UNL     1      95.630 110.812 106.988  1.00  0.00    -0.020 C 
ATOM     16  C   UNL     1      93.482 109.210 107.131  1.00  0.00     0.017 C 
ATOM     17  C   UNL     1      96.485 110.647 108.329  1.00  0.00     0.006 C 
ATOM     18  C   UNL     1      96.054 112.216 106.423  1.00  0.00     0.008 C 
ATOM     19  C   UNL     1      95.960 109.766 105.875  1.00  0.00     0.012 C 
ATOM     20  C   UNL     1      98.068 110.714 108.185  1.00  0.00    -0.025 C 
ATOM     21  C   UNL     1      97.592 112.392 106.233  1.00  0.00     0.005 C 
ATOM     22  C   UNL     1      98.727 110.674 109.602  1.00  0.00     0.010 C 
ATOM     23  C   UNL     1      98.620 109.497 107.373  1.00  0.00     0.012 C 
ATOM     24  C   UNL     1      98.384 112.133 107.544  1.00  0.00     0.003 C 
ATOM     25  C   UNL     1     100.211 111.086 109.618  1.00  0.00     0.033 C 
ATOM     26  C   UNL     1      99.898 112.576 107.534  1.00  0.00    -0.006 C 
ATOM     27  C   UNL     1     100.460 112.468 108.988  1.00  0.00     0.120 C 
ATOM     28  C   UNL     1     100.024 114.061 107.081  1.00  0.00     0.014 C 
ATOM     29  C   UNL     1     100.776 111.750 106.560  1.00  0.00     0.014 C 
ENDROOT
BRANCH   1  30
ATOM     30  C   UNL     1      90.655 112.125 108.102  1.00  0.00     0.051 C 
ATOM     31  O   UNL     1      90.584 111.081 107.390  1.00  0.00    -0.549 OA
ATOM     32  O   UNL     1      89.443 112.721 108.488  1.00  0.00    -0.549 OA
ENDBRANCH   1  30
BRANCH   4  33
ATOM     33  O   UNL     1      92.010 113.621 105.995  1.00  0.00    -0.392 OA
ATOM     34  H   UNL     1      92.479 114.476 105.773  1.00  0.00     0.210 HD
ENDBRANCH   4  33
BRANCH  27  35
ATOM     35  O   UNL     1      99.870 113.456 109.808  1.00  0.00    -0.393 OA
ATOM     36  H   UNL     1     100.564 113.715 110.476  1.00  0.00     0.210 HD
ENDBRANCH  27  35
TORSDOF 3
ENDMDL
