MODEL 1
REMARK VINA RESULT:    -4.647      0.000      0.000
REMARK INTER + INTRA:          -9.356
REMARK INTER:                  -8.450
REMARK INTRA:                  -0.906
REMARK UNBOUND:                -0.906
REMARK SMILES CCCCCCCCCCCCCC[C@H](C)C(=O)[O-]
REMARK SMILES IDX 9 1 10 2 11 3 12 4 13 5 14 6 15 7 16 8 17 9 18 10 19 11 8 12
REMARK SMILES IDX 7 13 6 14 5 15 4 16 3 17 2 18 1 19
REMARK H PARENT
REMARK Flexibility Score: inf
ROOT
ATOM      1  C   UNL     1       1.538   0.214   7.866  1.00  0.00     0.000 C 
ENDROOT
BRANCH   1   2
ATOM      2  C   UNL     1       2.139   1.616   8.034  1.00  0.00     0.000 C 
BRANCH   2   3
ATOM      3  C   UNL     1       1.162   2.694   7.539  1.00  0.00     0.000 C 
BRANCH   3   4
ATOM      4  C   UNL     1       0.323   3.301   8.676  1.00  0.00     0.000 C 
BRANCH   4   5
ATOM      5  C   UNL     1      -0.139   4.736   8.367  1.00  0.00     0.001 C 
BRANCH   5   6
ATOM      6  C   UNL     1       0.199   5.187   6.932  1.00  0.00     0.009 C 
BRANCH   6   7
ATOM      7  C   UNL     1      -0.526   6.483   6.491  1.00  0.00     0.032 C 
ATOM      8  C   UNL     1      -1.975   6.489   6.993  1.00  0.00     0.014 C 
BRANCH   7   9
ATOM      9  C   UNL     1      -0.521   6.655   4.996  1.00  0.00     0.044 C 
ATOM     10  O   UNL     1      -0.397   5.657   4.235  1.00  0.00    -0.550 OA
ATOM     11  O   UNL     1      -0.687   7.919   4.444  1.00  0.00    -0.550 OA
ENDBRANCH   7   9
ENDBRANCH   6   7
ENDBRANCH   5   6
ENDBRANCH   4   5
ENDBRANCH   3   4
ENDBRANCH   2   3
ENDBRANCH   1   2
BRANCH   1  12
ATOM     12  C   UNL     1       2.061  -0.461   6.593  1.00  0.00     0.000 C 
BRANCH  12  13
ATOM     13  C   UNL     1       0.975  -0.506   5.508  1.00  0.00    -0.000 C 
BRANCH  13  14
ATOM     14  C   UNL     1       0.593  -1.940   5.111  1.00  0.00    -0.000 C 
BRANCH  14  15
ATOM     15  C   UNL     1      -0.400  -2.583   6.095  1.00  0.00    -0.000 C 
BRANCH  15  16
ATOM     16  C   UNL     1      -1.847  -2.561   5.556  1.00  0.00    -0.000 C 
BRANCH  16  17
ATOM     17  C   UNL     1      -1.966  -3.023   4.094  1.00  0.00    -0.000 C 
BRANCH  17  18
ATOM     18  C   UNL     1      -3.242  -2.513   3.409  1.00  0.00    -0.003 C 
ATOM     19  C   UNL     1      -3.734  -1.221   4.053  1.00  0.00     0.004 C 
ENDBRANCH  17  18
ENDBRANCH  16  17
ENDBRANCH  15  16
ENDBRANCH  14  15
ENDBRANCH  13  14
ENDBRANCH  12  13
ENDBRANCH   1  12
TORSDOF 14
ENDMDL
MODEL 2
REMARK VINA RESULT:    -4.632      4.818      6.815
REMARK INTER + INTRA:          -9.329
REMARK INTER:                  -7.625
REMARK INTRA:                  -1.704
REMARK UNBOUND:                -0.906
REMARK SMILES CCCCCCCCCCCCCC[C@H](C)C(=O)[O-]
REMARK SMILES IDX 9 1 10 2 11 3 12 4 13 5 14 6 15 7 16 8 17 9 18 10 19 11 8 12
REMARK SMILES IDX 7 13 6 14 5 15 4 16 3 17 2 18 1 19
REMARK H PARENT
REMARK Flexibility Score: inf
ROOT
ATOM      1  C   UNL     1      -2.109  -5.781   5.470  1.00  0.00     0.000 C 
ENDROOT
BRANCH   1   2
ATOM      2  C   UNL     1      -1.333  -5.098   6.603  1.00  0.00     0.000 C 
BRANCH   2   3
ATOM      3  C   UNL     1      -1.813  -3.652   6.802  1.00  0.00     0.000 C 
BRANCH   3   4
ATOM      4  C   UNL     1      -0.658  -2.636   6.792  1.00  0.00     0.000 C 
BRANCH   4   5
ATOM      5  C   UNL     1      -0.149  -2.338   5.371  1.00  0.00     0.001 C 
BRANCH   5   6
ATOM      6  C   UNL     1       0.804  -1.128   5.308  1.00  0.00     0.009 C 
BRANCH   6   7
ATOM      7  C   UNL     1       1.966  -1.185   6.331  1.00  0.00     0.032 C 
ATOM      8  C   UNL     1       2.211   0.197   6.948  1.00  0.00     0.014 C 
BRANCH   7   9
ATOM      9  C   UNL     1       3.243  -1.683   5.712  1.00  0.00     0.044 C 
ATOM     10  O   UNL     1       3.253  -2.134   4.535  1.00  0.00    -0.550 OA
ATOM     11  O   UNL     1       4.432  -1.617   6.429  1.00  0.00    -0.550 OA
ENDBRANCH   7   9
ENDBRANCH   6   7
ENDBRANCH   5   6
ENDBRANCH   4   5
ENDBRANCH   3   4
ENDBRANCH   2   3
ENDBRANCH   1   2
BRANCH   1  12
ATOM     12  C   UNL     1      -3.158  -4.836   4.871  1.00  0.00     0.000 C 
BRANCH  12  13
ATOM     13  C   UNL     1      -2.772  -4.419   3.445  1.00  0.00    -0.000 C 
BRANCH  13  14
ATOM     14  C   UNL     1      -3.560  -3.196   2.951  1.00  0.00    -0.000 C 
BRANCH  14  15
ATOM     15  C   UNL     1      -3.093  -1.885   3.609  1.00  0.00    -0.000 C 
BRANCH  15  16
ATOM     16  C   UNL     1      -4.273  -1.067   4.175  1.00  0.00    -0.000 C 
BRANCH  16  17
ATOM     17  C   UNL     1      -4.521  -1.302   5.674  1.00  0.00    -0.000 C 
BRANCH  17  18
ATOM     18  C   UNL     1      -5.970  -1.018   6.092  1.00  0.00    -0.003 C 
ATOM     19  C   UNL     1      -6.050   0.202   7.005  1.00  0.00     0.004 C 
ENDBRANCH  17  18
ENDBRANCH  16  17
ENDBRANCH  15  16
ENDBRANCH  14  15
ENDBRANCH  13  14
ENDBRANCH  12  13
ENDBRANCH   1  12
TORSDOF 14
ENDMDL
MODEL 3
REMARK VINA RESULT:    -4.591      5.274      7.028
REMARK INTER + INTRA:          -9.255
REMARK INTER:                  -6.614
REMARK INTRA:                  -2.641
REMARK UNBOUND:                -0.906
REMARK SMILES CCCCCCCCCCCCCC[C@H](C)C(=O)[O-]
REMARK SMILES IDX 9 1 10 2 11 3 12 4 13 5 14 6 15 7 16 8 17 9 18 10 19 11 8 12
REMARK SMILES IDX 7 13 6 14 5 15 4 16 3 17 2 18 1 19
REMARK H PARENT
REMARK Flexibility Score: inf
ROOT
ATOM      1  C   UNL     1      -5.442  -2.362   5.710  1.00  0.00     0.000 C 
ENDROOT
BRANCH   1   2
ATOM      2  C   UNL     1      -4.758  -3.278   6.733  1.00  0.00     0.000 C 
BRANCH   2   3
ATOM      3  C   UNL     1      -3.577  -2.563   7.406  1.00  0.00     0.000 C 
BRANCH   3   4
ATOM      4  C   UNL     1      -2.285  -3.396   7.378  1.00  0.00     0.000 C 
BRANCH   4   5
ATOM      5  C   UNL     1      -1.020  -2.525   7.474  1.00  0.00     0.001 C 
BRANCH   5   6
ATOM      6  C   UNL     1       0.092  -2.960   6.500  1.00  0.00     0.009 C 
BRANCH   6   7
ATOM      7  C   UNL     1       1.225  -1.917   6.327  1.00  0.00     0.032 C 
ATOM      8  C   UNL     1       0.800  -0.816   5.347  1.00  0.00     0.014 C 
BRANCH   7   9
ATOM      9  C   UNL     1       2.504  -2.542   5.843  1.00  0.00     0.044 C 
ATOM     10  O   UNL     1       3.179  -3.292   6.599  1.00  0.00    -0.550 OA
ATOM     11  O   UNL     1       2.932  -2.322   4.539  1.00  0.00    -0.550 OA
ENDBRANCH   7   9
ENDBRANCH   6   7
ENDBRANCH   5   6
ENDBRANCH   4   5
ENDBRANCH   3   4
ENDBRANCH   2   3
ENDBRANCH   1   2
BRANCH   1  12
ATOM     12  C   UNL     1      -4.571  -1.140   5.394  1.00  0.00     0.000 C 
BRANCH  12  13
ATOM     13  C   UNL     1      -3.959  -1.249   3.990  1.00  0.00    -0.000 C 
BRANCH  13  14
ATOM     14  C   UNL     1      -2.504  -1.746   4.015  1.00  0.00    -0.000 C 
BRANCH  14  15
ATOM     15  C   UNL     1      -2.290  -2.996   3.145  1.00  0.00    -0.000 C 
BRANCH  15  16
ATOM     16  C   UNL     1      -2.578  -4.300   3.920  1.00  0.00    -0.000 C 
BRANCH  16  17
ATOM     17  C   UNL     1      -3.768  -5.097   3.360  1.00  0.00    -0.000 C 
BRANCH  17  18
ATOM     18  C   UNL     1      -4.381  -4.455   2.108  1.00  0.00    -0.003 C 
ATOM     19  C   UNL     1      -5.822  -4.020   2.362  1.00  0.00     0.004 C 
ENDBRANCH  17  18
ENDBRANCH  16  17
ENDBRANCH  15  16
ENDBRANCH  14  15
ENDBRANCH  13  14
ENDBRANCH  12  13
ENDBRANCH   1  12
TORSDOF 14
ENDMDL
MODEL 4
REMARK VINA RESULT:    -4.587      1.303      2.149
REMARK INTER + INTRA:          -9.247
REMARK INTER:                  -8.453
REMARK INTRA:                  -0.794
REMARK UNBOUND:                -0.906
REMARK SMILES CCCCCCCCCCCCCC[C@H](C)C(=O)[O-]
REMARK SMILES IDX 9 1 10 2 11 3 12 4 13 5 14 6 15 7 16 8 17 9 18 10 19 11 8 12
REMARK SMILES IDX 7 13 6 14 5 15 4 16 3 17 2 18 1 19
REMARK H PARENT
REMARK Flexibility Score: inf
ROOT
ATOM      1  C   UNL     1       1.905  -0.982   6.796  1.00  0.00     0.000 C 
ENDROOT
BRANCH   1   2
ATOM      2  C   UNL     1       1.243   0.339   6.385  1.00  0.00     0.000 C 
BRANCH   2   3
ATOM      3  C   UNL     1       1.972   1.537   7.014  1.00  0.00     0.000 C 
BRANCH   3   4
ATOM      4  C   UNL     1       1.242   2.095   8.246  1.00  0.00     0.000 C 
BRANCH   4   5
ATOM      5  C   UNL     1       0.568   3.450   7.968  1.00  0.00     0.001 C 
BRANCH   5   6
ATOM      6  C   UNL     1       0.888   4.013   6.569  1.00  0.00     0.009 C 
BRANCH   6   7
ATOM      7  C   UNL     1       0.403   5.467   6.347  1.00  0.00     0.032 C 
ATOM      8  C   UNL     1      -0.679   5.838   7.368  1.00  0.00     0.014 C 
BRANCH   7   9
ATOM      9  C   UNL     1      -0.135   5.680   4.959  1.00  0.00     0.044 C 
ATOM     10  O   UNL     1      -1.000   6.569   4.734  1.00  0.00    -0.550 OA
ATOM     11  O   UNL     1       0.347   4.914   3.904  1.00  0.00    -0.550 OA
ENDBRANCH   7   9
ENDBRANCH   6   7
ENDBRANCH   5   6
ENDBRANCH   4   5
ENDBRANCH   3   4
ENDBRANCH   2   3
ENDBRANCH   1   2
BRANCH   1  12
ATOM     12  C   UNL     1       1.031  -2.181   6.409  1.00  0.00     0.000 C 
BRANCH  12  13
ATOM     13  C   UNL     1       0.087  -1.822   5.252  1.00  0.00    -0.000 C 
BRANCH  13  14
ATOM     14  C   UNL     1      -1.290  -2.493   5.382  1.00  0.00    -0.000 C 
BRANCH  14  15
ATOM     15  C   UNL     1      -2.065  -2.518   4.053  1.00  0.00    -0.000 C 
BRANCH  15  16
ATOM     16  C   UNL     1      -3.173  -1.443   4.006  1.00  0.00    -0.000 C 
BRANCH  16  17
ATOM     17  C   UNL     1      -4.455  -1.850   4.751  1.00  0.00    -0.000 C 
BRANCH  17  18
ATOM     18  C   UNL     1      -4.891  -0.816   5.798  1.00  0.00    -0.003 C 
ATOM     19  C   UNL     1      -6.349  -1.018   6.197  1.00  0.00     0.004 C 
ENDBRANCH  17  18
ENDBRANCH  16  17
ENDBRANCH  15  16
ENDBRANCH  14  15
ENDBRANCH  13  14
ENDBRANCH  12  13
ENDBRANCH   1  12
TORSDOF 14
ENDMDL
MODEL 5
REMARK VINA RESULT:    -4.576      7.063     10.337
REMARK INTER + INTRA:          -9.227
REMARK INTER:                  -7.330
REMARK INTRA:                  -1.896
REMARK UNBOUND:                -0.906
REMARK SMILES CCCCCCCCCCCCCC[C@H](C)C(=O)[O-]
REMARK SMILES IDX 9 1 10 2 11 3 12 4 13 5 14 6 15 7 16 8 17 9 18 10 19 11 8 12
REMARK SMILES IDX 7 13 6 14 5 15 4 16 3 17 2 18 1 19
REMARK H PARENT
REMARK Flexibility Score: inf
ROOT
ATOM      1  C   UNL     1      -2.751  -5.247   3.081  1.00  0.00     0.000 C 
ENDROOT
BRANCH   1   2
ATOM      2  C   UNL     1      -3.186  -5.951   1.789  1.00  0.00     0.000 C 
BRANCH   2   3
ATOM      3  C   UNL     1      -3.790  -4.948   0.795  1.00  0.00     0.000 C 
BRANCH   3   4
ATOM      4  C   UNL     1      -3.434  -5.272  -0.666  1.00  0.00     0.000 C 
BRANCH   4   5
ATOM      5  C   UNL     1      -1.919  -5.436  -0.880  1.00  0.00     0.001 C 
BRANCH   5   6
ATOM      6  C   UNL     1      -1.195  -4.102  -1.148  1.00  0.00     0.009 C 
BRANCH   6   7
ATOM      7  C   UNL     1      -0.431  -4.057  -2.495  1.00  0.00     0.032 C 
ATOM      8  C   UNL     1      -1.411  -4.117  -3.673  1.00  0.00     0.014 C 
BRANCH   7   9
ATOM      9  C   UNL     1       0.563  -5.178  -2.622  1.00  0.00     0.044 C 
ATOM     10  O   UNL     1       1.539  -5.265  -1.828  1.00  0.00    -0.550 OA
ATOM     11  O   UNL     1       0.390  -6.150  -3.600  1.00  0.00    -0.550 OA
ENDBRANCH   7   9
ENDBRANCH   6   7
ENDBRANCH   5   6
ENDBRANCH   4   5
ENDBRANCH   3   4
ENDBRANCH   2   3
ENDBRANCH   1   2
BRANCH   1  12
ATOM     12  C   UNL     1      -2.570  -3.741   2.854  1.00  0.00     0.000 C 
BRANCH  12  13
ATOM     13  C   UNL     1      -1.881  -3.083   4.059  1.00  0.00    -0.000 C 
BRANCH  13  14
ATOM     14  C   UNL     1      -2.344  -1.636   4.288  1.00  0.00    -0.000 C 
BRANCH  14  15
ATOM     15  C   UNL     1      -3.735  -1.356   3.691  1.00  0.00    -0.000 C 
BRANCH  15  16
ATOM     16  C   UNL     1      -4.835  -1.324   4.774  1.00  0.00    -0.000 C 
BRANCH  16  17
ATOM     17  C   UNL     1      -5.674  -2.611   4.837  1.00  0.00    -0.000 C 
BRANCH  17  18
ATOM     18  C   UNL     1      -6.225  -3.032   3.467  1.00  0.00    -0.003 C 
ATOM     19  C   UNL     1      -6.437  -4.541   3.399  1.00  0.00     0.004 C 
ENDBRANCH  17  18
ENDBRANCH  16  17
ENDBRANCH  15  16
ENDBRANCH  14  15
ENDBRANCH  13  14
ENDBRANCH  12  13
ENDBRANCH   1  12
TORSDOF 14
ENDMDL
MODEL 6
REMARK VINA RESULT:    -4.529      7.026     10.177
REMARK INTER + INTRA:          -9.142
REMARK INTER:                  -8.095
REMARK INTRA:                  -1.047
REMARK UNBOUND:                -0.906
REMARK SMILES CCCCCCCCCCCCCC[C@H](C)C(=O)[O-]
REMARK SMILES IDX 9 1 10 2 11 3 12 4 13 5 14 6 15 7 16 8 17 9 18 10 19 11 8 12
REMARK SMILES IDX 7 13 6 14 5 15 4 16 3 17 2 18 1 19
REMARK H PARENT
REMARK Flexibility Score: inf
ROOT
ATOM      1  C   UNL     1      -2.549  -4.254   3.809  1.00  0.00     0.000 C 
ENDROOT
BRANCH   1   2
ATOM      2  C   UNL     1      -3.518  -4.983   2.868  1.00  0.00     0.000 C 
BRANCH   2   3
ATOM      3  C   UNL     1      -2.838  -6.195   2.214  1.00  0.00     0.000 C 
BRANCH   3   4
ATOM      4  C   UNL     1      -2.889  -6.146   0.677  1.00  0.00     0.000 C 
BRANCH   4   5
ATOM      5  C   UNL     1      -2.385  -4.805   0.114  1.00  0.00     0.001 C 
BRANCH   5   6
ATOM      6  C   UNL     1      -2.110  -4.849  -1.402  1.00  0.00     0.009 C 
BRANCH   6   7
ATOM      7  C   UNL     1      -0.723  -4.290  -1.808  1.00  0.00     0.032 C 
ATOM      8  C   UNL     1      -0.850  -3.359  -3.020  1.00  0.00     0.014 C 
BRANCH   7   9
ATOM      9  C   UNL     1       0.258  -5.384  -2.127  1.00  0.00     0.044 C 
ATOM     10  O   UNL     1      -0.140  -6.496  -2.569  1.00  0.00    -0.550 OA
ATOM     11  O   UNL     1       1.621  -5.161  -1.967  1.00  0.00    -0.550 OA
ENDBRANCH   7   9
ENDBRANCH   6   7
ENDBRANCH   5   6
ENDBRANCH   4   5
ENDBRANCH   3   4
ENDBRANCH   2   3
ENDBRANCH   1   2
BRANCH   1  12
ATOM     12  C   UNL     1      -2.265  -2.831   3.314  1.00  0.00     0.000 C 
BRANCH  12  13
ATOM     13  C   UNL     1      -2.674  -1.791   4.368  1.00  0.00    -0.000 C 
BRANCH  13  14
ATOM     14  C   UNL     1      -4.043  -1.158   4.075  1.00  0.00    -0.000 C 
BRANCH  14  15
ATOM     15  C   UNL     1      -5.161  -1.722   4.970  1.00  0.00    -0.000 C 
BRANCH  15  16
ATOM     16  C   UNL     1      -4.728  -1.816   6.449  1.00  0.00    -0.000 C 
BRANCH  16  17
ATOM     17  C   UNL     1      -5.623  -1.008   7.404  1.00  0.00    -0.000 C 
BRANCH  17  18
ATOM     18  C   UNL     1      -6.050   0.346   6.820  1.00  0.00    -0.003 C 
ATOM     19  C   UNL     1      -6.714   1.218   7.881  1.00  0.00     0.004 C 
ENDBRANCH  17  18
ENDBRANCH  16  17
ENDBRANCH  15  16
ENDBRANCH  14  15
ENDBRANCH  13  14
ENDBRANCH  12  13
ENDBRANCH   1  12
TORSDOF 14
ENDMDL
MODEL 7
REMARK VINA RESULT:    -4.526      1.088      1.573
REMARK INTER + INTRA:          -9.137
REMARK INTER:                  -8.151
REMARK INTRA:                  -0.985
REMARK UNBOUND:                -0.906
REMARK SMILES CCCCCCCCCCCCCC[C@H](C)C(=O)[O-]
REMARK SMILES IDX 9 1 10 2 11 3 12 4 13 5 14 6 15 7 16 8 17 9 18 10 19 11 8 12
REMARK SMILES IDX 7 13 6 14 5 15 4 16 3 17 2 18 1 19
REMARK H PARENT
REMARK Flexibility Score: inf
ROOT
ATOM      1  C   UNL     1       1.441  -0.743   7.499  1.00  0.00     0.000 C 
ENDROOT
BRANCH   1   2
ATOM      2  C   UNL     1       1.535   0.669   8.092  1.00  0.00     0.000 C 
BRANCH   2   3
ATOM      3  C   UNL     1       1.528   1.731   6.983  1.00  0.00     0.000 C 
BRANCH   3   4
ATOM      4  C   UNL     1       1.776   3.151   7.519  1.00  0.00     0.000 C 
BRANCH   4   5
ATOM      5  C   UNL     1       0.475   3.955   7.686  1.00  0.00     0.001 C 
BRANCH   5   6
ATOM      6  C   UNL     1       0.510   5.322   6.975  1.00  0.00     0.009 C 
BRANCH   6   7
ATOM      7  C   UNL     1      -0.148   5.322   5.573  1.00  0.00     0.032 C 
ATOM      8  C   UNL     1       0.905   5.096   4.482  1.00  0.00     0.014 C 
BRANCH   7   9
ATOM      9  C   UNL     1      -0.883   6.604   5.291  1.00  0.00     0.044 C 
ATOM     10  O   UNL     1      -2.064   6.583   4.849  1.00  0.00    -0.550 OA
ATOM     11  O   UNL     1      -0.272   7.824   5.550  1.00  0.00    -0.550 OA
ENDBRANCH   7   9
ENDBRANCH   6   7
ENDBRANCH   5   6
ENDBRANCH   4   5
ENDBRANCH   3   4
ENDBRANCH   2   3
ENDBRANCH   1   2
BRANCH   1  12
ATOM     12  C   UNL     1       1.714  -0.727   5.990  1.00  0.00     0.000 C 
BRANCH  12  13
ATOM     13  C   UNL     1       0.805  -1.724   5.256  1.00  0.00    -0.000 C 
BRANCH  13  14
ATOM     14  C   UNL     1      -0.226  -2.381   6.187  1.00  0.00    -0.000 C 
BRANCH  14  15
ATOM     15  C   UNL     1      -1.508  -2.802   5.447  1.00  0.00    -0.000 C 
BRANCH  15  16
ATOM     16  C   UNL     1      -1.998  -1.713   4.468  1.00  0.00    -0.000 C 
BRANCH  16  17
ATOM     17  C   UNL     1      -3.054  -2.214   3.470  1.00  0.00    -0.000 C 
BRANCH  17  18
ATOM     18  C   UNL     1      -4.487  -1.854   3.885  1.00  0.00    -0.003 C 
ATOM     19  C   UNL     1      -4.495  -0.732   4.919  1.00  0.00     0.004 C 
ENDBRANCH  17  18
ENDBRANCH  16  17
ENDBRANCH  15  16
ENDBRANCH  14  15
ENDBRANCH  13  14
ENDBRANCH  12  13
ENDBRANCH   1  12
TORSDOF 14
ENDMDL
MODEL 8
REMARK VINA RESULT:    -4.475      3.691      7.559
REMARK INTER + INTRA:          -9.044
REMARK INTER:                  -7.861
REMARK INTRA:                  -1.182
REMARK UNBOUND:                -0.906
REMARK SMILES CCCCCCCCCCCCCC[C@H](C)C(=O)[O-]
REMARK SMILES IDX 9 1 10 2 11 3 12 4 13 5 14 6 15 7 16 8 17 9 18 10 19 11 8 12
REMARK SMILES IDX 7 13 6 14 5 15 4 16 3 17 2 18 1 19
REMARK H PARENT
REMARK Flexibility Score: inf
ROOT
ATOM      1  C   UNL     1       1.432  -0.931   7.336  1.00  0.00     0.000 C 
ENDROOT
BRANCH   1   2
ATOM      2  C   UNL     1       1.573  -0.934   5.809  1.00  0.00     0.000 C 
BRANCH   2   3
ATOM      3  C   UNL     1       0.519  -1.845   5.162  1.00  0.00     0.000 C 
BRANCH   3   4
ATOM      4  C   UNL     1      -0.558  -2.306   6.159  1.00  0.00     0.000 C 
BRANCH   4   5
ATOM      5  C   UNL     1      -1.903  -2.608   5.475  1.00  0.00     0.001 C 
BRANCH   5   6
ATOM      6  C   UNL     1      -2.120  -1.803   4.179  1.00  0.00     0.009 C 
BRANCH   6   7
ATOM      7  C   UNL     1      -3.609  -1.560   3.828  1.00  0.00     0.032 C 
ATOM      8  C   UNL     1      -4.344  -0.917   5.010  1.00  0.00     0.014 C 
BRANCH   7   9
ATOM      9  C   UNL     1      -4.315  -2.830   3.439  1.00  0.00     0.044 C 
ATOM     10  O   UNL     1      -5.486  -3.065   3.845  1.00  0.00    -0.550 OA
ATOM     11  O   UNL     1      -3.688  -3.741   2.597  1.00  0.00    -0.550 OA
ENDBRANCH   7   9
ENDBRANCH   6   7
ENDBRANCH   5   6
ENDBRANCH   4   5
ENDBRANCH   3   4
ENDBRANCH   2   3
ENDBRANCH   1   2
BRANCH   1  12
ATOM     12  C   UNL     1       1.665   0.472   7.910  1.00  0.00     0.000 C 
BRANCH  12  13
ATOM     13  C   UNL     1       1.512   1.543   6.820  1.00  0.00    -0.000 C 
BRANCH  13  14
ATOM     14  C   UNL     1       1.532   2.972   7.387  1.00  0.00    -0.000 C 
BRANCH  14  15
ATOM     15  C   UNL     1       0.409   3.220   8.408  1.00  0.00    -0.000 C 
BRANCH  15  16
ATOM     16  C   UNL     1      -0.120   4.670   8.349  1.00  0.00    -0.000 C 
BRANCH  16  17
ATOM     17  C   UNL     1       0.586   5.538   7.294  1.00  0.00    -0.000 C 
BRANCH  17  18
ATOM     18  C   UNL     1      -0.351   5.983   6.163  1.00  0.00    -0.003 C 
ATOM     19  C   UNL     1      -0.006   5.279   4.854  1.00  0.00     0.004 C 
ENDBRANCH  17  18
ENDBRANCH  16  17
ENDBRANCH  15  16
ENDBRANCH  14  15
ENDBRANCH  13  14
ENDBRANCH  12  13
ENDBRANCH   1  12
TORSDOF 14
ENDMDL
MODEL 9
REMARK VINA RESULT:    -4.422      5.015      6.631
REMARK INTER + INTRA:          -8.947
REMARK INTER:                  -6.578
REMARK INTRA:                  -2.369
REMARK UNBOUND:                -0.906
REMARK SMILES CCCCCCCCCCCCCC[C@H](C)C(=O)[O-]
REMARK SMILES IDX 9 1 10 2 11 3 12 4 13 5 14 6 15 7 16 8 17 9 18 10 19 11 8 12
REMARK SMILES IDX 7 13 6 14 5 15 4 16 3 17 2 18 1 19
REMARK H PARENT
REMARK Flexibility Score: inf
ROOT
ATOM      1  C   UNL     1      -2.813  -3.371   7.232  1.00  0.00     0.000 C 
ENDROOT
BRANCH   1   2
ATOM      2  C   UNL     1      -1.472  -2.628   7.299  1.00  0.00     0.000 C 
BRANCH   2   3
ATOM      3  C   UNL     1      -0.520  -3.113   6.196  1.00  0.00     0.000 C 
BRANCH   3   4
ATOM      4  C   UNL     1      -0.205  -2.020   5.161  1.00  0.00     0.000 C 
BRANCH   4   5
ATOM      5  C   UNL     1       1.277  -1.607   5.173  1.00  0.00     0.001 C 
BRANCH   5   6
ATOM      6  C   UNL     1       1.588  -0.486   6.183  1.00  0.00     0.009 C 
BRANCH   6   7
ATOM      7  C   UNL     1       2.861  -0.733   7.030  1.00  0.00     0.032 C 
ATOM      8  C   UNL     1       3.828  -1.665   6.291  1.00  0.00     0.014 C 
BRANCH   7   9
ATOM      9  C   UNL     1       2.542  -1.320   8.377  1.00  0.00     0.044 C 
ATOM     10  O   UNL     1       2.186  -2.524   8.485  1.00  0.00    -0.550 OA
ATOM     11  O   UNL     1       2.670  -0.540   9.521  1.00  0.00    -0.550 OA
ENDBRANCH   7   9
ENDBRANCH   6   7
ENDBRANCH   5   6
ENDBRANCH   4   5
ENDBRANCH   3   4
ENDBRANCH   2   3
ENDBRANCH   1   2
BRANCH   1  12
ATOM     12  C   UNL     1      -3.990  -2.399   7.382  1.00  0.00     0.000 C 
BRANCH  12  13
ATOM     13  C   UNL     1      -4.803  -2.315   6.082  1.00  0.00    -0.000 C 
BRANCH  13  14
ATOM     14  C   UNL     1      -4.484  -1.054   5.264  1.00  0.00    -0.000 C 
BRANCH  14  15
ATOM     15  C   UNL     1      -3.699  -1.364   3.977  1.00  0.00    -0.000 C 
BRANCH  15  16
ATOM     16  C   UNL     1      -3.984  -2.788   3.452  1.00  0.00    -0.000 C 
BRANCH  16  17
ATOM     17  C   UNL     1      -2.723  -3.536   2.990  1.00  0.00    -0.000 C 
BRANCH  17  18
ATOM     18  C   UNL     1      -2.586  -4.926   3.628  1.00  0.00    -0.003 C 
ATOM     19  C   UNL     1      -3.895  -5.364   4.279  1.00  0.00     0.004 C 
ENDBRANCH  17  18
ENDBRANCH  16  17
ENDBRANCH  15  16
ENDBRANCH  14  15
ENDBRANCH  13  14
ENDBRANCH  12  13
ENDBRANCH   1  12
TORSDOF 14
ENDMDL
