MODEL 1
REMARK VINA RESULT:    -6.197      0.000      0.000
REMARK INTER + INTRA:          -7.552
REMARK INTER:                  -7.284
REMARK INTRA:                  -0.268
REMARK UNBOUND:                -0.268
REMARK SMILES O=c1c(O)c(-c2ccc(O)cc2)oc2cc(O)cc(O)c12
REMARK SMILES IDX 5 1 3 2 2 3 1 4 21 5 19 6 18 7 16 8 15 9 14 10 13 11 6 12
REMARK SMILES IDX 7 13 8 14 9 15 12 16 11 17 10 18 4 20 20 22 17 24
REMARK H PARENT 10 19 4 21 20 23 17 25
REMARK Flexibility Score: inf
ROOT
ATOM      1  C   UNL     1       1.792  16.464  26.182  1.00  0.00     0.180 A 
ATOM      2  C   UNL     1       1.278  17.161  25.074  1.00  0.00     0.208 A 
ATOM      3  C   UNL     1       0.445  18.270  25.293  1.00  0.00     0.238 A 
ATOM      4  O   UNL     1      -0.070  18.843  24.298  1.00  0.00    -0.285 OA
ATOM      5  C   UNL     1       0.181  18.703  26.616  1.00  0.00     0.111 A 
ATOM      6  C   UNL     1      -0.613  19.841  26.954  1.00  0.00     0.134 A 
ATOM      7  C   UNL     1      -0.894  20.111  28.299  1.00  0.00     0.093 A 
ATOM      8  C   UNL     1      -0.358  19.323  29.320  1.00  0.00     0.123 A 
ATOM      9  C   UNL     1       0.463  18.244  29.002  1.00  0.00     0.094 A 
ATOM     10  C   UNL     1       0.730  17.925  27.668  1.00  0.00     0.146 A 
ATOM     11  O   UNL     1       1.499  16.874  27.410  1.00  0.00    -0.452 OA
ENDROOT
BRANCH   1  12
ATOM     12  C   UNL     1       2.664  15.278  26.032  1.00  0.00     0.021 A 
ATOM     13  C   UNL     1       4.037  15.457  25.794  1.00  0.00     0.016 A 
ATOM     14  C   UNL     1       4.885  14.351  25.671  1.00  0.00     0.047 A 
ATOM     15  C   UNL     1       4.374  13.056  25.800  1.00  0.00     0.115 A 
ATOM     16  C   UNL     1       2.161  13.973  26.180  1.00  0.00     0.016 A 
ATOM     17  C   UNL     1       3.010  12.869  26.058  1.00  0.00     0.047 A 
BRANCH  15  18
ATOM     18  O   UNL     1       5.230  11.963  25.674  1.00  0.00    -0.508 OA
ATOM     19  H   UNL     1       5.890  11.894  24.909  1.00  0.00     0.293 HD
ENDBRANCH  15  18
ENDBRANCH   1  12
BRANCH   2  20
ATOM     20  O   UNL     1       1.613  16.765  23.777  1.00  0.00    -0.502 OA
ATOM     21  H   UNL     1       2.548  16.864  23.401  1.00  0.00     0.293 HD
ENDBRANCH   2  20
BRANCH   6  22
ATOM     22  O   UNL     1      -1.125  20.745  26.019  1.00  0.00    -0.507 OA
ATOM     23  H   UNL     1      -2.089  20.793  25.729  1.00  0.00     0.293 HD
ENDBRANCH   6  22
BRANCH   8  24
ATOM     24  O   UNL     1      -0.627  19.610  30.657  1.00  0.00    -0.508 OA
ATOM     25  H   UNL     1      -0.353  18.978  31.400  1.00  0.00     0.293 HD
ENDBRANCH   8  24
TORSDOF 5
ENDMDL
MODEL 2
REMARK VINA RESULT:    -6.124      0.095      1.061
REMARK INTER + INTRA:          -7.466
REMARK INTER:                  -7.213
REMARK INTRA:                  -0.253
REMARK UNBOUND:                -0.268
REMARK SMILES O=c1c(O)c(-c2ccc(O)cc2)oc2cc(O)cc(O)c12
REMARK SMILES IDX 5 1 3 2 2 3 1 4 21 5 19 6 18 7 16 8 15 9 14 10 13 11 6 12
REMARK SMILES IDX 7 13 8 14 9 15 12 16 11 17 10 18 4 20 20 22 17 24
REMARK H PARENT 10 19 4 21 20 23 17 25
REMARK Flexibility Score: inf
ROOT
ATOM      1  C   UNL     1       1.840  16.472  26.237  1.00  0.00     0.180 A 
ATOM      2  C   UNL     1       1.314  17.174  25.139  1.00  0.00     0.208 A 
ATOM      3  C   UNL     1       0.470  18.271  25.372  1.00  0.00     0.238 A 
ATOM      4  O   UNL     1      -0.057  18.847  24.385  1.00  0.00    -0.285 OA
ATOM      5  C   UNL     1       0.206  18.688  26.700  1.00  0.00     0.111 A 
ATOM      6  C   UNL     1      -0.599  19.814  27.053  1.00  0.00     0.134 A 
ATOM      7  C   UNL     1      -0.877  20.068  28.402  1.00  0.00     0.093 A 
ATOM      8  C   UNL     1      -0.327  19.276  29.413  1.00  0.00     0.123 A 
ATOM      9  C   UNL     1       0.504  18.210  29.080  1.00  0.00     0.094 A 
ATOM     10  C   UNL     1       0.769  17.907  27.742  1.00  0.00     0.146 A 
ATOM     11  O   UNL     1       1.549  16.867  27.471  1.00  0.00    -0.452 OA
ENDROOT
BRANCH   1  12
ATOM     12  C   UNL     1       2.725  15.297  26.072  1.00  0.00     0.021 A 
ATOM     13  C   UNL     1       2.187  14.005  26.192  1.00  0.00     0.016 A 
ATOM     14  C   UNL     1       2.999  12.880  26.018  1.00  0.00     0.047 A 
ATOM     15  C   UNL     1       4.354  13.032  25.706  1.00  0.00     0.115 A 
ATOM     16  C   UNL     1       4.084  15.442  25.738  1.00  0.00     0.016 A 
ATOM     17  C   UNL     1       4.894  14.317  25.563  1.00  0.00     0.047 A 
BRANCH  15  18
ATOM     18  O   UNL     1       5.152  11.902  25.536  1.00  0.00    -0.508 OA
ATOM     19  H   UNL     1       6.070  11.835  25.958  1.00  0.00     0.293 HD
ENDBRANCH  15  18
ENDBRANCH   1  12
BRANCH   2  20
ATOM     20  O   UNL     1       1.647  16.793  23.836  1.00  0.00    -0.502 OA
ATOM     21  H   UNL     1       2.271  16.021  23.637  1.00  0.00     0.293 HD
ENDBRANCH   2  20
BRANCH   6  22
ATOM     22  O   UNL     1      -1.125  20.721  26.128  1.00  0.00    -0.507 OA
ATOM     23  H   UNL     1      -1.037  20.642  25.127  1.00  0.00     0.293 HD
ENDBRANCH   6  22
BRANCH   8  24
ATOM     24  O   UNL     1      -0.594  19.547  30.753  1.00  0.00    -0.508 OA
ATOM     25  H   UNL     1      -0.476  20.477  31.138  1.00  0.00     0.293 HD
ENDBRANCH   8  24
TORSDOF 5
ENDMDL
MODEL 3
REMARK VINA RESULT:    -5.599      1.931      6.823
REMARK INTER + INTRA:          -6.848
REMARK INTER:                  -6.621
REMARK INTRA:                  -0.228
REMARK UNBOUND:                -0.268
REMARK SMILES O=c1c(O)c(-c2ccc(O)cc2)oc2cc(O)cc(O)c12
REMARK SMILES IDX 5 1 3 2 2 3 1 4 21 5 19 6 18 7 16 8 15 9 14 10 13 11 6 12
REMARK SMILES IDX 7 13 8 14 9 15 12 16 11 17 10 18 4 20 20 22 17 24
REMARK H PARENT 10 19 4 21 20 23 17 25
REMARK Flexibility Score: inf
ROOT
ATOM      1  C   UNL     1       1.006  16.984  26.164  1.00  0.00     0.180 A 
ATOM      2  C   UNL     1       0.238  15.841  26.447  1.00  0.00     0.208 A 
ATOM      3  C   UNL     1       0.857  14.581  26.423  1.00  0.00     0.238 A 
ATOM      4  O   UNL     1       0.147  13.558  26.604  1.00  0.00    -0.285 OA
ATOM      5  C   UNL     1       2.247  14.483  26.171  1.00  0.00     0.111 A 
ATOM      6  C   UNL     1       2.987  13.262  26.167  1.00  0.00     0.134 A 
ATOM      7  C   UNL     1       4.338  13.275  25.799  1.00  0.00     0.093 A 
ATOM      8  C   UNL     1       4.992  14.472  25.498  1.00  0.00     0.123 A 
ATOM      9  C   UNL     1       4.292  15.674  25.554  1.00  0.00     0.094 A 
ATOM     10  C   UNL     1       2.934  15.690  25.880  1.00  0.00     0.146 A 
ATOM     11  O   UNL     1       2.301  16.857  25.898  1.00  0.00    -0.452 OA
ENDROOT
BRANCH   1  12
ATOM     12  C   UNL     1       0.422  18.344  26.155  1.00  0.00     0.021 A 
ATOM     13  C   UNL     1       0.768  19.250  27.173  1.00  0.00     0.016 A 
ATOM     14  C   UNL     1       0.246  20.548  27.173  1.00  0.00     0.047 A 
ATOM     15  C   UNL     1      -0.612  20.961  26.150  1.00  0.00     0.115 A 
ATOM     16  C   UNL     1      -0.426  18.773  25.119  1.00  0.00     0.016 A 
ATOM     17  C   UNL     1      -0.945  20.071  25.120  1.00  0.00     0.047 A 
BRANCH  15  18
ATOM     18  O   UNL     1      -1.125  22.256  26.163  1.00  0.00    -0.508 OA
ATOM     19  H   UNL     1      -1.483  22.693  25.322  1.00  0.00     0.293 HD
ENDBRANCH  15  18
ENDBRANCH   1  12
BRANCH   2  20
ATOM     20  O   UNL     1      -1.117  15.966  26.769  1.00  0.00    -0.502 OA
ATOM     21  H   UNL     1      -1.682  16.744  26.452  1.00  0.00     0.293 HD
ENDBRANCH   2  20
BRANCH   6  22
ATOM     22  O   UNL     1       2.455  12.022  26.536  1.00  0.00    -0.507 OA
ATOM     23  H   UNL     1       2.210  11.756  27.476  1.00  0.00     0.293 HD
ENDBRANCH   6  22
BRANCH   8  24
ATOM     24  O   UNL     1       6.341  14.478  25.152  1.00  0.00    -0.508 OA
ATOM     25  H   UNL     1       6.645  14.293  24.202  1.00  0.00     0.293 HD
ENDBRANCH   8  24
TORSDOF 5
ENDMDL
MODEL 4
REMARK VINA RESULT:    -4.868      1.718      6.724
REMARK INTER + INTRA:          -5.990
REMARK INTER:                  -5.703
REMARK INTRA:                  -0.287
REMARK UNBOUND:                -0.268
REMARK SMILES O=c1c(O)c(-c2ccc(O)cc2)oc2cc(O)cc(O)c12
REMARK SMILES IDX 5 1 3 2 2 3 1 4 21 5 19 6 18 7 16 8 15 9 14 10 13 11 6 12
REMARK SMILES IDX 7 13 8 14 9 15 12 16 11 17 10 18 4 20 20 22 17 24
REMARK H PARENT 10 19 4 21 20 23 17 25
REMARK Flexibility Score: inf
ROOT
ATOM      1  C   UNL     1       1.958  16.268  26.379  1.00  0.00     0.180 A 
ATOM      2  C   UNL     1       3.232  16.265  25.785  1.00  0.00     0.208 A 
ATOM      3  C   UNL     1       3.957  15.063  25.732  1.00  0.00     0.238 A 
ATOM      4  O   UNL     1       5.125  15.084  25.267  1.00  0.00    -0.285 OA
ATOM      5  C   UNL     1       3.376  13.868  26.223  1.00  0.00     0.111 A 
ATOM      6  C   UNL     1       4.001  12.585  26.180  1.00  0.00     0.134 A 
ATOM      7  C   UNL     1       3.375  11.491  26.792  1.00  0.00     0.093 A 
ATOM      8  C   UNL     1       2.119  11.620  27.389  1.00  0.00     0.123 A 
ATOM      9  C   UNL     1       1.477  12.856  27.387  1.00  0.00     0.094 A 
ATOM     10  C   UNL     1       2.092  13.974  26.819  1.00  0.00     0.146 A 
ATOM     11  O   UNL     1       1.454  15.138  26.860  1.00  0.00    -0.452 OA
ENDROOT
BRANCH   1  12
ATOM     12  C   UNL     1       1.140  17.497  26.485  1.00  0.00     0.021 A 
ATOM     13  C   UNL     1       1.257  18.307  27.628  1.00  0.00     0.016 A 
ATOM     14  C   UNL     1       0.510  19.485  27.740  1.00  0.00     0.047 A 
ATOM     15  C   UNL     1      -0.347  19.875  26.706  1.00  0.00     0.115 A 
ATOM     16  C   UNL     1       0.291  17.906  25.441  1.00  0.00     0.016 A 
ATOM     17  C   UNL     1      -0.453  19.085  25.555  1.00  0.00     0.047 A 
BRANCH  15  18
ATOM     18  O   UNL     1      -1.085  21.050  26.832  1.00  0.00    -0.508 OA
ATOM     19  H   UNL     1      -0.639  21.960  26.812  1.00  0.00     0.293 HD
ENDBRANCH  15  18
ENDBRANCH   1  12
BRANCH   2  20
ATOM     20  O   UNL     1       3.756  17.439  25.238  1.00  0.00    -0.502 OA
ATOM     21  H   UNL     1       4.128  18.188  25.810  1.00  0.00     0.293 HD
ENDBRANCH   2  20
BRANCH   6  22
ATOM     22  O   UNL     1       5.213  12.325  25.533  1.00  0.00    -0.507 OA
ATOM     23  H   UNL     1       5.330  12.249  24.535  1.00  0.00     0.293 HD
ENDBRANCH   6  22
BRANCH   8  24
ATOM     24  O   UNL     1       1.496  10.523  27.979  1.00  0.00    -0.508 OA
ATOM     25  H   UNL     1       1.917  10.032  28.759  1.00  0.00     0.293 HD
ENDBRANCH   8  24
TORSDOF 5
ENDMDL
MODEL 5
REMARK VINA RESULT:    -4.714      2.806      7.473
REMARK INTER + INTRA:          -5.808
REMARK INTER:                  -5.758
REMARK INTRA:                  -0.050
REMARK UNBOUND:                -0.268
REMARK SMILES O=c1c(O)c(-c2ccc(O)cc2)oc2cc(O)cc(O)c12
REMARK SMILES IDX 5 1 3 2 2 3 1 4 21 5 19 6 18 7 16 8 15 9 14 10 13 11 6 12
REMARK SMILES IDX 7 13 8 14 9 15 12 16 11 17 10 18 4 20 20 22 17 24
REMARK H PARENT 10 19 4 21 20 23 17 25
REMARK Flexibility Score: inf
ROOT
ATOM      1  C   UNL     1       2.776  13.684  26.278  1.00  0.00     0.180 A 
ATOM      2  C   UNL     1       3.868  13.313  25.475  1.00  0.00     0.208 A 
ATOM      3  C   UNL     1       4.710  12.275  25.907  1.00  0.00     0.238 A 
ATOM      4  O   UNL     1       5.727  11.998  25.220  1.00  0.00    -0.285 OA
ATOM      5  C   UNL     1       4.417  11.584  27.108  1.00  0.00     0.111 A 
ATOM      6  C   UNL     1       5.175  10.487  27.619  1.00  0.00     0.134 A 
ATOM      7  C   UNL     1       4.855   9.950  28.872  1.00  0.00     0.093 A 
ATOM      8  C   UNL     1       3.764  10.427  29.603  1.00  0.00     0.123 A 
ATOM      9  C   UNL     1       2.985  11.460  29.087  1.00  0.00     0.094 A 
ATOM     10  C   UNL     1       3.303  12.043  27.858  1.00  0.00     0.146 A 
ATOM     11  O   UNL     1       2.546  13.040  27.416  1.00  0.00    -0.452 OA
ENDROOT
BRANCH   1  12
ATOM     12  C   UNL     1       1.853  14.778  25.897  1.00  0.00     0.021 A 
ATOM     13  C   UNL     1       0.469  14.537  25.876  1.00  0.00     0.016 A 
ATOM     14  C   UNL     1      -0.423  15.561  25.542  1.00  0.00     0.047 A 
ATOM     15  C   UNL     1       0.055  16.840  25.240  1.00  0.00     0.115 A 
ATOM     16  C   UNL     1       2.326  16.071  25.612  1.00  0.00     0.016 A 
ATOM     17  C   UNL     1       1.432  17.094  25.279  1.00  0.00     0.047 A 
BRANCH  15  18
ATOM     18  O   UNL     1      -0.845  17.850  24.907  1.00  0.00    -0.508 OA
ATOM     19  H   UNL     1      -1.824  17.651  24.738  1.00  0.00     0.293 HD
ENDBRANCH  15  18
ENDBRANCH   1  12
BRANCH   2  20
ATOM     20  O   UNL     1       4.096  13.956  24.255  1.00  0.00    -0.502 OA
ATOM     21  H   UNL     1       4.967  14.426  24.042  1.00  0.00     0.293 HD
ENDBRANCH   2  20
BRANCH   6  22
ATOM     22  O   UNL     1       6.228   9.875  26.932  1.00  0.00    -0.507 OA
ATOM     23  H   UNL     1       6.335   8.881  26.805  1.00  0.00     0.293 HD
ENDBRANCH   6  22
BRANCH   8  24
ATOM     24  O   UNL     1       3.441   9.875  30.841  1.00  0.00    -0.508 OA
ATOM     25  H   UNL     1       4.124   9.812  31.587  1.00  0.00     0.293 HD
ENDBRANCH   8  24
TORSDOF 5
ENDMDL
MODEL 6
REMARK VINA RESULT:    -4.388      1.991      7.185
REMARK INTER + INTRA:          -5.425
REMARK INTER:                  -5.139
REMARK INTRA:                  -0.286
REMARK UNBOUND:                -0.268
REMARK SMILES O=c1c(O)c(-c2ccc(O)cc2)oc2cc(O)cc(O)c12
REMARK SMILES IDX 5 1 3 2 2 3 1 4 21 5 19 6 18 7 16 8 15 9 14 10 13 11 6 12
REMARK SMILES IDX 7 13 8 14 9 15 12 16 11 17 10 18 4 20 20 22 17 24
REMARK H PARENT 10 19 4 21 20 23 17 25
REMARK Flexibility Score: inf
ROOT
ATOM      1  C   UNL     1       1.463  15.363  26.193  1.00  0.00     0.180 A 
ATOM      2  C   UNL     1       0.734  14.343  26.828  1.00  0.00     0.208 A 
ATOM      3  C   UNL     1       1.320  13.075  26.972  1.00  0.00     0.238 A 
ATOM      4  O   UNL     1       0.633  12.148  27.474  1.00  0.00    -0.285 OA
ATOM      5  C   UNL     1       2.647  12.858  26.531  1.00  0.00     0.111 A 
ATOM      6  C   UNL     1       3.357  11.626  26.668  1.00  0.00     0.134 A 
ATOM      7  C   UNL     1       4.629  11.495  26.098  1.00  0.00     0.093 A 
ATOM      8  C   UNL     1       5.245  12.571  25.453  1.00  0.00     0.123 A 
ATOM      9  C   UNL     1       4.583  13.793  25.364  1.00  0.00     0.094 A 
ATOM     10  C   UNL     1       3.297  13.944  25.888  1.00  0.00     0.146 A 
ATOM     11  O   UNL     1       2.695  15.120  25.760  1.00  0.00    -0.452 OA
ENDROOT
BRANCH   1  12
ATOM     12  C   UNL     1       0.909  16.721  25.990  1.00  0.00     0.021 A 
ATOM     13  C   UNL     1       0.118  16.982  24.858  1.00  0.00     0.016 A 
ATOM     14  C   UNL     1      -0.435  18.251  24.658  1.00  0.00     0.047 A 
ATOM     15  C   UNL     1      -0.218  19.268  25.593  1.00  0.00     0.115 A 
ATOM     16  C   UNL     1       1.106  17.743  26.936  1.00  0.00     0.016 A 
ATOM     17  C   UNL     1       0.551  19.010  26.734  1.00  0.00     0.047 A 
BRANCH  15  18
ATOM     18  O   UNL     1      -0.774  20.528  25.379  1.00  0.00    -0.508 OA
ATOM     19  H   UNL     1      -1.257  20.754  24.518  1.00  0.00     0.293 HD
ENDBRANCH  15  18
ENDBRANCH   1  12
BRANCH   2  20
ATOM     20  O   UNL     1      -0.547  14.599  27.324  1.00  0.00    -0.502 OA
ATOM     21  H   UNL     1      -1.013  13.979  27.975  1.00  0.00     0.293 HD
ENDBRANCH   2  20
BRANCH   6  22
ATOM     22  O   UNL     1       2.873  10.517  27.368  1.00  0.00    -0.507 OA
ATOM     23  H   UNL     1       1.898  10.290  27.489  1.00  0.00     0.293 HD
ENDBRANCH   6  22
BRANCH   8  24
ATOM     24  O   UNL     1       6.519  12.438  24.905  1.00  0.00    -0.508 OA
ATOM     25  H   UNL     1       7.315  12.174  25.475  1.00  0.00     0.293 HD
ENDBRANCH   8  24
TORSDOF 5
ENDMDL
MODEL 7
REMARK VINA RESULT:    -4.049      2.068      3.124
REMARK INTER + INTRA:          -5.027
REMARK INTER:                  -4.731
REMARK INTRA:                  -0.296
REMARK UNBOUND:                -0.268
REMARK SMILES O=c1c(O)c(-c2ccc(O)cc2)oc2cc(O)cc(O)c12
REMARK SMILES IDX 5 1 3 2 2 3 1 4 21 5 19 6 18 7 16 8 15 9 14 10 13 11 6 12
REMARK SMILES IDX 7 13 8 14 9 15 12 16 11 17 10 18 4 20 20 22 17 24
REMARK H PARENT 10 19 4 21 20 23 17 25
REMARK Flexibility Score: inf
ROOT
ATOM      1  C   UNL     1       0.034  18.677  26.968  1.00  0.00     0.180 A 
ATOM      2  C   UNL     1      -0.179  19.669  25.995  1.00  0.00     0.208 A 
ATOM      3  C   UNL     1      -0.544  20.961  26.407  1.00  0.00     0.238 A 
ATOM      4  O   UNL     1      -0.806  21.822  25.528  1.00  0.00    -0.285 OA
ATOM      5  C   UNL     1      -0.637  21.260  27.788  1.00  0.00     0.111 A 
ATOM      6  C   UNL     1      -0.955  22.547  28.320  1.00  0.00     0.134 A 
ATOM      7  C   UNL     1      -1.124  22.700  29.702  1.00  0.00     0.093 A 
ATOM      8  C   UNL     1      -0.923  21.629  30.576  1.00  0.00     0.123 A 
ATOM      9  C   UNL     1      -0.557  20.384  30.070  1.00  0.00     0.094 A 
ATOM     10  C   UNL     1      -0.420  20.190  28.694  1.00  0.00     0.146 A 
ATOM     11  O   UNL     1      -0.093  18.980  28.255  1.00  0.00    -0.452 OA
ENDROOT
BRANCH   1  12
ATOM     12  C   UNL     1       0.407  17.289  26.612  1.00  0.00     0.021 A 
ATOM     13  C   UNL     1       1.763  16.926  26.579  1.00  0.00     0.016 A 
ATOM     14  C   UNL     1       2.138  15.615  26.267  1.00  0.00     0.047 A 
ATOM     15  C   UNL     1       1.162  14.649  26.000  1.00  0.00     0.115 A 
ATOM     16  C   UNL     1      -0.570  16.308  26.362  1.00  0.00     0.016 A 
ATOM     17  C   UNL     1      -0.193  14.998  26.052  1.00  0.00     0.047 A 
BRANCH  15  18
ATOM     18  O   UNL     1       1.550  13.348  25.690  1.00  0.00    -0.508 OA
ATOM     19  H   UNL     1       1.100  12.824  24.949  1.00  0.00     0.293 HD
ENDBRANCH  15  18
ENDBRANCH   1  12
BRANCH   2  20
ATOM     20  O   UNL     1      -0.008  19.373  24.640  1.00  0.00    -0.502 OA
ATOM     21  H   UNL     1       0.569  18.605  24.319  1.00  0.00     0.293 HD
ENDBRANCH   2  20
BRANCH   6  22
ATOM     22  O   UNL     1      -1.091  23.703  27.545  1.00  0.00    -0.507 OA
ATOM     23  H   UNL     1      -0.496  23.953  26.771  1.00  0.00     0.293 HD
ENDBRANCH   6  22
BRANCH   8  24
ATOM     24  O   UNL     1      -1.074  21.795  31.951  1.00  0.00    -0.508 OA
ATOM     25  H   UNL     1      -1.536  21.096  32.520  1.00  0.00     0.293 HD
ENDBRANCH   8  24
TORSDOF 5
ENDMDL
