MODEL 1
REMARK VINA RESULT:    -4.446      0.000      0.000
REMARK INTER + INTRA:          -6.050
REMARK INTER:                  -5.486
REMARK INTRA:                  -0.564
REMARK UNBOUND:                -0.564
REMARK SMILES COc1ccc(-c2cc3cc(O)c(OC)cc3o2)c(O)c1
REMARK SMILES IDX 7 1 8 2 9 3 10 4 11 5 13 6 16 7 17 8 18 9 6 10 3 11 21 12
REMARK SMILES IDX 4 13 19 14 5 15 2 16 1 17 20 18 12 20 14 22 15 23
REMARK H PARENT 20 19 12 21
REMARK Flexibility Score: inf
ROOT
ATOM      1  C   UNL     1       5.660   0.268   4.184  1.00  0.00     0.139 A 
ATOM      2  C   UNL     1       6.621  -0.650   3.752  1.00  0.00     0.060 A 
ATOM      3  C   UNL     1       5.975  -1.400   2.798  1.00  0.00     0.025 A 
ATOM      4  C   UNL     1       6.423  -2.456   2.013  1.00  0.00     0.062 A 
ATOM      5  C   UNL     1       5.515  -3.032   1.099  1.00  0.00     0.158 A 
ATOM      6  C   UNL     1       4.190  -2.538   0.993  1.00  0.00     0.164 A 
ATOM      7  C   UNL     1       3.778  -1.455   1.810  1.00  0.00     0.098 A 
ATOM      8  C   UNL     1       4.701  -0.915   2.699  1.00  0.00     0.138 A 
ATOM      9  O   UNL     1       4.526   0.083   3.529  1.00  0.00    -0.456 OA
ENDROOT
BRANCH   1  10
ATOM     10  C   UNL     1       5.839   1.334   5.199  1.00  0.00     0.059 A 
ATOM     11  C   UNL     1       6.195   3.289   7.207  1.00  0.00     0.122 A 
ATOM     12  C   UNL     1       5.826   3.664   5.912  1.00  0.00     0.093 A 
ATOM     13  C   UNL     1       6.398   1.928   7.495  1.00  0.00     0.047 A 
ATOM     14  C   UNL     1       5.657   2.703   4.903  1.00  0.00     0.130 A 
ATOM     15  C   UNL     1       6.226   0.965   6.499  1.00  0.00     0.020 A 
BRANCH  11  16
ATOM     16  O   UNL     1       6.351   4.294   8.173  1.00  0.00    -0.497 OA
ATOM     17  C   UNL     1       5.275   5.003   8.777  1.00  0.00     0.278 C 
ENDBRANCH  11  16
BRANCH  14  18
ATOM     18  O   UNL     1       5.335   3.117   3.611  1.00  0.00    -0.507 OA
ATOM     19  H   UNL     1       4.435   2.909   3.194  1.00  0.00     0.293 HD
ENDBRANCH  14  18
ENDBRANCH   1  10
BRANCH   5  20
ATOM     20  O   UNL     1       5.917  -4.095   0.292  1.00  0.00    -0.504 OA
ATOM     21  H   UNL     1       6.838  -4.120  -0.128  1.00  0.00     0.293 HD
ENDBRANCH   5  20
BRANCH   6  22
ATOM     22  O   UNL     1       3.324  -3.144   0.070  1.00  0.00    -0.493 OA
ATOM     23  C   UNL     1       2.376  -2.440  -0.724  1.00  0.00     0.278 C 
ENDBRANCH   6  22
TORSDOF 5
ENDMDL
MODEL 2
REMARK VINA RESULT:    -4.268     15.489     16.564
REMARK INTER + INTRA:          -5.831
REMARK INTER:                  -5.224
REMARK INTRA:                  -0.607
REMARK UNBOUND:                -0.564
REMARK SMILES COc1ccc(-c2cc3cc(O)c(OC)cc3o2)c(O)c1
REMARK SMILES IDX 7 1 8 2 9 3 10 4 11 5 13 6 16 7 17 8 18 9 6 10 3 11 21 12
REMARK SMILES IDX 4 13 19 14 5 15 2 16 1 17 20 18 12 20 14 22 15 23
REMARK H PARENT 20 19 12 21
REMARK Flexibility Score: inf
ROOT
ATOM      1  C   UNL     1     -11.026   1.270   5.399  1.00  0.00     0.139 A 
ATOM      2  C   UNL     1      -9.977   0.347   5.363  1.00  0.00     0.060 A 
ATOM      3  C   UNL     1     -10.285  -0.483   4.310  1.00  0.00     0.025 A 
ATOM      4  C   UNL     1      -9.609  -1.580   3.789  1.00  0.00     0.062 A 
ATOM      5  C   UNL     1     -10.178  -2.239   2.678  1.00  0.00     0.158 A 
ATOM      6  C   UNL     1     -11.399  -1.784   2.120  1.00  0.00     0.164 A 
ATOM      7  C   UNL     1     -12.051  -0.658   2.681  1.00  0.00     0.098 A 
ATOM      8  C   UNL     1     -11.460  -0.036   3.776  1.00  0.00     0.138 A 
ATOM      9  O   UNL     1     -11.891   1.013   4.432  1.00  0.00    -0.456 OA
ENDROOT
BRANCH   1  10
ATOM     10  C   UNL     1     -11.181   2.407   6.337  1.00  0.00     0.059 A 
ATOM     11  C   UNL     1     -11.448   4.510   8.205  1.00  0.00     0.122 A 
ATOM     12  C   UNL     1     -11.809   4.700   6.868  1.00  0.00     0.093 A 
ATOM     13  C   UNL     1     -10.938   3.262   8.605  1.00  0.00     0.047 A 
ATOM     14  C   UNL     1     -11.671   3.667   5.929  1.00  0.00     0.130 A 
ATOM     15  C   UNL     1     -10.803   2.226   7.679  1.00  0.00     0.020 A 
BRANCH  11  16
ATOM     16  O   UNL     1     -11.607   5.580   9.098  1.00  0.00    -0.497 OA
ATOM     17  C   UNL     1     -10.548   6.420   9.542  1.00  0.00     0.278 C 
ENDBRANCH  11  16
BRANCH  14  18
ATOM     18  O   UNL     1     -11.997   3.907   4.595  1.00  0.00    -0.507 OA
ATOM     19  H   UNL     1     -11.320   4.281   3.939  1.00  0.00     0.293 HD
ENDBRANCH  14  18
ENDBRANCH   1  10
BRANCH   5  20
ATOM     20  O   UNL     1      -9.539  -3.345   2.121  1.00  0.00    -0.504 OA
ATOM     21  H   UNL     1      -9.884  -3.785   1.276  1.00  0.00     0.293 HD
ENDBRANCH   5  20
BRANCH   6  22
ATOM     22  O   UNL     1     -11.924  -2.473   1.016  1.00  0.00    -0.493 OA
ATOM     23  C   UNL     1     -12.374  -1.848  -0.181  1.00  0.00     0.278 C 
ENDBRANCH   6  22
TORSDOF 5
ENDMDL
MODEL 3
REMARK VINA RESULT:    -4.264     15.680     16.823
REMARK INTER + INTRA:          -5.825
REMARK INTER:                  -5.412
REMARK INTRA:                  -0.414
REMARK UNBOUND:                -0.564
REMARK SMILES COc1ccc(-c2cc3cc(O)c(OC)cc3o2)c(O)c1
REMARK SMILES IDX 7 1 8 2 9 3 10 4 11 5 13 6 16 7 17 8 18 9 6 10 3 11 21 12
REMARK SMILES IDX 4 13 19 14 5 15 2 16 1 17 20 18 12 20 14 22 15 23
REMARK H PARENT 20 19 12 21
REMARK Flexibility Score: inf
ROOT
ATOM      1  C   UNL     1     -10.985   0.571   5.814  1.00  0.00     0.139 A 
ATOM      2  C   UNL     1      -9.777   0.043   5.346  1.00  0.00     0.060 A 
ATOM      3  C   UNL     1      -9.986  -1.316   5.314  1.00  0.00     0.025 A 
ATOM      4  C   UNL     1      -9.148  -2.356   4.929  1.00  0.00     0.062 A 
ATOM      5  C   UNL     1      -9.654  -3.672   4.999  1.00  0.00     0.158 A 
ATOM      6  C   UNL     1     -10.977  -3.911   5.447  1.00  0.00     0.164 A 
ATOM      7  C   UNL     1     -11.798  -2.819   5.826  1.00  0.00     0.098 A 
ATOM      8  C   UNL     1     -11.264  -1.537   5.743  1.00  0.00     0.138 A 
ATOM      9  O   UNL     1     -11.851  -0.404   6.036  1.00  0.00    -0.456 OA
ENDROOT
BRANCH   1  10
ATOM     10  C   UNL     1     -11.312   2.002   6.017  1.00  0.00     0.059 A 
ATOM     11  C   UNL     1     -11.913   4.718   6.510  1.00  0.00     0.122 A 
ATOM     12  C   UNL     1     -12.134   4.162   5.247  1.00  0.00     0.093 A 
ATOM     13  C   UNL     1     -11.376   3.912   7.529  1.00  0.00     0.047 A 
ATOM     14  C   UNL     1     -11.829   2.817   4.987  1.00  0.00     0.130 A 
ATOM     15  C   UNL     1     -11.076   2.571   7.281  1.00  0.00     0.020 A 
BRANCH  11  16
ATOM     16  O   UNL     1     -12.235   6.069   6.710  1.00  0.00    -0.497 OA
ATOM     17  C   UNL     1     -11.790   7.133   5.877  1.00  0.00     0.278 C 
ENDBRANCH  11  16
BRANCH  14  18
ATOM     18  O   UNL     1     -12.019   2.309   3.703  1.00  0.00    -0.507 OA
ATOM     19  H   UNL     1     -11.455   1.547   3.342  1.00  0.00     0.293 HD
ENDBRANCH  14  18
ENDBRANCH   1  10
BRANCH   5  20
ATOM     20  O   UNL     1      -8.851  -4.748   4.626  1.00  0.00    -0.504 OA
ATOM     21  H   UNL     1      -9.200  -5.700   4.646  1.00  0.00     0.293 HD
ENDBRANCH   5  20
BRANCH   6  22
ATOM     22  O   UNL     1     -11.434  -5.236   5.499  1.00  0.00    -0.493 OA
ATOM     23  C   UNL     1     -11.456  -6.034   6.678  1.00  0.00     0.278 C 
ENDBRANCH   6  22
TORSDOF 5
ENDMDL
MODEL 4
REMARK VINA RESULT:    -4.228     14.834     16.270
REMARK INTER + INTRA:          -5.781
REMARK INTER:                  -5.200
REMARK INTRA:                  -0.581
REMARK UNBOUND:                -0.564
REMARK SMILES COc1ccc(-c2cc3cc(O)c(OC)cc3o2)c(O)c1
REMARK SMILES IDX 7 1 8 2 9 3 10 4 11 5 13 6 16 7 17 8 18 9 6 10 3 11 21 12
REMARK SMILES IDX 4 13 19 14 5 15 2 16 1 17 20 18 12 20 14 22 15 23
REMARK H PARENT 20 19 12 21
REMARK Flexibility Score: inf
ROOT
ATOM      1  C   UNL     1     -10.248  -3.648   5.349  1.00  0.00     0.139 A 
ATOM      2  C   UNL     1     -10.914  -4.576   6.155  1.00  0.00     0.060 A 
ATOM      3  C   UNL     1     -10.355  -5.786   5.818  1.00  0.00     0.025 A 
ATOM      4  C   UNL     1     -10.608  -7.068   6.293  1.00  0.00     0.062 A 
ATOM      5  C   UNL     1      -9.856  -8.133   5.752  1.00  0.00     0.158 A 
ATOM      6  C   UNL     1      -8.874  -7.888   4.759  1.00  0.00     0.164 A 
ATOM      7  C   UNL     1      -8.647  -6.564   4.308  1.00  0.00     0.098 A 
ATOM      8  C   UNL     1      -9.409  -5.542   4.864  1.00  0.00     0.138 A 
ATOM      9  O   UNL     1      -9.352  -4.261   4.595  1.00  0.00    -0.456 OA
ENDROOT
BRANCH   1  10
ATOM     10  C   UNL     1     -10.451  -2.180   5.327  1.00  0.00     0.059 A 
ATOM     11  C   UNL     1     -10.938   0.603   5.319  1.00  0.00     0.122 A 
ATOM     12  C   UNL     1      -9.740   0.093   4.811  1.00  0.00     0.093 A 
ATOM     13  C   UNL     1     -11.892  -0.285   5.845  1.00  0.00     0.047 A 
ATOM     14  C   UNL     1      -9.482  -1.286   4.820  1.00  0.00     0.130 A 
ATOM     15  C   UNL     1     -11.647  -1.659   5.851  1.00  0.00     0.020 A 
BRANCH  11  16
ATOM     16  O   UNL     1     -11.140   1.992   5.285  1.00  0.00    -0.497 OA
ATOM     17  C   UNL     1     -11.292   2.809   6.440  1.00  0.00     0.278 C 
ENDBRANCH  11  16
BRANCH  14  18
ATOM     18  O   UNL     1      -8.257  -1.755   4.348  1.00  0.00    -0.507 OA
ATOM     19  H   UNL     1      -8.138  -2.711   4.032  1.00  0.00     0.293 HD
ENDBRANCH  14  18
ENDBRANCH   1  10
BRANCH   5  20
ATOM     20  O   UNL     1     -10.074  -9.436   6.195  1.00  0.00    -0.504 OA
ATOM     21  H   UNL     1     -10.615 -10.096   5.649  1.00  0.00     0.293 HD
ENDBRANCH   5  20
BRANCH   6  22
ATOM     22  O   UNL     1      -8.152  -8.979   4.252  1.00  0.00    -0.493 OA
ATOM     23  C   UNL     1      -6.839  -8.892   3.711  1.00  0.00     0.278 C 
ENDBRANCH   6  22
TORSDOF 5
ENDMDL
MODEL 5
REMARK VINA RESULT:    -4.188     14.681     15.970
REMARK INTER + INTRA:          -5.732
REMARK INTER:                  -5.152
REMARK INTRA:                  -0.579
REMARK UNBOUND:                -0.564
REMARK SMILES COc1ccc(-c2cc3cc(O)c(OC)cc3o2)c(O)c1
REMARK SMILES IDX 7 1 8 2 9 3 10 4 11 5 13 6 16 7 17 8 18 9 6 10 3 11 21 12
REMARK SMILES IDX 4 13 19 14 5 15 2 16 1 17 20 18 12 20 14 22 15 23
REMARK H PARENT 20 19 12 21
REMARK Flexibility Score: inf
ROOT
ATOM      1  C   UNL     1     -10.370  -2.819   3.111  1.00  0.00     0.139 A 
ATOM      2  C   UNL     1     -10.828  -4.115   3.365  1.00  0.00     0.060 A 
ATOM      3  C   UNL     1     -10.529  -4.816   2.221  1.00  0.00     0.025 A 
ATOM      4  C   UNL     1     -10.739  -6.150   1.890  1.00  0.00     0.062 A 
ATOM      5  C   UNL     1     -10.309  -6.590   0.619  1.00  0.00     0.158 A 
ATOM      6  C   UNL     1      -9.682  -5.691  -0.279  1.00  0.00     0.164 A 
ATOM      7  C   UNL     1      -9.484  -4.341   0.102  1.00  0.00     0.098 A 
ATOM      8  C   UNL     1      -9.922  -3.944   1.362  1.00  0.00     0.138 A 
ATOM      9  O   UNL     1      -9.830  -2.756   1.905  1.00  0.00    -0.456 OA
ENDROOT
BRANCH   1  10
ATOM     10  C   UNL     1     -10.425  -1.659   4.031  1.00  0.00     0.059 A 
ATOM     11  C   UNL     1     -10.637   0.547   5.784  1.00  0.00     0.122 A 
ATOM     12  C   UNL     1      -9.394   0.171   5.266  1.00  0.00     0.093 A 
ATOM     13  C   UNL     1     -11.778  -0.194   5.432  1.00  0.00     0.047 A 
ATOM     14  C   UNL     1      -9.274  -0.928   4.403  1.00  0.00     0.130 A 
ATOM     15  C   UNL     1     -11.669  -1.286   4.569  1.00  0.00     0.020 A 
BRANCH  11  16
ATOM     16  O   UNL     1     -10.694   1.655   6.644  1.00  0.00    -0.497 OA
ATOM     17  C   UNL     1     -11.403   2.855   6.361  1.00  0.00     0.278 C 
ENDBRANCH  11  16
BRANCH  14  18
ATOM     18  O   UNL     1      -8.013  -1.303   3.943  1.00  0.00    -0.507 OA
ATOM     19  H   UNL     1      -7.889  -2.067   3.289  1.00  0.00     0.293 HD
ENDBRANCH  14  18
ENDBRANCH   1  10
BRANCH   5  20
ATOM     20  O   UNL     1     -10.499  -7.918   0.241  1.00  0.00    -0.504 OA
ATOM     21  H   UNL     1     -11.069  -8.163  -0.560  1.00  0.00     0.293 HD
ENDBRANCH   5  20
BRANCH   6  22
ATOM     22  O   UNL     1      -9.272  -6.177  -1.531  1.00  0.00    -0.493 OA
ATOM     23  C   UNL     1      -7.965  -6.662  -1.816  1.00  0.00     0.278 C 
ENDBRANCH   6  22
TORSDOF 5
ENDMDL
MODEL 6
REMARK VINA RESULT:    -4.066      1.288      7.742
REMARK INTER + INTRA:          -5.582
REMARK INTER:                  -5.077
REMARK INTRA:                  -0.505
REMARK UNBOUND:                -0.564
REMARK SMILES COc1ccc(-c2cc3cc(O)c(OC)cc3o2)c(O)c1
REMARK SMILES IDX 7 1 8 2 9 3 10 4 11 5 13 6 16 7 17 8 18 9 6 10 3 11 21 12
REMARK SMILES IDX 4 13 19 14 5 15 2 16 1 17 20 18 12 20 14 22 15 23
REMARK H PARENT 20 19 12 21
REMARK Flexibility Score: inf
ROOT
ATOM      1  C   UNL     1       5.485   0.865   3.945  1.00  0.00     0.139 A 
ATOM      2  C   UNL     1       5.867   0.543   5.251  1.00  0.00     0.060 A 
ATOM      3  C   UNL     1       6.046   1.760   5.866  1.00  0.00     0.025 A 
ATOM      4  C   UNL     1       6.418   2.074   7.168  1.00  0.00     0.062 A 
ATOM      5  C   UNL     1       6.513   3.439   7.516  1.00  0.00     0.158 A 
ATOM      6  C   UNL     1       6.231   4.447   6.559  1.00  0.00     0.164 A 
ATOM      7  C   UNL     1       5.850   4.079   5.244  1.00  0.00     0.098 A 
ATOM      8  C   UNL     1       5.769   2.724   4.940  1.00  0.00     0.138 A 
ATOM      9  O   UNL     1       5.432   2.178   3.798  1.00  0.00    -0.456 OA
ENDROOT
BRANCH   1  10
ATOM     10  C   UNL     1       5.145  -0.082   2.858  1.00  0.00     0.059 A 
ATOM     11  C   UNL     1       4.413  -1.923   0.842  1.00  0.00     0.122 A 
ATOM     12  C   UNL     1       5.595  -1.184   0.732  1.00  0.00     0.093 A 
ATOM     13  C   UNL     1       3.587  -1.729   1.963  1.00  0.00     0.047 A 
ATOM     14  C   UNL     1       5.964  -0.260   1.720  1.00  0.00     0.130 A 
ATOM     15  C   UNL     1       3.949  -0.816   2.955  1.00  0.00     0.020 A 
BRANCH  11  16
ATOM     16  O   UNL     1       4.096  -2.832  -0.179  1.00  0.00    -0.497 OA
ATOM     17  C   UNL     1       2.804  -2.970  -0.758  1.00  0.00     0.278 C 
ENDBRANCH  11  16
BRANCH  14  18
ATOM     18  O   UNL     1       7.125   0.493   1.554  1.00  0.00    -0.507 OA
ATOM     19  H   UNL     1       8.035   0.057   1.464  1.00  0.00     0.293 HD
ENDBRANCH  14  18
ENDBRANCH   1  10
BRANCH   5  20
ATOM     20  O   UNL     1       6.884   3.806   8.808  1.00  0.00    -0.504 OA
ATOM     21  H   UNL     1       7.371   4.675   8.992  1.00  0.00     0.293 HD
ENDBRANCH   5  20
BRANCH   6  22
ATOM     22  O   UNL     1       6.339   5.789   6.953  1.00  0.00    -0.493 OA
ATOM     23  C   UNL     1       5.232   6.619   7.292  1.00  0.00     0.278 C 
ENDBRANCH   6  22
TORSDOF 5
ENDMDL
MODEL 7
REMARK VINA RESULT:    -4.008     15.809     16.422
REMARK INTER + INTRA:          -5.510
REMARK INTER:                  -4.921
REMARK INTRA:                  -0.589
REMARK UNBOUND:                -0.564
REMARK SMILES COc1ccc(-c2cc3cc(O)c(OC)cc3o2)c(O)c1
REMARK SMILES IDX 7 1 8 2 9 3 10 4 11 5 13 6 16 7 17 8 18 9 6 10 3 11 21 12
REMARK SMILES IDX 4 13 19 14 5 15 2 16 1 17 20 18 12 20 14 22 15 23
REMARK H PARENT 20 19 12 21
REMARK Flexibility Score: inf
ROOT
ATOM      1  C   UNL     1     -10.998   0.113   4.880  1.00  0.00     0.139 A 
ATOM      2  C   UNL     1     -10.584  -1.020   5.587  1.00  0.00     0.060 A 
ATOM      3  C   UNL     1     -10.443  -1.991   4.624  1.00  0.00     0.025 A 
ATOM      4  C   UNL     1     -10.048  -3.321   4.724  1.00  0.00     0.062 A 
ATOM      5  C   UNL     1      -9.990  -4.083   3.538  1.00  0.00     0.158 A 
ATOM      6  C   UNL     1     -10.324  -3.499   2.290  1.00  0.00     0.164 A 
ATOM      7  C   UNL     1     -10.716  -2.138   2.235  1.00  0.00     0.098 A 
ATOM      8  C   UNL     1     -10.762  -1.420   3.425  1.00  0.00     0.138 A 
ATOM      9  O   UNL     1     -11.089  -0.163   3.590  1.00  0.00    -0.456 OA
ENDROOT
BRANCH   1  10
ATOM     10  C   UNL     1     -11.276   1.458   5.438  1.00  0.00     0.059 A 
ATOM     11  C   UNL     1     -11.769   3.988   6.597  1.00  0.00     0.122 A 
ATOM     12  C   UNL     1     -12.182   3.715   5.289  1.00  0.00     0.093 A 
ATOM     13  C   UNL     1     -11.095   2.991   7.324  1.00  0.00     0.047 A 
ATOM     14  C   UNL     1     -11.934   2.467   4.699  1.00  0.00     0.130 A 
ATOM     15  C   UNL     1     -10.849   1.744   6.747  1.00  0.00     0.020 A 
BRANCH  11  16
ATOM     16  O   UNL     1     -12.044   5.255   7.133  1.00  0.00    -0.497 OA
ATOM     17  C   UNL     1     -11.704   6.485   6.504  1.00  0.00     0.278 C 
ENDBRANCH  11  16
BRANCH  14  18
ATOM     18  O   UNL     1     -12.318   2.246   3.378  1.00  0.00    -0.507 OA
ATOM     19  H   UNL     1     -11.944   2.798   2.614  1.00  0.00     0.293 HD
ENDBRANCH  14  18
ENDBRANCH   1  10
BRANCH   5  20
ATOM     20  O   UNL     1      -9.602  -5.421   3.587  1.00  0.00    -0.504 OA
ATOM     21  H   UNL     1     -10.252  -6.151   3.855  1.00  0.00     0.293 HD
ENDBRANCH   5  20
BRANCH   6  22
ATOM     22  O   UNL     1     -10.251  -4.298   1.139  1.00  0.00    -0.493 OA
ATOM     23  C   UNL     1      -9.272  -4.147   0.116  1.00  0.00     0.278 C 
ENDBRANCH   6  22
TORSDOF 5
ENDMDL
MODEL 8
REMARK VINA RESULT:    -3.979      6.591      8.432
REMARK INTER + INTRA:          -5.474
REMARK INTER:                  -4.865
REMARK INTRA:                  -0.610
REMARK UNBOUND:                -0.564
REMARK SMILES COc1ccc(-c2cc3cc(O)c(OC)cc3o2)c(O)c1
REMARK SMILES IDX 7 1 8 2 9 3 10 4 11 5 13 6 16 7 17 8 18 9 6 10 3 11 21 12
REMARK SMILES IDX 4 13 19 14 5 15 2 16 1 17 20 18 12 20 14 22 15 23
REMARK H PARENT 20 19 12 21
REMARK Flexibility Score: inf
ROOT
ATOM      1  C   UNL     1       4.262   3.696   9.767  1.00  0.00     0.139 A 
ATOM      2  C   UNL     1       5.400   3.440   8.996  1.00  0.00     0.060 A 
ATOM      3  C   UNL     1       5.280   4.283   7.916  1.00  0.00     0.025 A 
ATOM      4  C   UNL     1       6.112   4.481   6.820  1.00  0.00     0.062 A 
ATOM      5  C   UNL     1       5.721   5.438   5.859  1.00  0.00     0.158 A 
ATOM      6  C   UNL     1       4.517   6.169   6.021  1.00  0.00     0.164 A 
ATOM      7  C   UNL     1       3.702   5.938   7.157  1.00  0.00     0.098 A 
ATOM      8  C   UNL     1       4.120   4.986   8.081  1.00  0.00     0.138 A 
ATOM      9  O   UNL     1       3.523   4.629   9.191  1.00  0.00    -0.456 OA
ENDROOT
BRANCH   1  10
ATOM     10  C   UNL     1       3.903   3.069  11.061  1.00  0.00     0.059 A 
ATOM     11  C   UNL     1       3.323   1.862  13.549  1.00  0.00     0.122 A 
ATOM     12  C   UNL     1       2.295   2.163  12.651  1.00  0.00     0.093 A 
ATOM     13  C   UNL     1       4.648   2.180  13.204  1.00  0.00     0.047 A 
ATOM     14  C   UNL     1       2.569   2.772  11.417  1.00  0.00     0.130 A 
ATOM     15  C   UNL     1       4.931   2.780  11.975  1.00  0.00     0.020 A 
BRANCH  11  16
ATOM     16  O   UNL     1       2.988   1.255  14.769  1.00  0.00    -0.497 OA
ATOM     17  C   UNL     1       3.656   0.122  15.312  1.00  0.00     0.278 C 
ENDBRANCH  11  16
BRANCH  14  18
ATOM     18  O   UNL     1       1.514   3.099  10.567  1.00  0.00    -0.507 OA
ATOM     19  H   UNL     1       1.076   4.013  10.588  1.00  0.00     0.293 HD
ENDBRANCH  14  18
ENDBRANCH   1  10
BRANCH   5  20
ATOM     20  O   UNL     1       6.520   5.671   4.742  1.00  0.00    -0.504 OA
ATOM     21  H   UNL     1       7.441   5.257   4.654  1.00  0.00     0.293 HD
ENDBRANCH   5  20
BRANCH   6  22
ATOM     22  O   UNL     1       4.172   7.110   5.038  1.00  0.00    -0.493 OA
ATOM     23  C   UNL     1       4.334   8.517   5.180  1.00  0.00     0.278 C 
ENDBRANCH   6  22
TORSDOF 5
ENDMDL
MODEL 9
REMARK VINA RESULT:    -3.978     15.535     17.256
REMARK INTER + INTRA:          -5.472
REMARK INTER:                  -4.892
REMARK INTRA:                  -0.580
REMARK UNBOUND:                -0.564
REMARK SMILES COc1ccc(-c2cc3cc(O)c(OC)cc3o2)c(O)c1
REMARK SMILES IDX 7 1 8 2 9 3 10 4 11 5 13 6 16 7 17 8 18 9 6 10 3 11 21 12
REMARK SMILES IDX 4 13 19 14 5 15 2 16 1 17 20 18 12 20 14 22 15 23
REMARK H PARENT 20 19 12 21
REMARK Flexibility Score: inf
ROOT
ATOM      1  C   UNL     1      -9.702  -4.874   4.389  1.00  0.00     0.139 A 
ATOM      2  C   UNL     1     -10.382  -4.405   3.261  1.00  0.00     0.060 A 
ATOM      3  C   UNL     1     -10.506  -3.052   3.474  1.00  0.00     0.025 A 
ATOM      4  C   UNL     1     -11.085  -2.058   2.693  1.00  0.00     0.062 A 
ATOM      5  C   UNL     1     -11.053  -0.733   3.180  1.00  0.00     0.158 A 
ATOM      6  C   UNL     1     -10.444  -0.440   4.427  1.00  0.00     0.164 A 
ATOM      7  C   UNL     1      -9.862  -1.485   5.187  1.00  0.00     0.098 A 
ATOM      8  C   UNL     1      -9.914  -2.777   4.674  1.00  0.00     0.138 A 
ATOM      9  O   UNL     1      -9.435  -3.872   5.209  1.00  0.00    -0.456 OA
ENDROOT
BRANCH   1  10
ATOM     10  C   UNL     1      -9.288  -6.271   4.662  1.00  0.00     0.059 A 
ATOM     11  C   UNL     1      -8.451  -8.936   5.086  1.00  0.00     0.122 A 
ATOM     12  C   UNL     1      -9.293  -8.304   6.005  1.00  0.00     0.093 A 
ATOM     13  C   UNL     1      -8.016  -8.225   3.954  1.00  0.00     0.047 A 
ATOM     14  C   UNL     1      -9.707  -6.977   5.811  1.00  0.00     0.130 A 
ATOM     15  C   UNL     1      -8.428  -6.907   3.749  1.00  0.00     0.020 A 
BRANCH  11  16
ATOM     16  O   UNL     1      -8.069 -10.263   5.334  1.00  0.00    -0.497 OA
ATOM     17  C   UNL     1      -6.864 -10.854   4.861  1.00  0.00     0.278 C 
ENDBRANCH  11  16
BRANCH  14  18
ATOM     18  O   UNL     1     -10.508  -6.363   6.772  1.00  0.00    -0.507 OA
ATOM     19  H   UNL     1     -10.921  -6.887   7.536  1.00  0.00     0.293 HD
ENDBRANCH  14  18
ENDBRANCH   1  10
BRANCH   5  20
ATOM     20  O   UNL     1     -11.621   0.298   2.435  1.00  0.00    -0.504 OA
ATOM     21  H   UNL     1     -12.603   0.533   2.520  1.00  0.00     0.293 HD
ENDBRANCH   5  20
BRANCH   6  22
ATOM     22  O   UNL     1     -10.437   0.892   4.868  1.00  0.00    -0.493 OA
ATOM     23  C   UNL     1     -11.052   1.344   6.069  1.00  0.00     0.278 C 
ENDBRANCH   6  22
TORSDOF 5
ENDMDL
