MODEL 1
REMARK VINA RESULT:    -1.575      0.000      0.000
REMARK INTER + INTRA:          -2.406
REMARK INTER:                  -2.404
REMARK INTRA:                  -0.003
REMARK UNBOUND:                -0.003
REMARK SMILES OC[C@@H]1O[C@](CO)(O[C@H]2O[C@H](CO)[C@H](O)[C@@H](O)[C@@H]2O)[C@H](O)[C@@H]1O
REMARK SMILES IDX 8 1 9 2 11 3 14 4 10 5 16 6 18 7 12 8 13 9 15 11 17 13 19 15
REMARK SMILES IDX 5 17 20 18 4 19 22 20 3 21 6 22 7 23 21 25 23 27 2 29 1 30
REMARK H PARENT 13 10 15 12 17 14 19 16 7 24 21 26 23 28 1 31
REMARK Flexibility Score: inf
ROOT
ATOM      1  O   UNL     1     -13.877 -21.340  15.612  1.00  0.00    -0.313 OA
ENDROOT
BRANCH   1   2
ATOM      2  C   UNL     1     -15.127 -21.960  15.923  1.00  0.00     0.285 C 
ATOM      3  C   UNL     1     -16.989 -21.882  17.400  1.00  0.00     0.178 C 
ATOM      4  C   UNL     1     -17.986 -22.131  16.248  1.00  0.00     0.177 C 
ATOM      5  O   UNL     1     -15.803 -21.244  16.948  1.00  0.00    -0.341 OA
ATOM      6  C   UNL     1     -17.323 -22.927  15.112  1.00  0.00     0.179 C 
ATOM      7  C   UNL     1     -16.005 -22.255  14.680  1.00  0.00     0.202 C 
BRANCH   3   8
ATOM      8  C   UNL     1     -16.695 -23.125  18.272  1.00  0.00     0.191 C 
BRANCH   8   9
ATOM      9  O   UNL     1     -15.600 -22.886  19.114  1.00  0.00    -0.394 OA
ATOM     10  H   UNL     1     -14.918 -23.573  18.896  1.00  0.00     0.210 HD
ENDBRANCH   8   9
ENDBRANCH   3   8
BRANCH   4  11
ATOM     11  O   UNL     1     -19.116 -22.813  16.728  1.00  0.00    -0.387 OA
ATOM     12  H   UNL     1     -18.872 -23.773  16.788  1.00  0.00     0.211 HD
ENDBRANCH   4  11
BRANCH   6  13
ATOM     13  O   UNL     1     -18.197 -23.060  14.016  1.00  0.00    -0.387 OA
ATOM     14  H   UNL     1     -18.747 -23.874  14.162  1.00  0.00     0.211 HD
ENDBRANCH   6  13
BRANCH   7  15
ATOM     15  O   UNL     1     -15.311 -23.122  13.822  1.00  0.00    -0.385 OA
ATOM     16  H   UNL     1     -15.699 -24.028  13.949  1.00  0.00     0.211 HD
ENDBRANCH   7  15
ENDBRANCH   1   2
BRANCH   1  17
ATOM     17  C   UNL     1     -12.652 -22.086  15.735  1.00  0.00     0.224 C 
ATOM     18  C   UNL     1     -12.616 -22.850  17.083  1.00  0.00     0.208 C 
ATOM     19  O   UNL     1     -11.611 -21.120  15.758  1.00  0.00    -0.337 OA
ATOM     20  C   UNL     1     -11.199 -22.619  17.565  1.00  0.00     0.180 C 
ATOM     21  C   UNL     1     -10.821 -21.286  16.917  1.00  0.00     0.179 C 
BRANCH  17  22
ATOM     22  C   UNL     1     -12.327 -23.030  14.534  1.00  0.00     0.225 C 
BRANCH  22  23
ATOM     23  O   UNL     1     -12.566 -22.401  13.303  1.00  0.00    -0.391 OA
ATOM     24  H   UNL     1     -11.722 -22.451  12.781  1.00  0.00     0.210 HD
ENDBRANCH  22  23
ENDBRANCH  17  22
BRANCH  18  25
ATOM     25  O   UNL     1     -13.540 -22.295  17.987  1.00  0.00    -0.385 OA
ATOM     26  H   UNL     1     -14.423 -22.293  17.531  1.00  0.00     0.211 HD
ENDBRANCH  18  25
BRANCH  20  27
ATOM     27  O   UNL     1     -11.031 -22.680  18.964  1.00  0.00    -0.387 OA
ATOM     28  H   UNL     1     -11.505 -21.921  19.388  1.00  0.00     0.211 HD
ENDBRANCH  20  27
BRANCH  21  29
ATOM     29  C   UNL     1     -10.994 -20.046  17.809  1.00  0.00     0.191 C 
BRANCH  29  30
ATOM     30  O   UNL     1      -9.874 -19.880  18.633  1.00  0.00    -0.394 OA
ATOM     31  H   UNL     1      -9.434 -19.043  18.334  1.00  0.00     0.210 HD
ENDBRANCH  29  30
ENDBRANCH  21  29
ENDBRANCH   1  17
TORSDOF 13
ENDMDL
MODEL 2
REMARK VINA RESULT:    -1.525      1.453      5.642
REMARK INTER + INTRA:          -2.330
REMARK INTER:                  -2.322
REMARK INTRA:                  -0.008
REMARK UNBOUND:                -0.003
REMARK SMILES OC[C@@H]1O[C@](CO)(O[C@H]2O[C@H](CO)[C@H](O)[C@@H](O)[C@@H]2O)[C@H](O)[C@@H]1O
REMARK SMILES IDX 8 1 9 2 11 3 14 4 10 5 16 6 18 7 12 8 13 9 15 11 17 13 19 15
REMARK SMILES IDX 5 17 20 18 4 19 22 20 3 21 6 22 7 23 21 25 23 27 2 29 1 30
REMARK H PARENT 13 10 15 12 17 14 19 16 7 24 21 26 23 28 1 31
REMARK Flexibility Score: inf
ROOT
ATOM      1  O   UNL     1     -13.659 -20.952  14.752  1.00  0.00    -0.313 OA
ENDROOT
BRANCH   1   2
ATOM      2  C   UNL     1     -12.962 -21.032  15.997  1.00  0.00     0.285 C 
ATOM      3  C   UNL     1     -12.250 -22.530  17.702  1.00  0.00     0.178 C 
ATOM      4  C   UNL     1     -10.873 -21.841  17.812  1.00  0.00     0.177 C 
ATOM      5  O   UNL     1     -12.814 -22.386  16.406  1.00  0.00    -0.341 OA
ATOM      6  C   UNL     1     -10.968 -20.360  17.407  1.00  0.00     0.179 C 
ATOM      7  C   UNL     1     -11.642 -20.220  16.029  1.00  0.00     0.202 C 
BRANCH   3   8
ATOM      8  C   UNL     1     -13.246 -22.156  18.825  1.00  0.00     0.191 C 
BRANCH   8   9
ATOM      9  O   UNL     1     -14.338 -23.035  18.825  1.00  0.00    -0.394 OA
ATOM     10  H   UNL     1     -15.140 -22.493  18.607  1.00  0.00     0.210 HD
ENDBRANCH   8   9
ENDBRANCH   3   8
BRANCH   4  11
ATOM     11  O   UNL     1     -10.379 -21.959  19.122  1.00  0.00    -0.387 OA
ATOM     12  H   UNL     1     -11.104 -21.663  19.733  1.00  0.00     0.211 HD
ENDBRANCH   4  11
BRANCH   6  13
ATOM     13  O   UNL     1      -9.695 -19.760  17.403  1.00  0.00    -0.387 OA
ATOM     14  H   UNL     1      -9.623 -19.204  16.582  1.00  0.00     0.211 HD
ENDBRANCH   6  13
BRANCH   7  15
ATOM     15  O   UNL     1     -11.930 -18.866  15.797  1.00  0.00    -0.385 OA
ATOM     16  H   UNL     1     -11.115 -18.461  15.398  1.00  0.00     0.211 HD
ENDBRANCH   7  15
ENDBRANCH   1   2
BRANCH   1  17
ATOM     17  C   UNL     1     -14.163 -22.148  14.129  1.00  0.00     0.224 C 
ATOM     18  C   UNL     1     -15.197 -21.791  13.030  1.00  0.00     0.208 C 
ATOM     19  O   UNL     1     -14.846 -22.859  15.150  1.00  0.00    -0.337 OA
ATOM     20  C   UNL     1     -16.298 -22.805  13.260  1.00  0.00     0.180 C 
ATOM     21  C   UNL     1     -16.175 -23.124  14.751  1.00  0.00     0.179 C 
BRANCH  17  22
ATOM     22  C   UNL     1     -13.070 -23.125  13.590  1.00  0.00     0.225 C 
BRANCH  22  23
ATOM     23  O   UNL     1     -12.245 -22.504  12.641  1.00  0.00    -0.391 OA
ATOM     24  H   UNL     1     -12.450 -21.532  12.667  1.00  0.00     0.210 HD
ENDBRANCH  22  23
ENDBRANCH  17  22
BRANCH  18  25
ATOM     25  O   UNL     1     -15.682 -20.485  13.218  1.00  0.00    -0.385 OA
ATOM     26  H   UNL     1     -16.615 -20.472  12.876  1.00  0.00     0.211 HD
ENDBRANCH  18  25
BRANCH  20  27
ATOM     27  O   UNL     1     -17.578 -22.398  12.833  1.00  0.00    -0.387 OA
ATOM     28  H   UNL     1     -17.509 -21.533  12.355  1.00  0.00     0.211 HD
ENDBRANCH  20  27
BRANCH  21  29
ATOM     29  C   UNL     1     -17.127 -22.344  15.673  1.00  0.00     0.191 C 
BRANCH  29  30
ATOM     30  O   UNL     1     -16.470 -21.980  16.855  1.00  0.00    -0.394 OA
ATOM     31  H   UNL     1     -16.915 -22.484  17.584  1.00  0.00     0.210 HD
ENDBRANCH  29  30
ENDBRANCH  21  29
ENDBRANCH   1  17
TORSDOF 13
ENDMDL
MODEL 3
REMARK VINA RESULT:    -1.508      1.673      5.615
REMARK INTER + INTRA:          -2.304
REMARK INTER:                  -2.374
REMARK INTRA:                   0.070
REMARK UNBOUND:                -0.003
REMARK SMILES OC[C@@H]1O[C@](CO)(O[C@H]2O[C@H](CO)[C@H](O)[C@@H](O)[C@@H]2O)[C@H](O)[C@@H]1O
REMARK SMILES IDX 8 1 9 2 11 3 14 4 10 5 16 6 18 7 12 8 13 9 15 11 17 13 19 15
REMARK SMILES IDX 5 17 20 18 4 19 22 20 3 21 6 22 7 23 21 25 23 27 2 29 1 30
REMARK H PARENT 13 10 15 12 17 14 19 16 7 24 21 26 23 28 1 31
REMARK Flexibility Score: inf
ROOT
ATOM      1  O   UNL     1     -14.722 -21.093  16.695  1.00  0.00    -0.313 OA
ENDROOT
BRANCH   1   2
ATOM      2  C   UNL     1     -13.634 -21.371  15.810  1.00  0.00     0.285 C 
ATOM      3  C   UNL     1     -11.411 -22.211  15.710  1.00  0.00     0.178 C 
ATOM      4  C   UNL     1     -11.707 -23.001  14.417  1.00  0.00     0.177 C 
ATOM      5  O   UNL     1     -12.579 -22.028  16.500  1.00  0.00    -0.341 OA
ATOM      6  C   UNL     1     -12.827 -22.326  13.607  1.00  0.00     0.179 C 
ATOM      7  C   UNL     1     -14.060 -22.076  14.497  1.00  0.00     0.202 C 
BRANCH   3   8
ATOM      8  C   UNL     1     -10.633 -20.893  15.492  1.00  0.00     0.191 C 
BRANCH   8   9
ATOM      9  O   UNL     1     -10.617 -20.132  16.669  1.00  0.00    -0.394 OA
ATOM     10  H   UNL     1      -9.665 -19.950  16.878  1.00  0.00     0.210 HD
ENDBRANCH   8   9
ENDBRANCH   3   8
BRANCH   4  11
ATOM     11  O   UNL     1     -10.541 -23.109  13.642  1.00  0.00    -0.387 OA
ATOM     12  H   UNL     1     -10.590 -23.978  13.164  1.00  0.00     0.211 HD
ENDBRANCH   4  11
BRANCH   6  13
ATOM     13  O   UNL     1     -13.172 -23.103  12.485  1.00  0.00    -0.387 OA
ATOM     14  H   UNL     1     -12.661 -22.757  11.707  1.00  0.00     0.211 HD
ENDBRANCH   6  13
BRANCH   7  15
ATOM     15  O   UNL     1     -14.963 -21.253  13.805  1.00  0.00    -0.385 OA
ATOM     16  H   UNL     1     -15.436 -20.706  14.486  1.00  0.00     0.211 HD
ENDBRANCH   7  15
ENDBRANCH   1   2
BRANCH   1  17
ATOM     17  C   UNL     1     -15.237 -22.128  17.552  1.00  0.00     0.224 C 
ATOM     18  C   UNL     1     -16.401 -22.878  16.857  1.00  0.00     0.208 C 
ATOM     19  O   UNL     1     -15.770 -21.462  18.687  1.00  0.00    -0.337 OA
ATOM     20  C   UNL     1     -17.423 -23.020  17.965  1.00  0.00     0.180 C 
ATOM     21  C   UNL     1     -17.120 -21.828  18.874  1.00  0.00     0.179 C 
BRANCH  17  22
ATOM     22  C   UNL     1     -14.167 -23.122  18.108  1.00  0.00     0.225 C 
BRANCH  22  23
ATOM     23  O   UNL     1     -13.380 -22.528  19.106  1.00  0.00    -0.391 OA
ATOM     24  H   UNL     1     -13.835 -21.687  19.374  1.00  0.00     0.210 HD
ENDBRANCH  22  23
ENDBRANCH  17  22
BRANCH  18  25
ATOM     25  O   UNL     1     -16.921 -22.107  15.802  1.00  0.00    -0.385 OA
ATOM     26  H   UNL     1     -17.099 -21.201  16.168  1.00  0.00     0.211 HD
ENDBRANCH  18  25
BRANCH  20  27
ATOM     27  O   UNL     1     -18.760 -23.125  17.530  1.00  0.00    -0.387 OA
ATOM     28  H   UNL     1     -18.778 -23.396  16.577  1.00  0.00     0.211 HD
ENDBRANCH  20  27
BRANCH  21  29
ATOM     29  C   UNL     1     -17.999 -20.586  18.647  1.00  0.00     0.191 C 
BRANCH  29  30
ATOM     30  O   UNL     1     -19.351 -20.909  18.826  1.00  0.00    -0.394 OA
ATOM     31  H   UNL     1     -19.725 -21.039  17.916  1.00  0.00     0.210 HD
ENDBRANCH  29  30
ENDBRANCH  21  29
ENDBRANCH   1  17
TORSDOF 13
ENDMDL
MODEL 4
REMARK VINA RESULT:    -0.910      2.253      4.633
REMARK INTER + INTRA:          -1.391
REMARK INTER:                  -2.205
REMARK INTRA:                   0.814
REMARK UNBOUND:                -0.003
REMARK SMILES OC[C@@H]1O[C@](CO)(O[C@H]2O[C@H](CO)[C@H](O)[C@@H](O)[C@@H]2O)[C@H](O)[C@@H]1O
REMARK SMILES IDX 8 1 9 2 11 3 14 4 10 5 16 6 18 7 12 8 13 9 15 11 17 13 19 15
REMARK SMILES IDX 5 17 20 18 4 19 22 20 3 21 6 22 7 23 21 25 23 27 2 29 1 30
REMARK H PARENT 13 10 15 12 17 14 19 16 7 24 21 26 23 28 1 31
REMARK Flexibility Score: inf
ROOT
ATOM      1  O   UNL     1     -12.674 -23.112  17.137  1.00  0.00    -0.313 OA
ENDROOT
BRANCH   1   2
ATOM      2  C   UNL     1     -12.665 -22.715  15.764  1.00  0.00     0.285 C 
ATOM      3  C   UNL     1     -11.327 -22.644  13.799  1.00  0.00     0.178 C 
ATOM      4  C   UNL     1     -12.512 -23.073  12.908  1.00  0.00     0.177 C 
ATOM      5  O   UNL     1     -11.461 -23.125  15.129  1.00  0.00    -0.341 OA
ATOM      6  C   UNL     1     -13.850 -22.636  13.527  1.00  0.00     0.179 C 
ATOM      7  C   UNL     1     -13.948 -23.110  14.989  1.00  0.00     0.202 C 
BRANCH   3   8
ATOM      8  C   UNL     1     -11.002 -21.133  13.747  1.00  0.00     0.191 C 
BRANCH   8   9
ATOM      9  O   UNL     1     -10.029 -20.874  12.772  1.00  0.00    -0.394 OA
ATOM     10  H   UNL     1     -10.324 -21.337  11.945  1.00  0.00     0.210 HD
ENDBRANCH   8   9
ENDBRANCH   3   8
BRANCH   4  11
ATOM     11  O   UNL     1     -12.368 -22.530  11.621  1.00  0.00    -0.387 OA
ATOM     12  H   UNL     1     -12.163 -23.285  11.009  1.00  0.00     0.211 HD
ENDBRANCH   4  11
BRANCH   6  13
ATOM     13  O   UNL     1     -14.934 -23.121  12.772  1.00  0.00    -0.387 OA
ATOM     14  H   UNL     1     -14.569 -23.706  12.057  1.00  0.00     0.211 HD
ENDBRANCH   6  13
BRANCH   7  15
ATOM     15  O   UNL     1     -15.057 -22.498  15.595  1.00  0.00    -0.385 OA
ATOM     16  H   UNL     1     -15.074 -22.800  16.541  1.00  0.00     0.211 HD
ENDBRANCH   7  15
ENDBRANCH   1   2
BRANCH   1  17
ATOM     17  C   UNL     1     -13.035 -22.166  18.159  1.00  0.00     0.224 C 
ATOM     18  C   UNL     1     -13.276 -20.765  17.540  1.00  0.00     0.208 C 
ATOM     19  O   UNL     1     -11.907 -22.071  19.016  1.00  0.00    -0.337 OA
ATOM     20  C   UNL     1     -12.581 -19.839  18.517  1.00  0.00     0.180 C 
ATOM     21  C   UNL     1     -11.492 -20.726  19.125  1.00  0.00     0.179 C 
BRANCH  17  22
ATOM     22  C   UNL     1     -14.226 -22.599  19.073  1.00  0.00     0.225 C 
BRANCH  22  23
ATOM     23  O   UNL     1     -15.464 -22.318  18.475  1.00  0.00    -0.391 OA
ATOM     24  H   UNL     1     -15.934 -21.674  19.067  1.00  0.00     0.210 HD
ENDBRANCH  22  23
ENDBRANCH  17  22
BRANCH  18  25
ATOM     25  O   UNL     1     -12.678 -20.680  16.270  1.00  0.00    -0.385 OA
ATOM     26  H   UNL     1     -11.781 -21.100  16.345  1.00  0.00     0.211 HD
ENDBRANCH  18  25
BRANCH  20  27
ATOM     27  O   UNL     1     -12.131 -18.623  17.964  1.00  0.00    -0.387 OA
ATOM     28  H   UNL     1     -11.943 -17.977  18.691  1.00  0.00     0.211 HD
ENDBRANCH  20  27
BRANCH  21  29
ATOM     29  C   UNL     1     -10.099 -20.590  18.487  1.00  0.00     0.191 C 
BRANCH  29  30
ATOM     30  O   UNL     1     -10.217 -20.301  17.121  1.00  0.00    -0.394 OA
ATOM     31  H   UNL     1     -10.116 -21.166  16.647  1.00  0.00     0.210 HD
ENDBRANCH  29  30
ENDBRANCH  21  29
ENDBRANCH   1  17
TORSDOF 13
ENDMDL
MODEL 5
REMARK VINA RESULT:    -0.214      1.764      3.532
REMARK INTER + INTRA:          -0.329
REMARK INTER:                   1.181
REMARK INTRA:                  -1.510
REMARK UNBOUND:                -0.003
REMARK SMILES OC[C@@H]1O[C@](CO)(O[C@H]2O[C@H](CO)[C@H](O)[C@@H](O)[C@@H]2O)[C@H](O)[C@@H]1O
REMARK SMILES IDX 8 1 9 2 11 3 14 4 10 5 16 6 18 7 12 8 13 9 15 11 17 13 19 15
REMARK SMILES IDX 5 17 20 18 4 19 22 20 3 21 6 22 7 23 21 25 23 27 2 29 1 30
REMARK H PARENT 13 10 15 12 17 14 19 16 7 24 21 26 23 28 1 31
REMARK Flexibility Score: inf
ROOT
ATOM      1  O   UNL     1     -12.011 -20.483  16.287  1.00  0.00    -0.313 OA
ENDROOT
BRANCH   1   2
ATOM      2  C   UNL     1     -12.952 -21.379  15.691  1.00  0.00     0.285 C 
ATOM      3  C   UNL     1     -15.272 -21.845  15.460  1.00  0.00     0.178 C 
ATOM      4  C   UNL     1     -15.114 -22.176  13.960  1.00  0.00     0.177 C 
ATOM      5  O   UNL     1     -14.283 -20.929  15.909  1.00  0.00    -0.341 OA
ATOM      6  C   UNL     1     -13.698 -22.695  13.659  1.00  0.00     0.179 C 
ATOM      7  C   UNL     1     -12.639 -21.722  14.212  1.00  0.00     0.202 C 
BRANCH   3   8
ATOM      8  C   UNL     1     -15.394 -23.082  16.379  1.00  0.00     0.191 C 
BRANCH   8   9
ATOM      9  O   UNL     1     -15.503 -22.688  17.720  1.00  0.00    -0.394 OA
ATOM     10  H   UNL     1     -15.274 -23.481  18.270  1.00  0.00     0.210 HD
ENDBRANCH   8   9
ENDBRANCH   3   8
BRANCH   4  11
ATOM     11  O   UNL     1     -16.075 -23.125  13.573  1.00  0.00    -0.387 OA
ATOM     12  H   UNL     1     -16.950 -22.657  13.545  1.00  0.00     0.211 HD
ENDBRANCH   4  11
BRANCH   6  13
ATOM     13  O   UNL     1     -13.520 -22.893  12.277  1.00  0.00    -0.387 OA
ATOM     14  H   UNL     1     -12.545 -22.961  12.103  1.00  0.00     0.211 HD
ENDBRANCH   6  13
BRANCH   7  15
ATOM     15  O   UNL     1     -11.377 -22.331  14.138  1.00  0.00    -0.385 OA
ATOM     16  H   UNL     1     -10.990 -22.307  15.053  1.00  0.00     0.211 HD
ENDBRANCH   7  15
ENDBRANCH   1   2
BRANCH   1  17
ATOM     17  C   UNL     1     -11.773 -20.526  17.706  1.00  0.00     0.224 C 
ATOM     18  C   UNL     1     -10.398 -19.895  18.044  1.00  0.00     0.208 C 
ATOM     19  O   UNL     1     -11.712 -21.903  18.047  1.00  0.00    -0.337 OA
ATOM     20  C   UNL     1      -9.826 -20.857  19.064  1.00  0.00     0.180 C 
ATOM     21  C   UNL     1     -10.495 -22.186  18.706  1.00  0.00     0.179 C 
BRANCH  17  22
ATOM     22  C   UNL     1     -12.912 -19.920  18.587  1.00  0.00     0.225 C 
BRANCH  22  23
ATOM     23  O   UNL     1     -13.930 -20.856  18.829  1.00  0.00    -0.391 OA
ATOM     24  H   UNL     1     -14.205 -20.749  19.778  1.00  0.00     0.210 HD
ENDBRANCH  22  23
ENDBRANCH  17  22
BRANCH  18  25
ATOM     25  O   UNL     1      -9.584 -19.848  16.898  1.00  0.00    -0.385 OA
ATOM     26  H   UNL     1      -8.937 -19.107  17.034  1.00  0.00     0.211 HD
ENDBRANCH  18  25
BRANCH  20  27
ATOM     27  O   UNL     1      -8.417 -20.888  19.125  1.00  0.00    -0.387 OA
ATOM     28  H   UNL     1      -8.131 -21.386  19.932  1.00  0.00     0.211 HD
ENDBRANCH  20  27
BRANCH  21  29
ATOM     29  C   UNL     1      -9.664 -23.123  17.814  1.00  0.00     0.191 C 
BRANCH  29  30
ATOM     30  O   UNL     1     -10.047 -22.986  16.474  1.00  0.00    -0.394 OA
ATOM     31  H   UNL     1      -9.460 -22.285  16.090  1.00  0.00     0.210 HD
ENDBRANCH  29  30
ENDBRANCH  21  29
ENDBRANCH   1  17
TORSDOF 13
ENDMDL
MODEL 6
REMARK VINA RESULT:     0.968      1.872      3.696
REMARK INTER + INTRA:           1.474
REMARK INTER:                   2.568
REMARK INTRA:                  -1.094
REMARK UNBOUND:                -0.003
REMARK SMILES OC[C@@H]1O[C@](CO)(O[C@H]2O[C@H](CO)[C@H](O)[C@@H](O)[C@@H]2O)[C@H](O)[C@@H]1O
REMARK SMILES IDX 8 1 9 2 11 3 14 4 10 5 16 6 18 7 12 8 13 9 15 11 17 13 19 15
REMARK SMILES IDX 5 17 20 18 4 19 22 20 3 21 6 22 7 23 21 25 23 27 2 29 1 30
REMARK H PARENT 13 10 15 12 17 14 19 16 7 24 21 26 23 28 1 31
REMARK Flexibility Score: inf
ROOT
ATOM      1  O   UNL     1     -11.594 -21.688  16.074  1.00  0.00    -0.313 OA
ENDROOT
BRANCH   1   2
ATOM      2  C   UNL     1     -12.595 -22.112  15.147  1.00  0.00     0.285 C 
ATOM      3  C   UNL     1     -14.866 -21.809  14.507  1.00  0.00     0.178 C 
ATOM      4  C   UNL     1     -14.505 -21.836  13.006  1.00  0.00     0.177 C 
ATOM      5  O   UNL     1     -13.784 -21.348  15.305  1.00  0.00    -0.341 OA
ATOM      6  C   UNL     1     -13.238 -22.672  12.762  1.00  0.00     0.179 C 
ATOM      7  C   UNL     1     -12.096 -22.200  13.682  1.00  0.00     0.202 C 
BRANCH   3   8
ATOM      8  C   UNL     1     -15.477 -23.125  15.043  1.00  0.00     0.191 C 
BRANCH   8   9
ATOM      9  O   UNL     1     -16.220 -22.882  16.207  1.00  0.00    -0.394 OA
ATOM     10  H   UNL     1     -16.704 -22.028  16.063  1.00  0.00     0.210 HD
ENDBRANCH   8   9
ENDBRANCH   3   8
BRANCH   4  11
ATOM     11  O   UNL     1     -15.581 -22.350  12.262  1.00  0.00    -0.387 OA
ATOM     12  H   UNL     1     -15.617 -23.326  12.442  1.00  0.00     0.211 HD
ENDBRANCH   4  11
BRANCH   6  13
ATOM     13  O   UNL     1     -12.848 -22.607  11.411  1.00  0.00    -0.387 OA
ATOM     14  H   UNL     1     -13.215 -23.406  10.949  1.00  0.00     0.211 HD
ENDBRANCH   6  13
BRANCH   7  15
ATOM     15  O   UNL     1     -11.041 -23.124  13.611  1.00  0.00    -0.385 OA
ATOM     16  H   UNL     1     -10.218 -22.608  13.403  1.00  0.00     0.211 HD
ENDBRANCH   7  15
ENDBRANCH   1   2
BRANCH   1  17
ATOM     17  C   UNL     1     -11.923 -21.517  17.465  1.00  0.00     0.224 C 
ATOM     18  C   UNL     1     -12.562 -20.126  17.704  1.00  0.00     0.208 C 
ATOM     19  O   UNL     1     -10.687 -21.551  18.163  1.00  0.00    -0.337 OA
ATOM     20  C   UNL     1     -11.885 -19.656  18.974  1.00  0.00     0.180 C 
ATOM     21  C   UNL     1     -10.539 -20.383  18.943  1.00  0.00     0.179 C 
BRANCH  17  22
ATOM     22  C   UNL     1     -12.791 -22.659  18.085  1.00  0.00     0.225 C 
BRANCH  22  23
ATOM     23  O   UNL     1     -14.136 -22.277  18.204  1.00  0.00    -0.391 OA
ATOM     24  H   UNL     1     -14.409 -21.894  17.329  1.00  0.00     0.210 HD
ENDBRANCH  22  23
ENDBRANCH  17  22
BRANCH  18  25
ATOM     25  O   UNL     1     -12.264 -19.259  16.637  1.00  0.00    -0.385 OA
ATOM     26  H   UNL     1     -11.950 -18.406  17.037  1.00  0.00     0.211 HD
ENDBRANCH  18  25
BRANCH  20  27
ATOM     27  O   UNL     1     -11.811 -18.256  19.125  1.00  0.00    -0.387 OA
ATOM     28  H   UNL     1     -11.754 -18.028  20.087  1.00  0.00     0.211 HD
ENDBRANCH  20  27
BRANCH  21  29
ATOM     29  C   UNL     1      -9.362 -19.567  18.384  1.00  0.00     0.191 C 
BRANCH  29  30
ATOM     30  O   UNL     1      -9.534 -19.344  17.012  1.00  0.00    -0.394 OA
ATOM     31  H   UNL     1     -10.064 -18.510  16.933  1.00  0.00     0.210 HD
ENDBRANCH  29  30
ENDBRANCH  21  29
ENDBRANCH   1  17
TORSDOF 13
ENDMDL
