MODEL 1
REMARK VINA RESULT:    -4.146      0.000      0.000
REMARK INTER + INTRA:          -5.093
REMARK INTER:                  -4.994
REMARK INTRA:                  -0.098
REMARK UNBOUND:                -0.098
REMARK SMILES CC[C@H](C)[C@H]([NH3+])C(=O)[O-]
REMARK SMILES IDX 3 1 4 2 5 3 6 4 7 8 8 9 9 10 2 11 1 12
REMARK H PARENT 6 5 6 6 6 7
REMARK Flexibility Score: inf
ROOT
ATOM      1  C   UNL     1     -19.077  -3.355 -12.901  1.00  0.00     0.050 C 
ATOM      2  C   UNL     1     -18.701  -4.440 -13.925  1.00  0.00     0.014 C 
ENDROOT
BRANCH   1   3
ATOM      3  C   UNL     1     -18.385  -3.568 -11.513  1.00  0.00     0.230 C 
BRANCH   3   4
ATOM      4  N   UNL     1     -19.291  -3.403 -10.365  1.00  0.00    -0.350 N 
ATOM      5  H   UNL     1     -18.819  -2.948  -9.555  1.00  0.00     0.345 HD
ATOM      6  H   UNL     1     -19.648  -4.338 -10.060  1.00  0.00     0.345 HD
ATOM      7  H   UNL     1     -20.123  -2.834 -10.641  1.00  0.00     0.345 HD
ENDBRANCH   3   4
BRANCH   3   8
ATOM      8  C   UNL     1     -17.153  -2.711 -11.363  1.00  0.00     0.099 C 
ATOM      9  O   UNL     1     -17.139  -1.543 -11.834  1.00  0.00    -0.544 OA
ATOM     10  O   UNL     1     -16.041  -3.179 -10.670  1.00  0.00    -0.544 OA
ENDBRANCH   3   8
ENDBRANCH   1   3
BRANCH   1  11
ATOM     11  C   UNL     1     -20.604  -3.071 -12.887  1.00  0.00     0.006 C 
ATOM     12  C   UNL     1     -21.015  -1.598 -12.841  1.00  0.00     0.004 C 
ENDBRANCH   1  11
TORSDOF 4
ENDMDL
MODEL 2
REMARK VINA RESULT:    -4.108      3.103      4.077
REMARK INTER + INTRA:          -5.046
REMARK INTER:                  -4.980
REMARK INTRA:                  -0.066
REMARK UNBOUND:                -0.098
REMARK SMILES CC[C@H](C)[C@H]([NH3+])C(=O)[O-]
REMARK SMILES IDX 3 1 4 2 5 3 6 4 7 8 8 9 9 10 2 11 1 12
REMARK H PARENT 6 5 6 6 6 7
REMARK Flexibility Score: inf
ROOT
ATOM      1  C   UNL     1     -19.449  -2.660 -12.889  1.00  0.00     0.050 C 
ATOM      2  C   UNL     1     -18.083  -2.401 -12.230  1.00  0.00     0.014 C 
ENDROOT
BRANCH   1   3
ATOM      3  C   UNL     1     -20.639  -2.055 -12.071  1.00  0.00     0.230 C 
BRANCH   3   4
ATOM      4  N   UNL     1     -21.032  -2.863 -10.905  1.00  0.00    -0.350 N 
ATOM      5  H   UNL     1     -22.060  -2.838 -10.740  1.00  0.00     0.345 HD
ATOM      6  H   UNL     1     -20.548  -2.507 -10.049  1.00  0.00     0.345 HD
ATOM      7  H   UNL     1     -20.731  -3.856 -11.036  1.00  0.00     0.345 HD
ENDBRANCH   3   4
BRANCH   3   8
ATOM      8  C   UNL     1     -21.827  -1.752 -12.950  1.00  0.00     0.099 C 
ATOM      9  O   UNL     1     -22.840  -2.499 -12.916  1.00  0.00    -0.544 OA
ATOM     10  O   UNL     1     -21.836  -0.628 -13.769  1.00  0.00    -0.544 OA
ENDBRANCH   3   8
ENDBRANCH   1   3
BRANCH   1  11
ATOM     11  C   UNL     1     -19.599  -4.133 -13.359  1.00  0.00     0.006 C 
ATOM     12  C   UNL     1     -18.380  -4.747 -14.051  1.00  0.00     0.004 C 
ENDBRANCH   1  11
TORSDOF 4
ENDMDL
MODEL 3
REMARK VINA RESULT:    -4.080      0.601      2.303
REMARK INTER + INTRA:          -5.014
REMARK INTER:                  -4.952
REMARK INTRA:                  -0.062
REMARK UNBOUND:                -0.098
REMARK SMILES CC[C@H](C)[C@H]([NH3+])C(=O)[O-]
REMARK SMILES IDX 3 1 4 2 5 3 6 4 7 8 8 9 9 10 2 11 1 12
REMARK H PARENT 6 5 6 6 6 7
REMARK Flexibility Score: inf
ROOT
ATOM      1  C   UNL     1     -19.506  -3.529 -12.649  1.00  0.00     0.050 C 
ATOM      2  C   UNL     1     -20.395  -2.274 -12.699  1.00  0.00     0.014 C 
ENDROOT
BRANCH   1   3
ATOM      3  C   UNL     1     -18.665  -3.622 -11.332  1.00  0.00     0.230 C 
BRANCH   3   4
ATOM      4  N   UNL     1     -19.391  -3.183 -10.129  1.00  0.00    -0.350 N 
ATOM      5  H   UNL     1     -19.260  -3.838  -9.331  1.00  0.00     0.345 HD
ATOM      6  H   UNL     1     -20.413  -3.114 -10.339  1.00  0.00     0.345 HD
ATOM      7  H   UNL     1     -19.073  -2.228  -9.844  1.00  0.00     0.345 HD
ENDBRANCH   3   4
BRANCH   3   8
ATOM      8  C   UNL     1     -17.341  -2.910 -11.460  1.00  0.00     0.099 C 
ATOM      9  O   UNL     1     -16.267  -3.549 -11.307  1.00  0.00    -0.544 OA
ATOM     10  O   UNL     1     -17.289  -1.560 -11.790  1.00  0.00    -0.544 OA
ENDBRANCH   3   8
ENDBRANCH   1   3
BRANCH   1  11
ATOM     11  C   UNL     1     -18.746  -3.758 -13.985  1.00  0.00     0.006 C 
ATOM     12  C   UNL     1     -18.247  -5.182 -14.240  1.00  0.00     0.004 C 
ENDBRANCH   1  11
TORSDOF 4
ENDMDL
MODEL 4
REMARK VINA RESULT:    -3.964      4.054      5.256
REMARK INTER + INTRA:          -4.874
REMARK INTER:                  -4.787
REMARK INTRA:                  -0.087
REMARK UNBOUND:                -0.098
REMARK SMILES CC[C@H](C)[C@H]([NH3+])C(=O)[O-]
REMARK SMILES IDX 3 1 4 2 5 3 6 4 7 8 8 9 9 10 2 11 1 12
REMARK H PARENT 6 5 6 6 6 7
REMARK Flexibility Score: inf
ROOT
ATOM      1  C   UNL     1     -21.704  -1.869 -12.451  1.00  0.00     0.050 C 
ATOM      2  C   UNL     1     -22.036  -0.975 -13.658  1.00  0.00     0.014 C 
ENDROOT
BRANCH   1   3
ATOM      3  C   UNL     1     -22.355  -1.358 -11.122  1.00  0.00     0.230 C 
BRANCH   3   4
ATOM      4  N   UNL     1     -21.652  -1.799  -9.906  1.00  0.00    -0.350 N 
ATOM      5  H   UNL     1     -20.669  -2.082 -10.103  1.00  0.00     0.345 HD
ATOM      6  H   UNL     1     -22.155  -2.613  -9.483  1.00  0.00     0.345 HD
ATOM      7  H   UNL     1     -21.652  -1.036  -9.192  1.00  0.00     0.345 HD
ENDBRANCH   3   4
BRANCH   3   8
ATOM      8  C   UNL     1     -23.825  -1.689 -11.053  1.00  0.00     0.099 C 
ATOM      9  O   UNL     1     -24.194  -2.890 -10.954  1.00  0.00    -0.544 OA
ATOM     10  O   UNL     1     -24.782  -0.681 -11.053  1.00  0.00    -0.544 OA
ENDBRANCH   3   8
ENDBRANCH   1   3
BRANCH   1  11
ATOM     11  C   UNL     1     -20.196  -2.238 -12.396  1.00  0.00     0.006 C 
ATOM     12  C   UNL     1     -19.750  -3.384 -13.307  1.00  0.00     0.004 C 
ENDBRANCH   1  11
TORSDOF 4
ENDMDL
MODEL 5
REMARK VINA RESULT:    -3.849      1.957      3.105
REMARK INTER + INTRA:          -4.735
REMARK INTER:                  -4.633
REMARK INTRA:                  -0.102
REMARK UNBOUND:                -0.098
REMARK SMILES CC[C@H](C)[C@H]([NH3+])C(=O)[O-]
REMARK SMILES IDX 3 1 4 2 5 3 6 4 7 8 8 9 9 10 2 11 1 12
REMARK H PARENT 6 5 6 6 6 7
REMARK Flexibility Score: inf
ROOT
ATOM      1  C   UNL     1     -21.441  -1.485 -12.106  1.00  0.00     0.050 C 
ATOM      2  C   UNL     1     -21.782  -1.111 -13.558  1.00  0.00     0.014 C 
ENDROOT
BRANCH   1   3
ATOM      3  C   UNL     1     -20.614  -2.811 -12.000  1.00  0.00     0.230 C 
BRANCH   3   4
ATOM      4  N   UNL     1     -20.396  -3.268 -10.618  1.00  0.00    -0.350 N 
ATOM      5  H   UNL     1     -19.833  -4.143 -10.579  1.00  0.00     0.345 HD
ATOM      6  H   UNL     1     -21.316  -3.442 -10.154  1.00  0.00     0.345 HD
ATOM      7  H   UNL     1     -19.911  -2.525 -10.065  1.00  0.00     0.345 HD
ENDBRANCH   3   4
BRANCH   3   8
ATOM      8  C   UNL     1     -19.313  -2.723 -12.758  1.00  0.00     0.099 C 
ATOM      9  O   UNL     1     -18.366  -2.030 -12.302  1.00  0.00    -0.544 OA
ATOM     10  O   UNL     1     -19.128  -3.435 -13.938  1.00  0.00    -0.544 OA
ENDBRANCH   3   8
ENDBRANCH   1   3
BRANCH   1  11
ATOM     11  C   UNL     1     -22.669  -1.348 -11.165  1.00  0.00     0.006 C 
ATOM     12  C   UNL     1     -24.025  -1.721 -11.769  1.00  0.00     0.004 C 
ENDBRANCH   1  11
TORSDOF 4
ENDMDL
MODEL 6
REMARK VINA RESULT:    -3.615      2.273      2.733
REMARK INTER + INTRA:          -4.453
REMARK INTER:                  -4.314
REMARK INTRA:                  -0.139
REMARK UNBOUND:                -0.098
REMARK SMILES CC[C@H](C)[C@H]([NH3+])C(=O)[O-]
REMARK SMILES IDX 3 1 4 2 5 3 6 4 7 8 8 9 9 10 2 11 1 12
REMARK H PARENT 6 5 6 6 6 7
REMARK Flexibility Score: inf
ROOT
ATOM      1  C   UNL     1     -19.834  -3.416 -11.449  1.00  0.00     0.050 C 
ATOM      2  C   UNL     1     -19.855  -3.773  -9.953  1.00  0.00     0.014 C 
ENDROOT
BRANCH   1   3
ATOM      3  C   UNL     1     -18.387  -3.401 -12.047  1.00  0.00     0.230 C 
BRANCH   3   4
ATOM      4  N   UNL     1     -17.793  -2.057 -12.133  1.00  0.00    -0.350 N 
ATOM      5  H   UNL     1     -16.973  -1.949 -11.499  1.00  0.00     0.345 HD
ATOM      6  H   UNL     1     -18.508  -1.337 -11.879  1.00  0.00     0.345 HD
ATOM      7  H   UNL     1     -17.494  -1.856 -13.115  1.00  0.00     0.345 HD
ENDBRANCH   3   4
BRANCH   3   8
ATOM      8  C   UNL     1     -18.321  -4.112 -13.375  1.00  0.00     0.099 C 
ATOM      9  O   UNL     1     -18.762  -3.550 -14.412  1.00  0.00    -0.544 OA
ATOM     10  O   UNL     1     -17.737  -5.370 -13.480  1.00  0.00    -0.544 OA
ENDBRANCH   3   8
ENDBRANCH   1   3
BRANCH   1  11
ATOM     11  C   UNL     1     -20.738  -2.193 -11.768  1.00  0.00     0.006 C 
ATOM     12  C   UNL     1     -21.769  -2.391 -12.881  1.00  0.00     0.004 C 
ENDBRANCH   1  11
TORSDOF 4
ENDMDL
MODEL 7
REMARK VINA RESULT:    -3.605      3.292      4.633
REMARK INTER + INTRA:          -4.441
REMARK INTER:                  -4.392
REMARK INTRA:                  -0.049
REMARK UNBOUND:                -0.098
REMARK SMILES CC[C@H](C)[C@H]([NH3+])C(=O)[O-]
REMARK SMILES IDX 3 1 4 2 5 3 6 4 7 8 8 9 9 10 2 11 1 12
REMARK H PARENT 6 5 6 6 6 7
REMARK Flexibility Score: inf
ROOT
ATOM      1  C   UNL     1     -22.659  -1.024 -11.552  1.00  0.00     0.050 C 
ATOM      2  C   UNL     1     -24.091  -1.131 -12.104  1.00  0.00     0.014 C 
ENDROOT
BRANCH   1   3
ATOM      3  C   UNL     1     -21.588  -0.849 -12.679  1.00  0.00     0.230 C 
BRANCH   3   4
ATOM      4  N   UNL     1     -22.152  -0.458 -13.982  1.00  0.00    -0.350 N 
ATOM      5  H   UNL     1     -21.812   0.476 -14.292  1.00  0.00     0.345 HD
ATOM      6  H   UNL     1     -23.196  -0.429 -13.920  1.00  0.00     0.345 HD
ATOM      7  H   UNL     1     -21.910  -1.170 -14.709  1.00  0.00     0.345 HD
ENDBRANCH   3   4
BRANCH   3   8
ATOM      8  C   UNL     1     -20.706  -2.065 -12.810  1.00  0.00     0.099 C 
ATOM      9  O   UNL     1     -19.509  -2.019 -12.418  1.00  0.00    -0.544 OA
ATOM     10  O   UNL     1     -21.209  -3.257 -13.320  1.00  0.00    -0.544 OA
ENDBRANCH   3   8
ENDBRANCH   1   3
BRANCH   1  11
ATOM     11  C   UNL     1     -22.370  -2.102 -10.471  1.00  0.00     0.006 C 
ATOM     12  C   UNL     1     -23.535  -3.028 -10.114  1.00  0.00     0.004 C 
ENDBRANCH   1  11
TORSDOF 4
ENDMDL
MODEL 8
REMARK VINA RESULT:    -3.536      4.119      5.356
REMARK INTER + INTRA:          -4.358
REMARK INTER:                  -4.566
REMARK INTRA:                   0.208
REMARK UNBOUND:                -0.098
REMARK SMILES CC[C@H](C)[C@H]([NH3+])C(=O)[O-]
REMARK SMILES IDX 3 1 4 2 5 3 6 4 7 8 8 9 9 10 2 11 1 12
REMARK H PARENT 6 5 6 6 6 7
REMARK Flexibility Score: inf
ROOT
ATOM      1  C   UNL     1     -22.218  -1.801 -12.900  1.00  0.00     0.050 C 
ATOM      2  C   UNL     1     -22.038  -0.302 -13.193  1.00  0.00     0.014 C 
ENDROOT
BRANCH   1   3
ATOM      3  C   UNL     1     -23.548  -2.113 -12.136  1.00  0.00     0.230 C 
BRANCH   3   4
ATOM      4  N   UNL     1     -24.763  -1.740 -12.878  1.00  0.00    -0.350 N 
ATOM      5  H   UNL     1     -25.208  -0.880 -12.494  1.00  0.00     0.345 HD
ATOM      6  H   UNL     1     -25.457  -2.521 -12.837  1.00  0.00     0.345 HD
ATOM      7  H   UNL     1     -24.537  -1.586 -13.887  1.00  0.00     0.345 HD
ENDBRANCH   3   4
BRANCH   3   8
ATOM      8  C   UNL     1     -23.551  -1.519 -10.750  1.00  0.00     0.099 C 
ATOM      9  O   UNL     1     -24.541  -0.845 -10.357  1.00  0.00    -0.544 OA
ATOM     10  O   UNL     1     -22.491  -1.741  -9.878  1.00  0.00    -0.544 OA
ENDBRANCH   3   8
ENDBRANCH   1   3
BRANCH   1  11
ATOM     11  C   UNL     1     -20.920  -2.445 -12.341  1.00  0.00     0.006 C 
ATOM     12  C   UNL     1     -20.008  -3.123 -13.366  1.00  0.00     0.004 C 
ENDBRANCH   1  11
TORSDOF 4
ENDMDL
MODEL 9
REMARK VINA RESULT:    -3.423      3.754      4.991
REMARK INTER + INTRA:          -4.222
REMARK INTER:                  -4.164
REMARK INTRA:                  -0.058
REMARK UNBOUND:                -0.098
REMARK SMILES CC[C@H](C)[C@H]([NH3+])C(=O)[O-]
REMARK SMILES IDX 3 1 4 2 5 3 6 4 7 8 8 9 9 10 2 11 1 12
REMARK H PARENT 6 5 6 6 6 7
REMARK Flexibility Score: inf
ROOT
ATOM      1  C   UNL     1     -23.458  -1.679 -11.552  1.00  0.00     0.050 C 
ATOM      2  C   UNL     1     -23.168  -2.553 -10.320  1.00  0.00     0.014 C 
ENDROOT
BRANCH   1   3
ATOM      3  C   UNL     1     -22.171  -0.997 -12.127  1.00  0.00     0.230 C 
BRANCH   3   4
ATOM      4  N   UNL     1     -22.446   0.039 -13.136  1.00  0.00    -0.350 N 
ATOM      5  H   UNL     1     -23.204   0.688 -12.835  1.00  0.00     0.345 HD
ATOM      6  H   UNL     1     -22.731  -0.411 -14.036  1.00  0.00     0.345 HD
ATOM      7  H   UNL     1     -21.580   0.591 -13.331  1.00  0.00     0.345 HD
ENDBRANCH   3   4
BRANCH   3   8
ATOM      8  C   UNL     1     -21.182  -2.012 -12.643  1.00  0.00     0.099 C 
ATOM      9  O   UNL     1     -21.583  -2.982 -13.339  1.00  0.00    -0.544 OA
ATOM     10  O   UNL     1     -19.821  -1.867 -12.397  1.00  0.00    -0.544 OA
ENDBRANCH   3   8
ENDBRANCH   1   3
BRANCH   1  11
ATOM     11  C   UNL     1     -24.699  -0.768 -11.340  1.00  0.00     0.006 C 
ATOM     12  C   UNL     1     -25.218  -0.660  -9.905  1.00  0.00     0.004 C 
ENDBRANCH   1  11
TORSDOF 4
ENDMDL
