MODEL 1
REMARK VINA RESULT:    -4.758      0.000      0.000
REMARK INTER + INTRA:         -10.791
REMARK INTER:                  -8.373
REMARK INTRA:                  -2.417
REMARK UNBOUND:                -2.417
REMARK SMILES CCCCCCCCCCCCCCC(=O)[O-]
REMARK SMILES IDX 9 1 10 2 11 3 12 4 13 5 14 6 15 7 16 8 17 9 8 10 7 11 6 12
REMARK SMILES IDX 5 13 4 14 3 15 2 16 1 17
REMARK H PARENT
REMARK Flexibility Score: inf
ROOT
ATOM      1  C   UNL     1       2.591   7.264   6.179  1.00  0.00     0.000 C 
ENDROOT
BRANCH   1   2
ATOM      2  C   UNL     1       2.605   8.537   7.044  1.00  0.00     0.000 C 
BRANCH   2   3
ATOM      3  C   UNL     1       3.649   8.481   8.173  1.00  0.00     0.000 C 
BRANCH   3   4
ATOM      4  C   UNL     1       5.074   8.111   7.722  1.00  0.00     0.000 C 
BRANCH   4   5
ATOM      5  C   UNL     1       5.558   6.770   8.304  1.00  0.00     0.006 C 
BRANCH   5   6
ATOM      6  C   UNL     1       6.239   5.892   7.246  1.00  0.00     0.053 C 
BRANCH   6   7
ATOM      7  C   UNL     1       6.697   4.585   7.817  1.00  0.00     0.041 C 
ATOM      8  O   UNL     1       7.921   4.380   8.026  1.00  0.00    -0.550 OA
ATOM      9  O   UNL     1       5.774   3.584   8.093  1.00  0.00    -0.550 OA
ENDBRANCH   6   7
ENDBRANCH   5   6
ENDBRANCH   4   5
ENDBRANCH   3   4
ENDBRANCH   2   3
ENDBRANCH   1   2
BRANCH   1  10
ATOM     10  C   UNL     1       1.739   6.143   6.796  1.00  0.00     0.000 C 
BRANCH  10  11
ATOM     11  C   UNL     1       2.582   4.926   7.215  1.00  0.00    -0.000 C 
BRANCH  11  12
ATOM     12  C   UNL     1       2.131   4.334   8.560  1.00  0.00    -0.000 C 
BRANCH  12  13
ATOM     13  C   UNL     1       2.490   5.238   9.751  1.00  0.00    -0.000 C 
BRANCH  13  14
ATOM     14  C   UNL     1       1.251   5.728  10.521  1.00  0.00    -0.000 C 
BRANCH  14  15
ATOM     15  C   UNL     1       1.026   7.254  10.490  1.00  0.00    -0.000 C 
BRANCH  15  16
ATOM     16  C   UNL     1      -0.096   7.726   9.548  1.00  0.00    -0.003 C 
ATOM     17  C   UNL     1      -1.078   6.613   9.187  1.00  0.00     0.004 C 
ENDBRANCH  15  16
ENDBRANCH  14  15
ENDBRANCH  13  14
ENDBRANCH  12  13
ENDBRANCH  11  12
ENDBRANCH  10  11
ENDBRANCH   1  10
TORSDOF 13
ENDMDL
MODEL 2
REMARK VINA RESULT:    -4.751      1.813      3.325
REMARK INTER + INTRA:         -10.779
REMARK INTER:                  -8.872
REMARK INTRA:                  -1.907
REMARK UNBOUND:                -2.417
REMARK SMILES CCCCCCCCCCCCCCC(=O)[O-]
REMARK SMILES IDX 9 1 10 2 11 3 12 4 13 5 14 6 15 7 16 8 17 9 8 10 7 11 6 12
REMARK SMILES IDX 5 13 4 14 3 15 2 16 1 17
REMARK H PARENT
REMARK Flexibility Score: inf
ROOT
ATOM      1  C   UNL     1       2.232   8.003   9.039  1.00  0.00     0.000 C 
ENDROOT
BRANCH   1   2
ATOM      2  C   UNL     1       3.395   7.079   9.441  1.00  0.00     0.000 C 
BRANCH   2   3
ATOM      3  C   UNL     1       3.050   5.586   9.294  1.00  0.00     0.000 C 
BRANCH   3   4
ATOM      4  C   UNL     1       3.005   5.070   7.844  1.00  0.00     0.000 C 
BRANCH   4   5
ATOM      5  C   UNL     1       3.999   3.923   7.585  1.00  0.00     0.006 C 
BRANCH   5   6
ATOM      6  C   UNL     1       5.406   4.248   8.105  1.00  0.00     0.053 C 
BRANCH   6   7
ATOM      7  C   UNL     1       6.058   5.336   7.307  1.00  0.00     0.041 C 
ATOM      8  O   UNL     1       6.676   6.265   7.890  1.00  0.00    -0.550 OA
ATOM      9  O   UNL     1       5.958   5.338   5.922  1.00  0.00    -0.550 OA
ENDBRANCH   6   7
ENDBRANCH   5   6
ENDBRANCH   4   5
ENDBRANCH   3   4
ENDBRANCH   2   3
ENDBRANCH   1   2
BRANCH   1  10
ATOM     10  C   UNL     1       2.153   9.263   9.915  1.00  0.00     0.000 C 
BRANCH  10  11
ATOM     11  C   UNL     1       1.081   9.150  11.013  1.00  0.00    -0.000 C 
BRANCH  11  12
ATOM     12  C   UNL     1       1.649   8.613  12.336  1.00  0.00    -0.000 C 
BRANCH  12  13
ATOM     13  C   UNL     1       0.810   7.460  12.913  1.00  0.00    -0.000 C 
BRANCH  13  14
ATOM     14  C   UNL     1       0.793   6.221  12.001  1.00  0.00    -0.000 C 
BRANCH  14  15
ATOM     15  C   UNL     1      -0.595   5.840  11.444  1.00  0.00    -0.000 C 
BRANCH  15  16
ATOM     16  C   UNL     1      -0.663   5.690   9.914  1.00  0.00    -0.003 C 
ATOM     17  C   UNL     1      -1.320   6.885   9.227  1.00  0.00     0.004 C 
ENDBRANCH  15  16
ENDBRANCH  14  15
ENDBRANCH  13  14
ENDBRANCH  12  13
ENDBRANCH  11  12
ENDBRANCH  10  11
ENDBRANCH   1  10
TORSDOF 13
ENDMDL
MODEL 3
REMARK VINA RESULT:    -4.704      2.075      3.403
REMARK INTER + INTRA:         -10.695
REMARK INTER:                  -8.798
REMARK INTRA:                  -1.897
REMARK UNBOUND:                -2.417
REMARK SMILES CCCCCCCCCCCCCCC(=O)[O-]
REMARK SMILES IDX 9 1 10 2 11 3 12 4 13 5 14 6 15 7 16 8 17 9 8 10 7 11 6 12
REMARK SMILES IDX 5 13 4 14 3 15 2 16 1 17
REMARK H PARENT
REMARK Flexibility Score: inf
ROOT
ATOM      1  C   UNL     1       1.717   8.600   8.924  1.00  0.00     0.000 C 
ENDROOT
BRANCH   1   2
ATOM      2  C   UNL     1       2.707   8.773   7.759  1.00  0.00     0.000 C 
BRANCH   2   3
ATOM      3  C   UNL     1       4.145   8.373   8.133  1.00  0.00     0.000 C 
BRANCH   3   4
ATOM      4  C   UNL     1       4.259   7.160   9.074  1.00  0.00     0.000 C 
BRANCH   4   5
ATOM      5  C   UNL     1       4.601   5.855   8.331  1.00  0.00     0.006 C 
BRANCH   5   6
ATOM      6  C   UNL     1       3.561   4.756   8.585  1.00  0.00     0.053 C 
BRANCH   6   7
ATOM      7  C   UNL     1       2.756   4.455   7.358  1.00  0.00     0.041 C 
ATOM      8  O   UNL     1       2.739   3.290   6.881  1.00  0.00    -0.550 OA
ATOM      9  O   UNL     1       2.047   5.469   6.725  1.00  0.00    -0.550 OA
ENDBRANCH   6   7
ENDBRANCH   5   6
ENDBRANCH   4   5
ENDBRANCH   3   4
ENDBRANCH   2   3
ENDBRANCH   1   2
BRANCH   1  10
ATOM     10  C   UNL     1       2.005   9.561  10.089  1.00  0.00     0.000 C 
BRANCH  10  11
ATOM     11  C   UNL     1       1.420   9.063  11.422  1.00  0.00    -0.000 C 
BRANCH  11  12
ATOM     12  C   UNL     1       1.598   7.549  11.613  1.00  0.00    -0.000 C 
BRANCH  12  13
ATOM     13  C   UNL     1       0.477   6.926  12.463  1.00  0.00    -0.000 C 
BRANCH  13  14
ATOM     14  C   UNL     1      -0.297   5.827  11.715  1.00  0.00    -0.000 C 
BRANCH  14  15
ATOM     15  C   UNL     1       0.325   5.388  10.373  1.00  0.00    -0.000 C 
BRANCH  15  16
ATOM     16  C   UNL     1      -0.594   5.544   9.148  1.00  0.00    -0.003 C 
ATOM     17  C   UNL     1      -1.390   6.849   9.164  1.00  0.00     0.004 C 
ENDBRANCH  15  16
ENDBRANCH  14  15
ENDBRANCH  13  14
ENDBRANCH  12  13
ENDBRANCH  11  12
ENDBRANCH  10  11
ENDBRANCH   1  10
TORSDOF 13
ENDMDL
MODEL 4
REMARK VINA RESULT:    -4.694      2.897      5.947
REMARK INTER + INTRA:         -10.679
REMARK INTER:                  -8.771
REMARK INTRA:                  -1.908
REMARK UNBOUND:                -2.417
REMARK SMILES CCCCCCCCCCCCCCC(=O)[O-]
REMARK SMILES IDX 9 1 10 2 11 3 12 4 13 5 14 6 15 7 16 8 17 9 8 10 7 11 6 12
REMARK SMILES IDX 5 13 4 14 3 15 2 16 1 17
REMARK H PARENT
REMARK Flexibility Score: inf
ROOT
ATOM      1  C   UNL     1       4.684   4.446   7.511  1.00  0.00     0.000 C 
ENDROOT
BRANCH   1   2
ATOM      2  C   UNL     1       4.150   5.840   7.885  1.00  0.00     0.000 C 
BRANCH   2   3
ATOM      3  C   UNL     1       2.980   6.291   6.993  1.00  0.00     0.000 C 
BRANCH   3   4
ATOM      4  C   UNL     1       2.819   7.816   6.854  1.00  0.00     0.000 C 
BRANCH   4   5
ATOM      5  C   UNL     1       3.453   8.594   8.021  1.00  0.00     0.006 C 
BRANCH   5   6
ATOM      6  C   UNL     1       2.396   9.256   8.916  1.00  0.00     0.053 C 
BRANCH   6   7
ATOM      7  C   UNL     1       1.723   8.262   9.812  1.00  0.00     0.041 C 
ATOM      8  O   UNL     1       2.410   7.489  10.530  1.00  0.00    -0.550 OA
ATOM      9  O   UNL     1       0.337   8.172   9.834  1.00  0.00    -0.550 OA
ENDBRANCH   6   7
ENDBRANCH   5   6
ENDBRANCH   4   5
ENDBRANCH   3   4
ENDBRANCH   2   3
ENDBRANCH   1   2
BRANCH   1  10
ATOM     10  C   UNL     1       6.158   4.476   7.079  1.00  0.00     0.000 C 
BRANCH  10  11
ATOM     11  C   UNL     1       7.123   4.443   8.277  1.00  0.00    -0.000 C 
BRANCH  11  12
ATOM     12  C   UNL     1       8.197   5.539   8.198  1.00  0.00    -0.000 C 
BRANCH  12  13
ATOM     13  C   UNL     1       7.655   6.855   7.615  1.00  0.00    -0.000 C 
BRANCH  13  14
ATOM     14  C   UNL     1       8.520   7.399   6.464  1.00  0.00    -0.000 C 
BRANCH  14  15
ATOM     15  C   UNL     1       7.752   8.206   5.397  1.00  0.00    -0.000 C 
BRANCH  15  16
ATOM     16  C   UNL     1       6.220   8.075   5.461  1.00  0.00    -0.003 C 
ATOM     17  C   UNL     1       5.672   7.025   4.495  1.00  0.00     0.004 C 
ENDBRANCH  15  16
ENDBRANCH  14  15
ENDBRANCH  13  14
ENDBRANCH  12  13
ENDBRANCH  11  12
ENDBRANCH  10  11
ENDBRANCH   1  10
TORSDOF 13
ENDMDL
MODEL 5
REMARK VINA RESULT:    -4.693      3.216      5.981
REMARK INTER + INTRA:         -10.677
REMARK INTER:                  -8.793
REMARK INTRA:                  -1.884
REMARK UNBOUND:                -2.417
REMARK SMILES CCCCCCCCCCCCCCC(=O)[O-]
REMARK SMILES IDX 9 1 10 2 11 3 12 4 13 5 14 6 15 7 16 8 17 9 8 10 7 11 6 12
REMARK SMILES IDX 5 13 4 14 3 15 2 16 1 17
REMARK H PARENT
REMARK Flexibility Score: inf
ROOT
ATOM      1  C   UNL     1       3.389   5.154   6.911  1.00  0.00     0.000 C 
ENDROOT
BRANCH   1   2
ATOM      2  C   UNL     1       3.082   3.847   7.664  1.00  0.00     0.000 C 
BRANCH   2   3
ATOM      3  C   UNL     1       1.982   4.014   8.727  1.00  0.00     0.000 C 
BRANCH   3   4
ATOM      4  C   UNL     1       2.412   4.779   9.991  1.00  0.00     0.000 C 
BRANCH   4   5
ATOM      5  C   UNL     1       1.609   6.074  10.211  1.00  0.00     0.006 C 
BRANCH   5   6
ATOM      6  C   UNL     1       0.098   5.852  10.057  1.00  0.00     0.053 C 
BRANCH   6   7
ATOM      7  C   UNL     1      -0.582   5.706  11.384  1.00  0.00     0.041 C 
ATOM      8  O   UNL     1      -1.685   5.103  11.467  1.00  0.00    -0.550 OA
ATOM      9  O   UNL     1      -0.012   6.259  12.523  1.00  0.00    -0.550 OA
ENDBRANCH   6   7
ENDBRANCH   5   6
ENDBRANCH   4   5
ENDBRANCH   3   4
ENDBRANCH   2   3
ENDBRANCH   1   2
BRANCH   1  10
ATOM     10  C   UNL     1       2.119   5.946   6.565  1.00  0.00     0.000 C 
BRANCH  10  11
ATOM     11  C   UNL     1       2.419   7.410   6.198  1.00  0.00    -0.000 C 
BRANCH  11  12
ATOM     12  C   UNL     1       2.638   8.294   7.435  1.00  0.00    -0.000 C 
BRANCH  12  13
ATOM     13  C   UNL     1       3.917   9.142   7.336  1.00  0.00    -0.000 C 
BRANCH  13  14
ATOM     14  C   UNL     1       5.115   8.500   8.057  1.00  0.00    -0.000 C 
BRANCH  14  15
ATOM     15  C   UNL     1       6.107   7.757   7.139  1.00  0.00    -0.000 C 
BRANCH  15  16
ATOM     16  C   UNL     1       6.116   8.229   5.674  1.00  0.00    -0.003 C 
ATOM     17  C   UNL     1       5.869   7.094   4.682  1.00  0.00     0.004 C 
ENDBRANCH  15  16
ENDBRANCH  14  15
ENDBRANCH  13  14
ENDBRANCH  12  13
ENDBRANCH  11  12
ENDBRANCH  10  11
ENDBRANCH   1  10
TORSDOF 13
ENDMDL
MODEL 6
REMARK VINA RESULT:    -4.668      3.378      6.490
REMARK INTER + INTRA:         -10.633
REMARK INTER:                  -9.131
REMARK INTRA:                  -1.502
REMARK UNBOUND:                -2.417
REMARK SMILES CCCCCCCCCCCCCCC(=O)[O-]
REMARK SMILES IDX 9 1 10 2 11 3 12 4 13 5 14 6 15 7 16 8 17 9 8 10 7 11 6 12
REMARK SMILES IDX 5 13 4 14 3 15 2 16 1 17
REMARK H PARENT
REMARK Flexibility Score: inf
ROOT
ATOM      1  C   UNL     1       4.916   5.234   8.290  1.00  0.00     0.000 C 
ENDROOT
BRANCH   1   2
ATOM      2  C   UNL     1       3.548   5.202   7.587  1.00  0.00     0.000 C 
BRANCH   2   3
ATOM      3  C   UNL     1       2.795   3.877   7.803  1.00  0.00     0.000 C 
BRANCH   3   4
ATOM      4  C   UNL     1       1.647   3.942   8.826  1.00  0.00     0.000 C 
BRANCH   4   5
ATOM      5  C   UNL     1       1.492   5.333   9.467  1.00  0.00     0.006 C 
BRANCH   5   6
ATOM      6  C   UNL     1       0.021   5.708   9.688  1.00  0.00     0.053 C 
BRANCH   6   7
ATOM      7  C   UNL     1      -0.401   5.496  11.109  1.00  0.00     0.041 C 
ATOM      8  O   UNL     1      -1.327   4.686  11.381  1.00  0.00    -0.550 OA
ATOM      9  O   UNL     1       0.208   6.213  12.131  1.00  0.00    -0.550 OA
ENDBRANCH   6   7
ENDBRANCH   5   6
ENDBRANCH   4   5
ENDBRANCH   3   4
ENDBRANCH   2   3
ENDBRANCH   1   2
BRANCH   1  10
ATOM     10  C   UNL     1       5.795   4.028   7.921  1.00  0.00     0.000 C 
BRANCH  10  11
ATOM     11  C   UNL     1       7.269   4.416   7.711  1.00  0.00    -0.000 C 
BRANCH  11  12
ATOM     12  C   UNL     1       7.631   5.744   8.393  1.00  0.00    -0.000 C 
BRANCH  12  13
ATOM     13  C   UNL     1       8.736   6.509   7.645  1.00  0.00    -0.000 C 
BRANCH  13  14
ATOM     14  C   UNL     1       8.189   7.367   6.490  1.00  0.00    -0.000 C 
BRANCH  14  15
ATOM     15  C   UNL     1       6.764   7.916   6.704  1.00  0.00    -0.000 C 
BRANCH  15  16
ATOM     16  C   UNL     1       5.836   7.809   5.480  1.00  0.00    -0.003 C 
ATOM     17  C   UNL     1       6.049   6.523   4.683  1.00  0.00     0.004 C 
ENDBRANCH  15  16
ENDBRANCH  14  15
ENDBRANCH  13  14
ENDBRANCH  12  13
ENDBRANCH  11  12
ENDBRANCH  10  11
ENDBRANCH   1  10
TORSDOF 13
ENDMDL
MODEL 7
REMARK VINA RESULT:    -4.660      2.339      3.616
REMARK INTER + INTRA:         -10.620
REMARK INTER:                  -8.917
REMARK INTRA:                  -1.703
REMARK UNBOUND:                -2.417
REMARK SMILES CCCCCCCCCCCCCCC(=O)[O-]
REMARK SMILES IDX 9 1 10 2 11 3 12 4 13 5 14 6 15 7 16 8 17 9 8 10 7 11 6 12
REMARK SMILES IDX 5 13 4 14 3 15 2 16 1 17
REMARK H PARENT
REMARK Flexibility Score: inf
ROOT
ATOM      1  C   UNL     1       3.298   6.374   9.212  1.00  0.00     0.000 C 
ENDROOT
BRANCH   1   2
ATOM      2  C   UNL     1       2.838   4.969   8.784  1.00  0.00     0.000 C 
BRANCH   2   3
ATOM      3  C   UNL     1       3.694   4.379   7.650  1.00  0.00     0.000 C 
BRANCH   3   4
ATOM      4  C   UNL     1       5.212   4.591   7.805  1.00  0.00     0.000 C 
BRANCH   4   5
ATOM      5  C   UNL     1       5.847   5.290   6.590  1.00  0.00     0.006 C 
BRANCH   5   6
ATOM      6  C   UNL     1       6.257   6.735   6.902  1.00  0.00     0.053 C 
BRANCH   6   7
ATOM      7  C   UNL     1       5.270   7.724   6.361  1.00  0.00     0.041 C 
ATOM      8  O   UNL     1       5.401   8.951   6.612  1.00  0.00    -0.550 OA
ATOM      9  O   UNL     1       4.190   7.288   5.604  1.00  0.00    -0.550 OA
ENDBRANCH   6   7
ENDBRANCH   5   6
ENDBRANCH   4   5
ENDBRANCH   3   4
ENDBRANCH   2   3
ENDBRANCH   1   2
BRANCH   1  10
ATOM     10  C   UNL     1       2.353   7.480   8.715  1.00  0.00     0.000 C 
BRANCH  10  11
ATOM     11  C   UNL     1       2.858   8.889   9.069  1.00  0.00    -0.000 C 
BRANCH  11  12
ATOM     12  C   UNL     1       2.085   9.514  10.241  1.00  0.00    -0.000 C 
BRANCH  12  13
ATOM     13  C   UNL     1       0.945   8.611  10.743  1.00  0.00    -0.000 C 
BRANCH  13  14
ATOM     14  C   UNL     1       1.183   8.088  12.170  1.00  0.00    -0.000 C 
BRANCH  14  15
ATOM     15  C   UNL     1       0.580   6.699  12.464  1.00  0.00    -0.000 C 
BRANCH  15  16
ATOM     16  C   UNL     1       0.131   5.910  11.222  1.00  0.00    -0.003 C 
ATOM     17  C   UNL     1      -1.275   5.328  11.362  1.00  0.00     0.004 C 
ENDBRANCH  15  16
ENDBRANCH  14  15
ENDBRANCH  13  14
ENDBRANCH  12  13
ENDBRANCH  11  12
ENDBRANCH  10  11
ENDBRANCH   1  10
TORSDOF 13
ENDMDL
MODEL 8
REMARK VINA RESULT:    -4.626      1.593      2.296
REMARK INTER + INTRA:         -10.558
REMARK INTER:                  -8.554
REMARK INTRA:                  -2.005
REMARK UNBOUND:                -2.417
REMARK SMILES CCCCCCCCCCCCCCC(=O)[O-]
REMARK SMILES IDX 9 1 10 2 11 3 12 4 13 5 14 6 15 7 16 8 17 9 8 10 7 11 6 12
REMARK SMILES IDX 5 13 4 14 3 15 2 16 1 17
REMARK H PARENT
REMARK Flexibility Score: inf
ROOT
ATOM      1  C   UNL     1       2.014   6.084   6.668  1.00  0.00     0.000 C 
ENDROOT
BRANCH   1   2
ATOM      2  C   UNL     1       2.576   7.421   6.153  1.00  0.00     0.000 C 
BRANCH   2   3
ATOM      3  C   UNL     1       2.764   8.460   7.272  1.00  0.00     0.000 C 
BRANCH   3   4
ATOM      4  C   UNL     1       4.119   9.190   7.261  1.00  0.00     0.000 C 
BRANCH   4   5
ATOM      5  C   UNL     1       5.292   8.283   7.675  1.00  0.00     0.006 C 
BRANCH   5   6
ATOM      6  C   UNL     1       6.319   8.114   6.548  1.00  0.00     0.053 C 
BRANCH   6   7
ATOM      7  C   UNL     1       6.190   6.783   5.871  1.00  0.00     0.041 C 
ATOM      8  O   UNL     1       5.808   6.718   4.673  1.00  0.00    -0.550 OA
ATOM      9  O   UNL     1       6.465   5.616   6.571  1.00  0.00    -0.550 OA
ENDBRANCH   6   7
ENDBRANCH   5   6
ENDBRANCH   4   5
ENDBRANCH   3   4
ENDBRANCH   2   3
ENDBRANCH   1   2
BRANCH   1  10
ATOM     10  C   UNL     1       3.055   5.272   7.455  1.00  0.00     0.000 C 
BRANCH  10  11
ATOM     11  C   UNL     1       2.717   5.174   8.952  1.00  0.00    -0.000 C 
BRANCH  11  12
ATOM     12  C   UNL     1       1.429   4.378   9.213  1.00  0.00    -0.000 C 
BRANCH  12  13
ATOM     13  C   UNL     1       0.453   5.124  10.139  1.00  0.00    -0.000 C 
BRANCH  13  14
ATOM     14  C   UNL     1      -0.419   6.146   9.388  1.00  0.00    -0.000 C 
BRANCH  14  15
ATOM     15  C   UNL     1       0.020   7.616   9.545  1.00  0.00    -0.000 C 
BRANCH  15  16
ATOM     16  C   UNL     1       0.897   7.905  10.776  1.00  0.00    -0.003 C 
ATOM     17  C   UNL     1       1.642   9.235  10.677  1.00  0.00     0.004 C 
ENDBRANCH  15  16
ENDBRANCH  14  15
ENDBRANCH  13  14
ENDBRANCH  12  13
ENDBRANCH  11  12
ENDBRANCH  10  11
ENDBRANCH   1  10
TORSDOF 13
ENDMDL
MODEL 9
REMARK VINA RESULT:    -4.616      1.833      3.495
REMARK INTER + INTRA:         -10.541
REMARK INTER:                  -8.540
REMARK INTRA:                  -2.002
REMARK UNBOUND:                -2.417
REMARK SMILES CCCCCCCCCCCCCCC(=O)[O-]
REMARK SMILES IDX 9 1 10 2 11 3 12 4 13 5 14 6 15 7 16 8 17 9 8 10 7 11 6 12
REMARK SMILES IDX 5 13 4 14 3 15 2 16 1 17
REMARK H PARENT
REMARK Flexibility Score: inf
ROOT
ATOM      1  C   UNL     1       1.375   8.857  10.194  1.00  0.00     0.000 C 
ENDROOT
BRANCH   1   2
ATOM      2  C   UNL     1       2.760   8.987   9.534  1.00  0.00     0.000 C 
BRANCH   2   3
ATOM      3  C   UNL     1       2.679   9.388   8.051  1.00  0.00     0.000 C 
BRANCH   3   4
ATOM      4  C   UNL     1       4.020   9.351   7.294  1.00  0.00     0.000 C 
BRANCH   4   5
ATOM      5  C   UNL     1       5.084   8.494   8.003  1.00  0.00     0.006 C 
BRANCH   5   6
ATOM      6  C   UNL     1       5.663   7.412   7.081  1.00  0.00     0.053 C 
BRANCH   6   7
ATOM      7  C   UNL     1       7.058   7.740   6.644  1.00  0.00     0.041 C 
ATOM      8  O   UNL     1       8.038   7.125   7.141  1.00  0.00    -0.550 OA
ATOM      9  O   UNL     1       7.277   8.744   5.709  1.00  0.00    -0.550 OA
ENDBRANCH   6   7
ENDBRANCH   5   6
ENDBRANCH   4   5
ENDBRANCH   3   4
ENDBRANCH   2   3
ENDBRANCH   1   2
BRANCH   1  10
ATOM     10  C   UNL     1       1.452   8.266  11.610  1.00  0.00     0.000 C 
BRANCH  10  11
ATOM     11  C   UNL     1       0.847   6.854  11.693  1.00  0.00    -0.000 C 
BRANCH  11  12
ATOM     12  C   UNL     1       0.114   6.452  10.404  1.00  0.00    -0.000 C 
BRANCH  12  13
ATOM     13  C   UNL     1       0.581   5.091   9.860  1.00  0.00    -0.000 C 
BRANCH  13  14
ATOM     14  C   UNL     1       2.097   4.877  10.013  1.00  0.00    -0.000 C 
BRANCH  14  15
ATOM     15  C   UNL     1       2.958   5.486   8.887  1.00  0.00    -0.000 C 
BRANCH  15  16
ATOM     16  C   UNL     1       2.586   5.031   7.465  1.00  0.00    -0.003 C 
ATOM     17  C   UNL     1       1.963   6.146   6.627  1.00  0.00     0.004 C 
ENDBRANCH  15  16
ENDBRANCH  14  15
ENDBRANCH  13  14
ENDBRANCH  12  13
ENDBRANCH  11  12
ENDBRANCH  10  11
ENDBRANCH   1  10
TORSDOF 13
ENDMDL
