MODEL 1
REMARK VINA RESULT:    -2.781      0.000      0.000
REMARK INTER + INTRA:          -3.505
REMARK INTER:                  -3.919
REMARK INTRA:                   0.414
REMARK UNBOUND:                 0.414
REMARK SMILES CC1=CCC(=C(C)C)C(=O)CC(C)=CCC1
REMARK SMILES IDX 12 1 14 2 13 3 15 4 16 5 2 6 1 7 3 8 11 10 9 11 10 12 5 13
REMARK SMILES IDX 6 14 7 15 8 16 4 17
REMARK H PARENT
REMARK Flexibility Score: 60.00
ROOT
ATOM      1  C   UNL     1      28.564  38.790  18.250  1.00  0.00    -0.070 C 
ATOM      2  C   UNL     1      28.234  37.627  18.857  1.00  0.00    -0.027 C 
ATOM      3  C   UNL     1      28.415  38.876  16.753  1.00  0.00     0.039 C 
ENDROOT
BRANCH   2   4
ATOM      4  C   UNL     1      28.458  37.320  20.317  1.00  0.00     0.032 C 
BRANCH   4   5
ATOM      5  C   UNL     1      27.127  36.947  20.979  1.00  0.00     0.034 C 
BRANCH   5   6
ATOM      6  C   UNL     1      25.987  37.842  20.535  1.00  0.00    -0.077 C 
ATOM      7  C   UNL     1      24.865  37.236  19.728  1.00  0.00     0.039 C 
ATOM      8  C   UNL     1      25.879  39.149  20.882  1.00  0.00    -0.023 CG0
ATOM      9  G   UNL     1      26.895  39.991  21.631  1.00  0.00     0.000 G0
ENDBRANCH   5   6
ENDBRANCH   4   5
ENDBRANCH   2   4
BRANCH   1  10
ATOM     10  C   UNL     1      29.055  40.012  19.000  1.00  0.00     0.111 C 
BRANCH  10  11
ATOM     11  C   UNL     1      27.916  40.901  19.438  1.00  0.00     0.163 C 
ATOM     12  O   UNL     1      27.238  41.454  18.530  1.00  0.00    -0.294 OA
BRANCH  11  13
ATOM     13  C   UNL     1      27.544  41.135  20.874  1.00  0.00    -0.002 C 
ATOM     14  C   UNL     1      27.632  42.388  21.418  1.00  0.00    -0.069 C 
ATOM     15  C   UNL     1      27.054  42.713  22.777  1.00  0.00     0.039 C 
ATOM     16  C   UNL     1      28.359  43.509  20.710  1.00  0.00     0.039 C 
BRANCH  13  17
ATOM     17  C   UNL     1      26.901  39.985  21.640  1.00  0.00     0.066 CG0
ATOM     18  G   UNL     1      25.883  39.153  20.881  1.00  0.00     0.000 G0
ENDBRANCH  13  17
ENDBRANCH  11  13
ENDBRANCH  10  11
ENDBRANCH   1  10
TORSDOF 0
ENDMDL
MODEL 2
REMARK VINA RESULT:    -2.500      1.662      4.210
REMARK INTER + INTRA:          -3.110
REMARK INTER:                  -3.192
REMARK INTRA:                   0.083
REMARK UNBOUND:                 0.414
REMARK SMILES CC1=CCC(=C(C)C)C(=O)CC(C)=CCC1
REMARK SMILES IDX 12 1 14 2 13 3 15 4 16 5 2 6 1 7 3 8 11 10 9 11 10 12 5 13
REMARK SMILES IDX 6 14 7 15 8 16 4 17
REMARK H PARENT
REMARK Flexibility Score: 60.00
ROOT
ATOM      1  C   UNL     1      28.056  40.374  18.478  1.00  0.00    -0.070 C 
ATOM      2  C   UNL     1      27.622  41.614  18.159  1.00  0.00    -0.027 C 
ATOM      3  C   UNL     1      27.642  39.227  17.592  1.00  0.00     0.039 C 
ENDROOT
BRANCH   2   4
ATOM      4  C   UNL     1      27.817  42.844  19.009  1.00  0.00     0.032 C 
BRANCH   4   5
ATOM      5  C   UNL     1      26.499  43.213  19.699  1.00  0.00     0.034 C 
BRANCH   5   6
ATOM      6  C   UNL     1      26.538  42.968  21.194  1.00  0.00    -0.077 C 
ATOM      7  C   UNL     1      26.996  44.086  22.097  1.00  0.00     0.039 C 
ATOM      8  C   UNL     1      26.114  41.819  21.778  1.00  0.00    -0.023 CG0
ATOM      9  G   UNL     1      25.668  40.543  21.087  1.00  0.00     0.000 G0
ENDBRANCH   5   6
ENDBRANCH   4   5
ENDBRANCH   2   4
BRANCH   1  10
ATOM     10  C   UNL     1      28.951  40.084  19.666  1.00  0.00     0.111 C 
BRANCH  10  11
ATOM     11  C   UNL     1      28.155  39.830  20.923  1.00  0.00     0.163 C 
ATOM     12  O   UNL     1      28.754  39.984  22.022  1.00  0.00    -0.294 OA
BRANCH  11  13
ATOM     13  C   UNL     1      26.707  39.434  20.929  1.00  0.00    -0.002 C 
ATOM     14  C   UNL     1      26.348  38.113  20.963  1.00  0.00    -0.069 C 
ATOM     15  C   UNL     1      24.921  37.677  21.202  1.00  0.00     0.039 C 
ATOM     16  C   UNL     1      27.356  37.014  20.711  1.00  0.00     0.039 C 
BRANCH  13  17
ATOM     17  C   UNL     1      25.667  40.538  21.080  1.00  0.00     0.066 CG0
ATOM     18  G   UNL     1      26.121  41.803  21.785  1.00  0.00     0.000 G0
ENDBRANCH  13  17
ENDBRANCH  11  13
ENDBRANCH  10  11
ENDBRANCH   1  10
TORSDOF 0
ENDMDL
MODEL 3
REMARK VINA RESULT:    -1.859      1.739      3.945
REMARK INTER + INTRA:          -2.206
REMARK INTER:                  -3.895
REMARK INTRA:                   1.689
REMARK UNBOUND:                 0.414
REMARK SMILES CC1=CCC(=C(C)C)C(=O)CC(C)=CCC1
REMARK SMILES IDX 12 1 14 2 13 3 15 4 16 5 2 6 1 7 3 8 11 10 9 11 10 12 5 13
REMARK SMILES IDX 6 14 7 15 8 16 4 17
REMARK H PARENT
REMARK Flexibility Score: 60.00
ROOT
ATOM      1  C   UNL     1      28.373  38.892  18.098  1.00  0.00    -0.070 C 
ATOM      2  C   UNL     1      29.125  39.431  19.085  1.00  0.00    -0.027 C 
ATOM      3  C   UNL     1      29.045  38.576  16.787  1.00  0.00     0.039 C 
ENDROOT
BRANCH   2   4
ATOM      4  C   UNL     1      28.589  39.941  20.399  1.00  0.00     0.032 C 
BRANCH   4   5
ATOM      5  C   UNL     1      28.477  41.470  20.355  1.00  0.00     0.034 C 
BRANCH   5   6
ATOM      6  C   UNL     1      27.052  41.940  20.145  1.00  0.00    -0.077 C 
ATOM      7  C   UNL     1      26.821  43.241  19.416  1.00  0.00     0.039 C 
ATOM      8  C   UNL     1      25.962  41.221  20.511  1.00  0.00    -0.023 CG0
ATOM      9  G   UNL     1      25.934  39.925  21.299  1.00  0.00     0.000 G0
ENDBRANCH   5   6
ENDBRANCH   4   5
ENDBRANCH   2   4
BRANCH   1  10
ATOM     10  C   UNL     1      26.899  38.575  18.251  1.00  0.00     0.111 C 
BRANCH  10  11
ATOM     11  C   UNL     1      26.575  38.051  19.629  1.00  0.00     0.163 C 
ATOM     12  O   UNL     1      27.239  37.058  20.036  1.00  0.00    -0.294 OA
BRANCH  11  13
ATOM     13  C   UNL     1      25.537  38.654  20.530  1.00  0.00    -0.002 C 
ATOM     14  C   UNL     1      24.359  38.000  20.768  1.00  0.00    -0.069 C 
ATOM     15  C   UNL     1      23.393  38.454  21.839  1.00  0.00     0.039 C 
ATOM     16  C   UNL     1      23.933  36.811  19.937  1.00  0.00     0.039 C 
BRANCH  13  17
ATOM     17  C   UNL     1      25.911  39.915  21.302  1.00  0.00     0.066 CG0
ATOM     18  G   UNL     1      25.970  41.204  20.504  1.00  0.00     0.000 G0
ENDBRANCH  13  17
ENDBRANCH  11  13
ENDBRANCH  10  11
ENDBRANCH   1  10
TORSDOF 0
ENDMDL
MODEL 4
REMARK VINA RESULT:    -1.335      1.481      3.861
REMARK INTER + INTRA:          -1.467
REMARK INTER:                  -2.613
REMARK INTRA:                   1.146
REMARK UNBOUND:                 0.414
REMARK SMILES CC1=CCC(=C(C)C)C(=O)CC(C)=CCC1
REMARK SMILES IDX 12 1 14 2 13 3 15 4 16 5 2 6 1 7 3 8 11 10 9 11 10 12 5 13
REMARK SMILES IDX 6 14 7 15 8 16 4 17
REMARK H PARENT
REMARK Flexibility Score: 60.00
ROOT
ATOM      1  C   UNL     1      28.243  40.791  19.024  1.00  0.00    -0.070 C 
ATOM      2  C   UNL     1      28.515  41.448  20.174  1.00  0.00    -0.027 C 
ATOM      3  C   UNL     1      27.729  41.589  17.855  1.00  0.00     0.039 C 
ENDROOT
BRANCH   2   4
ATOM      4  C   UNL     1      28.894  40.791  21.477  1.00  0.00     0.032 C 
BRANCH   4   5
ATOM      5  C   UNL     1      27.635  40.277  22.185  1.00  0.00     0.034 C 
BRANCH   5   6
ATOM      6  C   UNL     1      26.361  40.817  21.567  1.00  0.00    -0.077 C 
ATOM      7  C   UNL     1      26.125  42.307  21.584  1.00  0.00     0.039 C 
ATOM      8  C   UNL     1      25.447  40.042  20.931  1.00  0.00    -0.023 CG0
ATOM      9  G   UNL     1      25.432  38.527  20.832  1.00  0.00     0.000 G0
ENDBRANCH   5   6
ENDBRANCH   4   5
ENDBRANCH   2   4
BRANCH   1  10
ATOM     10  C   UNL     1      28.448  39.299  18.848  1.00  0.00     0.111 C 
BRANCH  10  11
ATOM     11  C   UNL     1      27.143  38.542  18.889  1.00  0.00     0.163 C 
ATOM     12  O   UNL     1      26.491  38.464  17.812  1.00  0.00    -0.294 OA
BRANCH  11  13
ATOM     13  C   UNL     1      26.604  37.872  20.119  1.00  0.00    -0.002 C 
ATOM     14  C   UNL     1      27.263  36.809  20.677  1.00  0.00    -0.069 C 
ATOM     15  C   UNL     1      26.888  36.256  22.033  1.00  0.00     0.039 C 
ATOM     16  C   UNL     1      28.374  36.094  19.941  1.00  0.00     0.039 C 
BRANCH  13  17
ATOM     17  C   UNL     1      25.416  38.520  20.821  1.00  0.00     0.066 CG0
ATOM     18  G   UNL     1      25.440  40.034  20.932  1.00  0.00     0.000 G0
ENDBRANCH  13  17
ENDBRANCH  11  13
ENDBRANCH  10  11
ENDBRANCH   1  10
TORSDOF 0
ENDMDL
MODEL 5
REMARK VINA RESULT:    -1.217      1.705      4.775
REMARK INTER + INTRA:          -1.302
REMARK INTER:                  -3.201
REMARK INTRA:                   1.899
REMARK UNBOUND:                 0.414
REMARK SMILES CC1=CCC(=C(C)C)C(=O)CC(C)=CCC1
REMARK SMILES IDX 12 1 14 2 13 3 15 4 16 5 2 6 1 7 3 8 11 10 9 11 10 12 5 13
REMARK SMILES IDX 6 14 7 15 8 16 4 17
REMARK H PARENT
REMARK Flexibility Score: 60.00
ROOT
ATOM      1  C   UNL     1      25.020  38.164  20.726  1.00  0.00    -0.070 C 
ATOM      2  C   UNL     1      24.900  39.441  21.154  1.00  0.00    -0.027 C 
ATOM      3  C   UNL     1      23.759  37.394  20.426  1.00  0.00     0.039 C 
ENDROOT
BRANCH   2   4
ATOM      4  C   UNL     1      26.040  40.302  21.636  1.00  0.00     0.032 C 
BRANCH   4   5
ATOM      5  C   UNL     1      25.862  41.735  21.123  1.00  0.00     0.034 C 
BRANCH   5   6
ATOM      6  C   UNL     1      27.089  42.247  20.396  1.00  0.00    -0.077 C 
ATOM      7  C   UNL     1      27.781  43.480  20.924  1.00  0.00     0.039 C 
ATOM      8  C   UNL     1      27.650  41.617  19.333  1.00  0.00    -0.023 CG0
ATOM      9  G   UNL     1      27.114  40.407  18.591  1.00  0.00     0.000 G0
ENDBRANCH   5   6
ENDBRANCH   4   5
ENDBRANCH   2   4
BRANCH   1  10
ATOM     10  C   UNL     1      26.355  37.476  20.517  1.00  0.00     0.111 C 
BRANCH  10  11
ATOM     11  C   UNL     1      27.463  38.466  20.249  1.00  0.00     0.163 C 
ATOM     12  O   UNL     1      28.183  38.799  21.228  1.00  0.00    -0.294 OA
BRANCH  11  13
ATOM     13  C   UNL     1      27.757  39.043  18.895  1.00  0.00    -0.002 C 
ATOM     14  C   UNL     1      28.416  38.302  17.952  1.00  0.00    -0.069 C 
ATOM     15  C   UNL     1      28.528  38.753  16.513  1.00  0.00     0.039 C 
ATOM     16  C   UNL     1      29.115  37.010  18.309  1.00  0.00     0.039 C 
BRANCH  13  17
ATOM     17  C   UNL     1      27.145  40.396  18.550  1.00  0.00     0.066 CG0
ATOM     18  G   UNL     1      27.667  41.592  19.324  1.00  0.00     0.000 G0
ENDBRANCH  13  17
ENDBRANCH  11  13
ENDBRANCH  10  11
ENDBRANCH   1  10
TORSDOF 0
ENDMDL
MODEL 6
REMARK VINA RESULT:    -1.062      1.773      4.178
REMARK INTER + INTRA:          -1.082
REMARK INTER:                  -3.322
REMARK INTRA:                   2.239
REMARK UNBOUND:                 0.414
REMARK SMILES CC1=CCC(=C(C)C)C(=O)CC(C)=CCC1
REMARK SMILES IDX 12 1 14 2 13 3 15 4 16 5 2 6 1 7 3 8 11 10 9 11 10 12 5 13
REMARK SMILES IDX 6 14 7 15 8 16 4 17
REMARK H PARENT
REMARK Flexibility Score: 60.00
ROOT
ATOM      1  C   UNL     1      28.632  38.677  17.758  1.00  0.00    -0.070 C 
ATOM      2  C   UNL     1      27.883  39.774  17.504  1.00  0.00    -0.027 C 
ATOM      3  C   UNL     1      29.014  37.795  16.597  1.00  0.00     0.039 C 
ENDROOT
BRANCH   2   4
ATOM      4  C   UNL     1      27.292  40.679  18.556  1.00  0.00     0.032 C 
BRANCH   4   5
ATOM      5  C   UNL     1      28.090  40.553  19.858  1.00  0.00     0.034 C 
BRANCH   5   6
ATOM      6  C   UNL     1      27.197  40.385  21.071  1.00  0.00    -0.077 C 
ATOM      7  C   UNL     1      27.174  41.481  22.108  1.00  0.00     0.039 C 
ATOM      8  C   UNL     1      26.357  39.335  21.246  1.00  0.00    -0.023 CG0
ATOM      9  G   UNL     1      26.241  38.093  20.382  1.00  0.00     0.000 G0
ENDBRANCH   5   6
ENDBRANCH   4   5
ENDBRANCH   2   4
BRANCH   1  10
ATOM     10  C   UNL     1      29.119  38.301  19.143  1.00  0.00     0.111 C 
BRANCH  10  11
ATOM     11  C   UNL     1      28.473  37.031  19.643  1.00  0.00     0.163 C 
ATOM     12  O   UNL     1      28.996  35.942  19.281  1.00  0.00    -0.294 OA
BRANCH  11  13
ATOM     13  C   UNL     1      27.278  37.003  20.550  1.00  0.00    -0.002 C 
ATOM     14  C   UNL     1      27.223  36.128  21.601  1.00  0.00    -0.069 C 
ATOM     15  C   UNL     1      26.155  36.222  22.667  1.00  0.00     0.039 C 
ATOM     16  C   UNL     1      28.203  34.983  21.728  1.00  0.00     0.039 C 
BRANCH  13  17
ATOM     17  C   UNL     1      26.223  38.090  20.372  1.00  0.00     0.066 CG0
ATOM     18  G   UNL     1      26.359  39.314  21.259  1.00  0.00     0.000 G0
ENDBRANCH  13  17
ENDBRANCH  11  13
ENDBRANCH  10  11
ENDBRANCH   1  10
TORSDOF 0
ENDMDL
MODEL 7
REMARK VINA RESULT:    -1.038      2.060      4.368
REMARK INTER + INTRA:          -1.049
REMARK INTER:                  -3.772
REMARK INTRA:                   2.722
REMARK UNBOUND:                 0.414
REMARK SMILES CC1=CCC(=C(C)C)C(=O)CC(C)=CCC1
REMARK SMILES IDX 12 1 14 2 13 3 15 4 16 5 2 6 1 7 3 8 11 10 9 11 10 12 5 13
REMARK SMILES IDX 6 14 7 15 8 16 4 17
REMARK H PARENT
REMARK Flexibility Score: 60.00
ROOT
ATOM      1  C   UNL     1      28.630  36.725  19.674  1.00  0.00    -0.070 C 
ATOM      2  C   UNL     1      28.711  37.409  18.510  1.00  0.00    -0.027 C 
ATOM      3  C   UNL     1      28.982  35.260  19.662  1.00  0.00     0.039 C 
ENDROOT
BRANCH   2   4
ATOM      4  C   UNL     1      28.258  38.833  18.310  1.00  0.00     0.032 C 
BRANCH   4   5
ATOM      5  C   UNL     1      28.665  39.682  19.521  1.00  0.00     0.034 C 
BRANCH   5   6
ATOM      6  C   UNL     1      27.501  40.463  20.098  1.00  0.00    -0.077 C 
ATOM      7  C   UNL     1      27.749  41.864  20.598  1.00  0.00     0.039 C 
ATOM      8  C   UNL     1      26.226  40.001  20.125  1.00  0.00    -0.023 CG0
ATOM      9  G   UNL     1      25.738  38.617  19.736  1.00  0.00     0.000 G0
ENDBRANCH   5   6
ENDBRANCH   4   5
ENDBRANCH   2   4
BRANCH   1  10
ATOM     10  C   UNL     1      28.222  37.361  20.987  1.00  0.00     0.111 C 
BRANCH  10  11
ATOM     11  C   UNL     1      26.828  36.956  21.402  1.00  0.00     0.163 C 
ATOM     12  O   UNL     1      26.730  36.051  22.274  1.00  0.00    -0.294 OA
BRANCH  11  13
ATOM     13  C   UNL     1      25.579  37.582  20.853  1.00  0.00    -0.002 C 
ATOM     14  C   UNL     1      24.369  37.357  21.451  1.00  0.00    -0.069 C 
ATOM     15  C   UNL     1      23.132  38.142  21.078  1.00  0.00     0.039 C 
ATOM     16  C   UNL     1      24.189  36.271  22.488  1.00  0.00     0.039 C 
BRANCH  13  17
ATOM     17  C   UNL     1      25.728  38.607  19.734  1.00  0.00     0.066 CG0
ATOM     18  G   UNL     1      26.233  39.980  20.138  1.00  0.00     0.000 G0
ENDBRANCH  13  17
ENDBRANCH  11  13
ENDBRANCH  10  11
ENDBRANCH   1  10
TORSDOF 0
ENDMDL
MODEL 8
REMARK VINA RESULT:    -0.451      2.414      5.401
REMARK INTER + INTRA:          -0.221
REMARK INTER:                  -2.506
REMARK INTRA:                   2.285
REMARK UNBOUND:                 0.414
REMARK SMILES CC1=CCC(=C(C)C)C(=O)CC(C)=CCC1
REMARK SMILES IDX 12 1 14 2 13 3 15 4 16 5 2 6 1 7 3 8 11 10 9 11 10 12 5 13
REMARK SMILES IDX 6 14 7 15 8 16 4 17
REMARK H PARENT
REMARK Flexibility Score: 60.00
ROOT
ATOM      1  C   UNL     1      23.934  38.402  21.100  1.00  0.00    -0.070 C 
ATOM      2  C   UNL     1      24.685  39.513  21.279  1.00  0.00    -0.027 C 
ATOM      3  C   UNL     1      22.452  38.500  21.352  1.00  0.00     0.039 C 
ENDROOT
BRANCH   2   4
ATOM      4  C   UNL     1      26.191  39.557  21.214  1.00  0.00     0.032 C 
BRANCH   4   5
ATOM      5  C   UNL     1      26.635  40.370  19.993  1.00  0.00     0.034 C 
BRANCH   5   6
ATOM      6  C   UNL     1      27.962  39.897  19.433  1.00  0.00    -0.077 C 
ATOM      7  C   UNL     1      29.085  40.895  19.296  1.00  0.00     0.039 C 
ATOM      8  C   UNL     1      28.224  38.605  19.113  1.00  0.00    -0.023 CG0
ATOM      9  G   UNL     1      27.252  37.440  19.110  1.00  0.00     0.000 G0
ENDBRANCH   5   6
ENDBRANCH   4   5
ENDBRANCH   2   4
BRANCH   1  10
ATOM     10  C   UNL     1      24.505  37.075  20.641  1.00  0.00     0.111 C 
BRANCH  10  11
ATOM     11  C   UNL     1      25.876  36.821  21.219  1.00  0.00     0.163 C 
ATOM     12  O   UNL     1      25.967  36.760  22.475  1.00  0.00    -0.294 OA
BRANCH  11  13
ATOM     13  C   UNL     1      27.109  36.618  20.386  1.00  0.00    -0.002 C 
ATOM     14  C   UNL     1      27.997  35.623  20.691  1.00  0.00    -0.069 C 
ATOM     15  C   UNL     1      29.120  35.237  19.754  1.00  0.00     0.039 C 
ATOM     16  C   UNL     1      27.936  34.885  22.009  1.00  0.00     0.039 C 
BRANCH  13  17
ATOM     17  C   UNL     1      27.241  37.429  19.102  1.00  0.00     0.066 CG0
ATOM     18  G   UNL     1      28.221  38.587  19.131  1.00  0.00     0.000 G0
ENDBRANCH  13  17
ENDBRANCH  11  13
ENDBRANCH  10  11
ENDBRANCH   1  10
TORSDOF 0
ENDMDL
