MODEL 1
REMARK VINA RESULT:    -2.740      0.000      0.000
REMARK INTER + INTRA:          -2.345
REMARK INTER:                  -3.381
REMARK INTRA:                   1.036
REMARK UNBOUND:                 1.036
REMARK SMILES CC1=CC=CC(C)(C)CC1=O
REMARK SMILES IDX 1 1 2 2 3 3 10 4 11 5 9 6 4 8 5 9 6 10 7 11 8 12
REMARK H PARENT
REMARK Flexibility Score: 80.00
ROOT
ATOM      1  C   UNL     1      23.175  22.884  27.201  1.00  0.00     0.048 C 
ATOM      2  C   UNL     1      24.433  23.007  26.374  1.00  0.00    -0.008 C 
ATOM      3  C   UNL     1      24.310  22.914  25.033  1.00  0.00     0.007 C 
ENDROOT
BRANCH   2   4
ATOM      4  C   UNL     1      25.715  23.146  27.110  1.00  0.00     0.159 C 
ATOM      5  O   UNL     1      25.684  23.428  28.339  1.00  0.00    -0.295 OA
BRANCH   4   6
ATOM      6  C   UNL     1      27.058  22.981  26.467  1.00  0.00     0.091 CG0
ATOM      7  G   UNL     1      27.289  23.945  25.282  1.00  0.00     0.000 G0
ENDBRANCH   4   6
ENDBRANCH   2   4
BRANCH   3   8
ATOM      8  C   UNL     1      25.349  22.968  23.977  1.00  0.00    -0.003 C 
ATOM      9  C   UNL     1      26.620  23.377  24.064  1.00  0.00    -0.020 C 
BRANCH   9  10
ATOM     10  C   UNL     1      27.306  23.923  25.294  1.00  0.00    -0.010 CG0
ATOM     11  C   UNL     1      28.810  24.139  25.009  1.00  0.00     0.016 C 
ATOM     12  C   UNL     1      26.682  25.298  25.628  1.00  0.00     0.016 C 
ATOM     13  G   UNL     1      27.056  22.979  26.491  1.00  0.00     0.000 G0
ENDBRANCH   9  10
ENDBRANCH   3   8
TORSDOF 0
ENDMDL
MODEL 2
REMARK VINA RESULT:    -1.645      1.475      2.446
REMARK INTER + INTRA:          -0.994
REMARK INTER:                  -1.736
REMARK INTRA:                   0.742
REMARK UNBOUND:                 1.036
REMARK SMILES CC1=CC=CC(C)(C)CC1=O
REMARK SMILES IDX 1 1 2 2 3 3 10 4 11 5 9 6 4 8 5 9 6 10 7 11 8 12
REMARK H PARENT
REMARK Flexibility Score: 80.00
ROOT
ATOM      1  C   UNL     1      23.013  22.875  26.383  1.00  0.00     0.048 C 
ATOM      2  C   UNL     1      24.517  22.908  26.245  1.00  0.00    -0.008 C 
ATOM      3  C   UNL     1      25.248  22.889  27.380  1.00  0.00     0.007 C 
ENDROOT
BRANCH   2   4
ATOM      4  C   UNL     1      25.067  23.035  24.873  1.00  0.00     0.159 C 
ATOM      5  O   UNL     1      24.276  23.273  23.919  1.00  0.00    -0.295 OA
BRANCH   4   6
ATOM      6  C   UNL     1      26.522  22.881  24.549  1.00  0.00     0.091 CG0
ATOM      7  G   UNL     1      27.425  23.868  25.321  1.00  0.00     0.000 G0
ENDBRANCH   4   6
ENDBRANCH   2   4
BRANCH   3   8
ATOM      8  C   UNL     1      26.719  22.938  27.564  1.00  0.00    -0.003 C 
ATOM      9  C   UNL     1      27.662  23.351  26.711  1.00  0.00    -0.020 C 
BRANCH   9  10
ATOM     10  C   UNL     1      27.443  23.854  25.303  1.00  0.00    -0.010 CG0
ATOM     11  C   UNL     1      26.908  25.304  25.338  1.00  0.00     0.016 C 
ATOM     12  C   UNL     1      28.806  23.866  24.574  1.00  0.00     0.016 C 
ATOM     13  G   UNL     1      26.503  22.889  24.547  1.00  0.00     0.000 G0
ENDBRANCH   9  10
ENDBRANCH   3   8
TORSDOF 0
ENDMDL
MODEL 3
REMARK VINA RESULT:    -0.809      5.592      6.837
REMARK INTER + INTRA:           0.037
REMARK INTER:                  -0.717
REMARK INTRA:                   0.755
REMARK UNBOUND:                 1.036
REMARK SMILES CC1=CC=CC(C)(C)CC1=O
REMARK SMILES IDX 1 1 2 2 3 3 10 4 11 5 9 6 4 8 5 9 6 10 7 11 8 12
REMARK H PARENT
REMARK Flexibility Score: 80.00
ROOT
ATOM      1  C   UNL     1      28.080  28.534  28.262  1.00  0.00     0.048 C 
ATOM      2  C   UNL     1      28.477  29.064  26.903  1.00  0.00    -0.008 C 
ATOM      3  C   UNL     1      28.736  30.385  26.799  1.00  0.00     0.007 C 
ENDROOT
BRANCH   2   4
ATOM      4  C   UNL     1      28.475  28.100  25.775  1.00  0.00     0.159 C 
ATOM      5  O   UNL     1      27.909  26.982  25.930  1.00  0.00    -0.295 OA
BRANCH   4   6
ATOM      6  C   UNL     1      29.125  28.374  24.453  1.00  0.00     0.091 CG0
ATOM      7  G   UNL     1      28.520  29.590  23.718  1.00  0.00     0.000 G0
ENDBRANCH   4   6
ENDBRANCH   2   4
BRANCH   3   8
ATOM      8  C   UNL     1      29.116  31.189  25.613  1.00  0.00    -0.003 C 
ATOM      9  C   UNL     1      29.019  30.876  24.316  1.00  0.00    -0.020 C 
BRANCH   9  10
ATOM     10  C   UNL     1      28.508  29.576  23.741  1.00  0.00    -0.010 CG0
ATOM     11  C   UNL     1      26.963  29.551  23.786  1.00  0.00     0.016 C 
ATOM     12  C   UNL     1      28.943  29.496  22.260  1.00  0.00     0.016 C 
ATOM     13  G   UNL     1      29.145  28.388  24.494  1.00  0.00     0.000 G0
ENDBRANCH   9  10
ENDBRANCH   3   8
TORSDOF 0
ENDMDL
MODEL 4
REMARK VINA RESULT:    -0.218      1.360      2.464
REMARK INTER + INTRA:           0.767
REMARK INTER:                   0.013
REMARK INTRA:                   0.754
REMARK UNBOUND:                 1.036
REMARK SMILES CC1=CC=CC(C)(C)CC1=O
REMARK SMILES IDX 1 1 2 2 3 3 10 4 11 5 9 6 4 8 5 9 6 10 7 11 8 12
REMARK H PARENT
REMARK Flexibility Score: 80.00
ROOT
ATOM      1  C   UNL     1      24.103  25.459  27.803  1.00  0.00     0.048 C 
ATOM      2  C   UNL     1      25.394  25.107  27.102  1.00  0.00    -0.008 C 
ATOM      3  C   UNL     1      26.227  26.121  26.781  1.00  0.00     0.007 C 
ENDROOT
BRANCH   2   4
ATOM      4  C   UNL     1      25.607  23.680  26.755  1.00  0.00     0.159 C 
ATOM      5  O   UNL     1      24.643  22.875  26.869  1.00  0.00    -0.295 OA
BRANCH   4   6
ATOM      6  C   UNL     1      26.920  23.132  26.284  1.00  0.00     0.091 CG0
ATOM      7  G   UNL     1      27.441  23.817  25.001  1.00  0.00     0.000 G0
ENDBRANCH   4   6
ENDBRANCH   2   4
BRANCH   3   8
ATOM      8  C   UNL     1      27.531  26.093  26.078  1.00  0.00    -0.003 C 
ATOM      9  C   UNL     1      28.054  25.132  25.307  1.00  0.00    -0.020 C 
BRANCH   9  10
ATOM     10  C   UNL     1      27.426  23.796  24.987  1.00  0.00    -0.010 CG0
ATOM     11  C   UNL     1      26.314  23.975  23.928  1.00  0.00     0.016 C 
ATOM     12  C   UNL     1      28.515  22.879  24.385  1.00  0.00     0.016 C 
ATOM     13  G   UNL     1      26.910  23.139  26.287  1.00  0.00     0.000 G0
ENDBRANCH   9  10
ENDBRANCH   3   8
TORSDOF 0
ENDMDL
