MODEL 1
REMARK VINA RESULT:    -7.450      0.000      0.000
REMARK INTER + INTRA:         -13.007
REMARK INTER:                 -11.369
REMARK INTRA:                  -1.638
REMARK UNBOUND:                -1.638
REMARK SMILES COc1cc(C=CC(=O)CC(=O)C=Cc2ccc(O)c(OC)c2)ccc1O
REMARK SMILES IDX 10 1 8 2 9 3 7 4 6 5 5 6 3 7 26 8 4 9 25 10 24 11 2 12 1 13
REMARK SMILES IDX 27 14 11 16 12 17 13 18 14 19 15 20 23 21 16 22 20 23 17 24
REMARK SMILES IDX 18 25 21 26 22 27 19 28
REMARK H PARENT 27 15 19 29
REMARK Flexibility Score: inf
ROOT
ATOM      1  C   UNL     1     -12.135 -17.045  31.579  1.00  0.00     0.160 C 
ENDROOT
BRANCH   1   2
ATOM      2  C   UNL     1     -10.658 -17.208  31.859  1.00  0.00     0.163 C 
ATOM      3  O   UNL     1     -10.175 -18.366  32.000  1.00  0.00    -0.294 OA
BRANCH   2   4
ATOM      4  C   UNL     1      -9.726 -16.060  31.906  1.00  0.00     0.048 C 
ATOM      5  C   UNL     1      -8.704 -15.902  31.052  1.00  0.00     0.012 C 
BRANCH   5   6
ATOM      6  C   UNL     1      -7.769 -14.751  31.096  1.00  0.00    -0.022 A 
ATOM      7  C   UNL     1      -5.921 -13.422  30.189  1.00  0.00     0.161 A 
ATOM      8  C   UNL     1      -6.061 -12.516  31.255  1.00  0.00     0.157 A 
ATOM      9  C   UNL     1      -6.783 -14.536  30.113  1.00  0.00     0.058 A 
ATOM     10  C   UNL     1      -7.052 -12.718  32.220  1.00  0.00     0.051 A 
ATOM     11  C   UNL     1      -7.902 -13.821  32.139  1.00  0.00     0.012 A 
BRANCH   7  12
ATOM     12  O   UNL     1      -4.925 -13.186  29.227  1.00  0.00    -0.493 OA
ATOM     13  C   UNL     1      -3.670 -13.858  29.180  1.00  0.00     0.278 C 
ENDBRANCH   7  12
BRANCH   8  14
ATOM     14  O   UNL     1      -5.227 -11.404  31.370  1.00  0.00    -0.504 OA
ATOM     15  H   UNL     1      -5.249 -10.794  32.178  1.00  0.00     0.293 HD
ENDBRANCH   8  14
ENDBRANCH   5   6
ENDBRANCH   2   4
ENDBRANCH   1   2
BRANCH   1  16
ATOM     16  C   UNL     1     -12.490 -17.256  30.125  1.00  0.00     0.163 C 
ATOM     17  O   UNL     1     -13.247 -18.213  29.805  1.00  0.00    -0.294 OA
BRANCH  16  18
ATOM     18  C   UNL     1     -12.034 -16.344  29.054  1.00  0.00     0.048 C 
ATOM     19  C   UNL     1     -11.010 -16.625  28.235  1.00  0.00     0.012 C 
BRANCH  19  20
ATOM     20  C   UNL     1     -10.535 -15.704  27.173  1.00  0.00    -0.022 A 
ATOM     21  C   UNL     1      -9.194 -15.282  27.084  1.00  0.00     0.058 A 
ATOM     22  C   UNL     1     -11.466 -15.207  26.250  1.00  0.00     0.012 A 
ATOM     23  C   UNL     1      -8.784 -14.397  26.067  1.00  0.00     0.161 A 
ATOM     24  C   UNL     1     -11.067 -14.330  25.241  1.00  0.00     0.051 A 
ATOM     25  C   UNL     1      -9.733 -13.926  25.142  1.00  0.00     0.157 A 
BRANCH  23  26
ATOM     26  O   UNL     1      -7.454 -13.963  25.949  1.00  0.00    -0.493 OA
ATOM     27  C   UNL     1      -6.336 -14.610  26.549  1.00  0.00     0.278 C 
ENDBRANCH  23  26
BRANCH  25  28
ATOM     28  O   UNL     1      -9.370 -13.050  24.118  1.00  0.00    -0.504 OA
ATOM     29  H   UNL     1      -8.478 -12.571  24.108  1.00  0.00     0.293 HD
ENDBRANCH  25  28
ENDBRANCH  19  20
ENDBRANCH  16  18
ENDBRANCH   1  16
TORSDOF 10
ENDMDL
MODEL 2
REMARK VINA RESULT:    -7.353      0.223      5.380
REMARK INTER + INTRA:         -12.859
REMARK INTER:                 -11.362
REMARK INTRA:                  -1.497
REMARK UNBOUND:                -1.638
REMARK SMILES COc1cc(C=CC(=O)CC(=O)C=Cc2ccc(O)c(OC)c2)ccc1O
REMARK SMILES IDX 10 1 8 2 9 3 7 4 6 5 5 6 3 7 26 8 4 9 25 10 24 11 2 12 1 13
REMARK SMILES IDX 27 14 11 16 12 17 13 18 14 19 15 20 23 21 16 22 20 23 17 24
REMARK SMILES IDX 18 25 21 26 22 27 19 28
REMARK H PARENT 27 15 19 29
REMARK Flexibility Score: inf
ROOT
ATOM      1  C   UNL     1     -12.002 -17.139  31.706  1.00  0.00     0.160 C 
ENDROOT
BRANCH   1   2
ATOM      2  C   UNL     1     -12.536 -17.150  30.291  1.00  0.00     0.163 C 
ATOM      3  O   UNL     1     -13.488 -17.922  29.992  1.00  0.00    -0.294 OA
BRANCH   2   4
ATOM      4  C   UNL     1     -12.033 -16.234  29.245  1.00  0.00     0.048 C 
ATOM      5  C   UNL     1     -11.178 -16.611  28.282  1.00  0.00     0.012 C 
BRANCH   5   6
ATOM      6  C   UNL     1     -10.673 -15.695  27.229  1.00  0.00    -0.022 A 
ATOM      7  C   UNL     1      -8.891 -14.403  26.153  1.00  0.00     0.161 A 
ATOM      8  C   UNL     1      -9.804 -13.976  25.172  1.00  0.00     0.157 A 
ATOM      9  C   UNL     1      -9.331 -15.267  27.177  1.00  0.00     0.058 A 
ATOM     10  C   UNL     1     -11.130 -14.416  25.214  1.00  0.00     0.051 A 
ATOM     11  C   UNL     1     -11.560 -15.272  26.228  1.00  0.00     0.012 A 
BRANCH   7  12
ATOM     12  O   UNL     1      -7.561 -13.955  26.079  1.00  0.00    -0.493 OA
ATOM     13  C   UNL     1      -6.431 -14.696  26.526  1.00  0.00     0.278 C 
ENDBRANCH   7  12
BRANCH   8  14
ATOM     14  O   UNL     1      -9.411 -13.118  24.146  1.00  0.00    -0.504 OA
ATOM     15  H   UNL     1     -10.079 -12.676  23.526  1.00  0.00     0.293 HD
ENDBRANCH   8  14
ENDBRANCH   5   6
ENDBRANCH   2   4
ENDBRANCH   1   2
BRANCH   1  16
ATOM     16  C   UNL     1     -10.491 -17.169  31.770  1.00  0.00     0.163 C 
ATOM     17  O   UNL     1      -9.895 -18.279  31.800  1.00  0.00    -0.294 OA
BRANCH  16  18
ATOM     18  C   UNL     1      -9.670 -15.939  31.739  1.00  0.00     0.048 C 
ATOM     19  C   UNL     1      -8.481 -15.864  31.123  1.00  0.00     0.012 C 
BRANCH  19  20
ATOM     20  C   UNL     1      -7.644 -14.639  31.107  1.00  0.00    -0.022 A 
ATOM     21  C   UNL     1      -6.715 -14.373  30.081  1.00  0.00     0.058 A 
ATOM     22  C   UNL     1      -7.756 -13.735  32.173  1.00  0.00     0.012 A 
ATOM     23  C   UNL     1      -5.930 -13.203  30.107  1.00  0.00     0.161 A 
ATOM     24  C   UNL     1      -6.981 -12.575  32.205  1.00  0.00     0.051 A 
ATOM     25  C   UNL     1      -6.073 -12.303  31.178  1.00  0.00     0.157 A 
BRANCH  23  26
ATOM     26  O   UNL     1      -5.002 -12.907  29.096  1.00  0.00    -0.493 OA
ATOM     27  C   UNL     1      -3.762 -13.583  28.913  1.00  0.00     0.278 C 
ENDBRANCH  23  26
BRANCH  25  28
ATOM     28  O   UNL     1      -5.317 -11.131  31.242  1.00  0.00    -0.504 OA
ATOM     29  H   UNL     1      -5.082 -10.595  30.416  1.00  0.00     0.293 HD
ENDBRANCH  25  28
ENDBRANCH  19  20
ENDBRANCH  16  18
ENDBRANCH   1  16
TORSDOF 10
ENDMDL
MODEL 3
REMARK VINA RESULT:    -7.064      1.734      6.977
REMARK INTER + INTRA:         -12.418
REMARK INTER:                 -11.439
REMARK INTRA:                  -0.979
REMARK UNBOUND:                -1.638
REMARK SMILES COc1cc(C=CC(=O)CC(=O)C=Cc2ccc(O)c(OC)c2)ccc1O
REMARK SMILES IDX 10 1 8 2 9 3 7 4 6 5 5 6 3 7 26 8 4 9 25 10 24 11 2 12 1 13
REMARK SMILES IDX 27 14 11 16 12 17 13 18 14 19 15 20 23 21 16 22 20 23 17 24
REMARK SMILES IDX 18 25 21 26 22 27 19 28
REMARK H PARENT 27 15 19 29
REMARK Flexibility Score: inf
ROOT
ATOM      1  C   UNL     1      -6.206 -14.902  31.224  1.00  0.00     0.160 C 
ENDROOT
BRANCH   1   2
ATOM      2  C   UNL     1      -5.953 -14.518  29.784  1.00  0.00     0.163 C 
ATOM      3  O   UNL     1      -4.776 -14.545  29.330  1.00  0.00    -0.294 OA
BRANCH   2   4
ATOM      4  C   UNL     1      -7.047 -14.173  28.850  1.00  0.00     0.048 C 
ATOM      5  C   UNL     1      -7.135 -14.662  27.604  1.00  0.00     0.012 C 
BRANCH   5   6
ATOM      6  C   UNL     1      -8.233 -14.319  26.665  1.00  0.00    -0.022 A 
ATOM      7  C   UNL     1     -10.522 -14.559  25.826  1.00  0.00     0.161 A 
ATOM      8  C   UNL     1     -10.260 -13.576  24.855  1.00  0.00     0.157 A 
ATOM      9  C   UNL     1      -9.504 -14.923  26.732  1.00  0.00     0.058 A 
ATOM     10  C   UNL     1      -9.005 -12.963  24.801  1.00  0.00     0.051 A 
ATOM     11  C   UNL     1      -8.002 -13.326  25.701  1.00  0.00     0.012 A 
BRANCH   7  12
ATOM     12  O   UNL     1     -11.796 -15.149  25.864  1.00  0.00    -0.493 OA
ATOM     13  C   UNL     1     -12.143 -16.276  26.661  1.00  0.00     0.278 C 
ENDBRANCH   7  12
BRANCH   8  14
ATOM     14  O   UNL     1     -11.237 -13.191  23.937  1.00  0.00    -0.504 OA
ATOM     15  H   UNL     1     -12.217 -13.132  24.184  1.00  0.00     0.293 HD
ENDBRANCH   8  14
ENDBRANCH   5   6
ENDBRANCH   2   4
ENDBRANCH   1   2
BRANCH   1  16
ATOM     16  C   UNL     1      -7.537 -14.410  31.745  1.00  0.00     0.163 C 
ATOM     17  O   UNL     1      -7.594 -13.306  32.353  1.00  0.00    -0.294 OA
BRANCH  16  18
ATOM     18  C   UNL     1      -8.800 -15.145  31.519  1.00  0.00     0.048 C 
ATOM     19  C   UNL     1      -8.872 -16.483  31.458  1.00  0.00     0.012 C 
BRANCH  19  20
ATOM     20  C   UNL     1     -10.134 -17.223  31.212  1.00  0.00    -0.022 A 
ATOM     21  C   UNL     1     -10.624 -18.197  32.104  1.00  0.00     0.058 A 
ATOM     22  C   UNL     1     -10.841 -16.971  30.027  1.00  0.00     0.012 A 
ATOM     23  C   UNL     1     -11.822 -18.888  31.829  1.00  0.00     0.161 A 
ATOM     24  C   UNL     1     -12.026 -17.652  29.749  1.00  0.00     0.051 A 
ATOM     25  C   UNL     1     -12.521 -18.604  30.643  1.00  0.00     0.157 A 
BRANCH  23  26
ATOM     26  O   UNL     1     -12.338 -19.859  32.702  1.00  0.00    -0.493 OA
ATOM     27  C   UNL     1     -11.602 -20.476  33.753  1.00  0.00     0.278 C 
ENDBRANCH  23  26
BRANCH  25  28
ATOM     28  O   UNL     1     -13.712 -19.263  30.333  1.00  0.00    -0.504 OA
ATOM     29  H   UNL     1     -14.451 -18.821  29.800  1.00  0.00     0.293 HD
ENDBRANCH  25  28
ENDBRANCH  19  20
ENDBRANCH  16  18
ENDBRANCH   1  16
TORSDOF 10
ENDMDL
MODEL 4
REMARK VINA RESULT:    -7.061      1.685      6.392
REMARK INTER + INTRA:         -12.414
REMARK INTER:                 -11.367
REMARK INTRA:                  -1.047
REMARK UNBOUND:                -1.638
REMARK SMILES COc1cc(C=CC(=O)CC(=O)C=Cc2ccc(O)c(OC)c2)ccc1O
REMARK SMILES IDX 10 1 8 2 9 3 7 4 6 5 5 6 3 7 26 8 4 9 25 10 24 11 2 12 1 13
REMARK SMILES IDX 27 14 11 16 12 17 13 18 14 19 15 20 23 21 16 22 20 23 17 24
REMARK SMILES IDX 18 25 21 26 22 27 19 28
REMARK H PARENT 27 15 19 29
REMARK Flexibility Score: inf
ROOT
ATOM      1  C   UNL     1     -10.012 -15.336  25.313  1.00  0.00     0.160 C 
ENDROOT
BRANCH   1   2
ATOM      2  C   UNL     1     -11.153 -15.468  26.297  1.00  0.00     0.163 C 
ATOM      3  O   UNL     1     -12.330 -15.211  25.922  1.00  0.00    -0.294 OA
BRANCH   2   4
ATOM      4  C   UNL     1     -10.958 -15.959  27.678  1.00  0.00     0.048 C 
ATOM      5  C   UNL     1     -11.720 -16.910  28.239  1.00  0.00     0.012 C 
BRANCH   5   6
ATOM      6  C   UNL     1     -11.526 -17.405  29.624  1.00  0.00    -0.022 A 
ATOM      7  C   UNL     1     -10.166 -17.746  31.634  1.00  0.00     0.161 A 
ATOM      8  C   UNL     1     -11.267 -18.351  32.266  1.00  0.00     0.157 A 
ATOM      9  C   UNL     1     -10.304 -17.271  30.313  1.00  0.00     0.058 A 
ATOM     10  C   UNL     1     -12.485 -18.467  31.589  1.00  0.00     0.051 A 
ATOM     11  C   UNL     1     -12.616 -17.993  30.284  1.00  0.00     0.012 A 
BRANCH   7  12
ATOM     12  O   UNL     1      -8.958 -17.632  32.342  1.00  0.00    -0.493 OA
ATOM     13  C   UNL     1      -7.923 -16.705  32.035  1.00  0.00     0.278 C 
ENDBRANCH   7  12
BRANCH   8  14
ATOM     14  O   UNL     1     -11.172 -18.839  33.569  1.00  0.00    -0.504 OA
ATOM     15  H   UNL     1     -10.282 -19.063  33.998  1.00  0.00     0.293 HD
ENDBRANCH   8  14
ENDBRANCH   5   6
ENDBRANCH   2   4
ENDBRANCH   1   2
BRANCH   1  16
ATOM     16  C   UNL     1      -9.343 -13.981  25.359  1.00  0.00     0.163 C 
ATOM     17  O   UNL     1      -9.826 -13.029  24.689  1.00  0.00    -0.294 OA
BRANCH  16  18
ATOM     18  C   UNL     1      -8.167 -13.703  26.212  1.00  0.00     0.048 C 
ATOM     19  C   UNL     1      -7.490 -14.659  26.866  1.00  0.00     0.012 C 
BRANCH  19  20
ATOM     20  C   UNL     1      -6.323 -14.383  27.739  1.00  0.00    -0.022 A 
ATOM     21  C   UNL     1      -6.432 -13.646  28.935  1.00  0.00     0.058 A 
ATOM     22  C   UNL     1      -5.060 -14.839  27.336  1.00  0.00     0.012 A 
ATOM     23  C   UNL     1      -5.297 -13.394  29.732  1.00  0.00     0.161 A 
ATOM     24  C   UNL     1      -3.932 -14.593  28.120  1.00  0.00     0.051 A 
ATOM     25  C   UNL     1      -4.044 -13.877  29.315  1.00  0.00     0.157 A 
BRANCH  23  26
ATOM     26  O   UNL     1      -5.377 -12.669  30.931  1.00  0.00    -0.493 OA
ATOM     27  C   UNL     1      -5.746 -11.297  31.025  1.00  0.00     0.278 C 
ENDBRANCH  23  26
BRANCH  25  28
ATOM     28  O   UNL     1      -2.895 -13.653  30.075  1.00  0.00    -0.504 OA
ATOM     29  H   UNL     1      -2.183 -12.990  29.795  1.00  0.00     0.293 HD
ENDBRANCH  25  28
ENDBRANCH  19  20
ENDBRANCH  16  18
ENDBRANCH   1  16
TORSDOF 10
ENDMDL
MODEL 5
REMARK VINA RESULT:    -7.018      1.746      6.116
REMARK INTER + INTRA:         -12.349
REMARK INTER:                 -11.471
REMARK INTRA:                  -0.878
REMARK UNBOUND:                -1.638
REMARK SMILES COc1cc(C=CC(=O)CC(=O)C=Cc2ccc(O)c(OC)c2)ccc1O
REMARK SMILES IDX 10 1 8 2 9 3 7 4 6 5 5 6 3 7 26 8 4 9 25 10 24 11 2 12 1 13
REMARK SMILES IDX 27 14 11 16 12 17 13 18 14 19 15 20 23 21 16 22 20 23 17 24
REMARK SMILES IDX 18 25 21 26 22 27 19 28
REMARK H PARENT 27 15 19 29
REMARK Flexibility Score: inf
ROOT
ATOM      1  C   UNL     1      -5.991 -14.592  31.002  1.00  0.00     0.160 C 
ENDROOT
BRANCH   1   2
ATOM      2  C   UNL     1      -7.398 -14.495  31.546  1.00  0.00     0.163 C 
ATOM      3  O   UNL     1      -7.792 -13.414  32.065  1.00  0.00    -0.294 OA
BRANCH   2   4
ATOM      4  C   UNL     1      -8.371 -15.604  31.434  1.00  0.00     0.048 C 
ATOM      5  C   UNL     1      -9.686 -15.458  31.658  1.00  0.00     0.012 C 
BRANCH   5   6
ATOM      6  C   UNL     1     -10.664 -16.569  31.545  1.00  0.00    -0.022 A 
ATOM      7  C   UNL     1     -11.433 -18.840  32.048  1.00  0.00     0.161 A 
ATOM      8  C   UNL     1     -12.596 -18.604  31.295  1.00  0.00     0.157 A 
ATOM      9  C   UNL     1     -10.472 -17.815  32.173  1.00  0.00     0.058 A 
ATOM     10  C   UNL     1     -12.796 -17.361  30.688  1.00  0.00     0.051 A 
ATOM     11  C   UNL     1     -11.843 -16.350  30.816  1.00  0.00     0.012 A 
BRANCH   7  12
ATOM     12  O   UNL     1     -11.265 -20.095  32.658  1.00  0.00    -0.493 OA
ATOM     13  C   UNL     1     -11.852 -20.478  33.896  1.00  0.00     0.278 C 
ENDBRANCH   7  12
BRANCH   8  14
ATOM     14  O   UNL     1     -13.569 -19.592  31.142  1.00  0.00    -0.504 OA
ATOM     15  H   UNL     1     -14.378 -19.465  30.547  1.00  0.00     0.293 HD
ENDBRANCH   8  14
ENDBRANCH   5   6
ENDBRANCH   2   4
ENDBRANCH   1   2
BRANCH   1  16
ATOM     16  C   UNL     1      -5.930 -14.498  29.494  1.00  0.00     0.163 C 
ATOM     17  O   UNL     1      -4.828 -14.673  28.907  1.00  0.00    -0.294 OA
BRANCH  16  18
ATOM     18  C   UNL     1      -7.131 -14.265  28.663  1.00  0.00     0.048 C 
ATOM     19  C   UNL     1      -7.170 -14.504  27.344  1.00  0.00     0.012 C 
BRANCH  19  20
ATOM     20  C   UNL     1      -8.366 -14.253  26.503  1.00  0.00    -0.022 A 
ATOM     21  C   UNL     1      -9.563 -14.981  26.656  1.00  0.00     0.058 A 
ATOM     22  C   UNL     1      -8.286 -13.283  25.494  1.00  0.00     0.012 A 
ATOM     23  C   UNL     1     -10.675 -14.721  25.830  1.00  0.00     0.161 A 
ATOM     24  C   UNL     1      -9.383 -13.021  24.672  1.00  0.00     0.051 A 
ATOM     25  C   UNL     1     -10.575 -13.731  24.836  1.00  0.00     0.157 A 
BRANCH  23  26
ATOM     26  O   UNL     1     -11.882 -15.425  25.963  1.00  0.00    -0.493 OA
ATOM     27  C   UNL     1     -12.253 -16.187  27.108  1.00  0.00     0.278 C 
ENDBRANCH  23  26
BRANCH  25  28
ATOM     28  O   UNL     1     -11.652 -13.439  23.998  1.00  0.00    -0.504 OA
ATOM     29  H   UNL     1     -12.572 -13.836  24.143  1.00  0.00     0.293 HD
ENDBRANCH  25  28
ENDBRANCH  19  20
ENDBRANCH  16  18
ENDBRANCH   1  16
TORSDOF 10
ENDMDL
MODEL 6
REMARK VINA RESULT:    -6.993      1.587      5.931
REMARK INTER + INTRA:         -12.311
REMARK INTER:                 -10.834
REMARK INTRA:                  -1.477
REMARK UNBOUND:                -1.638
REMARK SMILES COc1cc(C=CC(=O)CC(=O)C=Cc2ccc(O)c(OC)c2)ccc1O
REMARK SMILES IDX 10 1 8 2 9 3 7 4 6 5 5 6 3 7 26 8 4 9 25 10 24 11 2 12 1 13
REMARK SMILES IDX 27 14 11 16 12 17 13 18 14 19 15 20 23 21 16 22 20 23 17 24
REMARK SMILES IDX 18 25 21 26 22 27 19 28
REMARK H PARENT 27 15 19 29
REMARK Flexibility Score: inf
ROOT
ATOM      1  C   UNL     1      -4.717 -14.135  29.636  1.00  0.00     0.160 C 
ENDROOT
BRANCH   1   2
ATOM      2  C   UNL     1      -6.014 -13.978  30.397  1.00  0.00     0.163 C 
ATOM      3  O   UNL     1      -6.430 -12.821  30.685  1.00  0.00    -0.294 OA
BRANCH   2   4
ATOM      4  C   UNL     1      -6.866 -15.130  30.763  1.00  0.00     0.048 C 
ATOM      5  C   UNL     1      -8.203 -15.122  30.663  1.00  0.00     0.012 C 
BRANCH   5   6
ATOM      6  C   UNL     1      -9.060 -16.277  31.029  1.00  0.00    -0.022 A 
ATOM      7  C   UNL     1     -11.069 -17.654  30.768  1.00  0.00     0.161 A 
ATOM      8  C   UNL     1     -10.599 -18.516  31.775  1.00  0.00     0.157 A 
ATOM      9  C   UNL     1     -10.291 -16.538  30.396  1.00  0.00     0.058 A 
ATOM     10  C   UNL     1      -9.368 -18.268  32.389  1.00  0.00     0.051 A 
ATOM     11  C   UNL     1      -8.602 -17.163  32.016  1.00  0.00     0.012 A 
BRANCH   7  12
ATOM     12  O   UNL     1     -12.304 -17.936  30.160  1.00  0.00    -0.493 OA
ATOM     13  C   UNL     1     -13.489 -17.168  30.340  1.00  0.00     0.278 C 
ENDBRANCH   7  12
BRANCH   8  14
ATOM     14  O   UNL     1     -11.339 -19.628  32.176  1.00  0.00    -0.504 OA
ATOM     15  H   UNL     1     -12.312 -19.560  32.449  1.00  0.00     0.293 HD
ENDBRANCH   8  14
ENDBRANCH   5   6
ENDBRANCH   2   4
ENDBRANCH   1   2
BRANCH   1  16
ATOM     16  C   UNL     1      -4.923 -14.413  28.164  1.00  0.00     0.163 C 
ATOM     17  O   UNL     1      -4.037 -15.041  27.523  1.00  0.00    -0.294 OA
BRANCH  16  18
ATOM     18  C   UNL     1      -6.158 -14.029  27.447  1.00  0.00     0.048 C 
ATOM     19  C   UNL     1      -7.111 -14.907  27.100  1.00  0.00     0.012 C 
BRANCH  19  20
ATOM     20  C   UNL     1      -8.342 -14.529  26.363  1.00  0.00    -0.022 A 
ATOM     21  C   UNL     1      -9.579 -15.166  26.585  1.00  0.00     0.058 A 
ATOM     22  C   UNL     1      -8.258 -13.528  25.384  1.00  0.00     0.012 A 
ATOM     23  C   UNL     1     -10.724 -14.786  25.856  1.00  0.00     0.161 A 
ATOM     24  C   UNL     1      -9.389 -13.148  24.660  1.00  0.00     0.051 A 
ATOM     25  C   UNL     1     -10.619 -13.767  24.892  1.00  0.00     0.157 A 
BRANCH  23  26
ATOM     26  O   UNL     1     -11.972 -15.397  26.059  1.00  0.00    -0.493 OA
ATOM     27  C   UNL     1     -12.272 -16.289  27.128  1.00  0.00     0.278 C 
ENDBRANCH  23  26
BRANCH  25  28
ATOM     28  O   UNL     1     -11.729 -13.359  24.151  1.00  0.00    -0.504 OA
ATOM     29  H   UNL     1     -12.529 -13.960  24.000  1.00  0.00     0.293 HD
ENDBRANCH  25  28
ENDBRANCH  19  20
ENDBRANCH  16  18
ENDBRANCH   1  16
TORSDOF 10
ENDMDL
MODEL 7
REMARK VINA RESULT:    -6.737      2.000      6.462
REMARK INTER + INTRA:         -11.919
REMARK INTER:                 -10.978
REMARK INTRA:                  -0.941
REMARK UNBOUND:                -1.638
REMARK SMILES COc1cc(C=CC(=O)CC(=O)C=Cc2ccc(O)c(OC)c2)ccc1O
REMARK SMILES IDX 10 1 8 2 9 3 7 4 6 5 5 6 3 7 26 8 4 9 25 10 24 11 2 12 1 13
REMARK SMILES IDX 27 14 11 16 12 17 13 18 14 19 15 20 23 21 16 22 20 23 17 24
REMARK SMILES IDX 18 25 21 26 22 27 19 28
REMARK H PARENT 27 15 19 29
REMARK Flexibility Score: inf
ROOT
ATOM      1  C   UNL     1      -9.777 -15.246  25.355  1.00  0.00     0.160 C 
ENDROOT
BRANCH   1   2
ATOM      2  C   UNL     1     -10.952 -15.417  26.291  1.00  0.00     0.163 C 
ATOM      3  O   UNL     1     -12.119 -15.182  25.873  1.00  0.00    -0.294 OA
BRANCH   2   4
ATOM      4  C   UNL     1     -10.800 -15.921  27.673  1.00  0.00     0.048 C 
ATOM      5  C   UNL     1     -11.577 -16.880  28.199  1.00  0.00     0.012 C 
BRANCH   5   6
ATOM      6  C   UNL     1     -11.425 -17.388  29.586  1.00  0.00    -0.022 A 
ATOM      7  C   UNL     1     -10.100 -17.838  31.596  1.00  0.00     0.161 A 
ATOM      8  C   UNL     1     -11.248 -18.351  32.228  1.00  0.00     0.157 A 
ATOM      9  C   UNL     1     -10.197 -17.354  30.275  1.00  0.00     0.058 A 
ATOM     10  C   UNL     1     -12.470 -18.368  31.550  1.00  0.00     0.051 A 
ATOM     11  C   UNL     1     -12.560 -17.885  30.243  1.00  0.00     0.012 A 
BRANCH   7  12
ATOM     12  O   UNL     1      -8.888 -17.823  32.307  1.00  0.00    -0.493 OA
ATOM     13  C   UNL     1      -7.868 -16.844  32.146  1.00  0.00     0.278 C 
ENDBRANCH   7  12
BRANCH   8  14
ATOM     14  O   UNL     1     -11.194 -18.844  33.531  1.00  0.00    -0.504 OA
ATOM     15  H   UNL     1     -11.167 -19.837  33.732  1.00  0.00     0.293 HD
ENDBRANCH   8  14
ENDBRANCH   5   6
ENDBRANCH   2   4
ENDBRANCH   1   2
BRANCH   1  16
ATOM     16  C   UNL     1      -9.090 -13.907  25.503  1.00  0.00     0.163 C 
ATOM     17  O   UNL     1      -9.575 -12.895  24.929  1.00  0.00    -0.294 OA
BRANCH  16  18
ATOM     18  C   UNL     1      -7.893 -13.718  26.351  1.00  0.00     0.048 C 
ATOM     19  C   UNL     1      -6.966 -14.669  26.539  1.00  0.00     0.012 C 
BRANCH  19  20
ATOM     20  C   UNL     1      -5.775 -14.490  27.405  1.00  0.00    -0.022 A 
ATOM     21  C   UNL     1      -4.481 -14.870  26.996  1.00  0.00     0.058 A 
ATOM     22  C   UNL     1      -5.952 -13.960  28.691  1.00  0.00     0.012 A 
ATOM     23  C   UNL     1      -3.375 -14.695  27.852  1.00  0.00     0.161 A 
ATOM     24  C   UNL     1      -4.861 -13.784  29.543  1.00  0.00     0.051 A 
ATOM     25  C   UNL     1      -3.576 -14.145  29.130  1.00  0.00     0.157 A 
BRANCH  23  26
ATOM     26  O   UNL     1      -2.074 -15.058  27.470  1.00  0.00    -0.493 OA
ATOM     27  C   UNL     1      -1.611 -16.399  27.347  1.00  0.00     0.278 C 
ENDBRANCH  23  26
BRANCH  25  28
ATOM     28  O   UNL     1      -2.509 -13.951  30.008  1.00  0.00    -0.504 OA
ATOM     29  H   UNL     1      -2.252 -13.034  30.353  1.00  0.00     0.293 HD
ENDBRANCH  25  28
ENDBRANCH  19  20
ENDBRANCH  16  18
ENDBRANCH   1  16
TORSDOF 10
ENDMDL
MODEL 8
REMARK VINA RESULT:    -6.650      3.313      6.908
REMARK INTER + INTRA:         -11.787
REMARK INTER:                 -11.182
REMARK INTRA:                  -0.605
REMARK UNBOUND:                -1.638
REMARK SMILES COc1cc(C=CC(=O)CC(=O)C=Cc2ccc(O)c(OC)c2)ccc1O
REMARK SMILES IDX 10 1 8 2 9 3 7 4 6 5 5 6 3 7 26 8 4 9 25 10 24 11 2 12 1 13
REMARK SMILES IDX 27 14 11 16 12 17 13 18 14 19 15 20 23 21 16 22 20 23 17 24
REMARK SMILES IDX 18 25 21 26 22 27 19 28
REMARK H PARENT 27 15 19 29
REMARK Flexibility Score: inf
ROOT
ATOM      1  C   UNL     1      -5.689 -14.905  30.739  1.00  0.00     0.160 C 
ENDROOT
BRANCH   1   2
ATOM      2  C   UNL     1      -5.417 -14.003  29.556  1.00  0.00     0.163 C 
ATOM      3  O   UNL     1      -5.867 -12.824  29.556  1.00  0.00    -0.294 OA
BRANCH   2   4
ATOM      4  C   UNL     1      -4.575 -14.422  28.415  1.00  0.00     0.048 C 
ATOM      5  C   UNL     1      -3.247 -14.595  28.500  1.00  0.00     0.012 C 
BRANCH   5   6
ATOM      6  C   UNL     1      -2.401 -15.016  27.356  1.00  0.00    -0.022 A 
ATOM      7  C   UNL     1      -1.009 -16.651  26.176  1.00  0.00     0.161 A 
ATOM      8  C   UNL     1      -0.836 -15.733  25.125  1.00  0.00     0.157 A 
ATOM      9  C   UNL     1      -1.797 -16.288  27.288  1.00  0.00     0.058 A 
ATOM     10  C   UNL     1      -1.450 -14.479  25.184  1.00  0.00     0.051 A 
ATOM     11  C   UNL     1      -2.231 -14.125  26.285  1.00  0.00     0.012 A 
BRANCH   7  12
ATOM     12  O   UNL     1      -0.389 -17.909  26.084  1.00  0.00    -0.493 OA
ATOM     13  C   UNL     1      -1.078 -19.138  25.883  1.00  0.00     0.278 C 
ENDBRANCH   7  12
BRANCH   8  14
ATOM     14  O   UNL     1      -0.060 -16.050  24.011  1.00  0.00    -0.504 OA
ATOM     15  H   UNL     1      -0.252 -15.669  23.092  1.00  0.00     0.293 HD
ENDBRANCH   8  14
ENDBRANCH   5   6
ENDBRANCH   2   4
ENDBRANCH   1   2
BRANCH   1  16
ATOM     16  C   UNL     1      -7.036 -14.654  31.379  1.00  0.00     0.163 C 
ATOM     17  O   UNL     1      -7.132 -13.802  32.303  1.00  0.00    -0.294 OA
BRANCH  16  18
ATOM     18  C   UNL     1      -8.271 -15.328  30.923  1.00  0.00     0.048 C 
ATOM     19  C   UNL     1      -8.763 -16.433  31.502  1.00  0.00     0.012 C 
BRANCH  19  20
ATOM     20  C   UNL     1      -9.990 -17.123  31.036  1.00  0.00    -0.022 A 
ATOM     21  C   UNL     1     -10.514 -16.938  29.741  1.00  0.00     0.058 A 
ATOM     22  C   UNL     1     -10.673 -17.959  31.931  1.00  0.00     0.012 A 
ATOM     23  C   UNL     1     -11.690 -17.603  29.338  1.00  0.00     0.161 A 
ATOM     24  C   UNL     1     -11.837 -18.620  31.539  1.00  0.00     0.051 A 
ATOM     25  C   UNL     1     -12.347 -18.450  30.249  1.00  0.00     0.157 A 
BRANCH  23  26
ATOM     26  O   UNL     1     -12.232 -17.444  28.053  1.00  0.00    -0.493 OA
ATOM     27  C   UNL     1     -11.937 -16.359  27.179  1.00  0.00     0.278 C 
ENDBRANCH  23  26
BRANCH  25  28
ATOM     28  O   UNL     1     -13.511 -19.130  29.891  1.00  0.00    -0.504 OA
ATOM     29  H   UNL     1     -14.433 -18.791  30.138  1.00  0.00     0.293 HD
ENDBRANCH  25  28
ENDBRANCH  19  20
ENDBRANCH  16  18
ENDBRANCH   1  16
TORSDOF 10
ENDMDL
MODEL 9
REMARK VINA RESULT:    -6.504      2.913      6.603
REMARK INTER + INTRA:         -11.564
REMARK INTER:                 -10.849
REMARK INTRA:                  -0.715
REMARK UNBOUND:                -1.638
REMARK SMILES COc1cc(C=CC(=O)CC(=O)C=Cc2ccc(O)c(OC)c2)ccc1O
REMARK SMILES IDX 10 1 8 2 9 3 7 4 6 5 5 6 3 7 26 8 4 9 25 10 24 11 2 12 1 13
REMARK SMILES IDX 27 14 11 16 12 17 13 18 14 19 15 20 23 21 16 22 20 23 17 24
REMARK SMILES IDX 18 25 21 26 22 27 19 28
REMARK H PARENT 27 15 19 29
REMARK Flexibility Score: inf
ROOT
ATOM      1  C   UNL     1      -7.020 -14.012  31.034  1.00  0.00     0.160 C 
ENDROOT
BRANCH   1   2
ATOM      2  C   UNL     1      -6.433 -14.216  29.655  1.00  0.00     0.163 C 
ATOM      3  O   UNL     1      -7.193 -14.514  28.693  1.00  0.00    -0.294 OA
BRANCH   2   4
ATOM      4  C   UNL     1      -4.997 -14.011  29.365  1.00  0.00     0.048 C 
ATOM      5  C   UNL     1      -4.383 -14.514  28.284  1.00  0.00     0.012 C 
BRANCH   5   6
ATOM      6  C   UNL     1      -2.943 -14.308  27.990  1.00  0.00    -0.022 A 
ATOM      7  C   UNL     1      -1.011 -14.349  26.484  1.00  0.00     0.161 A 
ATOM      8  C   UNL     1      -0.201 -13.857  27.523  1.00  0.00     0.157 A 
ATOM      9  C   UNL     1      -2.383 -14.568  26.723  1.00  0.00     0.058 A 
ATOM     10  C   UNL     1      -0.760 -13.582  28.774  1.00  0.00     0.051 A 
ATOM     11  C   UNL     1      -2.119 -13.799  29.005  1.00  0.00     0.012 A 
BRANCH   7  12
ATOM     12  O   UNL     1      -0.423 -14.605  25.233  1.00  0.00    -0.493 OA
ATOM     13  C   UNL     1      -0.043 -15.894  24.766  1.00  0.00     0.278 C 
ENDBRANCH   7  12
BRANCH   8  14
ATOM     14  O   UNL     1       1.162 -13.631  27.331  1.00  0.00    -0.504 OA
ATOM     15  H   UNL     1       1.861 -13.953  27.989  1.00  0.00     0.293 HD
ENDBRANCH   8  14
ENDBRANCH   5   6
ENDBRANCH   2   4
ENDBRANCH   1   2
BRANCH   1  16
ATOM     16  C   UNL     1      -7.189 -15.302  31.803  1.00  0.00     0.163 C 
ATOM     17  O   UNL     1      -6.371 -15.589  32.718  1.00  0.00    -0.294 OA
BRANCH  16  18
ATOM     18  C   UNL     1      -8.320 -16.226  31.568  1.00  0.00     0.048 C 
ATOM     19  C   UNL     1      -9.484 -15.841  31.024  1.00  0.00     0.012 C 
BRANCH  19  20
ATOM     20  C   UNL     1     -10.628 -16.759  30.804  1.00  0.00    -0.022 A 
ATOM     21  C   UNL     1     -10.979 -17.762  31.730  1.00  0.00     0.058 A 
ATOM     22  C   UNL     1     -11.359 -16.649  29.613  1.00  0.00     0.012 A 
ATOM     23  C   UNL     1     -12.066 -18.623  31.481  1.00  0.00     0.161 A 
ATOM     24  C   UNL     1     -12.437 -17.499  29.360  1.00  0.00     0.051 A 
ATOM     25  C   UNL     1     -12.795 -18.481  30.286  1.00  0.00     0.157 A 
BRANCH  23  26
ATOM     26  O   UNL     1     -12.444 -19.627  32.387  1.00  0.00    -0.493 OA
ATOM     27  C   UNL     1     -11.609 -20.139  33.421  1.00  0.00     0.278 C 
ENDBRANCH  23  26
BRANCH  25  28
ATOM     28  O   UNL     1     -13.881 -19.311  30.001  1.00  0.00    -0.504 OA
ATOM     29  H   UNL     1     -14.012 -19.734  29.091  1.00  0.00     0.293 HD
ENDBRANCH  25  28
ENDBRANCH  19  20
ENDBRANCH  16  18
ENDBRANCH   1  16
TORSDOF 10
ENDMDL
