MODEL 1
REMARK VINA RESULT:    -5.275      0.000      0.000
REMARK INTER + INTRA:          -6.726
REMARK INTER:                  -6.508
REMARK INTRA:                  -0.218
REMARK UNBOUND:                -0.218
REMARK SMILES [NH3+][C@@H](Cc1ccc(O)cc1)C(=O)[O-]
REMARK SMILES IDX 3 1 2 2 1 3 11 7 12 8 13 9 4 10 5 11 10 12 6 13 9 14 7 15
REMARK SMILES IDX 8 16
REMARK H PARENT 1 4 1 5 1 6 8 17
REMARK Flexibility Score: inf
ROOT
ATOM      1  C   UNL     1     161.989 157.008 181.312  1.00  0.00     0.107 C 
ENDROOT
BRANCH   1   2
ATOM      2  C   UNL     1     162.872 157.983 182.125  1.00  0.00     0.232 C 
BRANCH   2   3
ATOM      3  N   UNL     1     163.397 159.074 181.292  1.00  0.00    -0.350 N 
ATOM      4  H   UNL     1     162.670 159.430 180.630  1.00  0.00     0.345 HD
ATOM      5  H   UNL     1     163.720 159.861 181.902  1.00  0.00     0.345 HD
ATOM      6  H   UNL     1     164.216 158.730 180.740  1.00  0.00     0.345 HD
ENDBRANCH   2   3
BRANCH   2   7
ATOM      7  C   UNL     1     163.980 157.258 182.846  1.00  0.00     0.099 C 
ATOM      8  O   UNL     1     165.125 157.773 182.955  1.00  0.00    -0.544 OA
ATOM      9  O   UNL     1     163.754 155.984 183.352  1.00  0.00    -0.544 OA
ENDBRANCH   2   7
ENDBRANCH   1   2
BRANCH   1  10
ATOM     10  C   UNL     1     160.649 156.731 181.950  1.00  0.00    -0.041 A 
ATOM     11  C   UNL     1     159.755 155.821 181.359  1.00  0.00     0.008 A 
ATOM     12  C   UNL     1     160.283 157.372 183.146  1.00  0.00     0.008 A 
ATOM     13  C   UNL     1     158.520 155.555 181.958  1.00  0.00     0.046 A 
ATOM     14  C   UNL     1     159.048 157.104 183.741  1.00  0.00     0.046 A 
ATOM     15  C   UNL     1     158.163 156.194 183.149  1.00  0.00     0.115 A 
BRANCH  15  16
ATOM     16  O   UNL     1     156.929 155.919 183.734  1.00  0.00    -0.508 OA
ATOM     17  H   UNL     1     156.410 155.079 183.506  1.00  0.00     0.293 HD
ENDBRANCH  15  16
ENDBRANCH   1  10
TORSDOF 5
ENDMDL
MODEL 2
REMARK VINA RESULT:    -4.806     17.347     18.789
REMARK INTER + INTRA:          -6.149
REMARK INTER:                  -5.957
REMARK INTRA:                  -0.192
REMARK UNBOUND:                -0.218
REMARK SMILES [NH3+][C@@H](Cc1ccc(O)cc1)C(=O)[O-]
REMARK SMILES IDX 3 1 2 2 1 3 11 7 12 8 13 9 4 10 5 11 10 12 6 13 9 14 7 15
REMARK SMILES IDX 8 16
REMARK H PARENT 1 4 1 5 1 6 8 17
REMARK Flexibility Score: inf
ROOT
ATOM      1  C   UNL     1     147.392 163.422 172.933  1.00  0.00     0.107 C 
ENDROOT
BRANCH   1   2
ATOM      2  C   UNL     1     148.753 163.257 173.647  1.00  0.00     0.232 C 
BRANCH   2   3
ATOM      3  N   UNL     1     149.037 161.852 173.971  1.00  0.00    -0.350 N 
ATOM      4  H   UNL     1     148.682 161.211 173.225  1.00  0.00     0.345 HD
ATOM      5  H   UNL     1     150.069 161.715 174.078  1.00  0.00     0.345 HD
ATOM      6  H   UNL     1     148.578 161.602 174.877  1.00  0.00     0.345 HD
ENDBRANCH   2   3
BRANCH   2   7
ATOM      7  C   UNL     1     148.847 164.134 174.870  1.00  0.00     0.099 C 
ATOM      8  O   UNL     1     148.017 164.020 175.812  1.00  0.00    -0.544 OA
ATOM      9  O   UNL     1     149.827 165.115 174.941  1.00  0.00    -0.544 OA
ENDBRANCH   2   7
ENDBRANCH   1   2
BRANCH   1  10
ATOM     10  C   UNL     1     147.444 164.345 171.738  1.00  0.00    -0.041 A 
ATOM     11  C   UNL     1     147.847 163.860 170.483  1.00  0.00     0.008 A 
ATOM     12  C   UNL     1     147.080 165.696 171.867  1.00  0.00     0.008 A 
ATOM     13  C   UNL     1     147.882 164.713 169.375  1.00  0.00     0.046 A 
ATOM     14  C   UNL     1     147.116 166.546 170.759  1.00  0.00     0.046 A 
ATOM     15  C   UNL     1     147.517 166.056 169.508  1.00  0.00     0.115 A 
BRANCH  15  16
ATOM     16  O   UNL     1     147.555 166.893 168.396  1.00  0.00    -0.508 OA
ATOM     17  H   UNL     1     148.281 166.807 167.693  1.00  0.00     0.293 HD
ENDBRANCH  15  16
ENDBRANCH   1  10
TORSDOF 5
ENDMDL
MODEL 3
REMARK VINA RESULT:    -4.782     17.346     18.823
REMARK INTER + INTRA:          -6.119
REMARK INTER:                  -5.934
REMARK INTRA:                  -0.185
REMARK UNBOUND:                -0.218
REMARK SMILES [NH3+][C@@H](Cc1ccc(O)cc1)C(=O)[O-]
REMARK SMILES IDX 3 1 2 2 1 3 11 7 12 8 13 9 4 10 5 11 10 12 6 13 9 14 7 15
REMARK SMILES IDX 8 16
REMARK H PARENT 1 4 1 5 1 6 8 17
REMARK Flexibility Score: inf
ROOT
ATOM      1  C   UNL     1     147.362 163.547 173.017  1.00  0.00     0.107 C 
ENDROOT
BRANCH   1   2
ATOM      2  C   UNL     1     148.731 163.345 173.707  1.00  0.00     0.232 C 
BRANCH   2   3
ATOM      3  N   UNL     1     148.992 161.931 174.008  1.00  0.00    -0.350 N 
ATOM      4  H   UNL     1     150.017 161.722 173.992  1.00  0.00     0.345 HD
ATOM      5  H   UNL     1     148.609 161.693 174.952  1.00  0.00     0.345 HD
ATOM      6  H   UNL     1     148.514 161.328 173.299  1.00  0.00     0.345 HD
ENDBRANCH   2   3
BRANCH   2   7
ATOM      7  C   UNL     1     148.863 164.204 174.939  1.00  0.00     0.099 C 
ATOM      8  O   UNL     1     148.031 164.113 175.881  1.00  0.00    -0.544 OA
ATOM      9  O   UNL     1     149.882 165.145 175.018  1.00  0.00    -0.544 OA
ENDBRANCH   2   7
ENDBRANCH   1   2
BRANCH   1  10
ATOM     10  C   UNL     1     147.427 164.424 171.789  1.00  0.00    -0.041 A 
ATOM     11  C   UNL     1     147.066 165.780 171.865  1.00  0.00     0.008 A 
ATOM     12  C   UNL     1     147.858 163.896 170.560  1.00  0.00     0.008 A 
ATOM     13  C   UNL     1     147.139 166.593 170.730  1.00  0.00     0.046 A 
ATOM     14  C   UNL     1     147.929 164.712 169.428  1.00  0.00     0.046 A 
ATOM     15  C   UNL     1     147.571 166.064 169.510  1.00  0.00     0.115 A 
BRANCH  15  16
ATOM     16  O   UNL     1     147.639 166.887 168.389  1.00  0.00    -0.508 OA
ATOM     17  H   UNL     1     146.819 167.361 168.029  1.00  0.00     0.293 HD
ENDBRANCH  15  16
ENDBRANCH   1  10
TORSDOF 5
ENDMDL
MODEL 4
REMARK VINA RESULT:    -4.762      2.495      5.456
REMARK INTER + INTRA:          -6.093
REMARK INTER:                  -5.897
REMARK INTRA:                  -0.197
REMARK UNBOUND:                -0.218
REMARK SMILES [NH3+][C@@H](Cc1ccc(O)cc1)C(=O)[O-]
REMARK SMILES IDX 3 1 2 2 1 3 11 7 12 8 13 9 4 10 5 11 10 12 6 13 9 14 7 15
REMARK SMILES IDX 8 16
REMARK H PARENT 1 4 1 5 1 6 8 17
REMARK Flexibility Score: inf
ROOT
ATOM      1  C   UNL     1     161.042 154.974 182.063  1.00  0.00     0.107 C 
ENDROOT
BRANCH   1   2
ATOM      2  C   UNL     1     160.053 154.900 183.250  1.00  0.00     0.232 C 
BRANCH   2   3
ATOM      3  N   UNL     1     160.026 153.564 183.860  1.00  0.00    -0.350 N 
ATOM      4  H   UNL     1     160.283 152.824 183.167  1.00  0.00     0.345 HD
ATOM      5  H   UNL     1     160.695 153.528 184.664  1.00  0.00     0.345 HD
ATOM      6  H   UNL     1     159.066 153.364 184.225  1.00  0.00     0.345 HD
ENDBRANCH   2   3
BRANCH   2   7
ATOM      7  C   UNL     1     158.671 155.350 182.848  1.00  0.00     0.099 C 
ATOM      8  O   UNL     1     158.302 155.306 181.644  1.00  0.00    -0.544 OA
ATOM      9  O   UNL     1     157.810 155.869 183.807  1.00  0.00    -0.544 OA
ENDBRANCH   2   7
ENDBRANCH   1   2
BRANCH   1  10
ATOM     10  C   UNL     1     162.058 156.083 182.191  1.00  0.00    -0.041 A 
ATOM     11  C   UNL     1     163.081 156.003 183.152  1.00  0.00     0.008 A 
ATOM     12  C   UNL     1     162.000 157.204 181.346  1.00  0.00     0.008 A 
ATOM     13  C   UNL     1     164.029 157.024 183.261  1.00  0.00     0.046 A 
ATOM     14  C   UNL     1     162.948 158.223 181.456  1.00  0.00     0.046 A 
ATOM     15  C   UNL     1     163.967 158.136 182.415  1.00  0.00     0.115 A 
BRANCH  15  16
ATOM     16  O   UNL     1     164.919 159.145 182.534  1.00  0.00    -0.508 OA
ATOM     17  H   UNL     1     165.797 159.108 182.028  1.00  0.00     0.293 HD
ENDBRANCH  15  16
ENDBRANCH   1  10
TORSDOF 5
ENDMDL
MODEL 5
REMARK VINA RESULT:    -4.761      2.974      5.028
REMARK INTER + INTRA:          -6.092
REMARK INTER:                  -5.855
REMARK INTRA:                  -0.237
REMARK UNBOUND:                -0.218
REMARK SMILES [NH3+][C@@H](Cc1ccc(O)cc1)C(=O)[O-]
REMARK SMILES IDX 3 1 2 2 1 3 11 7 12 8 13 9 4 10 5 11 10 12 6 13 9 14 7 15
REMARK SMILES IDX 8 16
REMARK H PARENT 1 4 1 5 1 6 8 17
REMARK Flexibility Score: inf
ROOT
ATOM      1  C   UNL     1     162.260 155.432 183.507  1.00  0.00     0.107 C 
ENDROOT
BRANCH   1   2
ATOM      2  C   UNL     1     160.788 155.220 183.083  1.00  0.00     0.232 C 
BRANCH   2   3
ATOM      3  N   UNL     1     160.326 153.854 183.363  1.00  0.00    -0.350 N 
ATOM      4  H   UNL     1     160.967 153.366 184.029  1.00  0.00     0.345 HD
ATOM      5  H   UNL     1     159.363 153.882 183.771  1.00  0.00     0.345 HD
ATOM      6  H   UNL     1     160.288 153.308 182.471  1.00  0.00     0.345 HD
ENDBRANCH   2   3
BRANCH   2   7
ATOM      7  C   UNL     1     160.569 155.591 181.638  1.00  0.00     0.099 C 
ATOM      8  O   UNL     1     159.942 156.639 181.328  1.00  0.00    -0.544 OA
ATOM      9  O   UNL     1     161.018 154.742 180.633  1.00  0.00    -0.544 OA
ENDBRANCH   2   7
ENDBRANCH   1   2
BRANCH   1  10
ATOM     10  C   UNL     1     162.726 156.863 183.382  1.00  0.00    -0.041 A 
ATOM     11  C   UNL     1     163.855 157.178 182.606  1.00  0.00     0.008 A 
ATOM     12  C   UNL     1     162.030 157.897 184.031  1.00  0.00     0.008 A 
ATOM     13  C   UNL     1     164.277 158.505 182.480  1.00  0.00     0.046 A 
ATOM     14  C   UNL     1     162.454 159.222 183.903  1.00  0.00     0.046 A 
ATOM     15  C   UNL     1     163.579 159.530 183.126  1.00  0.00     0.115 A 
BRANCH  15  16
ATOM     16  O   UNL     1     164.011 160.847 182.991  1.00  0.00    -0.508 OA
ATOM     17  H   UNL     1     164.988 161.098 183.091  1.00  0.00     0.293 HD
ENDBRANCH  15  16
ENDBRANCH   1  10
TORSDOF 5
ENDMDL
MODEL 6
REMARK VINA RESULT:    -4.757      2.432      5.283
REMARK INTER + INTRA:          -6.088
REMARK INTER:                  -5.914
REMARK INTRA:                  -0.174
REMARK UNBOUND:                -0.218
REMARK SMILES [NH3+][C@@H](Cc1ccc(O)cc1)C(=O)[O-]
REMARK SMILES IDX 3 1 2 2 1 3 11 7 12 8 13 9 4 10 5 11 10 12 6 13 9 14 7 15
REMARK SMILES IDX 8 16
REMARK H PARENT 1 4 1 5 1 6 8 17
REMARK Flexibility Score: inf
ROOT
ATOM      1  C   UNL     1     160.156 155.183 182.139  1.00  0.00     0.107 C 
ENDROOT
BRANCH   1   2
ATOM      2  C   UNL     1     159.303 155.142 183.428  1.00  0.00     0.232 C 
BRANCH   2   3
ATOM      3  N   UNL     1     158.383 153.997 183.442  1.00  0.00    -0.350 N 
ATOM      4  H   UNL     1     158.863 153.120 183.138  1.00  0.00     0.345 HD
ATOM      5  H   UNL     1     158.000 153.862 184.406  1.00  0.00     0.345 HD
ATOM      6  H   UNL     1     157.582 154.184 182.795  1.00  0.00     0.345 HD
ENDBRANCH   2   3
BRANCH   2   7
ATOM      7  C   UNL     1     158.570 156.442 183.649  1.00  0.00     0.099 C 
ATOM      8  O   UNL     1     159.165 157.446 184.125  1.00  0.00    -0.544 OA
ATOM      9  O   UNL     1     157.211 156.521 183.373  1.00  0.00    -0.544 OA
ENDBRANCH   2   7
ENDBRANCH   1   2
BRANCH   1  10
ATOM     10  C   UNL     1     161.456 155.937 182.298  1.00  0.00    -0.041 A 
ATOM     11  C   UNL     1     161.709 157.086 181.530  1.00  0.00     0.008 A 
ATOM     12  C   UNL     1     162.421 155.503 183.221  1.00  0.00     0.008 A 
ATOM     13  C   UNL     1     162.907 157.789 181.687  1.00  0.00     0.046 A 
ATOM     14  C   UNL     1     163.618 156.207 183.376  1.00  0.00     0.046 A 
ATOM     15  C   UNL     1     163.864 157.354 182.610  1.00  0.00     0.115 A 
BRANCH  15  16
ATOM     16  O   UNL     1     165.052 158.066 182.756  1.00  0.00    -0.508 OA
ATOM     17  H   UNL     1     165.927 157.720 182.379  1.00  0.00     0.293 HD
ENDBRANCH  15  16
ENDBRANCH   1  10
TORSDOF 5
ENDMDL
MODEL 7
REMARK VINA RESULT:    -4.663     17.501     19.053
REMARK INTER + INTRA:          -5.972
REMARK INTER:                  -5.753
REMARK INTRA:                  -0.219
REMARK UNBOUND:                -0.218
REMARK SMILES [NH3+][C@@H](Cc1ccc(O)cc1)C(=O)[O-]
REMARK SMILES IDX 3 1 2 2 1 3 11 7 12 8 13 9 4 10 5 11 10 12 6 13 9 14 7 15
REMARK SMILES IDX 8 16
REMARK H PARENT 1 4 1 5 1 6 8 17
REMARK Flexibility Score: inf
ROOT
ATOM      1  C   UNL     1     148.042 163.111 173.472  1.00  0.00     0.107 C 
ENDROOT
BRANCH   1   2
ATOM      2  C   UNL     1     147.227 163.581 174.699  1.00  0.00     0.232 C 
BRANCH   2   3
ATOM      3  N   UNL     1     148.053 163.661 175.911  1.00  0.00    -0.350 N 
ATOM      4  H   UNL     1     147.989 162.782 176.473  1.00  0.00     0.345 HD
ATOM      5  H   UNL     1     149.052 163.828 175.649  1.00  0.00     0.345 HD
ATOM      6  H   UNL     1     147.732 164.463 176.501  1.00  0.00     0.345 HD
ENDBRANCH   2   3
BRANCH   2   7
ATOM      7  C   UNL     1     146.009 162.719 174.918  1.00  0.00     0.099 C 
ATOM      8  O   UNL     1     145.762 161.745 174.156  1.00  0.00    -0.544 OA
ATOM      9  O   UNL     1     145.120 163.029 175.939  1.00  0.00    -0.544 OA
ENDBRANCH   2   7
ENDBRANCH   1   2
BRANCH   1  10
ATOM     10  C   UNL     1     147.835 163.965 172.244  1.00  0.00    -0.041 A 
ATOM     11  C   UNL     1     148.099 163.446 170.965  1.00  0.00     0.008 A 
ATOM     12  C   UNL     1     147.367 165.284 172.366  1.00  0.00     0.008 A 
ATOM     13  C   UNL     1     147.894 164.234 169.828  1.00  0.00     0.046 A 
ATOM     14  C   UNL     1     147.163 166.069 171.228  1.00  0.00     0.046 A 
ATOM     15  C   UNL     1     147.425 165.545 169.955  1.00  0.00     0.115 A 
BRANCH  15  16
ATOM     16  O   UNL     1     147.225 166.318 168.814  1.00  0.00    -0.508 OA
ATOM     17  H   UNL     1     146.553 166.049 168.104  1.00  0.00     0.293 HD
ENDBRANCH  15  16
ENDBRANCH   1  10
TORSDOF 5
ENDMDL
MODEL 8
REMARK VINA RESULT:    -4.648      2.122      2.628
REMARK INTER + INTRA:          -5.954
REMARK INTER:                  -5.965
REMARK INTRA:                   0.011
REMARK UNBOUND:                -0.218
REMARK SMILES [NH3+][C@@H](Cc1ccc(O)cc1)C(=O)[O-]
REMARK SMILES IDX 3 1 2 2 1 3 11 7 12 8 13 9 4 10 5 11 10 12 6 13 9 14 7 15
REMARK SMILES IDX 8 16
REMARK H PARENT 1 4 1 5 1 6 8 17
REMARK Flexibility Score: inf
ROOT
ATOM      1  C   UNL     1     163.637 156.581 182.756  1.00  0.00     0.107 C 
ENDROOT
BRANCH   1   2
ATOM      2  C   UNL     1     163.657 157.952 183.469  1.00  0.00     0.232 C 
BRANCH   2   3
ATOM      3  N   UNL     1     162.370 158.258 184.109  1.00  0.00    -0.350 N 
ATOM      4  H   UNL     1     162.507 158.744 185.024  1.00  0.00     0.345 HD
ATOM      5  H   UNL     1     161.798 158.868 183.479  1.00  0.00     0.345 HD
ATOM      6  H   UNL     1     161.841 157.371 184.274  1.00  0.00     0.345 HD
ENDBRANCH   2   3
BRANCH   2   7
ATOM      7  C   UNL     1     164.084 159.056 182.535  1.00  0.00     0.099 C 
ATOM      8  O   UNL     1     163.665 159.095 181.347  1.00  0.00    -0.544 OA
ATOM      9  O   UNL     1     164.991 160.014 182.970  1.00  0.00    -0.544 OA
ENDBRANCH   2   7
ENDBRANCH   1   2
BRANCH   1  10
ATOM     10  C   UNL     1     162.256 155.981 182.637  1.00  0.00    -0.041 A 
ATOM     11  C   UNL     1     161.782 155.089 183.614  1.00  0.00     0.008 A 
ATOM     12  C   UNL     1     161.426 156.315 181.554  1.00  0.00     0.008 A 
ATOM     13  C   UNL     1     160.498 154.545 183.509  1.00  0.00     0.046 A 
ATOM     14  C   UNL     1     160.144 155.769 181.451  1.00  0.00     0.046 A 
ATOM     15  C   UNL     1     159.676 154.883 182.430  1.00  0.00     0.115 A 
BRANCH  15  16
ATOM     16  O   UNL     1     158.399 154.334 182.340  1.00  0.00    -0.508 OA
ATOM     17  H   UNL     1     158.249 153.332 182.379  1.00  0.00     0.293 HD
ENDBRANCH  15  16
ENDBRANCH   1  10
TORSDOF 5
ENDMDL
MODEL 9
REMARK VINA RESULT:    -4.601      1.993      2.217
REMARK INTER + INTRA:          -5.895
REMARK INTER:                  -5.812
REMARK INTRA:                  -0.084
REMARK UNBOUND:                -0.218
REMARK SMILES [NH3+][C@@H](Cc1ccc(O)cc1)C(=O)[O-]
REMARK SMILES IDX 3 1 2 2 1 3 11 7 12 8 13 9 4 10 5 11 10 12 6 13 9 14 7 15
REMARK SMILES IDX 8 16
REMARK H PARENT 1 4 1 5 1 6 8 17
REMARK Flexibility Score: inf
ROOT
ATOM      1  C   UNL     1     163.334 156.911 182.427  1.00  0.00     0.107 C 
ENDROOT
BRANCH   1   2
ATOM      2  C   UNL     1     163.175 158.432 182.200  1.00  0.00     0.232 C 
BRANCH   2   3
ATOM      3  N   UNL     1     164.375 159.027 181.596  1.00  0.00    -0.350 N 
ATOM      4  H   UNL     1     165.240 158.520 181.892  1.00  0.00     0.345 HD
ATOM      5  H   UNL     1     164.300 158.996 180.553  1.00  0.00     0.345 HD
ATOM      6  H   UNL     1     164.455 160.028 181.889  1.00  0.00     0.345 HD
ENDBRANCH   2   3
BRANCH   2   7
ATOM      7  C   UNL     1     162.787 159.145 183.471  1.00  0.00     0.099 C 
ATOM      8  O   UNL     1     163.561 159.985 184.002  1.00  0.00    -0.544 OA
ATOM      9  O   UNL     1     161.585 158.835 184.095  1.00  0.00    -0.544 OA
ENDBRANCH   2   7
ENDBRANCH   1   2
BRANCH   1  10
ATOM     10  C   UNL     1     162.021 156.167 182.480  1.00  0.00    -0.041 A 
ATOM     11  C   UNL     1     161.103 156.269 181.421  1.00  0.00     0.008 A 
ATOM     12  C   UNL     1     161.707 155.356 183.584  1.00  0.00     0.008 A 
ATOM     13  C   UNL     1     159.894 155.569 181.466  1.00  0.00     0.046 A 
ATOM     14  C   UNL     1     160.498 154.657 183.626  1.00  0.00     0.046 A 
ATOM     15  C   UNL     1     159.588 154.761 182.565  1.00  0.00     0.115 A 
BRANCH  15  16
ATOM     16  O   UNL     1     158.380 154.069 182.595  1.00  0.00    -0.508 OA
ATOM     17  H   UNL     1     157.950 153.717 181.747  1.00  0.00     0.293 HD
ENDBRANCH  15  16
ENDBRANCH   1  10
TORSDOF 5
ENDMDL
