MODEL 1
REMARK VINA RESULT:    -4.378      0.000      0.000
REMARK INTER + INTRA:          -5.044
REMARK INTER:                  -4.890
REMARK INTRA:                  -0.154
REMARK UNBOUND:                -0.154
REMARK SMILES O=C([O-])c1ccccc1C(=O)[O-]
REMARK SMILES IDX 4 1 9 2 5 3 8 4 6 5 7 6 2 7 1 8 3 9 10 10 11 11 12 12
REMARK H PARENT
REMARK Flexibility Score: inf
ROOT
ATOM      1  C   UNL     1      17.042  44.084   1.579  1.00  0.00     0.006 A 
ATOM      2  C   UNL     1      17.308  44.589   0.275  1.00  0.00     0.006 A 
ATOM      3  C   UNL     1      18.122  43.760   2.421  1.00  0.00     0.010 A 
ATOM      4  C   UNL     1      18.642  44.810  -0.113  1.00  0.00     0.010 A 
ATOM      5  C   UNL     1      19.438  43.967   2.006  1.00  0.00     0.001 A 
ATOM      6  C   UNL     1      19.697  44.502   0.746  1.00  0.00     0.001 A 
ENDROOT
BRANCH   1   7
ATOM      7  C   UNL     1      15.670  43.951   2.120  1.00  0.00     0.072 C 
ATOM      8  O   UNL     1      15.019  44.976   2.456  1.00  0.00    -0.545 OA
ATOM      9  O   UNL     1      15.057  42.706   2.203  1.00  0.00    -0.545 OA
ENDBRANCH   1   7
BRANCH   2  10
ATOM     10  C   UNL     1      16.246  44.828  -0.729  1.00  0.00     0.072 C 
ATOM     11  O   UNL     1      15.936  45.999  -1.074  1.00  0.00    -0.545 OA
ATOM     12  O   UNL     1      15.531  43.758  -1.255  1.00  0.00    -0.545 OA
ENDBRANCH   2  10
TORSDOF 2
ENDMDL
MODEL 2
REMARK VINA RESULT:    -4.377      0.089      2.998
REMARK INTER + INTRA:          -5.043
REMARK INTER:                  -4.904
REMARK INTRA:                  -0.139
REMARK UNBOUND:                -0.154
REMARK SMILES O=C([O-])c1ccccc1C(=O)[O-]
REMARK SMILES IDX 4 1 9 2 5 3 8 4 6 5 7 6 2 7 1 8 3 9 10 10 11 11 12 12
REMARK H PARENT
REMARK Flexibility Score: inf
ROOT
ATOM      1  C   UNL     1      17.271  44.629   0.255  1.00  0.00     0.006 A 
ATOM      2  C   UNL     1      17.018  44.060   1.534  1.00  0.00     0.006 A 
ATOM      3  C   UNL     1      18.601  44.887  -0.130  1.00  0.00     0.010 A 
ATOM      4  C   UNL     1      18.107  43.713   2.355  1.00  0.00     0.010 A 
ATOM      5  C   UNL     1      19.664  44.554   0.711  1.00  0.00     0.001 A 
ATOM      6  C   UNL     1      19.418  43.957   1.945  1.00  0.00     0.001 A 
ENDROOT
BRANCH   1   7
ATOM      7  C   UNL     1      16.196  44.897  -0.728  1.00  0.00     0.072 C 
ATOM      8  O   UNL     1      15.979  46.072  -1.125  1.00  0.00    -0.545 OA
ATOM      9  O   UNL     1      15.458  43.854  -1.274  1.00  0.00    -0.545 OA
ENDBRANCH   1   7
BRANCH   2  10
ATOM     10  C   UNL     1      15.654  43.880   2.081  1.00  0.00     0.072 C 
ATOM     11  O   UNL     1      15.144  42.732   2.178  1.00  0.00    -0.545 OA
ATOM     12  O   UNL     1      14.892  44.989   2.434  1.00  0.00    -0.545 OA
ENDBRANCH   2  10
TORSDOF 2
ENDMDL
MODEL 3
REMARK VINA RESULT:    -4.250      2.901      3.800
REMARK INTER + INTRA:          -4.902
REMARK INTER:                  -4.684
REMARK INTRA:                  -0.218
REMARK UNBOUND:                -0.154
REMARK SMILES O=C([O-])c1ccccc1C(=O)[O-]
REMARK SMILES IDX 4 1 9 2 5 3 8 4 6 5 7 6 2 7 1 8 3 9 10 10 11 11 12 12
REMARK H PARENT
REMARK Flexibility Score: inf
ROOT
ATOM      1  C   UNL     1      17.798  43.254   0.446  1.00  0.00     0.006 A 
ATOM      2  C   UNL     1      19.143  43.703   0.322  1.00  0.00     0.006 A 
ATOM      3  C   UNL     1      16.749  44.146   0.155  1.00  0.00     0.010 A 
ATOM      4  C   UNL     1      19.388  45.006  -0.148  1.00  0.00     0.010 A 
ATOM      5  C   UNL     1      17.016  45.442  -0.290  1.00  0.00     0.001 A 
ATOM      6  C   UNL     1      18.333  45.866  -0.452  1.00  0.00     0.001 A 
ENDROOT
BRANCH   1   7
ATOM      7  C   UNL     1      17.450  41.859   0.799  1.00  0.00     0.072 C 
ATOM      8  O   UNL     1      17.399  40.972  -0.094  1.00  0.00    -0.545 OA
ATOM      9  O   UNL     1      17.243  41.494   2.124  1.00  0.00    -0.545 OA
ENDBRANCH   1   7
BRANCH   2  10
ATOM     10  C   UNL     1      20.307  42.886   0.736  1.00  0.00     0.072 C 
ATOM     11  O   UNL     1      20.857  43.066   1.855  1.00  0.00    -0.545 OA
ATOM     12  O   UNL     1      20.848  41.951  -0.140  1.00  0.00    -0.545 OA
ENDBRANCH   2  10
TORSDOF 2
ENDMDL
MODEL 4
REMARK VINA RESULT:    -4.244      2.913      4.140
REMARK INTER + INTRA:          -4.894
REMARK INTER:                  -4.686
REMARK INTRA:                  -0.208
REMARK UNBOUND:                -0.154
REMARK SMILES O=C([O-])c1ccccc1C(=O)[O-]
REMARK SMILES IDX 4 1 9 2 5 3 8 4 6 5 7 6 2 7 1 8 3 9 10 10 11 11 12 12
REMARK H PARENT
REMARK Flexibility Score: inf
ROOT
ATOM      1  C   UNL     1      19.187  43.729   0.296  1.00  0.00     0.006 A 
ATOM      2  C   UNL     1      17.853  43.248   0.404  1.00  0.00     0.006 A 
ATOM      3  C   UNL     1      19.407  45.045  -0.154  1.00  0.00     0.010 A 
ATOM      4  C   UNL     1      16.786  44.121   0.119  1.00  0.00     0.010 A 
ATOM      5  C   UNL     1      18.333  45.886  -0.452  1.00  0.00     0.001 A 
ATOM      6  C   UNL     1      17.026  45.428  -0.304  1.00  0.00     0.001 A 
ENDROOT
BRANCH   1   7
ATOM      7  C   UNL     1      20.362  42.927   0.707  1.00  0.00     0.072 C 
ATOM      8  O   UNL     1      20.865  43.080   1.852  1.00  0.00    -0.545 OA
ATOM      9  O   UNL     1      20.884  41.951  -0.133  1.00  0.00    -0.545 OA
ENDBRANCH   1   7
BRANCH   2  10
ATOM     10  C   UNL     1      17.527  41.842   0.735  1.00  0.00     0.072 C 
ATOM     11  O   UNL     1      17.462  40.965  -0.168  1.00  0.00    -0.545 OA
ATOM     12  O   UNL     1      17.223  41.487   2.044  1.00  0.00    -0.545 OA
ENDBRANCH   2  10
TORSDOF 2
ENDMDL
MODEL 5
REMARK VINA RESULT:    -4.089      2.664      3.362
REMARK INTER + INTRA:          -4.721
REMARK INTER:                  -4.498
REMARK INTRA:                  -0.223
REMARK UNBOUND:                -0.154
REMARK SMILES O=C([O-])c1ccccc1C(=O)[O-]
REMARK SMILES IDX 4 1 9 2 5 3 8 4 6 5 7 6 2 7 1 8 3 9 10 10 11 11 12 12
REMARK H PARENT
REMARK Flexibility Score: inf
ROOT
ATOM      1  C   UNL     1      16.866  43.457   0.221  1.00  0.00     0.006 A 
ATOM      2  C   UNL     1      18.278  43.291   0.176  1.00  0.00     0.006 A 
ATOM      3  C   UNL     1      16.043  42.484  -0.378  1.00  0.00     0.010 A 
ATOM      4  C   UNL     1      18.811  42.127  -0.408  1.00  0.00     0.010 A 
ATOM      5  C   UNL     1      16.595  41.348  -0.971  1.00  0.00     0.001 A 
ATOM      6  C   UNL     1      17.976  41.165  -0.975  1.00  0.00     0.001 A 
ENDROOT
BRANCH   1   7
ATOM      7  C   UNL     1      16.215  44.579   0.935  1.00  0.00     0.072 C 
ATOM      8  O   UNL     1      15.714  45.537   0.289  1.00  0.00    -0.545 OA
ATOM      9  O   UNL     1      16.087  44.559   2.319  1.00  0.00    -0.545 OA
ENDBRANCH   1   7
BRANCH   2  10
ATOM     10  C   UNL     1      19.227  44.323   0.654  1.00  0.00     0.072 C 
ATOM     11  O   UNL     1      19.710  44.266   1.816  1.00  0.00    -0.545 OA
ATOM     12  O   UNL     1      19.544  45.406  -0.157  1.00  0.00    -0.545 OA
ENDBRANCH   2  10
TORSDOF 2
ENDMDL
MODEL 6
REMARK VINA RESULT:    -4.066      2.108      2.675
REMARK INTER + INTRA:          -4.696
REMARK INTER:                  -4.510
REMARK INTRA:                  -0.186
REMARK UNBOUND:                -0.154
REMARK SMILES O=C([O-])c1ccccc1C(=O)[O-]
REMARK SMILES IDX 4 1 9 2 5 3 8 4 6 5 7 6 2 7 1 8 3 9 10 10 11 11 12 12
REMARK H PARENT
REMARK Flexibility Score: inf
ROOT
ATOM      1  C   UNL     1      18.355  43.599   1.094  1.00  0.00     0.006 A 
ATOM      2  C   UNL     1      18.640  42.455   0.299  1.00  0.00     0.006 A 
ATOM      3  C   UNL     1      19.412  44.255   1.755  1.00  0.00     0.010 A 
ATOM      4  C   UNL     1      19.978  42.047   0.143  1.00  0.00     0.010 A 
ATOM      5  C   UNL     1      20.729  43.819   1.602  1.00  0.00     0.001 A 
ATOM      6  C   UNL     1      21.012  42.724   0.788  1.00  0.00     0.001 A 
ENDROOT
BRANCH   1   7
ATOM      7  C   UNL     1      16.997  44.180   1.203  1.00  0.00     0.072 C 
ATOM      8  O   UNL     1      16.565  44.952   0.306  1.00  0.00    -0.545 OA
ATOM      9  O   UNL     1      16.159  43.833   2.255  1.00  0.00    -0.545 OA
ENDBRANCH   1   7
BRANCH   2  10
ATOM     10  C   UNL     1      17.585  41.620  -0.320  1.00  0.00     0.072 C 
ATOM     11  O   UNL     1      17.412  41.620  -1.568  1.00  0.00    -0.545 OA
ATOM     12  O   UNL     1      16.726  40.875   0.481  1.00  0.00    -0.545 OA
ENDBRANCH   2  10
TORSDOF 2
ENDMDL
MODEL 7
REMARK VINA RESULT:    -4.062      2.665      3.641
REMARK INTER + INTRA:          -4.691
REMARK INTER:                  -4.478
REMARK INTRA:                  -0.213
REMARK UNBOUND:                -0.154
REMARK SMILES O=C([O-])c1ccccc1C(=O)[O-]
REMARK SMILES IDX 4 1 9 2 5 3 8 4 6 5 7 6 2 7 1 8 3 9 10 10 11 11 12 12
REMARK H PARENT
REMARK Flexibility Score: inf
ROOT
ATOM      1  C   UNL     1      18.222  43.289   0.226  1.00  0.00     0.006 A 
ATOM      2  C   UNL     1      16.808  43.434   0.273  1.00  0.00     0.006 A 
ATOM      3  C   UNL     1      18.773  42.136  -0.365  1.00  0.00     0.010 A 
ATOM      4  C   UNL     1      15.999  42.453  -0.329  1.00  0.00     0.010 A 
ATOM      5  C   UNL     1      17.950  41.164  -0.936  1.00  0.00     0.001 A 
ATOM      6  C   UNL     1      16.567  41.329  -0.929  1.00  0.00     0.001 A 
ENDROOT
BRANCH   1   7
ATOM      7  C   UNL     1      19.151  44.337   0.710  1.00  0.00     0.072 C 
ATOM      8  O   UNL     1      19.667  44.246   1.855  1.00  0.00    -0.545 OA
ATOM      9  O   UNL     1      19.517  45.395  -0.113  1.00  0.00    -0.545 OA
ENDBRANCH   1   7
BRANCH   2  10
ATOM     10  C   UNL     1      16.135  44.540   0.993  1.00  0.00     0.072 C 
ATOM     11  O   UNL     1      15.651  45.519   0.364  1.00  0.00    -0.545 OA
ATOM     12  O   UNL     1      16.088  44.541   2.382  1.00  0.00    -0.545 OA
ENDBRANCH   2  10
TORSDOF 2
ENDMDL
MODEL 8
REMARK VINA RESULT:    -4.047      2.103      3.110
REMARK INTER + INTRA:          -4.674
REMARK INTER:                  -4.486
REMARK INTRA:                  -0.189
REMARK UNBOUND:                -0.154
REMARK SMILES O=C([O-])c1ccccc1C(=O)[O-]
REMARK SMILES IDX 4 1 9 2 5 3 8 4 6 5 7 6 2 7 1 8 3 9 10 10 11 11 12 12
REMARK H PARENT
REMARK Flexibility Score: inf
ROOT
ATOM      1  C   UNL     1      18.653  42.481   0.318  1.00  0.00     0.006 A 
ATOM      2  C   UNL     1      18.324  43.606   1.125  1.00  0.00     0.006 A 
ATOM      3  C   UNL     1      19.999  42.082   0.216  1.00  0.00     0.010 A 
ATOM      4  C   UNL     1      19.345  44.249   1.849  1.00  0.00     0.010 A 
ATOM      5  C   UNL     1      20.998  42.749   0.926  1.00  0.00     0.001 A 
ATOM      6  C   UNL     1      20.669  43.823   1.751  1.00  0.00     0.001 A 
ENDROOT
BRANCH   1   7
ATOM      7  C   UNL     1      17.627  41.661  -0.367  1.00  0.00     0.072 C 
ATOM      8  O   UNL     1      17.585  41.621  -1.625  1.00  0.00    -0.545 OA
ATOM      9  O   UNL     1      16.743  40.876   0.363  1.00  0.00    -0.545 OA
ENDBRANCH   1   7
BRANCH   2  10
ATOM     10  C   UNL     1      16.962  44.184   1.186  1.00  0.00     0.072 C 
ATOM     11  O   UNL     1      16.176  43.886   2.125  1.00  0.00    -0.545 OA
ATOM     12  O   UNL     1      16.511  45.016   0.167  1.00  0.00    -0.545 OA
ENDBRANCH   2  10
TORSDOF 2
ENDMDL
MODEL 9
REMARK VINA RESULT:    -3.926      1.605      3.249
REMARK INTER + INTRA:          -4.540
REMARK INTER:                  -4.536
REMARK INTRA:                  -0.004
REMARK UNBOUND:                -0.154
REMARK SMILES O=C([O-])c1ccccc1C(=O)[O-]
REMARK SMILES IDX 4 1 9 2 5 3 8 4 6 5 7 6 2 7 1 8 3 9 10 10 11 11 12 12
REMARK H PARENT
REMARK Flexibility Score: inf
ROOT
ATOM      1  C   UNL     1      17.906  42.760   0.393  1.00  0.00     0.006 A 
ATOM      2  C   UNL     1      17.537  43.361   1.629  1.00  0.00     0.006 A 
ATOM      3  C   UNL     1      19.268  42.695   0.043  1.00  0.00     0.010 A 
ATOM      4  C   UNL     1      18.547  43.816   2.496  1.00  0.00     0.010 A 
ATOM      5  C   UNL     1      20.252  43.174   0.910  1.00  0.00     0.001 A 
ATOM      6  C   UNL     1      19.892  43.722   2.139  1.00  0.00     0.001 A 
ENDROOT
BRANCH   1   7
ATOM      7  C   UNL     1      16.921  42.129  -0.515  1.00  0.00     0.072 C 
ATOM      8  O   UNL     1      16.831  40.875  -0.580  1.00  0.00    -0.545 OA
ATOM      9  O   UNL     1      16.040  42.908  -1.256  1.00  0.00    -0.545 OA
ENDBRANCH   1   7
BRANCH   2  10
ATOM     10  C   UNL     1      16.129  43.598   2.021  1.00  0.00     0.072 C 
ATOM     11  O   UNL     1      15.335  42.635   2.191  1.00  0.00    -0.545 OA
ATOM     12  O   UNL     1      15.649  44.898   2.143  1.00  0.00    -0.545 OA
ENDBRANCH   2  10
TORSDOF 2
ENDMDL
