MODEL 1
REMARK VINA RESULT:    -5.544      0.000      0.000
REMARK INTER + INTRA:         -11.136
REMARK INTER:                  -9.433
REMARK INTRA:                  -1.703
REMARK UNBOUND:                -1.703
REMARK SMILES CCCCCCCCCCCCCC(=O)[O-]
REMARK SMILES IDX 8 1 9 2 10 3 11 4 12 5 13 6 14 7 15 8 16 9 7 10 6 11 5 12
REMARK SMILES IDX 4 13 3 14 2 15 1 16
REMARK H PARENT
REMARK Flexibility Score: inf
ROOT
ATOM      1  C   UNL     1      49.494  50.017   2.484  1.00  0.00     0.000 C 
ENDROOT
BRANCH   1   2
ATOM      2  C   UNL     1      49.701  48.653   3.156  1.00  0.00     0.000 C 
BRANCH   2   3
ATOM      3  C   UNL     1      51.093  48.504   3.796  1.00  0.00     0.000 C 
BRANCH   3   4
ATOM      4  C   UNL     1      51.969  49.771   3.761  1.00  0.00     0.000 C 
BRANCH   4   5
ATOM      5  C   UNL     1      53.333  49.650   4.469  1.00  0.00     0.006 C 
BRANCH   5   6
ATOM      6  C   UNL     1      54.077  50.989   4.623  1.00  0.00     0.053 C 
BRANCH   6   7
ATOM      7  C   UNL     1      54.388  51.310   6.053  1.00  0.00     0.041 C 
ATOM      8  O   UNL     1      55.149  52.272   6.337  1.00  0.00    -0.550 OA
ATOM      9  O   UNL     1      53.810  50.569   7.076  1.00  0.00    -0.550 OA
ENDBRANCH   6   7
ENDBRANCH   5   6
ENDBRANCH   4   5
ENDBRANCH   3   4
ENDBRANCH   2   3
ENDBRANCH   1   2
BRANCH   1  10
ATOM     10  C   UNL     1      48.533  50.891   3.298  1.00  0.00     0.000 C 
BRANCH  10  11
ATOM     11  C   UNL     1      48.895  52.378   3.163  1.00  0.00    -0.000 C 
BRANCH  11  12
ATOM     12  C   UNL     1      49.311  53.011   4.500  1.00  0.00    -0.000 C 
BRANCH  12  13
ATOM     13  C   UNL     1      50.658  52.475   5.016  1.00  0.00    -0.000 C 
BRANCH  13  14
ATOM     14  C   UNL     1      50.631  52.194   6.534  1.00  0.00    -0.000 C 
BRANCH  14  15
ATOM     15  C   UNL     1      50.533  50.698   6.879  1.00  0.00    -0.003 C 
ATOM     16  C   UNL     1      49.136  50.122   6.655  1.00  0.00     0.004 C 
ENDBRANCH  14  15
ENDBRANCH  13  14
ENDBRANCH  12  13
ENDBRANCH  11  12
ENDBRANCH  10  11
ENDBRANCH   1  10
TORSDOF 12
ENDMDL
MODEL 2
REMARK VINA RESULT:    -5.507      2.898      5.340
REMARK INTER + INTRA:         -11.074
REMARK INTER:                  -9.534
REMARK INTRA:                  -1.540
REMARK UNBOUND:                -1.703
REMARK SMILES CCCCCCCCCCCCCC(=O)[O-]
REMARK SMILES IDX 8 1 9 2 10 3 11 4 12 5 13 6 14 7 15 8 16 9 7 10 6 11 5 12
REMARK SMILES IDX 4 13 3 14 2 15 1 16
REMARK H PARENT
REMARK Flexibility Score: inf
ROOT
ATOM      1  C   UNL     1      52.263  49.832   4.238  1.00  0.00     0.000 C 
ENDROOT
BRANCH   1   2
ATOM      2  C   UNL     1      51.262  50.375   5.267  1.00  0.00     0.000 C 
BRANCH   2   3
ATOM      3  C   UNL     1      50.899  51.852   5.031  1.00  0.00     0.000 C 
BRANCH   3   4
ATOM      4  C   UNL     1      49.441  52.109   4.602  1.00  0.00     0.000 C 
BRANCH   4   5
ATOM      5  C   UNL     1      49.062  51.584   3.204  1.00  0.00     0.006 C 
BRANCH   5   6
ATOM      6  C   UNL     1      47.797  50.708   3.188  1.00  0.00     0.053 C 
BRANCH   6   7
ATOM      7  C   UNL     1      47.952  49.463   4.007  1.00  0.00     0.041 C 
ATOM      8  O   UNL     1      47.285  49.313   5.065  1.00  0.00    -0.550 OA
ATOM      9  O   UNL     1      48.806  48.452   3.585  1.00  0.00    -0.550 OA
ENDBRANCH   6   7
ENDBRANCH   5   6
ENDBRANCH   4   5
ENDBRANCH   3   4
ENDBRANCH   2   3
ENDBRANCH   1   2
BRANCH   1  10
ATOM     10  C   UNL     1      53.672  49.742   4.836  1.00  0.00     0.000 C 
BRANCH  10  11
ATOM     11  C   UNL     1      54.718  50.314   3.867  1.00  0.00    -0.000 C 
BRANCH  11  12
ATOM     12  C   UNL     1      55.412  51.569   4.419  1.00  0.00    -0.000 C 
BRANCH  12  13
ATOM     13  C   UNL     1      54.422  52.574   5.033  1.00  0.00    -0.000 C 
BRANCH  13  14
ATOM     14  C   UNL     1      54.733  52.866   6.517  1.00  0.00    -0.000 C 
BRANCH  14  15
ATOM     15  C   UNL     1      53.746  52.204   7.493  1.00  0.00    -0.003 C 
ATOM     16  C   UNL     1      54.306  50.943   8.148  1.00  0.00     0.004 C 
ENDBRANCH  14  15
ENDBRANCH  13  14
ENDBRANCH  12  13
ENDBRANCH  11  12
ENDBRANCH  10  11
ENDBRANCH   1  10
TORSDOF 12
ENDMDL
MODEL 3
REMARK VINA RESULT:    -5.459      2.632      5.316
REMARK INTER + INTRA:         -10.992
REMARK INTER:                  -9.543
REMARK INTRA:                  -1.449
REMARK UNBOUND:                -1.703
REMARK SMILES CCCCCCCCCCCCCC(=O)[O-]
REMARK SMILES IDX 8 1 9 2 10 3 11 4 12 5 13 6 14 7 15 8 16 9 7 10 6 11 5 12
REMARK SMILES IDX 4 13 3 14 2 15 1 16
REMARK H PARENT
REMARK Flexibility Score: inf
ROOT
ATOM      1  C   UNL     1      51.130  50.922   6.946  1.00  0.00     0.000 C 
ENDROOT
BRANCH   1   2
ATOM      2  C   UNL     1      50.129  50.701   5.803  1.00  0.00     0.000 C 
BRANCH   2   3
ATOM      3  C   UNL     1      50.290  51.718   4.658  1.00  0.00     0.000 C 
BRANCH   3   4
ATOM      4  C   UNL     1      49.122  51.767   3.655  1.00  0.00     0.000 C 
BRANCH   4   5
ATOM      5  C   UNL     1      48.377  50.436   3.444  1.00  0.00     0.006 C 
BRANCH   5   6
ATOM      6  C   UNL     1      49.032  49.511   2.402  1.00  0.00     0.053 C 
BRANCH   6   7
ATOM      7  C   UNL     1      49.225  48.117   2.914  1.00  0.00     0.041 C 
ATOM      8  O   UNL     1      48.489  47.182   2.503  1.00  0.00    -0.550 OA
ATOM      9  O   UNL     1      50.240  47.841   3.821  1.00  0.00    -0.550 OA
ENDBRANCH   6   7
ENDBRANCH   5   6
ENDBRANCH   4   5
ENDBRANCH   3   4
ENDBRANCH   2   3
ENDBRANCH   1   2
BRANCH   1  10
ATOM     10  C   UNL     1      51.646  52.366   6.953  1.00  0.00     0.000 C 
BRANCH  10  11
ATOM     11  C   UNL     1      53.113  52.424   7.406  1.00  0.00    -0.000 C 
BRANCH  11  12
ATOM     12  C   UNL     1      54.025  53.104   6.373  1.00  0.00    -0.000 C 
BRANCH  12  13
ATOM     13  C   UNL     1      53.906  52.478   4.972  1.00  0.00    -0.000 C 
BRANCH  13  14
ATOM     14  C   UNL     1      55.142  51.629   4.606  1.00  0.00    -0.000 C 
BRANCH  14  15
ATOM     15  C   UNL     1      54.790  50.287   3.943  1.00  0.00    -0.003 C 
ATOM     16  C   UNL     1      53.429  49.744   4.375  1.00  0.00     0.004 C 
ENDBRANCH  14  15
ENDBRANCH  13  14
ENDBRANCH  12  13
ENDBRANCH  11  12
ENDBRANCH  10  11
ENDBRANCH   1  10
TORSDOF 12
ENDMDL
MODEL 4
REMARK VINA RESULT:    -5.446      1.929      4.414
REMARK INTER + INTRA:         -10.970
REMARK INTER:                  -9.694
REMARK INTRA:                  -1.276
REMARK UNBOUND:                -1.703
REMARK SMILES CCCCCCCCCCCCCC(=O)[O-]
REMARK SMILES IDX 8 1 9 2 10 3 11 4 12 5 13 6 14 7 15 8 16 9 7 10 6 11 5 12
REMARK SMILES IDX 4 13 3 14 2 15 1 16
REMARK H PARENT
REMARK Flexibility Score: inf
ROOT
ATOM      1  C   UNL     1      51.404  48.997   3.874  1.00  0.00     0.000 C 
ENDROOT
BRANCH   1   2
ATOM      2  C   UNL     1      50.225  49.536   3.052  1.00  0.00     0.000 C 
BRANCH   2   3
ATOM      3  C   UNL     1      48.914  49.605   3.857  1.00  0.00     0.000 C 
BRANCH   3   4
ATOM      4  C   UNL     1      49.003  49.078   5.302  1.00  0.00     0.000 C 
BRANCH   4   5
ATOM      5  C   UNL     1      48.939  50.154   6.403  1.00  0.00     0.006 C 
BRANCH   5   6
ATOM      6  C   UNL     1      50.317  50.596   6.926  1.00  0.00     0.053 C 
BRANCH   6   7
ATOM      7  C   UNL     1      50.585  52.049   6.679  1.00  0.00     0.041 C 
ATOM      8  O   UNL     1      51.051  52.774   7.597  1.00  0.00    -0.550 OA
ATOM      9  O   UNL     1      50.354  52.597   5.424  1.00  0.00    -0.550 OA
ENDBRANCH   6   7
ENDBRANCH   5   6
ENDBRANCH   4   5
ENDBRANCH   3   4
ENDBRANCH   2   3
ENDBRANCH   1   2
BRANCH   1  10
ATOM     10  C   UNL     1      52.389  50.119   4.223  1.00  0.00     0.000 C 
BRANCH  10  11
ATOM     11  C   UNL     1      53.776  49.549   4.556  1.00  0.00    -0.000 C 
BRANCH  11  12
ATOM     12  C   UNL     1      54.910  50.284   3.823  1.00  0.00    -0.000 C 
BRANCH  12  13
ATOM     13  C   UNL     1      55.559  51.383   4.683  1.00  0.00    -0.000 C 
BRANCH  13  14
ATOM     14  C   UNL     1      54.815  52.731   4.565  1.00  0.00    -0.000 C 
BRANCH  14  15
ATOM     15  C   UNL     1      54.054  53.125   5.842  1.00  0.00    -0.003 C 
ATOM     16  C   UNL     1      54.575  52.418   7.092  1.00  0.00     0.004 C 
ENDBRANCH  14  15
ENDBRANCH  13  14
ENDBRANCH  12  13
ENDBRANCH  11  12
ENDBRANCH  10  11
ENDBRANCH   1  10
TORSDOF 12
ENDMDL
MODEL 5
REMARK VINA RESULT:    -5.440      1.268      3.148
REMARK INTER + INTRA:         -10.959
REMARK INTER:                  -9.247
REMARK INTRA:                  -1.712
REMARK UNBOUND:                -1.703
REMARK SMILES CCCCCCCCCCCCCC(=O)[O-]
REMARK SMILES IDX 8 1 9 2 10 3 11 4 12 5 13 6 14 7 15 8 16 9 7 10 6 11 5 12
REMARK SMILES IDX 4 13 3 14 2 15 1 16
REMARK H PARENT
REMARK Flexibility Score: inf
ROOT
ATOM      1  C   UNL     1      50.639  50.972   6.438  1.00  0.00     0.000 C 
ENDROOT
BRANCH   1   2
ATOM      2  C   UNL     1      51.838  50.121   5.997  1.00  0.00     0.000 C 
BRANCH   2   3
ATOM      3  C   UNL     1      52.410  50.551   4.634  1.00  0.00     0.000 C 
BRANCH   3   4
ATOM      4  C   UNL     1      53.934  50.771   4.602  1.00  0.00     0.000 C 
BRANCH   4   5
ATOM      5  C   UNL     1      54.411  52.161   5.064  1.00  0.00     0.006 C 
BRANCH   5   6
ATOM      6  C   UNL     1      55.174  52.148   6.401  1.00  0.00     0.053 C 
BRANCH   6   7
ATOM      7  C   UNL     1      54.258  52.057   7.583  1.00  0.00     0.041 C 
ATOM      8  O   UNL     1      53.372  52.933   7.768  1.00  0.00    -0.550 OA
ATOM      9  O   UNL     1      54.358  50.987   8.462  1.00  0.00    -0.550 OA
ENDBRANCH   6   7
ENDBRANCH   5   6
ENDBRANCH   4   5
ENDBRANCH   3   4
ENDBRANCH   2   3
ENDBRANCH   1   2
BRANCH   1  10
ATOM     10  C   UNL     1      49.361  50.127   6.507  1.00  0.00     0.000 C 
BRANCH  10  11
ATOM     11  C   UNL     1      48.332  50.600   5.469  1.00  0.00    -0.000 C 
BRANCH  11  12
ATOM     12  C   UNL     1      48.860  51.745   4.590  1.00  0.00    -0.000 C 
BRANCH  12  13
ATOM     13  C   UNL     1      48.989  51.345   3.110  1.00  0.00    -0.000 C 
BRANCH  13  14
ATOM     14  C   UNL     1      48.671  49.853   2.879  1.00  0.00    -0.000 C 
BRANCH  14  15
ATOM     15  C   UNL     1      49.924  48.977   2.708  1.00  0.00    -0.003 C 
ATOM     16  C   UNL     1      49.892  47.713   3.564  1.00  0.00     0.004 C 
ENDBRANCH  14  15
ENDBRANCH  13  14
ENDBRANCH  12  13
ENDBRANCH  11  12
ENDBRANCH  10  11
ENDBRANCH   1  10
TORSDOF 12
ENDMDL
MODEL 6
REMARK VINA RESULT:    -5.409      1.420      2.599
REMARK INTER + INTRA:         -10.907
REMARK INTER:                  -9.662
REMARK INTRA:                  -1.245
REMARK UNBOUND:                -1.703
REMARK SMILES CCCCCCCCCCCCCC(=O)[O-]
REMARK SMILES IDX 8 1 9 2 10 3 11 4 12 5 13 6 14 7 15 8 16 9 7 10 6 11 5 12
REMARK SMILES IDX 4 13 3 14 2 15 1 16
REMARK H PARENT
REMARK Flexibility Score: inf
ROOT
ATOM      1  C   UNL     1      50.255  48.260   4.034  1.00  0.00     0.000 C 
ENDROOT
BRANCH   1   2
ATOM      2  C   UNL     1      51.116  49.420   3.516  1.00  0.00     0.000 C 
BRANCH   2   3
ATOM      3  C   UNL     1      52.120  49.937   4.563  1.00  0.00     0.000 C 
BRANCH   3   4
ATOM      4  C   UNL     1      53.602  49.679   4.232  1.00  0.00     0.000 C 
BRANCH   4   5
ATOM      5  C   UNL     1      54.525  50.908   4.334  1.00  0.00     0.006 C 
BRANCH   5   6
ATOM      6  C   UNL     1      53.894  52.104   5.069  1.00  0.00     0.053 C 
BRANCH   6   7
ATOM      7  C   UNL     1      54.285  52.160   6.514  1.00  0.00     0.041 C 
ATOM      8  O   UNL     1      55.489  52.007   6.852  1.00  0.00    -0.550 OA
ATOM      9  O   UNL     1      53.328  52.417   7.486  1.00  0.00    -0.550 OA
ENDBRANCH   6   7
ENDBRANCH   5   6
ENDBRANCH   4   5
ENDBRANCH   3   4
ENDBRANCH   2   3
ENDBRANCH   1   2
BRANCH   1  10
ATOM     10  C   UNL     1      49.036  48.034   3.131  1.00  0.00     0.000 C 
BRANCH  10  11
ATOM     11  C   UNL     1      48.746  49.277   2.278  1.00  0.00    -0.000 C 
BRANCH  11  12
ATOM     12  C   UNL     1      47.558  50.096   2.808  1.00  0.00    -0.000 C 
BRANCH  12  13
ATOM     13  C   UNL     1      47.858  51.604   2.873  1.00  0.00    -0.000 C 
BRANCH  13  14
ATOM     14  C   UNL     1      48.383  52.034   4.260  1.00  0.00    -0.000 C 
BRANCH  14  15
ATOM     15  C   UNL     1      49.465  53.125   4.196  1.00  0.00    -0.003 C 
ATOM     16  C   UNL     1      50.509  52.998   5.304  1.00  0.00     0.004 C 
ENDBRANCH  14  15
ENDBRANCH  13  14
ENDBRANCH  12  13
ENDBRANCH  11  12
ENDBRANCH  10  11
ENDBRANCH   1  10
TORSDOF 12
ENDMDL
MODEL 7
REMARK VINA RESULT:    -5.392      1.358      3.326
REMARK INTER + INTRA:         -10.877
REMARK INTER:                  -9.300
REMARK INTRA:                  -1.577
REMARK UNBOUND:                -1.703
REMARK SMILES CCCCCCCCCCCCCC(=O)[O-]
REMARK SMILES IDX 8 1 9 2 10 3 11 4 12 5 13 6 14 7 15 8 16 9 7 10 6 11 5 12
REMARK SMILES IDX 4 13 3 14 2 15 1 16
REMARK H PARENT
REMARK Flexibility Score: inf
ROOT
ATOM      1  C   UNL     1      50.060  52.384   5.004  1.00  0.00     0.000 C 
ENDROOT
BRANCH   1   2
ATOM      2  C   UNL     1      49.633  51.139   5.794  1.00  0.00     0.000 C 
BRANCH   2   3
ATOM      3  C   UNL     1      50.770  50.552   6.651  1.00  0.00     0.000 C 
BRANCH   3   4
ATOM      4  C   UNL     1      52.126  51.273   6.523  1.00  0.00     0.000 C 
BRANCH   4   5
ATOM      5  C   UNL     1      53.296  50.397   6.039  1.00  0.00     0.006 C 
BRANCH   5   6
ATOM      6  C   UNL     1      53.768  50.718   4.610  1.00  0.00     0.053 C 
BRANCH   6   7
ATOM      7  C   UNL     1      54.886  51.715   4.586  1.00  0.00     0.041 C 
ATOM      8  O   UNL     1      56.007  51.400   4.107  1.00  0.00    -0.550 OA
ATOM      9  O   UNL     1      54.681  53.004   5.061  1.00  0.00    -0.550 OA
ENDBRANCH   6   7
ENDBRANCH   5   6
ENDBRANCH   4   5
ENDBRANCH   3   4
ENDBRANCH   2   3
ENDBRANCH   1   2
BRANCH   1  10
ATOM     10  C   UNL     1      49.160  52.594   3.781  1.00  0.00     0.000 C 
BRANCH  10  11
ATOM     11  C   UNL     1      47.773  51.975   4.005  1.00  0.00    -0.000 C 
BRANCH  11  12
ATOM     12  C   UNL     1      47.346  51.045   2.858  1.00  0.00    -0.000 C 
BRANCH  12  13
ATOM     13  C   UNL     1      47.457  49.556   3.229  1.00  0.00    -0.000 C 
BRANCH  13  14
ATOM     14  C   UNL     1      48.504  48.817   2.367  1.00  0.00    -0.000 C 
BRANCH  14  15
ATOM     15  C   UNL     1      49.940  49.328   2.574  1.00  0.00    -0.003 C 
ATOM     16  C   UNL     1      50.713  48.534   3.625  1.00  0.00     0.004 C 
ENDBRANCH  14  15
ENDBRANCH  13  14
ENDBRANCH  12  13
ENDBRANCH  11  12
ENDBRANCH  10  11
ENDBRANCH   1  10
TORSDOF 12
ENDMDL
MODEL 8
REMARK VINA RESULT:    -5.383      1.684      3.825
REMARK INTER + INTRA:         -10.863
REMARK INTER:                  -9.263
REMARK INTRA:                  -1.600
REMARK UNBOUND:                -1.703
REMARK SMILES CCCCCCCCCCCCCC(=O)[O-]
REMARK SMILES IDX 8 1 9 2 10 3 11 4 12 5 13 6 14 7 15 8 16 9 7 10 6 11 5 12
REMARK SMILES IDX 4 13 3 14 2 15 1 16
REMARK H PARENT
REMARK Flexibility Score: inf
ROOT
ATOM      1  C   UNL     1      50.679  50.836   6.567  1.00  0.00     0.000 C 
ENDROOT
BRANCH   1   2
ATOM      2  C   UNL     1      50.717  51.805   5.377  1.00  0.00     0.000 C 
BRANCH   2   3
ATOM      3  C   UNL     1      51.966  52.705   5.376  1.00  0.00     0.000 C 
BRANCH   3   4
ATOM      4  C   UNL     1      52.964  52.444   6.521  1.00  0.00     0.000 C 
BRANCH   4   5
ATOM      5  C   UNL     1      54.395  52.082   6.081  1.00  0.00     0.006 C 
BRANCH   5   6
ATOM      6  C   UNL     1      54.561  51.935   4.557  1.00  0.00     0.053 C 
BRANCH   6   7
ATOM      7  C   UNL     1      54.656  50.503   4.127  1.00  0.00     0.041 C 
ATOM      8  O   UNL     1      53.723  49.699   4.390  1.00  0.00    -0.550 OA
ATOM      9  O   UNL     1      55.758  50.063   3.406  1.00  0.00    -0.550 OA
ENDBRANCH   6   7
ENDBRANCH   5   6
ENDBRANCH   4   5
ENDBRANCH   3   4
ENDBRANCH   2   3
ENDBRANCH   1   2
BRANCH   1  10
ATOM     10  C   UNL     1      49.330  50.111   6.642  1.00  0.00     0.000 C 
BRANCH  10  11
ATOM     11  C   UNL     1      48.339  50.684   5.618  1.00  0.00    -0.000 C 
BRANCH  11  12
ATOM     12  C   UNL     1      47.295  49.653   5.161  1.00  0.00    -0.000 C 
BRANCH  12  13
ATOM     13  C   UNL     1      47.629  49.037   3.791  1.00  0.00    -0.000 C 
BRANCH  13  14
ATOM     14  C   UNL     1      48.556  49.945   2.954  1.00  0.00    -0.000 C 
BRANCH  14  15
ATOM     15  C   UNL     1      49.888  49.278   2.572  1.00  0.00    -0.003 C 
ATOM     16  C   UNL     1      50.334  48.215   3.575  1.00  0.00     0.004 C 
ENDBRANCH  14  15
ENDBRANCH  13  14
ENDBRANCH  12  13
ENDBRANCH  11  12
ENDBRANCH  10  11
ENDBRANCH   1  10
TORSDOF 12
ENDMDL
MODEL 9
REMARK VINA RESULT:    -5.304      2.939      4.902
REMARK INTER + INTRA:         -10.728
REMARK INTER:                  -9.076
REMARK INTRA:                  -1.652
REMARK UNBOUND:                -1.703
REMARK SMILES CCCCCCCCCCCCCC(=O)[O-]
REMARK SMILES IDX 8 1 9 2 10 3 11 4 12 5 13 6 14 7 15 8 16 9 7 10 6 11 5 12
REMARK SMILES IDX 4 13 3 14 2 15 1 16
REMARK H PARENT
REMARK Flexibility Score: inf
ROOT
ATOM      1  C   UNL     1      50.300  49.824   5.760  1.00  0.00     0.000 C 
ENDROOT
BRANCH   1   2
ATOM      2  C   UNL     1      51.071  49.819   4.433  1.00  0.00     0.000 C 
BRANCH   2   3
ATOM      3  C   UNL     1      50.530  48.785   3.428  1.00  0.00     0.000 C 
BRANCH   3   4
ATOM      4  C   UNL     1      49.530  49.336   2.394  1.00  0.00     0.000 C 
BRANCH   4   5
ATOM      5  C   UNL     1      48.043  49.161   2.756  1.00  0.00     0.006 C 
BRANCH   5   6
ATOM      6  C   UNL     1      47.233  50.470   2.723  1.00  0.00     0.053 C 
BRANCH   6   7
ATOM      7  C   UNL     1      47.176  51.142   4.061  1.00  0.00     0.041 C 
ATOM      8  O   UNL     1      47.337  52.388   4.153  1.00  0.00    -0.550 OA
ATOM      9  O   UNL     1      46.910  50.399   5.204  1.00  0.00    -0.550 OA
ENDBRANCH   6   7
ENDBRANCH   5   6
ENDBRANCH   4   5
ENDBRANCH   3   4
ENDBRANCH   2   3
ENDBRANCH   1   2
BRANCH   1  10
ATOM     10  C   UNL     1      50.326  51.214   6.406  1.00  0.00     0.000 C 
BRANCH  10  11
ATOM     11  C   UNL     1      50.637  52.299   5.364  1.00  0.00    -0.000 C 
BRANCH  11  12
ATOM     12  C   UNL     1      51.953  53.038   5.654  1.00  0.00    -0.000 C 
BRANCH  12  13
ATOM     13  C   UNL     1      52.746  52.408   6.813  1.00  0.00    -0.000 C 
BRANCH  13  14
ATOM     14  C   UNL     1      53.924  51.545   6.312  1.00  0.00    -0.000 C 
BRANCH  14  15
ATOM     15  C   UNL     1      54.282  51.791   4.837  1.00  0.00    -0.003 C 
ATOM     16  C   UNL     1      54.669  50.515   4.093  1.00  0.00     0.004 C 
ENDBRANCH  14  15
ENDBRANCH  13  14
ENDBRANCH  12  13
ENDBRANCH  11  12
ENDBRANCH  10  11
ENDBRANCH   1  10
TORSDOF 12
ENDMDL
