MODEL 1
REMARK VINA RESULT:    -4.399      0.000      0.000
REMARK INTER + INTRA:         -10.394
REMARK INTER:                  -7.998
REMARK INTRA:                  -2.395
REMARK UNBOUND:                -2.395
REMARK SMILES CCCCCCCCCCCCCC[C@@H](C)C(=O)[O-]
REMARK SMILES IDX 9 1 10 2 11 3 12 4 13 5 14 6 15 7 16 8 17 9 18 10 19 11 8 12
REMARK SMILES IDX 7 13 6 14 5 15 4 16 3 17 2 18 1 19
REMARK H PARENT
REMARK Flexibility Score: inf
ROOT
ATOM      1  C   UNL     1      47.194  36.474 -17.152  1.00  0.00     0.000 C 
ENDROOT
BRANCH   1   2
ATOM      2  C   UNL     1      46.919  37.717 -16.291  1.00  0.00     0.000 C 
BRANCH   2   3
ATOM      3  C   UNL     1      46.670  37.372 -14.815  1.00  0.00     0.000 C 
BRANCH   3   4
ATOM      4  C   UNL     1      45.228  37.702 -14.411  1.00  0.00     0.000 C 
BRANCH   4   5
ATOM      5  C   UNL     1      45.008  37.461 -12.909  1.00  0.00     0.001 C 
BRANCH   5   6
ATOM      6  C   UNL     1      46.196  36.721 -12.256  1.00  0.00     0.009 C 
BRANCH   6   7
ATOM      7  C   UNL     1      45.832  35.320 -11.715  1.00  0.00     0.032 C 
ATOM      8  C   UNL     1      46.167  34.202 -12.710  1.00  0.00     0.014 C 
BRANCH   7   9
ATOM      9  C   UNL     1      46.554  35.074 -10.419  1.00  0.00     0.044 C 
ATOM     10  O   UNL     1      46.035  34.344  -9.534  1.00  0.00    -0.550 OA
ATOM     11  O   UNL     1      47.794  35.656 -10.184  1.00  0.00    -0.550 OA
ENDBRANCH   7   9
ENDBRANCH   6   7
ENDBRANCH   5   6
ENDBRANCH   4   5
ENDBRANCH   3   4
ENDBRANCH   2   3
ENDBRANCH   1   2
BRANCH   1  12
ATOM     12  C   UNL     1      47.497  35.226 -16.310  1.00  0.00     0.000 C 
BRANCH  12  13
ATOM     13  C   UNL     1      48.949  34.771 -16.505  1.00  0.00    -0.000 C 
BRANCH  13  14
ATOM     14  C   UNL     1      49.758  35.823 -17.274  1.00  0.00    -0.000 C 
BRANCH  14  15
ATOM     15  C   UNL     1      51.146  36.013 -16.651  1.00  0.00    -0.000 C 
BRANCH  15  16
ATOM     16  C   UNL     1      51.301  37.430 -16.078  1.00  0.00    -0.000 C 
BRANCH  16  17
ATOM     17  C   UNL     1      50.350  37.701 -14.902  1.00  0.00    -0.000 C 
BRANCH  17  18
ATOM     18  C   UNL     1      50.804  37.016 -13.604  1.00  0.00    -0.003 C 
ATOM     19  C   UNL     1      49.771  35.999 -13.129  1.00  0.00     0.004 C 
ENDBRANCH  17  18
ENDBRANCH  16  17
ENDBRANCH  15  16
ENDBRANCH  14  15
ENDBRANCH  13  14
ENDBRANCH  12  13
ENDBRANCH   1  12
TORSDOF 14
ENDMDL
MODEL 2
REMARK VINA RESULT:    -4.380      3.009      6.693
REMARK INTER + INTRA:         -10.361
REMARK INTER:                  -8.188
REMARK INTRA:                  -2.172
REMARK UNBOUND:                -2.395
REMARK SMILES CCCCCCCCCCCCCC[C@@H](C)C(=O)[O-]
REMARK SMILES IDX 9 1 10 2 11 3 12 4 13 5 14 6 15 7 16 8 17 9 18 10 19 11 8 12
REMARK SMILES IDX 7 13 6 14 5 15 4 16 3 17 2 18 1 19
REMARK H PARENT
REMARK Flexibility Score: inf
ROOT
ATOM      1  C   UNL     1      44.482  37.196 -12.816  1.00  0.00     0.000 C 
ENDROOT
BRANCH   1   2
ATOM      2  C   UNL     1      45.394  36.388 -13.752  1.00  0.00     0.000 C 
BRANCH   2   3
ATOM      3  C   UNL     1      45.518  34.915 -13.333  1.00  0.00     0.000 C 
BRANCH   3   4
ATOM      4  C   UNL     1      46.963  34.422 -13.480  1.00  0.00     0.000 C 
BRANCH   4   5
ATOM      5  C   UNL     1      47.744  35.293 -14.477  1.00  0.00     0.001 C 
BRANCH   5   6
ATOM      6  C   UNL     1      47.914  34.603 -15.848  1.00  0.00     0.009 C 
BRANCH   6   7
ATOM      7  C   UNL     1      48.144  35.589 -17.015  1.00  0.00     0.032 C 
ATOM      8  C   UNL     1      47.073  36.685 -17.077  1.00  0.00     0.014 C 
BRANCH   7   9
ATOM      9  C   UNL     1      49.503  36.219 -16.885  1.00  0.00     0.044 C 
ATOM     10  O   UNL     1      50.540  35.540 -17.112  1.00  0.00    -0.550 OA
ATOM     11  O   UNL     1      49.628  37.551 -16.508  1.00  0.00    -0.550 OA
ENDBRANCH   7   9
ENDBRANCH   6   7
ENDBRANCH   5   6
ENDBRANCH   4   5
ENDBRANCH   3   4
ENDBRANCH   2   3
ENDBRANCH   1   2
BRANCH   1  12
ATOM     12  C   UNL     1      43.241  36.407 -12.372  1.00  0.00     0.000 C 
BRANCH  12  13
ATOM     13  C   UNL     1      42.680  36.959 -11.056  1.00  0.00    -0.000 C 
BRANCH  13  14
ATOM     14  C   UNL     1      42.964  36.004  -9.891  1.00  0.00    -0.000 C 
BRANCH  14  15
ATOM     15  C   UNL     1      43.927  36.638  -8.881  1.00  0.00    -0.000 C 
BRANCH  15  16
ATOM     16  C   UNL     1      45.081  35.680  -8.548  1.00  0.00    -0.000 C 
BRANCH  16  17
ATOM     17  C   UNL     1      45.726  35.070  -9.803  1.00  0.00    -0.000 C 
BRANCH  17  18
ATOM     18  C   UNL     1      47.222  35.399  -9.918  1.00  0.00    -0.003 C 
ATOM     19  C   UNL     1      47.434  36.795 -10.496  1.00  0.00     0.004 C 
ENDBRANCH  17  18
ENDBRANCH  16  17
ENDBRANCH  15  16
ENDBRANCH  14  15
ENDBRANCH  13  14
ENDBRANCH  12  13
ENDBRANCH   1  12
TORSDOF 14
ENDMDL
MODEL 3
REMARK VINA RESULT:    -4.338      2.890      5.875
REMARK INTER + INTRA:         -10.285
REMARK INTER:                  -8.333
REMARK INTRA:                  -1.952
REMARK UNBOUND:                -2.395
REMARK SMILES CCCCCCCCCCCCCC[C@@H](C)C(=O)[O-]
REMARK SMILES IDX 9 1 10 2 11 3 12 4 13 5 14 6 15 7 16 8 17 9 18 10 19 11 8 12
REMARK SMILES IDX 7 13 6 14 5 15 4 16 3 17 2 18 1 19
REMARK H PARENT
REMARK Flexibility Score: inf
ROOT
ATOM      1  C   UNL     1      46.547  37.146 -14.902  1.00  0.00     0.000 C 
ENDROOT
BRANCH   1   2
ATOM      2  C   UNL     1      46.360  37.307 -16.420  1.00  0.00     0.000 C 
BRANCH   2   3
ATOM      3  C   UNL     1      47.334  36.439 -17.232  1.00  0.00     0.000 C 
BRANCH   3   4
ATOM      4  C   UNL     1      47.460  35.038 -16.622  1.00  0.00     0.000 C 
BRANCH   4   5
ATOM      5  C   UNL     1      48.908  34.750 -16.198  1.00  0.00     0.001 C 
BRANCH   5   6
ATOM      6  C   UNL     1      49.930  35.579 -17.007  1.00  0.00     0.009 C 
BRANCH   6   7
ATOM      7  C   UNL     1      50.593  36.713 -16.193  1.00  0.00     0.032 C 
ATOM      8  C   UNL     1      50.257  36.636 -14.698  1.00  0.00     0.014 C 
BRANCH   7   9
ATOM      9  C   UNL     1      52.084  36.664 -16.378  1.00  0.00     0.044 C 
ATOM     10  O   UNL     1      52.575  36.228 -17.453  1.00  0.00    -0.550 OA
ATOM     11  O   UNL     1      52.933  37.093 -15.364  1.00  0.00    -0.550 OA
ENDBRANCH   7   9
ENDBRANCH   6   7
ENDBRANCH   5   6
ENDBRANCH   4   5
ENDBRANCH   3   4
ENDBRANCH   2   3
ENDBRANCH   1   2
BRANCH   1  12
ATOM     12  C   UNL     1      45.270  37.469 -14.112  1.00  0.00     0.000 C 
BRANCH  12  13
ATOM     13  C   UNL     1      44.917  36.329 -13.149  1.00  0.00    -0.000 C 
BRANCH  13  14
ATOM     14  C   UNL     1      45.604  35.023 -13.565  1.00  0.00    -0.000 C 
BRANCH  14  15
ATOM     15  C   UNL     1      46.377  34.410 -12.392  1.00  0.00    -0.000 C 
BRANCH  15  16
ATOM     16  C   UNL     1      45.957  35.052 -11.062  1.00  0.00    -0.000 C 
BRANCH  16  17
ATOM     17  C   UNL     1      47.149  35.315 -10.127  1.00  0.00    -0.000 C 
BRANCH  17  18
ATOM     18  C   UNL     1      48.051  36.454 -10.625  1.00  0.00    -0.003 C 
ATOM     19  C   UNL     1      47.278  37.767 -10.716  1.00  0.00     0.004 C 
ENDBRANCH  17  18
ENDBRANCH  16  17
ENDBRANCH  15  16
ENDBRANCH  14  15
ENDBRANCH  13  14
ENDBRANCH  12  13
ENDBRANCH   1  12
TORSDOF 14
ENDMDL
MODEL 4
REMARK VINA RESULT:    -4.308      1.743      3.396
REMARK INTER + INTRA:         -10.228
REMARK INTER:                  -7.670
REMARK INTRA:                  -2.559
REMARK UNBOUND:                -2.395
REMARK SMILES CCCCCCCCCCCCCC[C@@H](C)C(=O)[O-]
REMARK SMILES IDX 9 1 10 2 11 3 12 4 13 5 14 6 15 7 16 8 17 9 18 10 19 11 8 12
REMARK SMILES IDX 7 13 6 14 5 15 4 16 3 17 2 18 1 19
REMARK H PARENT
REMARK Flexibility Score: inf
ROOT
ATOM      1  C   UNL     1      45.458  35.135 -13.396  1.00  0.00     0.000 C 
ENDROOT
BRANCH   1   2
ATOM      2  C   UNL     1      45.452  36.667 -13.518  1.00  0.00     0.000 C 
BRANCH   2   3
ATOM      3  C   UNL     1      44.145  37.297 -13.014  1.00  0.00     0.000 C 
BRANCH   3   4
ATOM      4  C   UNL     1      43.323  36.284 -12.209  1.00  0.00     0.000 C 
BRANCH   4   5
ATOM      5  C   UNL     1      42.997  36.827 -10.809  1.00  0.00     0.001 C 
BRANCH   5   6
ATOM      6  C   UNL     1      43.473  35.877  -9.689  1.00  0.00     0.009 C 
BRANCH   6   7
ATOM      7  C   UNL     1      44.986  35.564  -9.742  1.00  0.00     0.032 C 
ATOM      8  C   UNL     1      45.851  36.816  -9.551  1.00  0.00     0.014 C 
BRANCH   7   9
ATOM      9  C   UNL     1      45.330  34.547  -8.689  1.00  0.00     0.044 C 
ATOM     10  O   UNL     1      44.422  34.037  -7.981  1.00  0.00    -0.550 OA
ATOM     11  O   UNL     1      46.652  34.168  -8.483  1.00  0.00    -0.550 OA
ENDBRANCH   7   9
ENDBRANCH   6   7
ENDBRANCH   5   6
ENDBRANCH   4   5
ENDBRANCH   3   4
ENDBRANCH   2   3
ENDBRANCH   1   2
BRANCH   1  12
ATOM     12  C   UNL     1      46.846  34.574 -13.054  1.00  0.00     0.000 C 
BRANCH  12  13
ATOM     13  C   UNL     1      47.755  35.668 -12.480  1.00  0.00    -0.000 C 
BRANCH  13  14
ATOM     14  C   UNL     1      49.145  35.627 -13.126  1.00  0.00    -0.000 C 
BRANCH  14  15
ATOM     15  C   UNL     1      49.440  36.929 -13.880  1.00  0.00    -0.000 C 
BRANCH  15  16
ATOM     16  C   UNL     1      49.481  36.687 -15.396  1.00  0.00    -0.000 C 
BRANCH  16  17
ATOM     17  C   UNL     1      48.172  37.086 -16.096  1.00  0.00    -0.000 C 
BRANCH  17  18
ATOM     18  C   UNL     1      47.373  35.873 -16.592  1.00  0.00    -0.003 C 
ATOM     19  C   UNL     1      48.211  34.600 -16.530  1.00  0.00     0.004 C 
ENDBRANCH  17  18
ENDBRANCH  16  17
ENDBRANCH  15  16
ENDBRANCH  14  15
ENDBRANCH  13  14
ENDBRANCH  12  13
ENDBRANCH   1  12
TORSDOF 14
ENDMDL
MODEL 5
REMARK VINA RESULT:    -4.307      1.746      3.567
REMARK INTER + INTRA:         -10.227
REMARK INTER:                  -8.049
REMARK INTRA:                  -2.178
REMARK UNBOUND:                -2.395
REMARK SMILES CCCCCCCCCCCCCC[C@@H](C)C(=O)[O-]
REMARK SMILES IDX 9 1 10 2 11 3 12 4 13 5 14 6 15 7 16 8 17 9 18 10 19 11 8 12
REMARK SMILES IDX 7 13 6 14 5 15 4 16 3 17 2 18 1 19
REMARK H PARENT
REMARK Flexibility Score: inf
ROOT
ATOM      1  C   UNL     1      47.914  37.088 -13.341  1.00  0.00     0.000 C 
ENDROOT
BRANCH   1   2
ATOM      2  C   UNL     1      47.936  37.871 -12.018  1.00  0.00     0.000 C 
BRANCH   2   3
ATOM      3  C   UNL     1      46.711  37.581 -11.138  1.00  0.00     0.000 C 
BRANCH   3   4
ATOM      4  C   UNL     1      45.650  36.795 -11.916  1.00  0.00     0.000 C 
BRANCH   4   5
ATOM      5  C   UNL     1      45.339  35.457 -11.227  1.00  0.00     0.001 C 
BRANCH   5   6
ATOM      6  C   UNL     1      46.186  35.245  -9.953  1.00  0.00     0.009 C 
BRANCH   6   7
ATOM      7  C   UNL     1      45.349  35.172  -8.656  1.00  0.00     0.032 C 
ATOM      8  C   UNL     1      43.884  35.567  -8.880  1.00  0.00     0.014 C 
BRANCH   7   9
ATOM      9  C   UNL     1      45.415  33.781  -8.088  1.00  0.00     0.044 C 
ATOM     10  O   UNL     1      46.530  33.225  -7.904  1.00  0.00    -0.550 OA
ATOM     11  O   UNL     1      44.249  33.096  -7.769  1.00  0.00    -0.550 OA
ENDBRANCH   7   9
ENDBRANCH   6   7
ENDBRANCH   5   6
ENDBRANCH   4   5
ENDBRANCH   3   4
ENDBRANCH   2   3
ENDBRANCH   1   2
BRANCH   1  12
ATOM     12  C   UNL     1      48.897  35.907 -13.346  1.00  0.00     0.000 C 
BRANCH  12  13
ATOM     13  C   UNL     1      48.199  34.613 -13.782  1.00  0.00    -0.000 C 
BRANCH  13  14
ATOM     14  C   UNL     1      47.038  34.908 -14.738  1.00  0.00    -0.000 C 
BRANCH  14  15
ATOM     15  C   UNL     1      47.476  34.759 -16.200  1.00  0.00    -0.000 C 
BRANCH  15  16
ATOM     16  C   UNL     1      47.312  36.084 -16.959  1.00  0.00    -0.000 C 
BRANCH  16  17
ATOM     17  C   UNL     1      48.658  36.758 -17.272  1.00  0.00    -0.000 C 
BRANCH  17  18
ATOM     18  C   UNL     1      49.856  35.829 -17.030  1.00  0.00    -0.003 C 
ATOM     19  C   UNL     1      50.984  36.563 -16.312  1.00  0.00     0.004 C 
ENDBRANCH  17  18
ENDBRANCH  16  17
ENDBRANCH  15  16
ENDBRANCH  14  15
ENDBRANCH  13  14
ENDBRANCH  12  13
ENDBRANCH   1  12
TORSDOF 14
ENDMDL
MODEL 6
REMARK VINA RESULT:    -4.300      1.624      3.613
REMARK INTER + INTRA:         -10.215
REMARK INTER:                  -8.185
REMARK INTRA:                  -2.031
REMARK UNBOUND:                -2.395
REMARK SMILES CCCCCCCCCCCCCC[C@@H](C)C(=O)[O-]
REMARK SMILES IDX 9 1 10 2 11 3 12 4 13 5 14 6 15 7 16 8 17 9 18 10 19 11 8 12
REMARK SMILES IDX 7 13 6 14 5 15 4 16 3 17 2 18 1 19
REMARK H PARENT
REMARK Flexibility Score: inf
ROOT
ATOM      1  C   UNL     1      49.346  35.920 -13.158  1.00  0.00     0.000 C 
ENDROOT
BRANCH   1   2
ATOM      2  C   UNL     1      47.866  35.788 -12.763  1.00  0.00     0.000 C 
BRANCH   2   3
ATOM      3  C   UNL     1      47.288  34.402 -13.086  1.00  0.00     0.000 C 
BRANCH   3   4
ATOM      4  C   UNL     1      45.774  34.479 -13.318  1.00  0.00     0.000 C 
BRANCH   4   5
ATOM      5  C   UNL     1      45.302  35.939 -13.394  1.00  0.00     0.001 C 
BRANCH   5   6
ATOM      6  C   UNL     1      43.846  36.108 -12.907  1.00  0.00     0.009 C 
BRANCH   6   7
ATOM      7  C   UNL     1      43.707  37.029 -11.675  1.00  0.00     0.032 C 
ATOM      8  C   UNL     1      42.384  37.807 -11.669  1.00  0.00     0.014 C 
BRANCH   7   9
ATOM      9  C   UNL     1      43.817  36.213 -10.417  1.00  0.00     0.044 C 
ATOM     10  O   UNL     1      44.925  35.720 -10.077  1.00  0.00    -0.550 OA
ATOM     11  O   UNL     1      42.698  35.990  -9.623  1.00  0.00    -0.550 OA
ENDBRANCH   7   9
ENDBRANCH   6   7
ENDBRANCH   5   6
ENDBRANCH   4   5
ENDBRANCH   3   4
ENDBRANCH   2   3
ENDBRANCH   1   2
BRANCH   1  12
ATOM     12  C   UNL     1      49.683  37.304 -13.732  1.00  0.00     0.000 C 
BRANCH  12  13
ATOM     13  C   UNL     1      51.128  37.349 -14.244  1.00  0.00    -0.000 C 
BRANCH  13  14
ATOM     14  C   UNL     1      51.169  37.560 -15.763  1.00  0.00    -0.000 C 
BRANCH  14  15
ATOM     15  C   UNL     1      51.124  36.220 -16.506  1.00  0.00    -0.000 C 
BRANCH  15  16
ATOM     16  C   UNL     1      49.772  36.027 -17.209  1.00  0.00    -0.000 C 
BRANCH  16  17
ATOM     17  C   UNL     1      48.990  34.819 -16.669  1.00  0.00    -0.000 C 
BRANCH  17  18
ATOM     18  C   UNL     1      47.481  35.086 -16.575  1.00  0.00    -0.003 C 
ATOM     19  C   UNL     1      47.170  36.563 -16.798  1.00  0.00     0.004 C 
ENDBRANCH  17  18
ENDBRANCH  16  17
ENDBRANCH  15  16
ENDBRANCH  14  15
ENDBRANCH  13  14
ENDBRANCH  12  13
ENDBRANCH   1  12
TORSDOF 14
ENDMDL
MODEL 7
REMARK VINA RESULT:    -4.286      1.984      4.103
REMARK INTER + INTRA:         -10.189
REMARK INTER:                  -8.215
REMARK INTRA:                  -1.973
REMARK UNBOUND:                -2.395
REMARK SMILES CCCCCCCCCCCCCC[C@@H](C)C(=O)[O-]
REMARK SMILES IDX 9 1 10 2 11 3 12 4 13 5 14 6 15 7 16 8 17 9 18 10 19 11 8 12
REMARK SMILES IDX 7 13 6 14 5 15 4 16 3 17 2 18 1 19
REMARK H PARENT
REMARK Flexibility Score: inf
ROOT
ATOM      1  C   UNL     1      44.528  36.085 -12.924  1.00  0.00     0.000 C 
ENDROOT
BRANCH   1   2
ATOM      2  C   UNL     1      43.015  36.304 -12.765  1.00  0.00     0.000 C 
BRANCH   2   3
ATOM      3  C   UNL     1      42.655  37.031 -11.461  1.00  0.00     0.000 C 
BRANCH   3   4
ATOM      4  C   UNL     1      43.007  36.174 -10.239  1.00  0.00     0.000 C 
BRANCH   4   5
ATOM      5  C   UNL     1      43.714  37.011  -9.162  1.00  0.00     0.001 C 
BRANCH   5   6
ATOM      6  C   UNL     1      45.184  36.583  -8.962  1.00  0.00     0.009 C 
BRANCH   6   7
ATOM      7  C   UNL     1      45.498  35.168  -9.498  1.00  0.00     0.032 C 
ATOM      8  C   UNL     1      46.830  35.109 -10.255  1.00  0.00     0.014 C 
BRANCH   7   9
ATOM      9  C   UNL     1      45.521  34.188  -8.358  1.00  0.00     0.044 C 
ATOM     10  O   UNL     1      44.449  33.851  -7.790  1.00  0.00    -0.550 OA
ATOM     11  O   UNL     1      46.726  33.653  -7.916  1.00  0.00    -0.550 OA
ENDBRANCH   7   9
ENDBRANCH   6   7
ENDBRANCH   5   6
ENDBRANCH   4   5
ENDBRANCH   3   4
ENDBRANCH   2   3
ENDBRANCH   1   2
BRANCH   1  12
ATOM     12  C   UNL     1      45.283  37.385 -13.242  1.00  0.00     0.000 C 
BRANCH  12  13
ATOM     13  C   UNL     1      46.445  37.123 -14.208  1.00  0.00    -0.000 C 
BRANCH  13  14
ATOM     14  C   UNL     1      47.710  36.703 -13.449  1.00  0.00    -0.000 C 
BRANCH  14  15
ATOM     15  C   UNL     1      48.353  35.468 -14.092  1.00  0.00    -0.000 C 
BRANCH  15  16
ATOM     16  C   UNL     1      47.414  34.838 -15.131  1.00  0.00    -0.000 C 
BRANCH  16  17
ATOM     17  C   UNL     1      48.057  34.732 -16.523  1.00  0.00    -0.000 C 
BRANCH  17  18
ATOM     18  C   UNL     1      48.806  36.010 -16.928  1.00  0.00    -0.003 C 
ATOM     19  C   UNL     1      47.870  37.002 -17.612  1.00  0.00     0.004 C 
ENDBRANCH  17  18
ENDBRANCH  16  17
ENDBRANCH  15  16
ENDBRANCH  14  15
ENDBRANCH  13  14
ENDBRANCH  12  13
ENDBRANCH   1  12
TORSDOF 14
ENDMDL
MODEL 8
REMARK VINA RESULT:    -4.283      1.828      3.547
REMARK INTER + INTRA:         -10.183
REMARK INTER:                  -7.925
REMARK INTRA:                  -2.259
REMARK UNBOUND:                -2.395
REMARK SMILES CCCCCCCCCCCCCC[C@@H](C)C(=O)[O-]
REMARK SMILES IDX 9 1 10 2 11 3 12 4 13 5 14 6 15 7 16 8 17 9 18 10 19 11 8 12
REMARK SMILES IDX 7 13 6 14 5 15 4 16 3 17 2 18 1 19
REMARK H PARENT
REMARK Flexibility Score: inf
ROOT
ATOM      1  C   UNL     1      45.670  34.700 -13.139  1.00  0.00     0.000 C 
ENDROOT
BRANCH   1   2
ATOM      2  C   UNL     1      45.137  36.107 -13.455  1.00  0.00     0.000 C 
BRANCH   2   3
ATOM      3  C   UNL     1      43.708  36.329 -12.939  1.00  0.00     0.000 C 
BRANCH   3   4
ATOM      4  C   UNL     1      43.673  36.341 -11.406  1.00  0.00     0.000 C 
BRANCH   4   5
ATOM      5  C   UNL     1      44.516  37.497 -10.845  1.00  0.00     0.001 C 
BRANCH   5   6
ATOM      6  C   UNL     1      45.611  37.003  -9.873  1.00  0.00     0.009 C 
BRANCH   6   7
ATOM      7  C   UNL     1      45.367  35.573  -9.339  1.00  0.00     0.032 C 
ATOM      8  C   UNL     1      46.606  34.678  -9.474  1.00  0.00     0.014 C 
BRANCH   7   9
ATOM      9  C   UNL     1      44.945  35.636  -7.897  1.00  0.00     0.044 C 
ATOM     10  O   UNL     1      44.608  36.736  -7.384  1.00  0.00    -0.550 OA
ATOM     11  O   UNL     1      44.930  34.485  -7.118  1.00  0.00    -0.550 OA
ENDBRANCH   7   9
ENDBRANCH   6   7
ENDBRANCH   5   6
ENDBRANCH   4   5
ENDBRANCH   3   4
ENDBRANCH   2   3
ENDBRANCH   1   2
BRANCH   1  12
ATOM     12  C   UNL     1      47.200  34.610 -13.242  1.00  0.00     0.000 C 
BRANCH  12  13
ATOM     13  C   UNL     1      47.863  35.881 -12.697  1.00  0.00    -0.000 C 
BRANCH  13  14
ATOM     14  C   UNL     1      49.285  36.041 -13.248  1.00  0.00    -0.000 C 
BRANCH  14  15
ATOM     15  C   UNL     1      49.288  36.879 -14.531  1.00  0.00    -0.000 C 
BRANCH  15  16
ATOM     16  C   UNL     1      50.134  36.209 -15.623  1.00  0.00    -0.000 C 
BRANCH  16  17
ATOM     17  C   UNL     1      49.369  36.037 -16.945  1.00  0.00    -0.000 C 
BRANCH  17  18
ATOM     18  C   UNL     1      47.969  35.438 -16.745  1.00  0.00    -0.003 C 
ATOM     19  C   UNL     1      46.890  36.375 -17.279  1.00  0.00     0.004 C 
ENDBRANCH  17  18
ENDBRANCH  16  17
ENDBRANCH  15  16
ENDBRANCH  14  15
ENDBRANCH  13  14
ENDBRANCH  12  13
ENDBRANCH   1  12
TORSDOF 14
ENDMDL
MODEL 9
REMARK VINA RESULT:    -4.279      2.773      6.420
REMARK INTER + INTRA:         -10.176
REMARK INTER:                  -7.770
REMARK INTRA:                  -2.406
REMARK UNBOUND:                -2.395
REMARK SMILES CCCCCCCCCCCCCC[C@@H](C)C(=O)[O-]
REMARK SMILES IDX 9 1 10 2 11 3 12 4 13 5 14 6 15 7 16 8 17 9 18 10 19 11 8 12
REMARK SMILES IDX 7 13 6 14 5 15 4 16 3 17 2 18 1 19
REMARK H PARENT
REMARK Flexibility Score: inf
ROOT
ATOM      1  C   UNL     1      45.628  35.151 -13.387  1.00  0.00     0.000 C 
ENDROOT
BRANCH   1   2
ATOM      2  C   UNL     1      47.057  34.729 -13.009  1.00  0.00     0.000 C 
BRANCH   2   3
ATOM      3  C   UNL     1      48.015  35.924 -12.888  1.00  0.00     0.000 C 
BRANCH   3   4
ATOM      4  C   UNL     1      49.438  35.530 -13.299  1.00  0.00     0.000 C 
BRANCH   4   5
ATOM      5  C   UNL     1      50.017  36.529 -14.313  1.00  0.00     0.001 C 
BRANCH   5   6
ATOM      6  C   UNL     1      48.928  37.125 -15.232  1.00  0.00     0.009 C 
BRANCH   6   7
ATOM      7  C   UNL     1      48.966  36.575 -16.676  1.00  0.00     0.032 C 
ATOM      8  C   UNL     1      50.184  35.678 -16.931  1.00  0.00     0.014 C 
BRANCH   7   9
ATOM      9  C   UNL     1      47.705  35.805 -16.958  1.00  0.00     0.044 C 
ATOM     10  O   UNL     1      46.780  36.331 -17.631  1.00  0.00    -0.550 OA
ATOM     11  O   UNL     1      47.548  34.512 -16.473  1.00  0.00    -0.550 OA
ENDBRANCH   7   9
ENDBRANCH   6   7
ENDBRANCH   5   6
ENDBRANCH   4   5
ENDBRANCH   3   4
ENDBRANCH   2   3
ENDBRANCH   1   2
BRANCH   1  12
ATOM     12  C   UNL     1      45.544  36.615 -13.843  1.00  0.00     0.000 C 
BRANCH  12  13
ATOM     13  C   UNL     1      44.308  37.305 -13.252  1.00  0.00    -0.000 C 
BRANCH  13  14
ATOM     14  C   UNL     1      43.333  36.280 -12.662  1.00  0.00    -0.000 C 
BRANCH  14  15
ATOM     15  C   UNL     1      42.745  36.778 -11.337  1.00  0.00    -0.000 C 
BRANCH  15  16
ATOM     16  C   UNL     1      43.426  36.093 -10.142  1.00  0.00    -0.000 C 
BRANCH  16  17
ATOM     17  C   UNL     1      44.541  36.951  -9.523  1.00  0.00    -0.000 C 
BRANCH  17  18
ATOM     18  C   UNL     1      45.944  36.405  -9.823  1.00  0.00    -0.003 C 
ATOM     19  C   UNL     1      46.050  34.930  -9.450  1.00  0.00     0.004 C 
ENDBRANCH  17  18
ENDBRANCH  16  17
ENDBRANCH  15  16
ENDBRANCH  14  15
ENDBRANCH  13  14
ENDBRANCH  12  13
ENDBRANCH   1  12
TORSDOF 14
ENDMDL
