MODEL 1
REMARK VINA RESULT:    -4.225      0.000      0.000
REMARK INTER + INTRA:          -9.238
REMARK INTER:                  -7.682
REMARK INTRA:                  -1.556
REMARK UNBOUND:                -1.556
REMARK SMILES CCCCCCCCCCCCCCCC(=O)[O-]
REMARK SMILES IDX 9 1 10 2 11 3 12 4 13 5 14 6 15 7 16 8 17 9 18 10 8 11 7 12
REMARK SMILES IDX 6 13 5 14 4 15 3 16 2 17 1 18
REMARK H PARENT
REMARK Flexibility Score: inf
ROOT
ATOM      1  C   UNL     1      20.609  -4.266  54.313  1.00  0.00     0.000 C 
ENDROOT
BRANCH   1   2
ATOM      2  C   UNL     1      20.548  -4.817  55.746  1.00  0.00     0.000 C 
BRANCH   2   3
ATOM      3  C   UNL     1      19.985  -3.799  56.750  1.00  0.00     0.000 C 
BRANCH   3   4
ATOM      4  C   UNL     1      21.047  -3.310  57.752  1.00  0.00     0.000 C 
BRANCH   4   5
ATOM      5  C   UNL     1      22.407  -4.006  57.570  1.00  0.00     0.000 C 
BRANCH   5   6
ATOM      6  C   UNL     1      23.619  -3.063  57.429  1.00  0.00     0.006 C 
BRANCH   6   7
ATOM      7  C   UNL     1      24.199  -2.994  56.004  1.00  0.00     0.053 C 
BRANCH   7   8
ATOM      8  C   UNL     1      23.432  -2.057  55.118  1.00  0.00     0.041 C 
ATOM      9  O   UNL     1      23.543  -2.135  53.867  1.00  0.00    -0.550 OA
ATOM     10  O   UNL     1      22.628  -1.070  55.675  1.00  0.00    -0.550 OA
ENDBRANCH   7   8
ENDBRANCH   6   7
ENDBRANCH   5   6
ENDBRANCH   4   5
ENDBRANCH   3   4
ENDBRANCH   2   3
ENDBRANCH   1   2
BRANCH   1  11
ATOM     11  C   UNL     1      21.142  -5.325  53.339  1.00  0.00     0.000 C 
BRANCH  11  12
ATOM     12  C   UNL     1      22.663  -5.484  53.477  1.00  0.00    -0.000 C 
BRANCH  12  13
ATOM     13  C   UNL     1      23.409  -5.274  52.147  1.00  0.00    -0.000 C 
BRANCH  13  14
ATOM     14  C   UNL     1      24.933  -5.497  52.213  1.00  0.00    -0.000 C 
BRANCH  14  15
ATOM     15  C   UNL     1      25.476  -5.906  53.596  1.00  0.00    -0.000 C 
BRANCH  15  16
ATOM     16  C   UNL     1      27.011  -5.915  53.715  1.00  0.00    -0.000 C 
BRANCH  16  17
ATOM     17  C   UNL     1      27.702  -6.475  52.465  1.00  0.00    -0.003 C 
ATOM     18  C   UNL     1      29.202  -6.195  52.493  1.00  0.00     0.004 C 
ENDBRANCH  16  17
ENDBRANCH  15  16
ENDBRANCH  14  15
ENDBRANCH  13  14
ENDBRANCH  12  13
ENDBRANCH  11  12
ENDBRANCH   1  11
TORSDOF 14
ENDMDL
MODEL 2
REMARK VINA RESULT:    -3.917      2.845      6.414
REMARK INTER + INTRA:          -8.678
REMARK INTER:                  -6.664
REMARK INTRA:                  -2.015
REMARK UNBOUND:                -1.556
REMARK SMILES CCCCCCCCCCCCCCCC(=O)[O-]
REMARK SMILES IDX 9 1 10 2 11 3 12 4 13 5 14 6 15 7 16 8 17 9 18 10 8 11 7 12
REMARK SMILES IDX 6 13 5 14 4 15 3 16 2 17 1 18
REMARK H PARENT
REMARK Flexibility Score: inf
ROOT
ATOM      1  C   UNL     1      21.953  -3.057  54.001  1.00  0.00     0.000 C 
ENDROOT
BRANCH   1   2
ATOM      2  C   UNL     1      21.863  -4.570  54.248  1.00  0.00     0.000 C 
BRANCH   2   3
ATOM      3  C   UNL     1      22.003  -5.393  52.958  1.00  0.00     0.000 C 
BRANCH   3   4
ATOM      4  C   UNL     1      23.383  -6.063  52.832  1.00  0.00     0.000 C 
BRANCH   4   5
ATOM      5  C   UNL     1      24.283  -5.389  51.782  1.00  0.00     0.000 C 
BRANCH   5   6
ATOM      6  C   UNL     1      23.589  -4.337  50.893  1.00  0.00     0.006 C 
BRANCH   6   7
ATOM      7  C   UNL     1      23.256  -4.834  49.474  1.00  0.00     0.053 C 
BRANCH   7   8
ATOM      8  C   UNL     1      23.585  -3.820  48.419  1.00  0.00     0.041 C 
ATOM      9  O   UNL     1      23.991  -4.191  47.287  1.00  0.00    -0.550 OA
ATOM     10  O   UNL     1      23.485  -2.463  48.700  1.00  0.00    -0.550 OA
ENDBRANCH   7   8
ENDBRANCH   6   7
ENDBRANCH   5   6
ENDBRANCH   4   5
ENDBRANCH   3   4
ENDBRANCH   2   3
ENDBRANCH   1   2
BRANCH   1  11
ATOM     11  C   UNL     1      23.265  -2.487  54.554  1.00  0.00     0.000 C 
BRANCH  11  12
ATOM     12  C   UNL     1      23.960  -3.499  55.476  1.00  0.00    -0.000 C 
BRANCH  12  13
ATOM     13  C   UNL     1      24.416  -2.879  56.809  1.00  0.00    -0.000 C 
BRANCH  13  14
ATOM     14  C   UNL     1      23.490  -3.162  58.009  1.00  0.00    -0.000 C 
BRANCH  14  15
ATOM     15  C   UNL     1      22.228  -3.984  57.683  1.00  0.00    -0.000 C 
BRANCH  15  16
ATOM     16  C   UNL     1      20.928  -3.166  57.583  1.00  0.00    -0.000 C 
BRANCH  16  17
ATOM     17  C   UNL     1      21.115  -1.698  57.987  1.00  0.00    -0.003 C 
ATOM     18  C   UNL     1      20.879  -0.767  56.801  1.00  0.00     0.004 C 
ENDBRANCH  16  17
ENDBRANCH  15  16
ENDBRANCH  14  15
ENDBRANCH  13  14
ENDBRANCH  12  13
ENDBRANCH  11  12
ENDBRANCH   1  11
TORSDOF 14
ENDMDL
MODEL 3
REMARK VINA RESULT:    -3.877     13.938     15.807
REMARK INTER + INTRA:          -8.607
REMARK INTER:                  -6.985
REMARK INTRA:                  -1.622
REMARK UNBOUND:                -1.556
REMARK SMILES CCCCCCCCCCCCCCCC(=O)[O-]
REMARK SMILES IDX 9 1 10 2 11 3 12 4 13 5 14 6 15 7 16 8 17 9 18 10 8 11 7 12
REMARK SMILES IDX 6 13 5 14 4 15 3 16 2 17 1 18
REMARK H PARENT
REMARK Flexibility Score: inf
ROOT
ATOM      1  C   UNL     1      26.925   4.561  47.175  1.00  0.00     0.000 C 
ENDROOT
BRANCH   1   2
ATOM      2  C   UNL     1      27.887   4.979  46.053  1.00  0.00     0.000 C 
BRANCH   2   3
ATOM      3  C   UNL     1      27.722   4.133  44.781  1.00  0.00     0.000 C 
BRANCH   3   4
ATOM      4  C   UNL     1      29.072   3.749  44.149  1.00  0.00     0.000 C 
BRANCH   4   5
ATOM      5  C   UNL     1      29.094   3.938  42.623  1.00  0.00     0.000 C 
BRANCH   5   6
ATOM      6  C   UNL     1      28.396   5.211  42.103  1.00  0.00     0.006 C 
BRANCH   6   7
ATOM      7  C   UNL     1      29.095   5.863  40.896  1.00  0.00     0.053 C 
BRANCH   7   8
ATOM      8  C   UNL     1      29.606   4.851  39.913  1.00  0.00     0.041 C 
ATOM      9  O   UNL     1      28.800   4.168  39.229  1.00  0.00    -0.550 OA
ATOM     10  O   UNL     1      30.973   4.632  39.784  1.00  0.00    -0.550 OA
ENDBRANCH   7   8
ENDBRANCH   6   7
ENDBRANCH   5   6
ENDBRANCH   4   5
ENDBRANCH   3   4
ENDBRANCH   2   3
ENDBRANCH   1   2
BRANCH   1  11
ATOM     11  C   UNL     1      27.641   4.533  48.531  1.00  0.00     0.000 C 
BRANCH  11  12
ATOM     12  C   UNL     1      28.791   5.551  48.567  1.00  0.00    -0.000 C 
BRANCH  12  13
ATOM     13  C   UNL     1      30.019   5.038  49.341  1.00  0.00    -0.000 C 
BRANCH  13  14
ATOM     14  C   UNL     1      31.369   5.228  48.619  1.00  0.00    -0.000 C 
BRANCH  14  15
ATOM     15  C   UNL     1      31.333   6.168  47.399  1.00  0.00    -0.000 C 
BRANCH  15  16
ATOM     16  C   UNL     1      31.560   5.479  46.041  1.00  0.00    -0.000 C 
BRANCH  16  17
ATOM     17  C   UNL     1      31.401   6.437  44.853  1.00  0.00    -0.003 C 
ATOM     18  C   UNL     1      32.437   6.147  43.771  1.00  0.00     0.004 C 
ENDBRANCH  16  17
ENDBRANCH  15  16
ENDBRANCH  14  15
ENDBRANCH  13  14
ENDBRANCH  12  13
ENDBRANCH  11  12
ENDBRANCH   1  11
TORSDOF 14
ENDMDL
MODEL 4
REMARK VINA RESULT:    -3.877      2.560      6.305
REMARK INTER + INTRA:          -8.605
REMARK INTER:                  -6.072
REMARK INTRA:                  -2.534
REMARK UNBOUND:                -1.556
REMARK SMILES CCCCCCCCCCCCCCCC(=O)[O-]
REMARK SMILES IDX 9 1 10 2 11 3 12 4 13 5 14 6 15 7 16 8 17 9 18 10 8 11 7 12
REMARK SMILES IDX 6 13 5 14 4 15 3 16 2 17 1 18
REMARK H PARENT
REMARK Flexibility Score: inf
ROOT
ATOM      1  C   UNL     1      22.410  -4.341  57.345  1.00  0.00     0.000 C 
ENDROOT
BRANCH   1   2
ATOM      2  C   UNL     1      20.886  -4.195  57.472  1.00  0.00     0.000 C 
BRANCH   2   3
ATOM      3  C   UNL     1      20.129  -4.794  56.277  1.00  0.00     0.000 C 
BRANCH   3   4
ATOM      4  C   UNL     1      21.072  -5.224  55.138  1.00  0.00     0.000 C 
BRANCH   4   5
ATOM      5  C   UNL     1      20.913  -4.364  53.873  1.00  0.00     0.000 C 
BRANCH   5   6
ATOM      6  C   UNL     1      22.027  -4.524  52.819  1.00  0.00     0.006 C 
BRANCH   6   7
ATOM      7  C   UNL     1      23.451  -4.530  53.405  1.00  0.00     0.053 C 
BRANCH   7   8
ATOM      8  C   UNL     1      24.179  -5.812  53.130  1.00  0.00     0.041 C 
ATOM      9  O   UNL     1      23.571  -6.912  53.188  1.00  0.00    -0.550 OA
ATOM     10  O   UNL     1      25.541  -5.795  52.850  1.00  0.00    -0.550 OA
ENDBRANCH   7   8
ENDBRANCH   6   7
ENDBRANCH   5   6
ENDBRANCH   4   5
ENDBRANCH   3   4
ENDBRANCH   2   3
ENDBRANCH   1   2
BRANCH   1  11
ATOM     11  C   UNL     1      23.111  -2.993  57.551  1.00  0.00     0.000 C 
BRANCH  11  12
ATOM     12  C   UNL     1      23.617  -2.426  56.216  1.00  0.00    -0.000 C 
BRANCH  12  13
ATOM     13  C   UNL     1      22.592  -1.505  55.531  1.00  0.00    -0.000 C 
BRANCH  13  14
ATOM     14  C   UNL     1      21.819  -0.570  56.483  1.00  0.00    -0.000 C 
BRANCH  14  15
ATOM     15  C   UNL     1      20.291  -0.766  56.498  1.00  0.00    -0.000 C 
BRANCH  15  16
ATOM     16  C   UNL     1      19.695  -1.329  55.195  1.00  0.00    -0.000 C 
BRANCH  16  17
ATOM     17  C   UNL     1      18.165  -1.436  55.237  1.00  0.00    -0.003 C 
ATOM     18  C   UNL     1      17.676  -1.764  56.644  1.00  0.00     0.004 C 
ENDBRANCH  16  17
ENDBRANCH  15  16
ENDBRANCH  14  15
ENDBRANCH  13  14
ENDBRANCH  12  13
ENDBRANCH  11  12
ENDBRANCH   1  11
TORSDOF 14
ENDMDL
MODEL 5
REMARK VINA RESULT:    -3.855      3.373      6.794
REMARK INTER + INTRA:          -8.567
REMARK INTER:                  -7.130
REMARK INTRA:                  -1.437
REMARK UNBOUND:                -1.556
REMARK SMILES CCCCCCCCCCCCCCCC(=O)[O-]
REMARK SMILES IDX 9 1 10 2 11 3 12 4 13 5 14 6 15 7 16 8 17 9 18 10 8 11 7 12
REMARK SMILES IDX 6 13 5 14 4 15 3 16 2 17 1 18
REMARK H PARENT
REMARK Flexibility Score: inf
ROOT
ATOM      1  C   UNL     1      22.364  -4.018  52.450  1.00  0.00     0.000 C 
ENDROOT
BRANCH   1   2
ATOM      2  C   UNL     1      22.895  -5.458  52.519  1.00  0.00     0.000 C 
BRANCH   2   3
ATOM      3  C   UNL     1      24.427  -5.532  52.422  1.00  0.00     0.000 C 
BRANCH   3   4
ATOM      4  C   UNL     1      25.116  -5.290  53.777  1.00  0.00     0.000 C 
BRANCH   4   5
ATOM      5  C   UNL     1      26.520  -5.913  53.855  1.00  0.00     0.000 C 
BRANCH   5   6
ATOM      6  C   UNL     1      27.167  -6.258  52.499  1.00  0.00     0.006 C 
BRANCH   6   7
ATOM      7  C   UNL     1      28.658  -5.883  52.400  1.00  0.00     0.053 C 
BRANCH   7   8
ATOM      8  C   UNL     1      29.536  -7.077  52.171  1.00  0.00     0.041 C 
ATOM      9  O   UNL     1      29.522  -7.670  51.061  1.00  0.00    -0.550 OA
ATOM     10  O   UNL     1      30.338  -7.562  53.197  1.00  0.00    -0.550 OA
ENDBRANCH   7   8
ENDBRANCH   6   7
ENDBRANCH   5   6
ENDBRANCH   4   5
ENDBRANCH   3   4
ENDBRANCH   2   3
ENDBRANCH   1   2
BRANCH   1  11
ATOM     11  C   UNL     1      21.451  -3.712  53.644  1.00  0.00     0.000 C 
BRANCH  11  12
ATOM     12  C   UNL     1      21.415  -4.892  54.627  1.00  0.00    -0.000 C 
BRANCH  12  13
ATOM     13  C   UNL     1      21.885  -4.506  56.041  1.00  0.00    -0.000 C 
BRANCH  13  14
ATOM     14  C   UNL     1      23.047  -3.493  56.086  1.00  0.00    -0.000 C 
BRANCH  14  15
ATOM     15  C   UNL     1      22.947  -2.431  57.198  1.00  0.00    -0.000 C 
BRANCH  15  16
ATOM     16  C   UNL     1      21.533  -2.217  57.767  1.00  0.00    -0.000 C 
BRANCH  16  17
ATOM     17  C   UNL     1      20.932  -0.861  57.374  1.00  0.00    -0.003 C 
ATOM     18  C   UNL     1      20.573  -0.827  55.892  1.00  0.00     0.004 C 
ENDBRANCH  16  17
ENDBRANCH  15  16
ENDBRANCH  14  15
ENDBRANCH  13  14
ENDBRANCH  12  13
ENDBRANCH  11  12
ENDBRANCH   1  11
TORSDOF 14
ENDMDL
MODEL 6
REMARK VINA RESULT:    -3.826     17.322     19.508
REMARK INTER + INTRA:          -8.514
REMARK INTER:                  -6.516
REMARK INTRA:                  -1.998
REMARK UNBOUND:                -1.556
REMARK SMILES CCCCCCCCCCCCCCCC(=O)[O-]
REMARK SMILES IDX 9 1 10 2 11 3 12 4 13 5 14 6 15 7 16 8 17 9 18 10 8 11 7 12
REMARK SMILES IDX 6 13 5 14 4 15 3 16 2 17 1 18
REMARK H PARENT
REMARK Flexibility Score: inf
ROOT
ATOM      1  C   UNL     1      30.465   7.141  38.895  1.00  0.00     0.000 C 
ENDROOT
BRANCH   1   2
ATOM      2  C   UNL     1      30.408   5.755  38.235  1.00  0.00     0.000 C 
BRANCH   2   3
ATOM      3  C   UNL     1      30.342   4.611  39.259  1.00  0.00     0.000 C 
BRANCH   3   4
ATOM      4  C   UNL     1      28.988   4.550  39.989  1.00  0.00     0.000 C 
BRANCH   4   5
ATOM      5  C   UNL     1      29.136   4.416  41.514  1.00  0.00     0.000 C 
BRANCH   5   6
ATOM      6  C   UNL     1      30.050   5.460  42.185  1.00  0.00     0.006 C 
BRANCH   6   7
ATOM      7  C   UNL     1      31.169   4.852  43.051  1.00  0.00     0.053 C 
BRANCH   7   8
ATOM      8  C   UNL     1      31.567   5.749  44.186  1.00  0.00     0.041 C 
ATOM      9  O   UNL     1      31.930   6.933  43.962  1.00  0.00    -0.550 OA
ATOM     10  O   UNL     1      31.579   5.263  45.488  1.00  0.00    -0.550 OA
ENDBRANCH   7   8
ENDBRANCH   6   7
ENDBRANCH   5   6
ENDBRANCH   4   5
ENDBRANCH   3   4
ENDBRANCH   2   3
ENDBRANCH   1   2
BRANCH   1  11
ATOM     11  C   UNL     1      31.598   7.986  38.301  1.00  0.00     0.000 C 
BRANCH  11  12
ATOM     12  C   UNL     1      32.958   7.567  38.878  1.00  0.00    -0.000 C 
BRANCH  12  13
ATOM     13  C   UNL     1      32.937   7.417  40.410  1.00  0.00    -0.000 C 
BRANCH  13  14
ATOM     14  C   UNL     1      33.791   6.257  40.962  1.00  0.00    -0.000 C 
BRANCH  14  15
ATOM     15  C   UNL     1      34.080   5.122  39.961  1.00  0.00    -0.000 C 
BRANCH  15  16
ATOM     16  C   UNL     1      35.334   4.285  40.273  1.00  0.00    -0.000 C 
BRANCH  16  17
ATOM     17  C   UNL     1      36.282   4.164  39.072  1.00  0.00    -0.003 C 
ATOM     18  C   UNL     1      36.330   5.466  38.277  1.00  0.00     0.004 C 
ENDBRANCH  16  17
ENDBRANCH  15  16
ENDBRANCH  14  15
ENDBRANCH  13  14
ENDBRANCH  12  13
ENDBRANCH  11  12
ENDBRANCH   1  11
TORSDOF 14
ENDMDL
MODEL 7
REMARK VINA RESULT:    -3.825     15.345     17.500
REMARK INTER + INTRA:          -8.511
REMARK INTER:                  -7.258
REMARK INTRA:                  -1.253
REMARK UNBOUND:                -1.556
REMARK SMILES CCCCCCCCCCCCCCCC(=O)[O-]
REMARK SMILES IDX 9 1 10 2 11 3 12 4 13 5 14 6 15 7 16 8 17 9 18 10 8 11 7 12
REMARK SMILES IDX 6 13 5 14 4 15 3 16 2 17 1 18
REMARK H PARENT
REMARK Flexibility Score: inf
ROOT
ATOM      1  C   UNL     1      30.095   4.864  43.006  1.00  0.00     0.000 C 
ENDROOT
BRANCH   1   2
ATOM      2  C   UNL     1      29.349   6.076  42.428  1.00  0.00     0.000 C 
BRANCH   2   3
ATOM      3  C   UNL     1      28.252   5.679  41.427  1.00  0.00     0.000 C 
BRANCH   3   4
ATOM      4  C   UNL     1      28.426   4.242  40.902  1.00  0.00     0.000 C 
BRANCH   4   5
ATOM      5  C   UNL     1      28.800   4.190  39.411  1.00  0.00     0.000 C 
BRANCH   5   6
ATOM      6  C   UNL     1      30.272   4.512  39.086  1.00  0.00     0.006 C 
BRANCH   6   7
ATOM      7  C   UNL     1      30.479   5.866  38.382  1.00  0.00     0.053 C 
BRANCH   7   8
ATOM      8  C   UNL     1      31.259   6.835  39.220  1.00  0.00     0.041 C 
ATOM      9  O   UNL     1      31.202   8.069  38.980  1.00  0.00    -0.550 OA
ATOM     10  O   UNL     1      32.081   6.372  40.240  1.00  0.00    -0.550 OA
ENDBRANCH   7   8
ENDBRANCH   6   7
ENDBRANCH   5   6
ENDBRANCH   4   5
ENDBRANCH   3   4
ENDBRANCH   2   3
ENDBRANCH   1   2
BRANCH   1  11
ATOM     11  C   UNL     1      31.362   5.302  43.750  1.00  0.00     0.000 C 
BRANCH  11  12
ATOM     12  C   UNL     1      31.176   5.184  45.271  1.00  0.00    -0.000 C 
BRANCH  12  13
ATOM     13  C   UNL     1      30.877   6.536  45.943  1.00  0.00    -0.000 C 
BRANCH  13  14
ATOM     14  C   UNL     1      30.748   6.485  47.479  1.00  0.00    -0.000 C 
BRANCH  14  15
ATOM     15  C   UNL     1      29.497   5.757  48.007  1.00  0.00    -0.000 C 
BRANCH  15  16
ATOM     16  C   UNL     1      29.740   4.849  49.226  1.00  0.00    -0.000 C 
BRANCH  16  17
ATOM     17  C   UNL     1      31.184   4.916  49.740  1.00  0.00    -0.003 C 
ATOM     18  C   UNL     1      31.904   3.587  49.529  1.00  0.00     0.004 C 
ENDBRANCH  16  17
ENDBRANCH  15  16
ENDBRANCH  14  15
ENDBRANCH  13  14
ENDBRANCH  12  13
ENDBRANCH  11  12
ENDBRANCH   1  11
TORSDOF 14
ENDMDL
MODEL 8
REMARK VINA RESULT:    -3.781     15.483     17.765
REMARK INTER + INTRA:          -8.432
REMARK INTER:                  -7.351
REMARK INTRA:                  -1.081
REMARK UNBOUND:                -1.556
REMARK SMILES CCCCCCCCCCCCCCCC(=O)[O-]
REMARK SMILES IDX 9 1 10 2 11 3 12 4 13 5 14 6 15 7 16 8 17 9 18 10 8 11 7 12
REMARK SMILES IDX 6 13 5 14 4 15 3 16 2 17 1 18
REMARK H PARENT
REMARK Flexibility Score: inf
ROOT
ATOM      1  C   UNL     1      28.153   4.484  42.969  1.00  0.00     0.000 C 
ENDROOT
BRANCH   1   2
ATOM      2  C   UNL     1      29.197   4.235  41.869  1.00  0.00     0.000 C 
BRANCH   2   3
ATOM      3  C   UNL     1      29.176   5.313  40.774  1.00  0.00     0.000 C 
BRANCH   3   4
ATOM      4  C   UNL     1      30.459   6.163  40.760  1.00  0.00     0.000 C 
BRANCH   4   5
ATOM      5  C   UNL     1      31.721   5.350  41.095  1.00  0.00     0.000 C 
BRANCH   5   6
ATOM      6  C   UNL     1      32.827   5.371  40.022  1.00  0.00     0.006 C 
BRANCH   6   7
ATOM      7  C   UNL     1      34.255   5.254  40.588  1.00  0.00     0.053 C 
BRANCH   7   8
ATOM      8  C   UNL     1      35.274   4.983  39.521  1.00  0.00     0.041 C 
ATOM      9  O   UNL     1      35.798   5.936  38.888  1.00  0.00    -0.550 OA
ATOM     10  O   UNL     1      35.614   3.675  39.198  1.00  0.00    -0.550 OA
ENDBRANCH   7   8
ENDBRANCH   6   7
ENDBRANCH   5   6
ENDBRANCH   4   5
ENDBRANCH   3   4
ENDBRANCH   2   3
ENDBRANCH   1   2
BRANCH   1  11
ATOM     11  C   UNL     1      28.816   4.551  44.350  1.00  0.00     0.000 C 
BRANCH  11  12
ATOM     12  C   UNL     1      30.309   4.201  44.262  1.00  0.00    -0.000 C 
BRANCH  12  13
ATOM     13  C   UNL     1      31.163   4.965  45.290  1.00  0.00    -0.000 C 
BRANCH  13  14
ATOM     14  C   UNL     1      30.467   6.178  45.941  1.00  0.00    -0.000 C 
BRANCH  14  15
ATOM     15  C   UNL     1      30.149   6.025  47.441  1.00  0.00    -0.000 C 
BRANCH  15  16
ATOM     16  C   UNL     1      31.348   5.633  48.322  1.00  0.00    -0.000 C 
BRANCH  16  17
ATOM     17  C   UNL     1      30.949   4.751  49.513  1.00  0.00    -0.003 C 
ATOM     18  C   UNL     1      31.935   3.602  49.701  1.00  0.00     0.004 C 
ENDBRANCH  16  17
ENDBRANCH  15  16
ENDBRANCH  14  15
ENDBRANCH  13  14
ENDBRANCH  12  13
ENDBRANCH  11  12
ENDBRANCH   1  11
TORSDOF 14
ENDMDL
MODEL 9
REMARK VINA RESULT:    -3.775      2.309      5.868
REMARK INTER + INTRA:          -8.421
REMARK INTER:                  -6.240
REMARK INTRA:                  -2.181
REMARK UNBOUND:                -1.556
REMARK SMILES CCCCCCCCCCCCCCCC(=O)[O-]
REMARK SMILES IDX 9 1 10 2 11 3 12 4 13 5 14 6 15 7 16 8 17 9 18 10 8 11 7 12
REMARK SMILES IDX 6 13 5 14 4 15 3 16 2 17 1 18
REMARK H PARENT
REMARK Flexibility Score: inf
ROOT
ATOM      1  C   UNL     1      20.740  -5.272  56.190  1.00  0.00     0.000 C 
ENDROOT
BRANCH   1   2
ATOM      2  C   UNL     1      20.448  -4.499  54.895  1.00  0.00     0.000 C 
BRANCH   2   3
ATOM      3  C   UNL     1      21.061  -5.166  53.654  1.00  0.00     0.000 C 
BRANCH   3   4
ATOM      4  C   UNL     1      22.456  -5.756  53.930  1.00  0.00     0.000 C 
BRANCH   4   5
ATOM      5  C   UNL     1      23.598  -4.842  53.454  1.00  0.00     0.000 C 
BRANCH   5   6
ATOM      6  C   UNL     1      24.343  -5.317  52.191  1.00  0.00     0.006 C 
BRANCH   6   7
ATOM      7  C   UNL     1      23.586  -5.050  50.876  1.00  0.00     0.053 C 
BRANCH   7   8
ATOM      8  C   UNL     1      23.147  -3.622  50.747  1.00  0.00     0.041 C 
ATOM      9  O   UNL     1      21.942  -3.348  50.511  1.00  0.00    -0.550 OA
ATOM     10  O   UNL     1      24.078  -2.594  50.846  1.00  0.00    -0.550 OA
ENDBRANCH   7   8
ENDBRANCH   6   7
ENDBRANCH   5   6
ENDBRANCH   4   5
ENDBRANCH   3   4
ENDBRANCH   2   3
ENDBRANCH   1   2
BRANCH   1  11
ATOM     11  C   UNL     1      21.023  -4.310  57.351  1.00  0.00     0.000 C 
BRANCH  11  12
ATOM     12  C   UNL     1      22.529  -4.228  57.642  1.00  0.00    -0.000 C 
BRANCH  12  13
ATOM     13  C   UNL     1      23.080  -2.794  57.541  1.00  0.00    -0.000 C 
BRANCH  13  14
ATOM     14  C   UNL     1      23.420  -2.327  56.111  1.00  0.00    -0.000 C 
BRANCH  14  15
ATOM     15  C   UNL     1      22.381  -1.393  55.462  1.00  0.00    -0.000 C 
BRANCH  15  16
ATOM     16  C   UNL     1      21.571  -0.535  56.451  1.00  0.00    -0.000 C 
BRANCH  16  17
ATOM     17  C   UNL     1      20.112  -0.991  56.579  1.00  0.00    -0.003 C 
ATOM     18  C   UNL     1      19.449  -1.102  55.209  1.00  0.00     0.004 C 
ENDBRANCH  16  17
ENDBRANCH  15  16
ENDBRANCH  14  15
ENDBRANCH  13  14
ENDBRANCH  12  13
ENDBRANCH  11  12
ENDBRANCH   1  11
TORSDOF 14
ENDMDL
